MODEL 1
REMARK VINA RESULT:      -4.6      0.000      0.000
REMARK  1 active torsions:
REMARK  status: ('A' for Active; 'I' for Inactive)
REMARK    1  A    between atoms: C3_3  and  C7_7 
ROOT
HETATM    1  C1  UNL     1     -36.368  14.465  -3.910  1.00 20.00     0.259 C 
HETATM    2  C4  UNL     1     -35.488  13.989  -5.036  1.00 20.00     0.111 C 
HETATM    3  C5  UNL     1     -34.157  13.487  -4.500  1.00 20.00     0.013 C 
HETATM    4  C6  UNL     1     -33.522  14.457  -3.506  1.00 20.00     0.037 C 
HETATM    5  C7  UNL     1     -34.394  15.690  -3.277  1.00 20.00     0.154 C 
HETATM    6  O8  UNL     1     -37.553  14.164  -3.819  1.00 20.00    -0.265 OA
HETATM    7  O9  UNL     1     -35.754  15.287  -3.016  1.00 20.00    -0.312 OA
ENDROOT
BRANCH   5   8
HETATM    8  C3  UNL     1     -33.916  16.496  -2.114  1.00 20.00    -0.005 C 
HETATM    9  C2  UNL     1     -34.580  16.612  -0.959  1.00 20.00     0.009 C 
ENDBRANCH   5   8
TORSDOF 1
ENDMDL
MODEL 2
REMARK VINA RESULT:      -4.5     12.094     12.544
REMARK  1 active torsions:
REMARK  status: ('A' for Active; 'I' for Inactive)
REMARK    1  A    between atoms: C3_3  and  C7_7 
ROOT
HETATM    1  C1  UNL     1     -34.836   4.462   4.950  1.00 20.00     0.259 C 
HETATM    2  C4  UNL     1     -34.260   4.778   6.305  1.00 20.00     0.111 C 
HETATM    3  C5  UNL     1     -34.214   6.281   6.531  1.00 20.00     0.013 C 
HETATM    4  C6  UNL     1     -33.612   7.033   5.345  1.00 20.00     0.037 C 
HETATM    5  C7  UNL     1     -33.222   6.088   4.210  1.00 20.00     0.154 C 
HETATM    6  O8  UNL     1     -35.688   3.597   4.775  1.00 20.00    -0.265 OA
HETATM    7  O9  UNL     1     -34.312   5.188   3.925  1.00 20.00    -0.312 OA
ENDROOT
BRANCH   5   8
HETATM    8  C3  UNL     1     -32.896   6.835   2.959  1.00 20.00    -0.005 C 
HETATM    9  C2  UNL     1     -31.843   7.649   2.824  1.00 20.00     0.009 C 
ENDBRANCH   5   8
TORSDOF 1
ENDMDL
MODEL 3
REMARK VINA RESULT:      -4.5      1.632      1.822
REMARK  1 active torsions:
REMARK  status: ('A' for Active; 'I' for Inactive)
REMARK    1  A    between atoms: C3_3  and  C7_7 
ROOT
HETATM    1  C1  UNL     1     -34.765  13.788  -4.576  1.00 20.00     0.259 C 
HETATM    2  C4  UNL     1     -35.045  14.666  -5.767  1.00 20.00     0.111 C 
HETATM    3  C5  UNL     1     -33.936  15.689  -5.952  1.00 20.00     0.013 C 
HETATM    4  C6  UNL     1     -33.577  16.405  -4.651  1.00 20.00     0.037 C 
HETATM    5  C7  UNL     1     -34.410  15.900  -3.474  1.00 20.00     0.154 C 
HETATM    6  O8  UNL     1     -34.887  12.568  -4.605  1.00 20.00    -0.265 OA
HETATM    7  O9  UNL     1     -34.399  14.458  -3.449  1.00 20.00    -0.312 OA
ENDROOT
BRANCH   5   8
HETATM    8  C3  UNL     1     -33.877  16.392  -2.169  1.00 20.00    -0.005 C 
HETATM    9  C2  UNL     1     -34.621  16.560  -1.070  1.00 20.00     0.009 C 
ENDBRANCH   5   8
TORSDOF 1
ENDMDL
MODEL 4
REMARK VINA RESULT:      -4.3     11.332     11.764
REMARK  1 active torsions:
REMARK  status: ('A' for Active; 'I' for Inactive)
REMARK    1  A    between atoms: C3_3  and  C7_7 
ROOT
HETATM    1  C1  UNL     1     -34.140   6.130   5.551  1.00 20.00     0.259 C 
HETATM    2  C4  UNL     1     -35.270   5.558   4.736  1.00 20.00     0.111 C 
HETATM    3  C5  UNL     1     -34.732   4.709   3.595  1.00 20.00     0.013 C 
HETATM    4  C6  UNL     1     -33.621   5.411   2.817  1.00 20.00     0.037 C 
HETATM    5  C7  UNL     1     -33.307   6.792   3.391  1.00 20.00     0.154 C 
HETATM    6  O8  UNL     1     -34.129   6.112   6.778  1.00 20.00    -0.265 OA
HETATM    7  O9  UNL     1     -33.144   6.702   4.821  1.00 20.00    -0.312 OA
ENDROOT
BRANCH   5   8
HETATM    8  C3  UNL     1     -32.051   7.357   2.814  1.00 20.00    -0.005 C 
HETATM    9  C2  UNL     1     -32.019   8.333   1.901  1.00 20.00     0.009 C 
ENDBRANCH   5   8
TORSDOF 1
ENDMDL
MODEL 5
REMARK VINA RESULT:      -4.3     11.442     11.861
REMARK  1 active torsions:
REMARK  status: ('A' for Active; 'I' for Inactive)
REMARK    1  A    between atoms: C3_3  and  C7_7 
ROOT
HETATM    1  C1  UNL     1     -32.604   6.774   3.148  1.00 20.00     0.259 C 
HETATM    2  C4  UNL     1     -33.042   5.538   2.408  1.00 20.00     0.111 C 
HETATM    3  C5  UNL     1     -34.530   5.295   2.605  1.00 20.00     0.013 C 
HETATM    4  C6  UNL     1     -34.951   5.394   4.070  1.00 20.00     0.037 C 
HETATM    5  C7  UNL     1     -33.772   5.735   4.979  1.00 20.00     0.154 C 
HETATM    6  O8  UNL     1     -31.883   7.630   2.645  1.00 20.00    -0.265 OA
HETATM    7  O9  UNL     1     -33.040   6.852   4.435  1.00 20.00    -0.312 OA
ENDROOT
BRANCH   5   8
HETATM    8  C3  UNL     1     -34.224   6.101   6.355  1.00 20.00    -0.005 C 
HETATM    9  C2  UNL     1     -33.824   7.198   7.008  1.00 20.00     0.009 C 
ENDBRANCH   5   8
TORSDOF 1
ENDMDL
MODEL 6
REMARK VINA RESULT:      -4.2     12.351     12.917
REMARK  1 active torsions:
REMARK  status: ('A' for Active; 'I' for Inactive)
REMARK    1  A    between atoms: C3_3  and  C7_7 
ROOT
HETATM    1  C1  UNL     1     -33.878   6.459   6.249  1.00 20.00     0.259 C 
HETATM    2  C4  UNL     1     -35.030   5.577   6.654  1.00 20.00     0.111 C 
HETATM    3  C5  UNL     1     -34.877   4.188   6.054  1.00 20.00     0.013 C 
HETATM    4  C6  UNL     1     -34.542   4.227   4.563  1.00 20.00     0.037 C 
HETATM    5  C7  UNL     1     -34.422   5.659   4.044  1.00 20.00     0.154 C 
HETATM    6  O8  UNL     1     -33.277   7.174   7.044  1.00 20.00    -0.265 OA
HETATM    7  O9  UNL     1     -33.576   6.429   4.923  1.00 20.00    -0.312 OA
ENDROOT
BRANCH   5   8
HETATM    8  C3  UNL     1     -33.830   5.700   2.674  1.00 20.00    -0.005 C 
HETATM    9  C2  UNL     1     -32.575   6.084   2.410  1.00 20.00     0.009 C 
ENDBRANCH   5   8
TORSDOF 1
ENDMDL
MODEL 7
REMARK VINA RESULT:      -4.1      2.512      3.505
REMARK  1 active torsions:
REMARK  status: ('A' for Active; 'I' for Inactive)
REMARK    1  A    between atoms: C3_3  and  C7_7 
ROOT
HETATM    1  C1  UNL     1     -34.475  13.601  -4.611  1.00 20.00     0.259 C 
HETATM    2  C4  UNL     1     -33.272  14.018  -3.807  1.00 20.00     0.111 C 
HETATM    3  C5  UNL     1     -33.340  15.500  -3.470  1.00 20.00     0.013 C 
HETATM    4  C6  UNL     1     -33.676  16.362  -4.686  1.00 20.00     0.037 C 
HETATM    5  C7  UNL     1     -33.884  15.518  -5.943  1.00 20.00     0.154 C 
HETATM    6  O8  UNL     1     -35.119  12.586  -4.367  1.00 20.00    -0.265 OA
HETATM    7  O9  UNL     1     -34.775  14.421  -5.655  1.00 20.00    -0.312 OA
ENDROOT
BRANCH   5   8
HETATM    8  C3  UNL     1     -34.477  16.320  -7.054  1.00 20.00    -0.005 C 
HETATM    9  C2  UNL     1     -34.450  17.656  -7.111  1.00 20.00     0.009 C 
ENDBRANCH   5   8
TORSDOF 1
ENDMDL
MODEL 8
REMARK VINA RESULT:      -4.0      1.660      2.044
REMARK  1 active torsions:
REMARK  status: ('A' for Active; 'I' for Inactive)
REMARK    1  A    between atoms: C3_3  and  C7_7 
ROOT
HETATM    1  C1  UNL     1     -35.931  14.374  -4.114  1.00 20.00     0.259 C 
HETATM    2  C4  UNL     1     -34.905  13.331  -4.472  1.00 20.00     0.111 C 
HETATM    3  C5  UNL     1     -33.596  13.594  -3.744  1.00 20.00     0.013 C 
HETATM    4  C6  UNL     1     -33.149  15.051  -3.850  1.00 20.00     0.037 C 
HETATM    5  C7  UNL     1     -34.142  15.894  -4.648  1.00 20.00     0.154 C 
HETATM    6  O8  UNL     1     -37.089  14.095  -3.824  1.00 20.00    -0.265 OA
HETATM    7  O9  UNL     1     -35.482  15.657  -4.170  1.00 20.00    -0.312 OA
ENDROOT
BRANCH   5   8
HETATM    8  C3  UNL     1     -33.853  17.354  -4.519  1.00 20.00    -0.005 C 
HETATM    9  C2  UNL     1     -33.610  18.164  -5.555  1.00 20.00     0.009 C 
ENDBRANCH   5   8
TORSDOF 1
ENDMDL
MODEL 9
REMARK VINA RESULT:      -4.0      1.549      1.589
REMARK  1 active torsions:
REMARK  status: ('A' for Active; 'I' for Inactive)
REMARK    1  A    between atoms: C3_3  and  C7_7 
ROOT
HETATM    1  C1  UNL     1     -35.486  15.499  -5.625  1.00 20.00     0.259 C 
HETATM    2  C4  UNL     1     -34.767  14.221  -5.969  1.00 20.00     0.111 C 
HETATM    3  C5  UNL     1     -34.697  13.303  -4.760  1.00 20.00     0.013 C 
HETATM    4  C6  UNL     1     -34.227  14.028  -3.500  1.00 20.00     0.037 C 
HETATM    5  C7  UNL     1     -33.961  15.510  -3.761  1.00 20.00     0.154 C 
HETATM    6  O8  UNL     1     -36.351  15.990  -6.342  1.00 20.00    -0.265 OA
HETATM    7  O9  UNL     1     -35.074  16.090  -4.470  1.00 20.00    -0.312 OA
ENDROOT
BRANCH   5   8
HETATM    8  C3  UNL     1     -33.771  16.269  -2.490  1.00 20.00    -0.005 C 
HETATM    9  C2  UNL     1     -34.662  16.295  -1.492  1.00 20.00     0.009 C 
ENDBRANCH   5   8
TORSDOF 1
ENDMDL
