MODEL 1
REMARK VINA RESULT:      -5.0      0.000      0.000
REMARK  0 active torsions:
REMARK  status: ('A' for Active; 'I' for Inactive)
ROOT
HETATM    1  C1  UNL     1     -33.885  17.181  -5.659  1.00 20.00    -0.029 C 
HETATM    2  C2  UNL     1     -33.774  16.603  -4.444  1.00 20.00    -0.014 C 
HETATM    3  C3  UNL     1     -34.750  14.139  -4.762  1.00 20.00     0.143 C 
HETATM    4  C4  UNL     1     -34.243  16.576  -6.997  1.00 20.00     0.032 C 
HETATM    5  C5  UNL     1     -35.432  14.162  -7.363  1.00 20.00     0.018 A 
HETATM    6  C6  UNL     1     -35.400  14.674  -5.963  1.00 20.00     0.061 A 
HETATM    7  C7  UNL     1     -34.337  15.099  -6.957  1.00 20.00     0.001 A 
HETATM    8  C8  UNL     1     -33.960  15.173  -3.915  1.00 20.00     0.031 C 
HETATM    9  C9  UNL     1     -32.561  14.587  -3.659  1.00 20.00     0.027 C 
HETATM   10  C10 UNL     1     -34.721  15.268  -2.576  1.00 20.00     0.027 C 
HETATM   11  O11 UNL     1     -34.868  12.956  -4.469  1.00 20.00    -0.296 OA
ENDROOT
TORSDOF 0
ENDMDL
MODEL 2
REMARK VINA RESULT:      -4.8      1.529      2.914
REMARK  0 active torsions:
REMARK  status: ('A' for Active; 'I' for Inactive)
ROOT
HETATM    1  C1  UNL     1     -34.641  15.053  -7.078  1.00 20.00    -0.029 C 
HETATM    2  C2  UNL     1     -34.609  14.332  -5.937  1.00 20.00    -0.014 C 
HETATM    3  C3  UNL     1     -33.848  16.061  -4.052  1.00 20.00     0.143 C 
HETATM    4  C4  UNL     1     -34.523  16.544  -7.293  1.00 20.00     0.032 C 
HETATM    5  C5  UNL     1     -33.557  18.321  -5.480  1.00 20.00     0.018 A 
HETATM    6  C6  UNL     1     -33.350  16.879  -5.163  1.00 20.00     0.061 A 
HETATM    7  C7  UNL     1     -34.518  17.311  -6.026  1.00 20.00     0.001 A 
HETATM    8  C8  UNL     1     -34.437  14.682  -4.451  1.00 20.00     0.031 C 
HETATM    9  C9  UNL     1     -35.818  14.559  -3.784  1.00 20.00     0.027 C 
HETATM   10  C10 UNL     1     -33.483  13.638  -3.835  1.00 20.00     0.027 C 
HETATM   11  O11 UNL     1     -33.763  16.466  -2.899  1.00 20.00    -0.296 OA
ENDROOT
TORSDOF 0
ENDMDL
MODEL 3
REMARK VINA RESULT:      -4.7      1.275      1.310
REMARK  0 active torsions:
REMARK  status: ('A' for Active; 'I' for Inactive)
ROOT
HETATM    1  C1  UNL     1     -33.438  16.355  -5.666  1.00 20.00    -0.029 C 
HETATM    2  C2  UNL     1     -33.568  15.910  -4.398  1.00 20.00    -0.014 C 
HETATM    3  C3  UNL     1     -35.985  14.781  -4.309  1.00 20.00     0.143 C 
HETATM    4  C4  UNL     1     -34.304  16.108  -6.879  1.00 20.00     0.032 C 
HETATM    5  C5  UNL     1     -36.848  15.159  -6.827  1.00 20.00     0.018 A 
HETATM    6  C6  UNL     1     -36.271  15.566  -5.514  1.00 20.00     0.061 A 
HETATM    7  C7  UNL     1     -35.364  15.103  -6.637  1.00 20.00     0.001 A 
HETATM    8  C8  UNL     1     -34.590  15.023  -3.672  1.00 20.00     0.031 C 
HETATM    9  C9  UNL     1     -33.938  13.647  -3.454  1.00 20.00     0.027 C 
HETATM   10  C10 UNL     1     -34.876  15.670  -2.301  1.00 20.00     0.027 C 
HETATM   11  O11 UNL     1     -36.826  14.017  -3.853  1.00 20.00    -0.296 OA
ENDROOT
TORSDOF 0
ENDMDL
MODEL 4
REMARK VINA RESULT:      -4.7      1.852      3.942
REMARK  0 active torsions:
REMARK  status: ('A' for Active; 'I' for Inactive)
ROOT
HETATM    1  C1  UNL     1     -34.431  13.274  -4.819  1.00 20.00    -0.029 C 
HETATM    2  C2  UNL     1     -35.005  14.004  -5.799  1.00 20.00    -0.014 C 
HETATM    3  C3  UNL     1     -35.635  16.328  -4.648  1.00 20.00     0.143 C 
HETATM    4  C4  UNL     1     -33.989  13.681  -3.432  1.00 20.00     0.032 C 
HETATM    5  C5  UNL     1     -34.769  15.935  -2.133  1.00 20.00     0.018 A 
HETATM    6  C6  UNL     1     -35.516  15.602  -3.379  1.00 20.00     0.061 A 
HETATM    7  C7  UNL     1     -34.083  15.141  -3.201  1.00 20.00     0.001 A 
HETATM    8  C8  UNL     1     -35.447  15.469  -5.927  1.00 20.00     0.031 C 
HETATM    9  C9  UNL     1     -34.419  16.187  -6.818  1.00 20.00     0.027 C 
HETATM   10  C10 UNL     1     -36.821  15.481  -6.630  1.00 20.00     0.027 C 
HETATM   11  O11 UNL     1     -35.890  17.526  -4.655  1.00 20.00    -0.296 OA
ENDROOT
TORSDOF 0
ENDMDL
MODEL 5
REMARK VINA RESULT:      -4.7      2.399      4.108
REMARK  0 active torsions:
REMARK  status: ('A' for Active; 'I' for Inactive)
ROOT
HETATM    1  C1  UNL     1     -34.337  13.636  -4.137  1.00 20.00    -0.029 C 
HETATM    2  C2  UNL     1     -35.609  13.954  -4.460  1.00 20.00    -0.014 C 
HETATM    3  C3  UNL     1     -36.091  16.248  -3.185  1.00 20.00     0.143 C 
HETATM    4  C4  UNL     1     -33.281  14.448  -3.424  1.00 20.00     0.032 C 
HETATM    5  C5  UNL     1     -33.747  16.674  -1.938  1.00 20.00     0.018 A 
HETATM    6  C6  UNL     1     -34.948  15.887  -2.340  1.00 20.00     0.061 A 
HETATM    7  C7  UNL     1     -33.692  15.851  -3.188  1.00 20.00     0.001 A 
HETATM    8  C8  UNL     1     -36.492  15.192  -4.250  1.00 20.00     0.031 C 
HETATM    9  C9  UNL     1     -36.601  15.919  -5.602  1.00 20.00     0.027 C 
HETATM   10  C10 UNL     1     -37.891  14.699  -3.827  1.00 20.00     0.027 C 
HETATM   11  O11 UNL     1     -36.677  17.310  -3.014  1.00 20.00    -0.296 OA
ENDROOT
TORSDOF 0
ENDMDL
MODEL 6
REMARK VINA RESULT:      -4.6      2.617      3.306
REMARK  0 active torsions:
REMARK  status: ('A' for Active; 'I' for Inactive)
ROOT
HETATM    1  C1  UNL     1     -33.516  14.385  -3.776  1.00 20.00    -0.029 C 
HETATM    2  C2  UNL     1     -33.409  15.559  -3.118  1.00 20.00    -0.014 C 
HETATM    3  C3  UNL     1     -35.840  16.651  -3.257  1.00 20.00     0.143 C 
HETATM    4  C4  UNL     1     -34.740  13.666  -4.293  1.00 20.00     0.032 C 
HETATM    5  C5  UNL     1     -37.187  14.789  -4.652  1.00 20.00     0.018 A 
HETATM    6  C6  UNL     1     -36.066  15.731  -4.376  1.00 20.00     0.061 A 
HETATM    7  C7  UNL     1     -36.007  14.304  -3.868  1.00 20.00     0.001 A 
HETATM    8  C8  UNL     1     -34.413  16.621  -2.646  1.00 20.00     0.031 C 
HETATM    9  C9  UNL     1     -34.567  16.468  -1.123  1.00 20.00     0.027 C 
HETATM   10  C10 UNL     1     -33.808  18.005  -2.957  1.00 20.00     0.027 C 
HETATM   11  O11 UNL     1     -36.736  17.395  -2.877  1.00 20.00    -0.296 OA
ENDROOT
TORSDOF 0
ENDMDL
MODEL 7
REMARK VINA RESULT:      -4.6      2.004      2.900
REMARK  0 active torsions:
REMARK  status: ('A' for Active; 'I' for Inactive)
ROOT
HETATM    1  C1  UNL     1     -36.874  16.001  -3.530  1.00 20.00    -0.029 C 
HETATM    2  C2  UNL     1     -35.854  16.710  -3.001  1.00 20.00    -0.014 C 
HETATM    3  C3  UNL     1     -33.680  15.227  -3.449  1.00 20.00     0.143 C 
HETATM    4  C4  UNL     1     -36.854  14.766  -4.400  1.00 20.00     0.032 C 
HETATM    5  C5  UNL     1     -34.730  13.106  -4.725  1.00 20.00     0.018 A 
HETATM    6  C6  UNL     1     -34.616  14.113  -3.632  1.00 20.00     0.061 A 
HETATM    7  C7  UNL     1     -35.491  14.390  -4.839  1.00 20.00     0.001 A 
HETATM    8  C8  UNL     1     -34.324  16.578  -3.035  1.00 20.00     0.031 C 
HETATM    9  C9  UNL     1     -33.787  17.657  -3.992  1.00 20.00     0.027 C 
HETATM   10  C10 UNL     1     -33.800  16.859  -1.612  1.00 20.00     0.027 C 
HETATM   11  O11 UNL     1     -32.476  15.056  -3.598  1.00 20.00    -0.296 OA
ENDROOT
TORSDOF 0
ENDMDL
MODEL 8
REMARK VINA RESULT:      -4.6      1.789      3.867
REMARK  0 active torsions:
REMARK  status: ('A' for Active; 'I' for Inactive)
ROOT
HETATM    1  C1  UNL     1     -36.738  16.365  -3.758  1.00 20.00    -0.029 C 
HETATM    2  C2  UNL     1     -36.132  15.517  -4.616  1.00 20.00    -0.014 C 
HETATM    3  C3  UNL     1     -33.619  15.328  -3.738  1.00 20.00     0.143 C 
HETATM    4  C4  UNL     1     -36.253  16.934  -2.444  1.00 20.00     0.032 C 
HETATM    5  C5  UNL     1     -33.673  16.955  -1.598  1.00 20.00     0.018 A 
HETATM    6  C6  UNL     1     -33.894  16.578  -3.023  1.00 20.00     0.061 A 
HETATM    7  C7  UNL     1     -34.978  16.334  -1.991  1.00 20.00     0.001 A 
HETATM    8  C8  UNL     1     -34.769  14.810  -4.643  1.00 20.00     0.031 C 
HETATM    9  C9  UNL     1     -35.006  13.332  -4.288  1.00 20.00     0.027 C 
HETATM   10  C10 UNL     1     -34.225  14.904  -6.084  1.00 20.00     0.027 C 
HETATM   11  O11 UNL     1     -32.533  14.774  -3.620  1.00 20.00    -0.296 OA
ENDROOT
TORSDOF 0
ENDMDL
MODEL 9
REMARK VINA RESULT:      -4.6      1.871      2.968
REMARK  0 active torsions:
REMARK  status: ('A' for Active; 'I' for Inactive)
ROOT
HETATM    1  C1  UNL     1     -34.438  13.646  -3.710  1.00 20.00    -0.029 C 
HETATM    2  C2  UNL     1     -34.530  14.859  -3.126  1.00 20.00    -0.014 C 
HETATM    3  C3  UNL     1     -34.709  16.587  -5.153  1.00 20.00     0.143 C 
HETATM    4  C4  UNL     1     -34.624  13.242  -5.155  1.00 20.00     0.032 C 
HETATM    5  C5  UNL     1     -34.603  14.939  -7.275  1.00 20.00     0.018 A 
HETATM    6  C6  UNL     1     -34.150  15.507  -5.973  1.00 20.00     0.061 A 
HETATM    7  C7  UNL     1     -35.126  14.347  -6.003  1.00 20.00     0.001 A 
HETATM    8  C8  UNL     1     -34.833  16.276  -3.637  1.00 20.00     0.031 C 
HETATM    9  C9  UNL     1     -36.269  16.625  -3.211  1.00 20.00     0.027 C 
HETATM   10  C10 UNL     1     -33.850  17.241  -2.942  1.00 20.00     0.027 C 
HETATM   11  O11 UNL     1     -35.021  17.655  -5.664  1.00 20.00    -0.296 OA
ENDROOT
TORSDOF 0
ENDMDL
