MODEL 1
REMARK VINA RESULT:      -5.4      0.000      0.000
REMARK  1 active torsions:
REMARK  status: ('A' for Active; 'I' for Inactive)
REMARK    1  A    between atoms: C4_4  and  C11_11 
ROOT
HETATM    1  C1  UNL     1     -33.808  17.589  -2.703  1.00 20.00     0.027 A 
HETATM    2  C2  UNL     1     -34.605  16.742  -0.599  1.00 20.00     0.034 A 
HETATM    3  C3  UNL     1     -33.520  18.778  -2.055  1.00 20.00     0.117 A 
HETATM    4  C4  UNL     1     -34.361  16.556  -1.955  1.00 20.00    -0.047 A 
HETATM    5  C5  UNL     1     -34.282  17.970  -0.044  1.00 20.00     0.030 A 
HETATM    6  C12 UNL     1     -34.530  18.205   1.409  1.00 20.00     0.070 C 
HETATM    7  N13 UNL     1     -33.744  18.997  -0.740  1.00 20.00    -0.266 NA
ENDROOT
BRANCH   4   8
HETATM    8  C11 UNL     1     -34.696  15.230  -2.616  1.00 20.00     0.041 C 
HETATM    9  C7  UNL     1     -36.046  15.248  -3.297  1.00 20.00    -0.021 C 
HETATM   10  C6  UNL     1     -36.270  14.690  -4.496  1.00 20.00    -0.030 C 
HETATM   11  C8  UNL     1     -35.219  13.954  -5.271  1.00 20.00     0.027 C 
HETATM   12  C9  UNL     1     -33.990  13.606  -4.429  1.00 20.00     0.005 C 
HETATM   13  C10 UNL     1     -33.560  14.789  -3.564  1.00 20.00     0.013 C 
ENDBRANCH   4   8
TORSDOF 1
ENDMDL
MODEL 2
REMARK VINA RESULT:      -5.4      0.836      1.650
REMARK  1 active torsions:
REMARK  status: ('A' for Active; 'I' for Inactive)
REMARK    1  A    between atoms: C4_4  and  C11_11 
ROOT
HETATM    1  C1  UNL     1     -33.474  18.286  -2.127  1.00 20.00     0.027 A 
HETATM    2  C2  UNL     1     -34.846  16.844  -0.777  1.00 20.00     0.034 A 
HETATM    3  C3  UNL     1     -33.311  19.088  -1.010  1.00 20.00     0.117 A 
HETATM    4  C4  UNL     1     -34.258  17.145  -2.000  1.00 20.00    -0.047 A 
HETATM    5  C5  UNL     1     -34.622  17.712   0.280  1.00 20.00     0.030 A 
HETATM    6  C12 UNL     1     -35.238  17.421   1.609  1.00 20.00     0.070 C 
HETATM    7  N13 UNL     1     -33.868  18.830   0.195  1.00 20.00    -0.266 NA
ENDROOT
BRANCH   4   8
HETATM    8  C11 UNL     1     -34.470  16.229  -3.194  1.00 20.00     0.041 C 
HETATM    9  C7  UNL     1     -33.284  15.326  -3.448  1.00 20.00    -0.021 C 
HETATM   10  C6  UNL     1     -33.405  14.033  -3.781  1.00 20.00    -0.030 C 
HETATM   11  C8  UNL     1     -34.727  13.354  -3.978  1.00 20.00     0.027 C 
HETATM   12  C9  UNL     1     -35.892  14.338  -4.102  1.00 20.00     0.005 C 
HETATM   13  C10 UNL     1     -35.793  15.445  -3.055  1.00 20.00     0.013 C 
ENDBRANCH   4   8
TORSDOF 1
ENDMDL
MODEL 3
REMARK VINA RESULT:      -5.4      2.392      5.426
REMARK  1 active torsions:
REMARK  status: ('A' for Active; 'I' for Inactive)
REMARK    1  A    between atoms: C4_4  and  C11_11 
ROOT
HETATM    1  C1  UNL     1     -34.540  14.150  -3.333  1.00 20.00     0.027 A 
HETATM    2  C2  UNL     1     -34.151  15.809  -5.029  1.00 20.00     0.034 A 
HETATM    3  C3  UNL     1     -34.896  13.275  -4.346  1.00 20.00     0.117 A 
HETATM    4  C4  UNL     1     -34.162  15.440  -3.690  1.00 20.00    -0.047 A 
HETATM    5  C5  UNL     1     -34.524  14.860  -5.967  1.00 20.00     0.030 A 
HETATM    6  C12 UNL     1     -34.524  15.221  -7.415  1.00 20.00     0.070 C 
HETATM    7  N13 UNL     1     -34.898  13.598  -5.659  1.00 20.00    -0.266 NA
ENDROOT
BRANCH   4   8
HETATM    8  C11 UNL     1     -33.762  16.440  -2.618  1.00 20.00     0.041 C 
HETATM    9  C7  UNL     1     -33.759  17.863  -3.128  1.00 20.00    -0.021 C 
HETATM   10  C6  UNL     1     -34.231  18.898  -2.417  1.00 20.00    -0.030 C 
HETATM   11  C8  UNL     1     -34.774  18.762  -1.027  1.00 20.00     0.027 C 
HETATM   12  C9  UNL     1     -34.425  17.421  -0.378  1.00 20.00     0.005 C 
HETATM   13  C10 UNL     1     -34.631  16.265  -1.354  1.00 20.00     0.013 C 
ENDBRANCH   4   8
TORSDOF 1
ENDMDL
MODEL 4
REMARK VINA RESULT:      -5.2      1.089      1.420
REMARK  1 active torsions:
REMARK  status: ('A' for Active; 'I' for Inactive)
REMARK    1  A    between atoms: C4_4  and  C11_11 
ROOT
HETATM    1  C1  UNL     1     -33.689  18.147  -3.231  1.00 20.00     0.027 A 
HETATM    2  C2  UNL     1     -34.381  16.543  -1.578  1.00 20.00     0.034 A 
HETATM    3  C3  UNL     1     -33.918  19.137  -2.290  1.00 20.00     0.117 A 
HETATM    4  C4  UNL     1     -33.927  16.828  -2.861  1.00 20.00    -0.047 A 
HETATM    5  C5  UNL     1     -34.580  17.606  -0.710  1.00 20.00     0.030 A 
HETATM    6  C12 UNL     1     -35.067  17.338   0.675  1.00 20.00     0.070 C 
HETATM    7  N13 UNL     1     -34.360  18.899  -1.034  1.00 20.00    -0.266 NA
ENDROOT
BRANCH   4   8
HETATM    8  C11 UNL     1     -33.692  15.703  -3.854  1.00 20.00     0.041 C 
HETATM    9  C7  UNL     1     -34.187  14.369  -3.345  1.00 20.00    -0.021 C 
HETATM   10  C6  UNL     1     -34.837  13.485  -4.116  1.00 20.00    -0.030 C 
HETATM   11  C8  UNL     1     -35.106  13.706  -5.574  1.00 20.00     0.027 C 
HETATM   12  C9  UNL     1     -34.284  14.852  -6.167  1.00 20.00     0.005 C 
HETATM   13  C10 UNL     1     -34.276  16.063  -5.238  1.00 20.00     0.013 C 
ENDBRANCH   4   8
TORSDOF 1
ENDMDL
MODEL 5
REMARK VINA RESULT:      -5.1      2.407      5.475
REMARK  1 active torsions:
REMARK  status: ('A' for Active; 'I' for Inactive)
REMARK    1  A    between atoms: C4_4  and  C11_11 
ROOT
HETATM    1  C1  UNL     1     -34.679  14.312  -3.424  1.00 20.00     0.027 A 
HETATM    2  C2  UNL     1     -34.958  15.771  -5.314  1.00 20.00     0.034 A 
HETATM    3  C3  UNL     1     -34.633  13.253  -4.316  1.00 20.00     0.117 A 
HETATM    4  C4  UNL     1     -34.845  15.591  -3.940  1.00 20.00    -0.047 A 
HETATM    5  C5  UNL     1     -34.899  14.647  -6.122  1.00 20.00     0.030 A 
HETATM    6  C12 UNL     1     -35.017  14.802  -7.602  1.00 20.00     0.070 C 
HETATM    7  N13 UNL     1     -34.740  13.388  -5.657  1.00 20.00    -0.266 NA
ENDROOT
BRANCH   4   8
HETATM    8  C11 UNL     1     -34.902  16.789  -3.007  1.00 20.00     0.041 C 
HETATM    9  C7  UNL     1     -35.022  16.385  -1.555  1.00 20.00    -0.021 C 
HETATM   10  C6  UNL     1     -34.345  16.989  -0.567  1.00 20.00    -0.030 C 
HETATM   11  C8  UNL     1     -33.430  18.155  -0.790  1.00 20.00     0.027 C 
HETATM   12  C9  UNL     1     -33.606  18.798  -2.167  1.00 20.00     0.005 C 
HETATM   13  C10 UNL     1     -33.711  17.739  -3.262  1.00 20.00     0.013 C 
ENDBRANCH   4   8
TORSDOF 1
ENDMDL
MODEL 6
REMARK VINA RESULT:      -5.1      2.066      4.997
REMARK  1 active torsions:
REMARK  status: ('A' for Active; 'I' for Inactive)
REMARK    1  A    between atoms: C4_4  and  C11_11 
ROOT
HETATM    1  C1  UNL     1     -33.714  18.017  -3.935  1.00 20.00     0.027 A 
HETATM    2  C2  UNL     1     -33.813  16.002  -2.628  1.00 20.00     0.034 A 
HETATM    3  C3  UNL     1     -33.421  17.226  -5.035  1.00 20.00     0.117 A 
HETATM    4  C4  UNL     1     -33.911  17.386  -2.713  1.00 20.00    -0.047 A 
HETATM    5  C5  UNL     1     -33.516  15.301  -3.786  1.00 20.00     0.030 A 
HETATM    6  C12 UNL     1     -33.403  13.813  -3.732  1.00 20.00     0.070 C 
HETATM    7  N13 UNL     1     -33.316  15.879  -4.991  1.00 20.00    -0.266 NA
ENDROOT
BRANCH   4   8
HETATM    8  C11 UNL     1     -34.235  18.205  -1.475  1.00 20.00     0.041 C 
HETATM    9  C7  UNL     1     -35.179  17.489  -0.538  1.00 20.00    -0.021 C 
HETATM   10  C6  UNL     1     -35.033  17.495   0.796  1.00 20.00    -0.030 C 
HETATM   11  C8  UNL     1     -33.945  18.245   1.501  1.00 20.00     0.027 C 
HETATM   12  C9  UNL     1     -33.240  19.263   0.602  1.00 20.00     0.005 C 
HETATM   13  C10 UNL     1     -32.940  18.670  -0.773  1.00 20.00     0.013 C 
ENDBRANCH   4   8
TORSDOF 1
ENDMDL
MODEL 7
REMARK VINA RESULT:      -5.1      1.986      5.091
REMARK  1 active torsions:
REMARK  status: ('A' for Active; 'I' for Inactive)
REMARK    1  A    between atoms: C4_4  and  C11_11 
ROOT
HETATM    1  C1  UNL     1     -33.704  17.163  -3.799  1.00 20.00     0.027 A 
HETATM    2  C2  UNL     1     -34.441  15.067  -2.879  1.00 20.00     0.034 A 
HETATM    3  C3  UNL     1     -33.919  16.624  -5.057  1.00 20.00     0.117 A 
HETATM    4  C4  UNL     1     -33.972  16.362  -2.694  1.00 20.00    -0.047 A 
HETATM    5  C5  UNL     1     -34.623  14.622  -4.179  1.00 20.00     0.030 A 
HETATM    6  C12 UNL     1     -35.124  13.236  -4.415  1.00 20.00     0.070 C 
HETATM    7  N13 UNL     1     -34.372  15.370  -5.276  1.00 20.00    -0.266 NA
ENDROOT
BRANCH   4   8
HETATM    8  C11 UNL     1     -33.755  16.903  -1.291  1.00 20.00     0.041 C 
HETATM    9  C7  UNL     1     -33.235  18.322  -1.292  1.00 20.00    -0.021 C 
HETATM   10  C6  UNL     1     -33.671  19.263  -0.441  1.00 20.00    -0.030 C 
HETATM   11  C8  UNL     1     -34.688  18.999   0.628  1.00 20.00     0.027 C 
HETATM   12  C9  UNL     1     -34.919  17.507   0.877  1.00 20.00     0.005 C 
HETATM   13  C10 UNL     1     -35.031  16.739  -0.437  1.00 20.00     0.013 C 
ENDBRANCH   4   8
TORSDOF 1
ENDMDL
MODEL 8
REMARK VINA RESULT:      -4.9      1.676      2.058
REMARK  1 active torsions:
REMARK  status: ('A' for Active; 'I' for Inactive)
REMARK    1  A    between atoms: C4_4  and  C11_11 
ROOT
HETATM    1  C1  UNL     1     -36.079  17.801  -2.013  1.00 20.00     0.027 A 
HETATM    2  C2  UNL     1     -34.681  17.014  -0.222  1.00 20.00     0.034 A 
HETATM    3  C3  UNL     1     -36.837  18.461  -1.060  1.00 20.00     0.117 A 
HETATM    4  C4  UNL     1     -34.983  17.066  -1.578  1.00 20.00    -0.047 A 
HETATM    5  C5  UNL     1     -35.502  17.710   0.652  1.00 20.00     0.030 A 
HETATM    6  C12 UNL     1     -35.209  17.677   2.115  1.00 20.00     0.070 C 
HETATM    7  N13 UNL     1     -36.577  18.434   0.266  1.00 20.00    -0.266 NA
ENDROOT
BRANCH   4   8
HETATM    8  C11 UNL     1     -34.117  16.323  -2.581  1.00 20.00     0.041 C 
HETATM    9  C7  UNL     1     -34.683  14.969  -2.943  1.00 20.00    -0.021 C 
HETATM   10  C6  UNL     1     -34.690  14.488  -4.195  1.00 20.00    -0.030 C 
HETATM   11  C8  UNL     1     -34.100  15.221  -5.362  1.00 20.00     0.027 C 
HETATM   12  C9  UNL     1     -33.201  16.386  -4.943  1.00 20.00     0.005 C 
HETATM   13  C10 UNL     1     -33.839  17.200  -3.821  1.00 20.00     0.013 C 
ENDBRANCH   4   8
TORSDOF 1
ENDMDL
MODEL 9
REMARK VINA RESULT:      -4.9      1.040      1.111
REMARK  1 active torsions:
REMARK  status: ('A' for Active; 'I' for Inactive)
REMARK    1  A    between atoms: C4_4  and  C11_11 
ROOT
HETATM    1  C1  UNL     1     -35.695  17.619  -2.472  1.00 20.00     0.027 A 
HETATM    2  C2  UNL     1     -33.804  16.998  -1.123  1.00 20.00     0.034 A 
HETATM    3  C3  UNL     1     -35.585  18.895  -1.944  1.00 20.00     0.117 A 
HETATM    4  C4  UNL     1     -34.783  16.658  -2.048  1.00 20.00    -0.047 A 
HETATM    5  C5  UNL     1     -33.779  18.303  -0.655  1.00 20.00     0.030 A 
HETATM    6  C12 UNL     1     -32.741  18.703   0.341  1.00 20.00     0.070 C 
HETATM    7  N13 UNL     1     -34.648  19.263  -1.043  1.00 20.00    -0.266 NA
ENDROOT
BRANCH   4   8
HETATM    8  C11 UNL     1     -34.858  15.243  -2.596  1.00 20.00     0.041 C 
HETATM    9  C7  UNL     1     -36.116  14.998  -3.397  1.00 20.00    -0.021 C 
HETATM   10  C6  UNL     1     -36.130  14.308  -4.547  1.00 20.00    -0.030 C 
HETATM   11  C8  UNL     1     -34.910  13.670  -5.139  1.00 20.00     0.027 C 
HETATM   12  C9  UNL     1     -33.742  13.586  -4.155  1.00 20.00     0.005 C 
HETATM   13  C10 UNL     1     -33.576  14.892  -3.382  1.00 20.00     0.013 C 
ENDBRANCH   4   8
TORSDOF 1
ENDMDL
