MODEL 1
REMARK VINA RESULT:      -6.2      0.000      0.000
REMARK  0 active torsions:
REMARK  status: ('A' for Active; 'I' for Inactive)
ROOT
HETATM    1  C1  UNL     1     -35.475  14.540  -7.008  1.00 20.00    -0.017 C 
HETATM    2  C2  UNL     1     -35.093  15.851  -7.135  1.00 20.00    -0.019 C 
HETATM    3  C3  UNL     1     -34.452  13.552  -4.685  1.00 20.00     0.136 C 
HETATM    4  C4  UNL     1     -33.313  13.998  -3.751  1.00 20.00     0.083 C 
HETATM    5  C5  UNL     1     -35.521  18.011  -2.910  1.00 20.00     0.000 C 
HETATM    6  C6  UNL     1     -34.102  17.636  -2.470  1.00 20.00     0.000 C 
HETATM    7  C7  UNL     1     -35.898  17.752  -4.371  1.00 20.00     0.001 C 
HETATM    8  C8  UNL     1     -33.814  16.134  -2.472  1.00 20.00     0.005 C 
HETATM    9  C9  UNL     1     -35.925  16.274  -4.765  1.00 20.00     0.014 C 
HETATM   10  C10 UNL     1     -33.352  16.286  -5.074  1.00 20.00     0.019 C 
HETATM   11  C11 UNL     1     -34.403  14.360  -5.971  1.00 20.00     0.090 C 
HETATM   12  C12 UNL     1     -33.093  15.553  -3.714  1.00 20.00    -0.007 C 
HETATM   13  C13 UNL     1     -34.706  15.868  -5.641  1.00 20.00    -0.009 C 
HETATM   14  O14 UNL     1     -35.218  12.636  -4.407  1.00 20.00    -0.297 OA
ENDROOT
TORSDOF 0
ENDMDL
MODEL 2
REMARK VINA RESULT:      -5.8      1.209      3.631
REMARK  0 active torsions:
REMARK  status: ('A' for Active; 'I' for Inactive)
ROOT
HETATM    1  C1  UNL     1     -33.690  16.215  -2.329  1.00 20.00    -0.017 C 
HETATM    2  C2  UNL     1     -34.548  17.152  -2.846  1.00 20.00    -0.019 C 
HETATM    3  C3  UNL     1     -33.990  13.893  -3.722  1.00 20.00     0.136 C 
HETATM    4  C4  UNL     1     -35.096  13.338  -4.638  1.00 20.00     0.083 C 
HETATM    5  C5  UNL     1     -34.472  16.875  -7.602  1.00 20.00     0.000 C 
HETATM    6  C6  UNL     1     -35.585  15.823  -7.651  1.00 20.00     0.000 C 
HETATM    7  C7  UNL     1     -34.198  17.550  -6.255  1.00 20.00     0.001 C 
HETATM    8  C8  UNL     1     -35.287  14.548  -6.862  1.00 20.00     0.005 C 
HETATM    9  C9  UNL     1     -33.666  16.608  -5.172  1.00 20.00     0.014 C 
HETATM   10  C10 UNL     1     -36.072  15.793  -4.663  1.00 20.00     0.019 C 
HETATM   11  C11 UNL     1     -34.488  15.147  -3.023  1.00 20.00     0.090 C 
HETATM   12  C12 UNL     1     -35.877  14.444  -5.434  1.00 20.00    -0.007 C 
HETATM   13  C13 UNL     1     -34.736  16.269  -4.098  1.00 20.00    -0.009 C 
HETATM   14  O14 UNL     1     -32.909  13.333  -3.572  1.00 20.00    -0.297 OA
ENDROOT
TORSDOF 0
ENDMDL
MODEL 3
REMARK VINA RESULT:      -5.3      0.957      1.061
REMARK  0 active torsions:
REMARK  status: ('A' for Active; 'I' for Inactive)
ROOT
HETATM    1  C1  UNL     1     -34.857  15.947  -7.149  1.00 20.00    -0.017 C 
HETATM    2  C2  UNL     1     -34.649  17.231  -6.716  1.00 20.00    -0.019 C 
HETATM    3  C3  UNL     1     -34.321  14.236  -5.098  1.00 20.00     0.136 C 
HETATM    4  C4  UNL     1     -33.530  14.367  -3.784  1.00 20.00     0.083 C 
HETATM    5  C5  UNL     1     -36.434  17.701  -2.324  1.00 20.00     0.000 C 
HETATM    6  C6  UNL     1     -35.132  17.258  -1.647  1.00 20.00     0.000 C 
HETATM    7  C7  UNL     1     -36.389  17.970  -3.830  1.00 20.00     0.001 C 
HETATM    8  C8  UNL     1     -34.639  15.873  -2.067  1.00 20.00     0.005 C 
HETATM    9  C9  UNL     1     -36.102  16.733  -4.685  1.00 20.00     0.014 C 
HETATM   10  C10 UNL     1     -33.564  16.973  -4.221  1.00 20.00     0.019 C 
HETATM   11  C11 UNL     1     -34.066  15.454  -5.970  1.00 20.00     0.090 C 
HETATM   12  C12 UNL     1     -33.553  15.812  -3.169  1.00 20.00    -0.007 C 
HETATM   13  C13 UNL     1     -34.657  16.726  -5.258  1.00 20.00    -0.009 C 
HETATM   14  O14 UNL     1     -34.992  13.247  -5.373  1.00 20.00    -0.297 OA
ENDROOT
TORSDOF 0
ENDMDL
MODEL 4
REMARK VINA RESULT:      -5.2      1.825      4.505
REMARK  0 active torsions:
REMARK  status: ('A' for Active; 'I' for Inactive)
ROOT
HETATM    1  C1  UNL     1     -34.946  17.146  -1.194  1.00 20.00    -0.017 C 
HETATM    2  C2  UNL     1     -33.755  16.701  -1.708  1.00 20.00    -0.019 C 
HETATM    3  C3  UNL     1     -36.727  17.428  -3.235  1.00 20.00     0.136 C 
HETATM    4  C4  UNL     1     -36.583  17.553  -4.763  1.00 20.00     0.083 C 
HETATM    5  C5  UNL     1     -34.626  13.332  -4.962  1.00 20.00     0.000 C 
HETATM    6  C6  UNL     1     -34.749  14.341  -6.109  1.00 20.00     0.000 C 
HETATM    7  C7  UNL     1     -34.103  13.851  -3.620  1.00 20.00     0.001 C 
HETATM    8  C8  UNL     1     -35.816  15.415  -5.897  1.00 20.00     0.005 C 
HETATM    9  C9  UNL     1     -35.022  14.863  -2.931  1.00 20.00     0.014 C 
HETATM   10  C10 UNL     1     -34.084  16.764  -4.421  1.00 20.00     0.019 C 
HETATM   11  C11 UNL     1     -35.360  17.545  -2.582  1.00 20.00     0.090 C 
HETATM   12  C12 UNL     1     -35.345  16.784  -5.349  1.00 20.00    -0.007 C 
HETATM   13  C13 UNL     1     -34.479  16.316  -3.015  1.00 20.00    -0.009 C 
HETATM   14  O14 UNL     1     -37.814  17.313  -2.678  1.00 20.00    -0.297 OA
ENDROOT
TORSDOF 0
ENDMDL
MODEL 5
REMARK VINA RESULT:      -5.2      2.092      3.895
REMARK  0 active torsions:
REMARK  status: ('A' for Active; 'I' for Inactive)
ROOT
HETATM    1  C1  UNL     1     -33.709  16.775  -2.078  1.00 20.00    -0.017 C 
HETATM    2  C2  UNL     1     -34.825  16.190  -1.535  1.00 20.00    -0.019 C 
HETATM    3  C3  UNL     1     -33.610  16.167  -4.732  1.00 20.00     0.136 C 
HETATM    4  C4  UNL     1     -34.272  15.081  -5.599  1.00 20.00     0.083 C 
HETATM    5  C5  UNL     1     -38.488  16.745  -4.529  1.00 20.00     0.000 C 
HETATM    6  C6  UNL     1     -38.179  15.453  -5.294  1.00 20.00     0.000 C 
HETATM    7  C7  UNL     1     -37.719  16.996  -3.230  1.00 20.00     0.001 C 
HETATM    8  C8  UNL     1     -36.775  15.393  -5.895  1.00 20.00     0.005 C 
HETATM    9  C9  UNL     1     -36.214  17.200  -3.415  1.00 20.00     0.014 C 
HETATM   10  C10 UNL     1     -35.857  14.636  -3.532  1.00 20.00     0.019 C 
HETATM   11  C11 UNL     1     -33.845  15.859  -3.262  1.00 20.00     0.090 C 
HETATM   12  C12 UNL     1     -35.690  14.638  -5.089  1.00 20.00    -0.007 C 
HETATM   13  C13 UNL     1     -35.384  15.969  -2.956  1.00 20.00    -0.009 C 
HETATM   14  O14 UNL     1     -32.952  17.087  -5.207  1.00 20.00    -0.297 OA
ENDROOT
TORSDOF 0
ENDMDL
MODEL 6
REMARK VINA RESULT:      -5.1      1.577      3.577
REMARK  0 active torsions:
REMARK  status: ('A' for Active; 'I' for Inactive)
ROOT
HETATM    1  C1  UNL     1     -34.793  13.280  -3.809  1.00 20.00    -0.017 C 
HETATM    2  C2  UNL     1     -33.711  13.980  -4.276  1.00 20.00    -0.019 C 
HETATM    3  C3  UNL     1     -36.945  14.948  -3.726  1.00 20.00     0.136 C 
HETATM    4  C4  UNL     1     -37.103  16.479  -3.726  1.00 20.00     0.083 C 
HETATM    5  C5  UNL     1     -35.088  16.726  -7.917  1.00 20.00     0.000 C 
HETATM    6  C6  UNL     1     -35.463  17.902  -7.010  1.00 20.00     0.000 C 
HETATM    7  C7  UNL     1     -34.332  15.557  -7.281  1.00 20.00     0.001 C 
HETATM    8  C8  UNL     1     -36.503  17.571  -5.939  1.00 20.00     0.005 C 
HETATM    9  C9  UNL     1     -35.132  14.783  -6.230  1.00 20.00     0.014 C 
HETATM   10  C10 UNL     1     -34.561  16.572  -4.444  1.00 20.00     0.019 C 
HETATM   11  C11 UNL     1     -35.481  14.587  -3.533  1.00 20.00     0.090 C 
HETATM   12  C12 UNL     1     -35.978  17.235  -4.522  1.00 20.00    -0.007 C 
HETATM   13  C13 UNL     1     -34.662  15.086  -4.779  1.00 20.00    -0.009 C 
HETATM   14  O14 UNL     1     -37.898  14.182  -3.812  1.00 20.00    -0.297 OA
ENDROOT
TORSDOF 0
ENDMDL
MODEL 7
REMARK VINA RESULT:      -5.1      1.925      2.831
REMARK  0 active torsions:
REMARK  status: ('A' for Active; 'I' for Inactive)
ROOT
HETATM    1  C1  UNL     1     -35.602  15.322  -7.918  1.00 20.00    -0.017 C 
HETATM    2  C2  UNL     1     -34.451  14.805  -7.381  1.00 20.00    -0.019 C 
HETATM    3  C3  UNL     1     -37.464  15.546  -5.942  1.00 20.00     0.136 C 
HETATM    4  C4  UNL     1     -37.617  14.911  -4.548  1.00 20.00     0.083 C 
HETATM    5  C5  UNL     1     -33.628  16.883  -3.173  1.00 20.00     0.000 C 
HETATM    6  C6  UNL     1     -34.457  15.853  -2.398  1.00 20.00     0.000 C 
HETATM    7  C7  UNL     1     -33.333  16.586  -4.646  1.00 20.00     0.001 C 
HETATM    8  C8  UNL     1     -35.910  15.734  -2.857  1.00 20.00     0.005 C 
HETATM    9  C9  UNL     1     -34.570  16.569  -5.548  1.00 20.00     0.014 C 
HETATM   10  C10 UNL     1     -35.102  14.142  -4.811  1.00 20.00     0.019 C 
HETATM   11  C11 UNL     1     -36.345  14.851  -6.700  1.00 20.00     0.090 C 
HETATM   12  C12 UNL     1     -36.250  14.590  -3.844  1.00 20.00    -0.007 C 
HETATM   13  C13 UNL     1     -34.981  15.130  -5.969  1.00 20.00    -0.009 C 
HETATM   14  O14 UNL     1     -38.202  16.437  -6.351  1.00 20.00    -0.297 OA
ENDROOT
TORSDOF 0
ENDMDL
MODEL 8
REMARK VINA RESULT:      -5.1      1.483      1.933
REMARK  0 active torsions:
REMARK  status: ('A' for Active; 'I' for Inactive)
ROOT
HETATM    1  C1  UNL     1     -34.968  16.732  -6.845  1.00 20.00    -0.017 C 
HETATM    2  C2  UNL     1     -33.770  17.237  -6.410  1.00 20.00    -0.019 C 
HETATM    3  C3  UNL     1     -36.005  15.138  -4.894  1.00 20.00     0.136 C 
HETATM    4  C4  UNL     1     -35.402  14.435  -3.665  1.00 20.00     0.083 C 
HETATM    5  C5  UNL     1     -34.198  18.552  -1.851  1.00 20.00     0.000 C 
HETATM    6  C6  UNL     1     -33.812  17.167  -1.319  1.00 20.00     0.000 C 
HETATM    7  C7  UNL     1     -34.011  18.809  -3.349  1.00 20.00     0.001 C 
HETATM    8  C8  UNL     1     -34.702  16.027  -1.815  1.00 20.00     0.005 C 
HETATM    9  C9  UNL     1     -34.911  17.962  -4.253  1.00 20.00     0.014 C 
HETATM   10  C10 UNL     1     -33.278  15.961  -4.044  1.00 20.00     0.019 C 
HETATM   11  C11 UNL     1     -34.888  15.693  -5.763  1.00 20.00     0.090 C 
HETATM   12  C12 UNL     1     -34.192  15.203  -3.022  1.00 20.00    -0.007 C 
HETATM   13  C13 UNL     1     -34.134  16.822  -4.970  1.00 20.00    -0.009 C 
HETATM   14  O14 UNL     1     -37.210  15.165  -5.119  1.00 20.00    -0.297 OA
ENDROOT
TORSDOF 0
ENDMDL
MODEL 9
REMARK VINA RESULT:      -5.1      1.928      3.589
REMARK  0 active torsions:
REMARK  status: ('A' for Active; 'I' for Inactive)
ROOT
HETATM    1  C1  UNL     1     -34.311  13.814  -3.421  1.00 20.00    -0.017 C 
HETATM    2  C2  UNL     1     -34.815  13.265  -4.572  1.00 20.00    -0.019 C 
HETATM    3  C3  UNL     1     -33.602  16.396  -3.924  1.00 20.00     0.136 C 
HETATM    4  C4  UNL     1     -33.312  17.187  -5.212  1.00 20.00     0.083 C 
HETATM    5  C5  UNL     1     -37.661  16.439  -6.698  1.00 20.00     0.000 C 
HETATM    6  C6  UNL     1     -36.516  17.070  -7.496  1.00 20.00     0.000 C 
HETATM    7  C7  UNL     1     -37.365  15.138  -5.947  1.00 20.00     0.001 C 
HETATM    8  C8  UNL     1     -35.368  17.608  -6.641  1.00 20.00     0.005 C 
HETATM    9  C9  UNL     1     -36.351  15.281  -4.810  1.00 20.00     0.014 C 
HETATM   10  C10 UNL     1     -34.395  15.152  -6.504  1.00 20.00     0.019 C 
HETATM   11  C11 UNL     1     -33.708  14.915  -4.248  1.00 20.00     0.090 C 
HETATM   12  C12 UNL     1     -34.132  16.695  -6.459  1.00 20.00    -0.007 C 
HETATM   13  C13 UNL     1     -34.963  14.680  -5.167  1.00 20.00    -0.009 C 
HETATM   14  O14 UNL     1     -33.668  16.926  -2.820  1.00 20.00    -0.297 OA
ENDROOT
TORSDOF 0
ENDMDL
