MODEL 1
REMARK VINA RESULT:      -5.0      0.000      0.000
REMARK  1 active torsions:
REMARK  status: ('A' for Active; 'I' for Inactive)
REMARK    1  A    between atoms: C10_10  and  O12_12 
ROOT
HETATM    1  C1  UNL     1     -34.208  17.458  -5.127  1.00 20.00     0.011 A 
HETATM    2  C2  UNL     1     -34.765  15.915  -2.233  1.00 20.00     0.013 A 
HETATM    3  C3  UNL     1     -35.864  15.117  -6.811  1.00 20.00     0.013 A 
HETATM    4  C4  UNL     1     -33.301  16.512  -4.387  1.00 20.00    -0.005 A 
HETATM    5  C5  UNL     1     -33.650  16.258  -5.843  1.00 20.00    -0.005 A 
HETATM    6  C6  UNL     1     -33.712  15.573  -3.258  1.00 20.00    -0.003 A 
HETATM    7  C7  UNL     1     -34.443  15.041  -6.309  1.00 20.00    -0.003 A 
HETATM    8  C8  UNL     1     -34.992  14.766  -3.177  1.00 20.00     0.020 A 
HETATM    9  C9  UNL     1     -35.560  14.352  -5.553  1.00 20.00     0.020 A 
HETATM   10  C10 UNL     1     -36.055  14.852  -4.229  1.00 20.00     0.129 C 
ENDROOT
BRANCH  10  11
HETATM   11  O12 UNL     1     -37.162  14.049  -3.813  1.00 20.00    -0.390 OA
HETATM   12  C11 UNL     1     -38.368  14.795  -3.818  1.00 20.00     0.202 C 
ENDBRANCH  10  11
TORSDOF 1
ENDMDL
MODEL 2
REMARK VINA RESULT:      -5.0      1.415      1.808
REMARK  1 active torsions:
REMARK  status: ('A' for Active; 'I' for Inactive)
REMARK    1  A    between atoms: C10_10  and  O12_12 
ROOT
HETATM    1  C1  UNL     1     -33.331  16.318  -4.556  1.00 20.00     0.011 A 
HETATM    2  C2  UNL     1     -35.962  17.037  -2.650  1.00 20.00     0.013 A 
HETATM    3  C3  UNL     1     -34.443  13.231  -5.103  1.00 20.00     0.013 A 
HETATM    4  C4  UNL     1     -33.437  16.261  -3.056  1.00 20.00    -0.005 A 
HETATM    5  C5  UNL     1     -32.953  15.052  -3.835  1.00 20.00    -0.005 A 
HETATM    6  C6  UNL     1     -34.729  16.267  -2.245  1.00 20.00    -0.003 A 
HETATM    7  C7  UNL     1     -33.716  13.731  -3.879  1.00 20.00    -0.003 A 
HETATM    8  C8  UNL     1     -36.010  15.534  -2.587  1.00 20.00     0.020 A 
HETATM    9  C9  UNL     1     -35.220  13.560  -3.859  1.00 20.00     0.020 A 
HETATM   10  C10 UNL     1     -36.157  14.731  -3.843  1.00 20.00     0.129 C 
ENDROOT
BRANCH  10  11
HETATM   11  O12 UNL     1     -37.502  14.251  -3.913  1.00 20.00    -0.390 OA
HETATM   12  C11 UNL     1     -38.281  15.036  -4.800  1.00 20.00     0.202 C 
ENDBRANCH  10  11
TORSDOF 1
ENDMDL
MODEL 3
REMARK VINA RESULT:      -5.0      1.916      4.081
REMARK  1 active torsions:
REMARK  status: ('A' for Active; 'I' for Inactive)
REMARK    1  A    between atoms: C10_10  and  O12_12 
ROOT
HETATM    1  C1  UNL     1     -35.494  13.672  -4.108  1.00 20.00     0.011 A 
HETATM    2  C2  UNL     1     -35.741  15.429  -6.922  1.00 20.00     0.013 A 
HETATM    3  C3  UNL     1     -33.743  16.086  -2.635  1.00 20.00     0.013 A 
HETATM    4  C4  UNL     1     -34.635  13.581  -5.340  1.00 20.00    -0.005 A 
HETATM    5  C5  UNL     1     -34.000  13.789  -3.977  1.00 20.00    -0.005 A 
HETATM    6  C6  UNL     1     -34.559  14.613  -6.460  1.00 20.00    -0.003 A 
HETATM    7  C7  UNL     1     -33.227  15.050  -3.603  1.00 20.00    -0.003 A 
HETATM    8  C8  UNL     1     -34.559  16.120  -6.299  1.00 20.00     0.020 A 
HETATM    9  C9  UNL     1     -33.521  16.458  -4.074  1.00 20.00     0.020 A 
HETATM   10  C10 UNL     1     -34.690  16.777  -4.958  1.00 20.00     0.129 C 
ENDROOT
BRANCH  10  11
HETATM   11  O12 UNL     1     -34.750  18.191  -5.157  1.00 20.00    -0.390 OA
HETATM   12  C11 UNL     1     -33.635  18.653  -5.902  1.00 20.00     0.202 C 
ENDBRANCH  10  11
TORSDOF 1
ENDMDL
MODEL 4
REMARK VINA RESULT:      -4.9     11.997     13.570
REMARK  1 active torsions:
REMARK  status: ('A' for Active; 'I' for Inactive)
REMARK    1  A    between atoms: C10_10  and  O12_12 
ROOT
HETATM    1  C1  UNL     1     -34.369   3.906   5.656  1.00 20.00     0.011 A 
HETATM    2  C2  UNL     1     -33.041   6.730   6.810  1.00 20.00     0.013 A 
HETATM    3  C3  UNL     1     -33.924   4.867   2.503  1.00 20.00     0.013 A 
HETATM    4  C4  UNL     1     -35.081   5.154   6.104  1.00 20.00    -0.005 A 
HETATM    5  C5  UNL     1     -35.362   4.561   4.735  1.00 20.00    -0.005 A 
HETATM    6  C6  UNL     1     -34.447   6.527   6.302  1.00 20.00    -0.003 A 
HETATM    7  C7  UNL     1     -35.037   5.285   3.432  1.00 20.00    -0.003 A 
HETATM    8  C8  UNL     1     -33.400   7.173   5.418  1.00 20.00     0.020 A 
HETATM    9  C9  UNL     1     -33.860   6.205   3.183  1.00 20.00     0.020 A 
HETATM   10  C10 UNL     1     -32.818   6.469   4.229  1.00 20.00     0.129 C 
ENDROOT
BRANCH  10  11
HETATM   11  O12 UNL     1     -31.800   7.303   3.670  1.00 20.00    -0.390 OA
HETATM   12  C11 UNL     1     -32.220   7.872   2.441  1.00 20.00     0.202 C 
ENDBRANCH  10  11
TORSDOF 1
ENDMDL
MODEL 5
REMARK VINA RESULT:      -4.8      1.791      2.754
REMARK  1 active torsions:
REMARK  status: ('A' for Active; 'I' for Inactive)
REMARK    1  A    between atoms: C10_10  and  O12_12 
ROOT
HETATM    1  C1  UNL     1     -35.038  16.435  -3.183  1.00 20.00     0.011 A 
HETATM    2  C2  UNL     1     -35.288  13.253  -4.122  1.00 20.00     0.013 A 
HETATM    3  C3  UNL     1     -34.294  17.396  -6.279  1.00 20.00     0.013 A 
HETATM    4  C4  UNL     1     -33.994  15.355  -3.096  1.00 20.00    -0.005 A 
HETATM    5  C5  UNL     1     -33.678  16.672  -3.781  1.00 20.00    -0.005 A 
HETATM    6  C6  UNL     1     -34.020  14.019  -3.832  1.00 20.00    -0.003 A 
HETATM    7  C7  UNL     1     -33.357  16.780  -5.269  1.00 20.00    -0.003 A 
HETATM    8  C8  UNL     1     -34.463  13.787  -5.262  1.00 20.00     0.020 A 
HETATM    9  C9  UNL     1     -33.947  15.937  -6.380  1.00 20.00     0.020 A 
HETATM   10  C10 UNL     1     -34.993  14.894  -6.122  1.00 20.00     0.129 C 
ENDROOT
BRANCH  10  11
HETATM   11  O12 UNL     1     -35.408  14.333  -7.369  1.00 20.00    -0.390 OA
HETATM   12  C11 UNL     1     -36.652  14.872  -7.786  1.00 20.00     0.202 C 
ENDBRANCH  10  11
TORSDOF 1
ENDMDL
MODEL 6
REMARK VINA RESULT:      -4.8      1.875      3.137
REMARK  1 active torsions:
REMARK  status: ('A' for Active; 'I' for Inactive)
REMARK    1  A    between atoms: C10_10  and  O12_12 
ROOT
HETATM    1  C1  UNL     1     -34.437  15.064  -6.564  1.00 20.00     0.011 A 
HETATM    2  C2  UNL     1     -33.300  13.574  -3.816  1.00 20.00     0.013 A 
HETATM    3  C3  UNL     1     -35.584  17.647  -4.811  1.00 20.00     0.013 A 
HETATM    4  C4  UNL     1     -35.107  14.000  -5.737  1.00 20.00    -0.005 A 
HETATM    5  C5  UNL     1     -35.834  15.294  -6.054  1.00 20.00    -0.005 A 
HETATM    6  C6  UNL     1     -34.722  13.588  -4.320  1.00 20.00    -0.003 A 
HETATM    7  C7  UNL     1     -36.245  16.301  -4.984  1.00 20.00    -0.003 A 
HETATM    8  C8  UNL     1     -34.300  14.512  -3.196  1.00 20.00     0.020 A 
HETATM    9  C9  UNL     1     -35.487  16.624  -3.714  1.00 20.00     0.020 A 
HETATM   10  C10 UNL     1     -34.166  15.992  -3.390  1.00 20.00     0.129 C 
ENDROOT
BRANCH  10  11
HETATM   11  O12 UNL     1     -33.665  16.558  -2.177  1.00 20.00    -0.390 OA
HETATM   12  C11 UNL     1     -34.645  16.526  -1.152  1.00 20.00     0.202 C 
ENDBRANCH  10  11
TORSDOF 1
ENDMDL
MODEL 7
REMARK VINA RESULT:      -4.8      1.804      3.159
REMARK  1 active torsions:
REMARK  status: ('A' for Active; 'I' for Inactive)
REMARK    1  A    between atoms: C10_10  and  O12_12 
ROOT
HETATM    1  C1  UNL     1     -36.113  15.525  -6.426  1.00 20.00     0.011 A 
HETATM    2  C2  UNL     1     -33.862  17.745  -5.389  1.00 20.00     0.013 A 
HETATM    3  C3  UNL     1     -35.242  13.376  -4.041  1.00 20.00     0.013 A 
HETATM    4  C4  UNL     1     -34.721  15.754  -6.950  1.00 20.00    -0.005 A 
HETATM    5  C5  UNL     1     -35.160  14.365  -6.523  1.00 20.00    -0.005 A 
HETATM    6  C6  UNL     1     -33.612  16.529  -6.247  1.00 20.00    -0.003 A 
HETATM    7  C7  UNL     1     -34.532  13.618  -5.350  1.00 20.00    -0.003 A 
HETATM    8  C8  UNL     1     -33.290  16.499  -4.767  1.00 20.00     0.020 A 
HETATM    9  C9  UNL     1     -34.007  14.232  -4.070  1.00 20.00     0.020 A 
HETATM   10  C10 UNL     1     -34.103  15.702  -3.791  1.00 20.00     0.129 C 
ENDROOT
BRANCH  10  11
HETATM   11  O12 UNL     1     -33.603  15.961  -2.477  1.00 20.00    -0.390 OA
HETATM   12  C11 UNL     1     -34.641  16.381  -1.607  1.00 20.00     0.202 C 
ENDBRANCH  10  11
TORSDOF 1
ENDMDL
MODEL 8
REMARK VINA RESULT:      -4.8      2.150      3.267
REMARK  1 active torsions:
REMARK  status: ('A' for Active; 'I' for Inactive)
REMARK    1  A    between atoms: C10_10  and  O12_12 
ROOT
HETATM    1  C1  UNL     1     -33.676  13.473  -4.174  1.00 20.00     0.011 A 
HETATM    2  C2  UNL     1     -33.725  16.322  -2.458  1.00 20.00     0.013 A 
HETATM    3  C3  UNL     1     -34.190  15.074  -7.044  1.00 20.00     0.013 A 
HETATM    4  C4  UNL     1     -34.830  14.094  -3.436  1.00 20.00    -0.005 A 
HETATM    5  C5  UNL     1     -34.978  13.697  -4.894  1.00 20.00    -0.005 A 
HETATM    6  C6  UNL     1     -34.915  15.539  -2.955  1.00 20.00    -0.003 A 
HETATM    7  C7  UNL     1     -35.226  14.706  -6.010  1.00 20.00    -0.003 A 
HETATM    8  C8  UNL     1     -34.442  16.768  -3.704  1.00 20.00     0.020 A 
HETATM    9  C9  UNL     1     -34.684  16.119  -6.083  1.00 20.00     0.020 A 
HETATM   10  C10 UNL     1     -33.765  16.676  -5.037  1.00 20.00     0.129 C 
ENDROOT
BRANCH  10  11
HETATM   11  O12 UNL     1     -33.361  17.991  -5.426  1.00 20.00    -0.390 OA
HETATM   12  C11 UNL     1     -34.435  18.702  -6.020  1.00 20.00     0.202 C 
ENDBRANCH  10  11
TORSDOF 1
ENDMDL
MODEL 9
REMARK VINA RESULT:      -4.7      1.749      3.258
REMARK  1 active torsions:
REMARK  status: ('A' for Active; 'I' for Inactive)
REMARK    1  A    between atoms: C10_10  and  O12_12 
ROOT
HETATM    1  C1  UNL     1     -33.673  15.917  -2.759  1.00 20.00     0.011 A 
HETATM    2  C2  UNL     1     -33.630  17.707  -5.563  1.00 20.00     0.013 A 
HETATM    3  C3  UNL     1     -35.092  13.338  -4.307  1.00 20.00     0.013 A 
HETATM    4  C4  UNL     1     -34.668  16.948  -3.220  1.00 20.00    -0.005 A 
HETATM    5  C5  UNL     1     -35.133  15.559  -2.820  1.00 20.00    -0.005 A 
HETATM    6  C6  UNL     1     -34.803  17.494  -4.638  1.00 20.00    -0.003 A 
HETATM    7  C7  UNL     1     -35.778  14.583  -3.800  1.00 20.00    -0.003 A 
HETATM    8  C8  UNL     1     -34.689  16.702  -5.924  1.00 20.00     0.020 A 
HETATM    9  C9  UNL     1     -35.449  14.436  -5.271  1.00 20.00     0.020 A 
HETATM   10  C10 UNL     1     -34.368  15.238  -5.931  1.00 20.00     0.129 C 
ENDROOT
BRANCH  10  11
HETATM   11  O12 UNL     1     -34.240  14.815  -7.291  1.00 20.00    -0.390 OA
HETATM   12  C11 UNL     1     -35.506  14.513  -7.855  1.00 20.00     0.202 C 
ENDBRANCH  10  11
TORSDOF 1
ENDMDL
