MODEL 1
REMARK VINA RESULT:      -5.0      0.000      0.000
REMARK  0 active torsions:
REMARK  status: ('A' for Active; 'I' for Inactive)
ROOT
HETATM    1  C1  UNL     1     -35.019  15.025  -3.083  1.00 20.00    -0.010 C 
HETATM    2  C2  UNL     1     -36.466  15.196  -3.397  1.00 20.00     0.155 C 
HETATM    3  C3  UNL     1     -34.335  14.081  -3.742  1.00 20.00    -0.078 C 
HETATM    4  C4  UNL     1     -34.417  15.945  -2.061  1.00 20.00     0.051 C 
HETATM    5  C5  UNL     1     -37.010  16.609  -3.385  1.00 20.00     0.084 C 
HETATM    6  C6  UNL     1     -36.396  17.476  -2.290  1.00 20.00     0.017 C 
HETATM    7  C7  UNL     1     -34.853  17.416  -2.242  1.00 20.00    -0.043 C 
HETATM    8  C8  UNL     1     -32.875  13.836  -3.492  1.00 20.00     0.043 C 
HETATM    9  C9  UNL     1     -34.982  13.205  -4.774  1.00 20.00     0.043 C 
HETATM   10  C10 UNL     1     -34.236  18.020  -3.518  1.00 20.00     0.015 C 
HETATM   11  C11 UNL     1     -34.358  18.237  -1.036  1.00 20.00     0.015 C 
HETATM   12  O12 UNL     1     -37.170  14.244  -3.726  1.00 20.00    -0.293 OA
ENDROOT
TORSDOF 0
ENDMDL
MODEL 2
REMARK VINA RESULT:      -4.9      2.191      4.342
REMARK  0 active torsions:
REMARK  status: ('A' for Active; 'I' for Inactive)
ROOT
HETATM    1  C1  UNL     1     -34.067  16.617  -3.273  1.00 20.00    -0.010 C 
HETATM    2  C2  UNL     1     -33.812  17.379  -4.529  1.00 20.00     0.155 C 
HETATM    3  C3  UNL     1     -34.286  17.307  -2.146  1.00 20.00    -0.078 C 
HETATM    4  C4  UNL     1     -34.085  15.119  -3.362  1.00 20.00     0.051 C 
HETATM    5  C5  UNL     1     -34.381  16.805  -5.809  1.00 20.00     0.084 C 
HETATM    6  C6  UNL     1     -34.321  15.281  -5.858  1.00 20.00     0.017 C 
HETATM    7  C7  UNL     1     -34.869  14.596  -4.586  1.00 20.00    -0.043 C 
HETATM    8  C8  UNL     1     -34.551  16.626  -0.835  1.00 20.00     0.043 C 
HETATM    9  C9  UNL     1     -34.282  18.808  -2.120  1.00 20.00     0.043 C 
HETATM   10  C10 UNL     1     -36.379  14.857  -4.425  1.00 20.00     0.015 C 
HETATM   11  C11 UNL     1     -34.656  13.075  -4.705  1.00 20.00     0.015 C 
HETATM   12  O12 UNL     1     -33.233  18.463  -4.517  1.00 20.00    -0.293 OA
ENDROOT
TORSDOF 0
ENDMDL
MODEL 3
REMARK VINA RESULT:      -4.8      2.358      3.652
REMARK  0 active torsions:
REMARK  status: ('A' for Active; 'I' for Inactive)
ROOT
HETATM    1  C1  UNL     1     -34.810  15.018  -4.547  1.00 20.00    -0.010 C 
HETATM    2  C2  UNL     1     -34.932  13.838  -5.450  1.00 20.00     0.155 C 
HETATM    3  C3  UNL     1     -33.873  14.990  -3.591  1.00 20.00    -0.078 C 
HETATM    4  C4  UNL     1     -35.736  16.174  -4.788  1.00 20.00     0.051 C 
HETATM    5  C5  UNL     1     -35.274  14.113  -6.899  1.00 20.00     0.084 C 
HETATM    6  C6  UNL     1     -36.260  15.266  -7.071  1.00 20.00     0.017 C 
HETATM    7  C7  UNL     1     -35.873  16.537  -6.283  1.00 20.00    -0.043 C 
HETATM    8  C8  UNL     1     -33.677  16.131  -2.636  1.00 20.00     0.043 C 
HETATM    9  C9  UNL     1     -32.956  13.816  -3.411  1.00 20.00     0.043 C 
HETATM   10  C10 UNL     1     -34.564  17.145  -6.824  1.00 20.00     0.015 C 
HETATM   11  C11 UNL     1     -36.990  17.585  -6.444  1.00 20.00     0.015 C 
HETATM   12  O12 UNL     1     -34.691  12.699  -5.056  1.00 20.00    -0.293 OA
ENDROOT
TORSDOF 0
ENDMDL
MODEL 4
REMARK VINA RESULT:      -4.8      1.782      2.599
REMARK  0 active torsions:
REMARK  status: ('A' for Active; 'I' for Inactive)
ROOT
HETATM    1  C1  UNL     1     -34.040  15.458  -4.715  1.00 20.00    -0.010 C 
HETATM    2  C2  UNL     1     -34.137  14.834  -3.364  1.00 20.00     0.155 C 
HETATM    3  C3  UNL     1     -34.433  14.739  -5.774  1.00 20.00    -0.078 C 
HETATM    4  C4  UNL     1     -33.529  16.867  -4.794  1.00 20.00     0.051 C 
HETATM    5  C5  UNL     1     -34.528  15.739  -2.215  1.00 20.00     0.084 C 
HETATM    6  C6  UNL     1     -33.933  17.139  -2.328  1.00 20.00     0.017 C 
HETATM    7  C7  UNL     1     -34.136  17.791  -3.714  1.00 20.00    -0.043 C 
HETATM    8  C8  UNL     1     -34.372  15.284  -7.172  1.00 20.00     0.043 C 
HETATM    9  C9  UNL     1     -34.961  13.341  -5.635  1.00 20.00     0.043 C 
HETATM   10  C10 UNL     1     -35.630  18.049  -3.990  1.00 20.00     0.015 C 
HETATM   11  C11 UNL     1     -33.403  19.145  -3.744  1.00 20.00     0.015 C 
HETATM   12  O12 UNL     1     -33.981  13.626  -3.201  1.00 20.00    -0.293 OA
ENDROOT
TORSDOF 0
ENDMDL
MODEL 5
REMARK VINA RESULT:      -4.7      1.994      3.160
REMARK  0 active torsions:
REMARK  status: ('A' for Active; 'I' for Inactive)
ROOT
HETATM    1  C1  UNL     1     -35.769  14.762  -5.405  1.00 20.00    -0.010 C 
HETATM    2  C2  UNL     1     -36.680  15.066  -4.265  1.00 20.00     0.155 C 
HETATM    3  C3  UNL     1     -36.253  14.869  -6.649  1.00 20.00    -0.078 C 
HETATM    4  C4  UNL     1     -34.356  14.376  -5.080  1.00 20.00     0.051 C 
HETATM    5  C5  UNL     1     -36.071  15.758  -3.065  1.00 20.00     0.084 C 
HETATM    6  C6  UNL     1     -34.654  15.283  -2.756  1.00 20.00     0.017 C 
HETATM    7  C7  UNL     1     -33.722  15.267  -3.988  1.00 20.00    -0.043 C 
HETATM    8  C8  UNL     1     -35.410  14.583  -7.858  1.00 20.00     0.043 C 
HETATM    9  C9  UNL     1     -37.670  15.284  -6.918  1.00 20.00     0.043 C 
HETATM   10  C10 UNL     1     -33.479  16.694  -4.516  1.00 20.00     0.015 C 
HETATM   11  C11 UNL     1     -32.363  14.669  -3.580  1.00 20.00     0.015 C 
HETATM   12  O12 UNL     1     -37.886  14.836  -4.326  1.00 20.00    -0.293 OA
ENDROOT
TORSDOF 0
ENDMDL
MODEL 6
REMARK VINA RESULT:      -4.7      1.147      1.165
REMARK  0 active torsions:
REMARK  status: ('A' for Active; 'I' for Inactive)
ROOT
HETATM    1  C1  UNL     1     -35.100  15.418  -3.510  1.00 20.00    -0.010 C 
HETATM    2  C2  UNL     1     -36.210  16.201  -4.124  1.00 20.00     0.155 C 
HETATM    3  C3  UNL     1     -34.385  14.607  -4.300  1.00 20.00    -0.078 C 
HETATM    4  C4  UNL     1     -34.843  15.612  -2.045  1.00 20.00     0.051 C 
HETATM    5  C5  UNL     1     -36.435  17.603  -3.598  1.00 20.00     0.084 C 
HETATM    6  C6  UNL     1     -36.209  17.720  -2.094  1.00 20.00     0.017 C 
HETATM    7  C7  UNL     1     -34.879  17.096  -1.616  1.00 20.00    -0.043 C 
HETATM    8  C8  UNL     1     -33.250  13.780  -3.770  1.00 20.00     0.043 C 
HETATM    9  C9  UNL     1     -34.671  14.470  -5.767  1.00 20.00     0.043 C 
HETATM   10  C10 UNL     1     -33.671  17.863  -2.188  1.00 20.00     0.015 C 
HETATM   11  C11 UNL     1     -34.812  17.175  -0.079  1.00 20.00     0.015 C 
HETATM   12  O12 UNL     1     -36.865  15.760  -5.067  1.00 20.00    -0.293 OA
ENDROOT
TORSDOF 0
ENDMDL
MODEL 7
REMARK VINA RESULT:      -4.6      2.236      2.948
REMARK  0 active torsions:
REMARK  status: ('A' for Active; 'I' for Inactive)
ROOT
HETATM    1  C1  UNL     1     -34.159  15.921  -5.318  1.00 20.00    -0.010 C 
HETATM    2  C2  UNL     1     -34.229  14.706  -4.457  1.00 20.00     0.155 C 
HETATM    3  C3  UNL     1     -34.554  15.818  -6.593  1.00 20.00    -0.078 C 
HETATM    4  C4  UNL     1     -33.669  17.191  -4.687  1.00 20.00     0.051 C 
HETATM    5  C5  UNL     1     -34.620  14.911  -3.009  1.00 20.00     0.084 C 
HETATM    6  C6  UNL     1     -34.047  16.193  -2.412  1.00 20.00     0.017 C 
HETATM    7  C7  UNL     1     -34.277  17.444  -3.289  1.00 20.00    -0.043 C 
HETATM    8  C8  UNL     1     -34.518  16.987  -7.534  1.00 20.00     0.043 C 
HETATM    9  C9  UNL     1     -35.060  14.526  -7.167  1.00 20.00     0.043 C 
HETATM   10  C10 UNL     1     -35.778  17.777  -3.394  1.00 20.00     0.015 C 
HETATM   11  C11 UNL     1     -33.564  18.647  -2.643  1.00 20.00     0.015 C 
HETATM   12  O12 UNL     1     -34.053  13.580  -4.917  1.00 20.00    -0.293 OA
ENDROOT
TORSDOF 0
ENDMDL
MODEL 8
REMARK VINA RESULT:      -4.3      1.275      3.157
REMARK  0 active torsions:
REMARK  status: ('A' for Active; 'I' for Inactive)
ROOT
HETATM    1  C1  UNL     1     -36.350  16.161  -3.483  1.00 20.00    -0.010 C 
HETATM    2  C2  UNL     1     -35.573  14.968  -3.928  1.00 20.00     0.155 C 
HETATM    3  C3  UNL     1     -37.685  16.067  -3.440  1.00 20.00    -0.078 C 
HETATM    4  C4  UNL     1     -35.577  17.385  -3.089  1.00 20.00     0.051 C 
HETATM    5  C5  UNL     1     -34.249  14.714  -3.239  1.00 20.00     0.084 C 
HETATM    6  C6  UNL     1     -33.490  15.997  -2.913  1.00 20.00     0.017 C 
HETATM    7  C7  UNL     1     -34.351  17.065  -2.204  1.00 20.00    -0.043 C 
HETATM    8  C8  UNL     1     -38.549  17.215  -3.005  1.00 20.00     0.043 C 
HETATM    9  C9  UNL     1     -38.406  14.807  -3.822  1.00 20.00     0.043 C 
HETATM   10  C10 UNL     1     -34.791  16.584  -0.808  1.00 20.00     0.015 C 
HETATM   11  C11 UNL     1     -33.514  18.346  -2.027  1.00 20.00     0.015 C 
HETATM   12  O12 UNL     1     -36.020  14.184  -4.762  1.00 20.00    -0.293 OA
ENDROOT
TORSDOF 0
ENDMDL
MODEL 9
REMARK VINA RESULT:      -4.3      1.780      4.338
REMARK  0 active torsions:
REMARK  status: ('A' for Active; 'I' for Inactive)
ROOT
HETATM    1  C1  UNL     1     -35.741  15.899  -2.983  1.00 20.00    -0.010 C 
HETATM    2  C2  UNL     1     -34.455  16.141  -2.267  1.00 20.00     0.155 C 
HETATM    3  C3  UNL     1     -36.714  16.812  -2.863  1.00 20.00    -0.078 C 
HETATM    4  C4  UNL     1     -35.849  14.655  -3.814  1.00 20.00     0.051 C 
HETATM    5  C5  UNL     1     -33.186  15.710  -2.969  1.00 20.00     0.084 C 
HETATM    6  C6  UNL     1     -33.348  14.410  -3.752  1.00 20.00     0.017 C 
HETATM    7  C7  UNL     1     -34.591  14.390  -4.671  1.00 20.00    -0.043 C 
HETATM    8  C8  UNL     1     -38.041  16.653  -3.546  1.00 20.00     0.043 C 
HETATM    9  C9  UNL     1     -36.543  18.053  -2.037  1.00 20.00     0.043 C 
HETATM   10  C10 UNL     1     -34.463  15.435  -5.797  1.00 20.00     0.015 C 
HETATM   11  C11 UNL     1     -34.711  12.998  -5.320  1.00 20.00     0.015 C 
HETATM   12  O12 UNL     1     -34.420  16.733  -1.190  1.00 20.00    -0.293 OA
ENDROOT
TORSDOF 0
ENDMDL
