MODEL 1
REMARK VINA RESULT:      -5.5      0.000      0.000
REMARK  3 active torsions:
REMARK  status: ('A' for Active; 'I' for Inactive)
REMARK    1  A    between atoms: C6_6  and  C7_7 
REMARK    2  A    between atoms: C8_8  and  C10_10 
REMARK    3  A    between atoms: C9_9  and  C11_11 
ROOT
HETATM    1  C1  UNL     1     -34.481  17.259  -5.488  1.00 20.00    -0.021 C 
HETATM    2  C2  UNL     1     -33.312  16.880  -4.916  1.00 20.00    -0.020 C 
HETATM    3  C5  UNL     1     -35.654  15.322  -4.572  1.00 20.00    -0.003 C 
HETATM    4  C6  UNL     1     -34.443  14.849  -4.194  1.00 20.00     0.024 C 
HETATM    5  C8  UNL     1     -35.729  16.851  -4.651  1.00 20.00     0.039 C 
HETATM    6  C9  UNL     1     -33.462  15.949  -3.711  1.00 20.00     0.056 C 
ENDROOT
BRANCH   4   7
HETATM    7  C7  UNL     1     -34.125  13.379  -4.123  1.00 20.00     0.205 C 
HETATM    8  O12 UNL     1     -35.072  12.601  -4.441  1.00 20.00    -0.644 OA
HETATM    9  O13 UNL     1     -32.947  13.096  -3.755  1.00 20.00    -0.644 OA
ENDBRANCH   4   7
BRANCH   6  10
HETATM   10  C11 UNL     1     -34.356  16.540  -2.598  1.00 20.00     0.029 C 
HETATM   11  C4  UNL     1     -34.723  16.382  -1.146  1.00 20.00    -0.024 C 
HETATM   12  C3  UNL     1     -34.733  17.770  -1.086  1.00 20.00    -0.024 C 
HETATM   13  C10 UNL     1     -33.512  17.726  -1.967  1.00 20.00     0.028 C 
ENDBRANCH   6  10
TORSDOF 3
ENDMDL
MODEL 2
REMARK VINA RESULT:      -5.3      1.103      2.973
REMARK  3 active torsions:
REMARK  status: ('A' for Active; 'I' for Inactive)
REMARK    1  A    between atoms: C6_6  and  C7_7 
REMARK    2  A    between atoms: C8_8  and  C10_10 
REMARK    3  A    between atoms: C9_9  and  C11_11 
ROOT
HETATM    1  C1  UNL     1     -33.801  17.089  -1.919  1.00 20.00    -0.021 C 
HETATM    2  C2  UNL     1     -34.777  16.218  -1.562  1.00 20.00    -0.020 C 
HETATM    3  C5  UNL     1     -33.357  15.871  -3.990  1.00 20.00    -0.003 C 
HETATM    4  C6  UNL     1     -34.174  14.900  -3.518  1.00 20.00     0.024 C 
HETATM    5  C8  UNL     1     -33.682  17.272  -3.461  1.00 20.00     0.039 C 
HETATM    6  C9  UNL     1     -35.394  15.437  -2.724  1.00 20.00     0.056 C 
ENDROOT
BRANCH   4   7
HETATM    7  C7  UNL     1     -33.989  13.442  -3.847  1.00 20.00     0.205 C 
HETATM    8  O12 UNL     1     -32.814  12.995  -3.693  1.00 20.00    -0.644 OA
HETATM    9  O13 UNL     1     -35.029  12.837  -4.238  1.00 20.00    -0.644 OA
ENDBRANCH   4   7
BRANCH   6  10
HETATM   10  C11 UNL     1     -35.965  16.351  -3.831  1.00 20.00     0.029 C 
HETATM   11  C4  UNL     1     -36.816  16.339  -5.073  1.00 20.00    -0.024 C 
HETATM   12  C3  UNL     1     -37.348  17.540  -4.617  1.00 20.00    -0.024 C 
HETATM   13  C10 UNL     1     -37.324  16.922  -3.244  1.00 20.00     0.028 C 
ENDBRANCH   6  10
TORSDOF 3
ENDMDL
MODEL 3
REMARK VINA RESULT:      -5.0      1.020      1.286
REMARK  3 active torsions:
REMARK  status: ('A' for Active; 'I' for Inactive)
REMARK    1  A    between atoms: C6_6  and  C7_7 
REMARK    2  A    between atoms: C8_8  and  C10_10 
REMARK    3  A    between atoms: C9_9  and  C11_11 
ROOT
HETATM    1  C1  UNL     1     -33.680  17.148  -5.148  1.00 20.00    -0.021 C 
HETATM    2  C2  UNL     1     -33.084  16.157  -4.441  1.00 20.00    -0.020 C 
HETATM    3  C5  UNL     1     -35.910  16.332  -4.571  1.00 20.00    -0.003 C 
HETATM    4  C6  UNL     1     -35.304  15.236  -4.056  1.00 20.00     0.024 C 
HETATM    5  C8  UNL     1     -35.043  17.595  -4.541  1.00 20.00     0.039 C 
HETATM    6  C9  UNL     1     -33.958  15.536  -3.348  1.00 20.00     0.056 C 
ENDROOT
BRANCH   4   7
HETATM    7  C7  UNL     1     -35.944  13.872  -4.055  1.00 20.00     0.205 C 
HETATM    8  O12 UNL     1     -37.197  13.859  -3.873  1.00 20.00    -0.644 OA
HETATM    9  O13 UNL     1     -35.153  12.901  -4.236  1.00 20.00    -0.644 OA
ENDBRANCH   4   7
BRANCH   6  10
HETATM   10  C11 UNL     1     -34.491  16.576  -2.338  1.00 20.00     0.029 C 
HETATM   11  C4  UNL     1     -35.055  16.716  -0.949  1.00 20.00    -0.024 C 
HETATM   12  C3  UNL     1     -34.290  17.872  -0.846  1.00 20.00    -0.024 C 
HETATM   13  C10 UNL     1     -33.210  17.109  -1.568  1.00 20.00     0.028 C 
ENDBRANCH   6  10
TORSDOF 3
ENDMDL
MODEL 4
REMARK VINA RESULT:      -4.8      2.223      3.990
REMARK  3 active torsions:
REMARK  status: ('A' for Active; 'I' for Inactive)
REMARK    1  A    between atoms: C6_6  and  C7_7 
REMARK    2  A    between atoms: C8_8  and  C10_10 
REMARK    3  A    between atoms: C9_9  and  C11_11 
ROOT
HETATM    1  C1  UNL     1     -35.145  13.300  -4.138  1.00 20.00    -0.021 C 
HETATM    2  C2  UNL     1     -33.905  13.839  -4.233  1.00 20.00    -0.020 C 
HETATM    3  C5  UNL     1     -36.042  15.333  -3.124  1.00 20.00    -0.003 C 
HETATM    4  C6  UNL     1     -34.765  15.771  -3.028  1.00 20.00     0.024 C 
HETATM    5  C8  UNL     1     -36.281  14.356  -4.279  1.00 20.00     0.039 C 
HETATM    6  C9  UNL     1     -33.871  15.369  -4.229  1.00 20.00     0.056 C 
ENDROOT
BRANCH   4   7
HETATM    7  C7  UNL     1     -34.291  16.677  -1.921  1.00 20.00     0.205 C 
HETATM    8  O12 UNL     1     -34.649  16.343  -0.754  1.00 20.00    -0.644 OA
HETATM    9  O13 UNL     1     -33.591  17.665  -2.291  1.00 20.00    -0.644 OA
ENDBRANCH   4   7
BRANCH   6  10
HETATM   10  C11 UNL     1     -34.739  15.995  -5.343  1.00 20.00     0.029 C 
HETATM   11  C4  UNL     1     -34.968  17.272  -6.107  1.00 20.00    -0.024 C 
HETATM   12  C3  UNL     1     -35.142  16.470  -7.229  1.00 20.00    -0.024 C 
HETATM   13  C10 UNL     1     -33.999  15.644  -6.701  1.00 20.00     0.028 C 
ENDBRANCH   6  10
TORSDOF 3
ENDMDL
MODEL 5
REMARK VINA RESULT:      -4.8      1.295      3.067
REMARK  3 active torsions:
REMARK  status: ('A' for Active; 'I' for Inactive)
REMARK    1  A    between atoms: C6_6  and  C7_7 
REMARK    2  A    between atoms: C8_8  and  C10_10 
REMARK    3  A    between atoms: C9_9  and  C11_11 
ROOT
HETATM    1  C1  UNL     1     -34.811  16.143  -1.937  1.00 20.00    -0.021 C 
HETATM    2  C2  UNL     1     -35.856  16.253  -2.794  1.00 20.00    -0.020 C 
HETATM    3  C5  UNL     1     -33.476  14.932  -3.587  1.00 20.00    -0.003 C 
HETATM    4  C6  UNL     1     -34.596  14.861  -4.344  1.00 20.00     0.024 C 
HETATM    5  C8  UNL     1     -33.430  16.149  -2.656  1.00 20.00     0.039 C 
HETATM    6  C9  UNL     1     -35.484  16.130  -4.274  1.00 20.00     0.056 C 
ENDROOT
BRANCH   4   7
HETATM    7  C7  UNL     1     -34.885  13.710  -5.272  1.00 20.00     0.205 C 
HETATM    8  O12 UNL     1     -34.816  12.559  -4.749  1.00 20.00    -0.644 OA
HETATM    9  O13 UNL     1     -35.162  14.030  -6.465  1.00 20.00    -0.644 OA
ENDBRANCH   4   7
BRANCH   6  10
HETATM   10  C11 UNL     1     -34.411  17.150  -4.714  1.00 20.00     0.029 C 
HETATM   11  C4  UNL     1     -33.751  17.744  -5.930  1.00 20.00    -0.024 C 
HETATM   12  C3  UNL     1     -33.790  18.958  -5.253  1.00 20.00    -0.024 C 
HETATM   13  C10 UNL     1     -35.161  18.546  -4.784  1.00 20.00     0.028 C 
ENDBRANCH   6  10
TORSDOF 3
ENDMDL
MODEL 6
REMARK VINA RESULT:      -4.8      0.904      3.124
REMARK  3 active torsions:
REMARK  status: ('A' for Active; 'I' for Inactive)
REMARK    1  A    between atoms: C6_6  and  C7_7 
REMARK    2  A    between atoms: C8_8  and  C10_10 
REMARK    3  A    between atoms: C9_9  and  C11_11 
ROOT
HETATM    1  C1  UNL     1     -35.085  16.797  -2.001  1.00 20.00    -0.021 C 
HETATM    2  C2  UNL     1     -36.035  16.141  -2.713  1.00 20.00    -0.020 C 
HETATM    3  C5  UNL     1     -33.287  15.575  -3.114  1.00 20.00    -0.003 C 
HETATM    4  C6  UNL     1     -34.245  14.785  -3.653  1.00 20.00     0.024 C 
HETATM    5  C8  UNL     1     -33.759  16.996  -2.792  1.00 20.00     0.039 C 
HETATM    6  C9  UNL     1     -35.543  15.543  -4.034  1.00 20.00     0.056 C 
ENDROOT
BRANCH   4   7
HETATM    7  C7  UNL     1     -34.021  13.330  -3.976  1.00 20.00     0.205 C 
HETATM    8  O12 UNL     1     -35.022  12.719  -4.454  1.00 20.00    -0.644 OA
HETATM    9  O13 UNL     1     -32.859  12.893  -3.732  1.00 20.00    -0.644 OA
ENDBRANCH   4   7
BRANCH   6  10
HETATM   10  C11 UNL     1     -34.897  16.589  -4.968  1.00 20.00     0.029 C 
HETATM   11  C4  UNL     1     -34.372  16.784  -6.366  1.00 20.00    -0.024 C 
HETATM   12  C3  UNL     1     -34.956  18.045  -6.318  1.00 20.00    -0.024 C 
HETATM   13  C10 UNL     1     -36.111  17.382  -5.614  1.00 20.00     0.028 C 
ENDBRANCH   6  10
TORSDOF 3
ENDMDL
MODEL 7
REMARK VINA RESULT:      -4.8      2.212      3.218
REMARK  3 active torsions:
REMARK  status: ('A' for Active; 'I' for Inactive)
REMARK    1  A    between atoms: C6_6  and  C7_7 
REMARK    2  A    between atoms: C8_8  and  C10_10 
REMARK    3  A    between atoms: C9_9  and  C11_11 
ROOT
HETATM    1  C1  UNL     1     -33.491  13.928  -3.684  1.00 20.00    -0.021 C 
HETATM    2  C2  UNL     1     -34.774  14.275  -3.416  1.00 20.00    -0.020 C 
HETATM    3  C5  UNL     1     -33.107  15.989  -4.938  1.00 20.00    -0.003 C 
HETATM    4  C6  UNL     1     -34.439  16.216  -4.847  1.00 20.00     0.024 C 
HETATM    5  C8  UNL     1     -32.537  15.154  -3.787  1.00 20.00     0.039 C 
HETATM    6  C9  UNL     1     -35.060  15.777  -3.496  1.00 20.00     0.056 C 
ENDROOT
BRANCH   4   7
HETATM    7  C7  UNL     1     -35.218  16.948  -5.908  1.00 20.00     0.205 C 
HETATM    8  O12 UNL     1     -36.219  17.602  -5.493  1.00 20.00    -0.644 OA
HETATM    9  O13 UNL     1     -34.779  16.822  -7.089  1.00 20.00    -0.644 OA
ENDBRANCH   4   7
BRANCH   6  10
HETATM   10  C11 UNL     1     -34.147  16.615  -2.575  1.00 20.00     0.029 C 
HETATM   11  C4  UNL     1     -33.928  18.012  -2.055  1.00 20.00    -0.024 C 
HETATM   12  C3  UNL     1     -33.635  17.419  -0.832  1.00 20.00    -0.024 C 
HETATM   13  C10 UNL     1     -34.771  16.474  -1.123  1.00 20.00     0.028 C 
ENDBRANCH   6  10
TORSDOF 3
ENDMDL
MODEL 8
REMARK VINA RESULT:      -4.8      1.227      3.564
REMARK  3 active torsions:
REMARK  status: ('A' for Active; 'I' for Inactive)
REMARK    1  A    between atoms: C6_6  and  C7_7 
REMARK    2  A    between atoms: C8_8  and  C10_10 
REMARK    3  A    between atoms: C9_9  and  C11_11 
ROOT
HETATM    1  C1  UNL     1     -34.981  17.289  -3.141  1.00 20.00    -0.021 C 
HETATM    2  C2  UNL     1     -35.968  16.477  -3.595  1.00 20.00    -0.020 C 
HETATM    3  C5  UNL     1     -33.246  15.763  -3.934  1.00 20.00    -0.003 C 
HETATM    4  C6  UNL     1     -34.235  14.872  -4.183  1.00 20.00     0.024 C 
HETATM    5  C8  UNL     1     -33.692  17.226  -4.011  1.00 20.00     0.039 C 
HETATM    6  C9  UNL     1     -35.544  15.517  -4.708  1.00 20.00     0.056 C 
ENDROOT
BRANCH   4   7
HETATM    7  C7  UNL     1     -34.038  13.382  -4.086  1.00 20.00     0.205 C 
HETATM    8  O12 UNL     1     -32.888  13.008  -3.711  1.00 20.00    -0.644 OA
HETATM    9  O13 UNL     1     -35.046  12.680  -4.391  1.00 20.00    -0.644 OA
ENDBRANCH   4   7
BRANCH   6  10
HETATM   10  C11 UNL     1     -34.934  16.240  -5.930  1.00 20.00     0.029 C 
HETATM   11  C4  UNL     1     -34.510  16.026  -7.359  1.00 20.00    -0.024 C 
HETATM   12  C3  UNL     1     -35.044  17.284  -7.616  1.00 20.00    -0.024 C 
HETATM   13  C10 UNL     1     -36.164  16.896  -6.687  1.00 20.00     0.028 C 
ENDBRANCH   6  10
TORSDOF 3
ENDMDL
MODEL 9
REMARK VINA RESULT:      -4.7      1.352      2.341
REMARK  3 active torsions:
REMARK  status: ('A' for Active; 'I' for Inactive)
REMARK    1  A    between atoms: C6_6  and  C7_7 
REMARK    2  A    between atoms: C8_8  and  C10_10 
REMARK    3  A    between atoms: C9_9  and  C11_11 
ROOT
HETATM    1  C1  UNL     1     -33.467  17.361  -5.184  1.00 20.00    -0.021 C 
HETATM    2  C2  UNL     1     -33.581  17.008  -3.880  1.00 20.00    -0.020 C 
HETATM    3  C5  UNL     1     -34.424  15.239  -5.928  1.00 20.00    -0.003 C 
HETATM    4  C6  UNL     1     -34.330  14.821  -4.644  1.00 20.00     0.024 C 
HETATM    5  C8  UNL     1     -34.588  16.755  -6.080  1.00 20.00     0.039 C 
HETATM    6  C9  UNL     1     -34.629  15.928  -3.599  1.00 20.00     0.056 C 
ENDROOT
BRANCH   4   7
HETATM    7  C7  UNL     1     -34.089  13.383  -4.267  1.00 20.00     0.205 C 
HETATM    8  O12 UNL     1     -32.948  13.133  -3.777  1.00 20.00    -0.644 OA
HETATM    9  O13 UNL     1     -35.055  12.595  -4.485  1.00 20.00    -0.644 OA
ENDBRANCH   4   7
BRANCH   6  10
HETATM   10  C11 UNL     1     -36.038  16.306  -4.107  1.00 20.00     0.029 C 
HETATM   11  C4  UNL     1     -37.484  15.890  -4.047  1.00 20.00    -0.024 C 
HETATM   12  C3  UNL     1     -37.783  17.245  -3.974  1.00 20.00    -0.024 C 
HETATM   13  C10 UNL     1     -36.591  17.365  -3.062  1.00 20.00     0.028 C 
ENDBRANCH   6  10
TORSDOF 3
ENDMDL
