MODEL 1
REMARK VINA RESULT:      -5.8      0.000      0.000
REMARK  2 active torsions:
REMARK  status: ('A' for Active; 'I' for Inactive)
REMARK    1  A    between atoms: C7_7  and  C9_9 
REMARK    2  A    between atoms: C8_8  and  C9_9 
ROOT
HETATM    1  C1  UNL     1     -32.261   9.157   0.703  1.00 20.00     0.012 C 
HETATM    2  C2  UNL     1     -32.040   8.593   1.741  1.00 20.00    -0.117 C 
HETATM    3  C8  UNL     1     -31.768   7.906   3.010  1.00 20.00     0.093 C 
ENDROOT
BRANCH   3   4
HETATM    4  C9  UNL     1     -32.295   6.482   2.967  1.00 20.00     0.017 C 
BRANCH   4   5
HETATM    5  C7  UNL     1     -33.623   6.369   3.698  1.00 20.00    -0.006 C 
HETATM    6  C5  UNL     1     -33.456   6.141   5.202  1.00 20.00     0.082 C 
HETATM    7  C3  UNL     1     -34.746   5.443   5.551  1.00 20.00     0.127 C 
HETATM    8  C4  UNL     1     -35.502   4.995   4.327  1.00 20.00     0.079 C 
HETATM    9  O10 UNL     1     -35.134   5.263   6.698  1.00 20.00    -0.298 OA
HETATM   10  C6  UNL     1     -34.457   5.174   3.233  1.00 20.00     0.012 C 
ENDBRANCH   4   5
ENDBRANCH   3   4
TORSDOF 2
ENDMDL
MODEL 2
REMARK VINA RESULT:      -5.5      1.101      1.707
REMARK  2 active torsions:
REMARK  status: ('A' for Active; 'I' for Inactive)
REMARK    1  A    between atoms: C7_7  and  C9_9 
REMARK    2  A    between atoms: C8_8  and  C9_9 
ROOT
HETATM    1  C1  UNL     1     -32.186   9.485   0.953  1.00 20.00     0.012 C 
HETATM    2  C2  UNL     1     -32.190   8.544   1.699  1.00 20.00    -0.117 C 
HETATM    3  C8  UNL     1     -32.193   7.391   2.609  1.00 20.00     0.093 C 
ENDROOT
BRANCH   3   4
HETATM    4  C9  UNL     1     -33.283   7.543   3.657  1.00 20.00     0.017 C 
BRANCH   4   5
HETATM    5  C7  UNL     1     -33.430   6.273   4.479  1.00 20.00    -0.006 C 
HETATM    6  C5  UNL     1     -34.441   5.292   3.881  1.00 20.00     0.082 C 
HETATM    7  C3  UNL     1     -34.877   4.521   5.100  1.00 20.00     0.127 C 
HETATM    8  C4  UNL     1     -34.421   5.171   6.381  1.00 20.00     0.079 C 
HETATM    9  O10 UNL     1     -35.527   3.485   5.055  1.00 20.00    -0.298 OA
HETATM   10  C6  UNL     1     -33.961   6.538   5.889  1.00 20.00     0.012 C 
ENDBRANCH   4   5
ENDBRANCH   3   4
TORSDOF 2
ENDMDL
MODEL 3
REMARK VINA RESULT:      -5.0     10.865     11.621
REMARK  2 active torsions:
REMARK  status: ('A' for Active; 'I' for Inactive)
REMARK    1  A    between atoms: C7_7  and  C9_9 
REMARK    2  A    between atoms: C8_8  and  C9_9 
ROOT
HETATM    1  C1  UNL     1     -32.504  18.814  -0.015  1.00 20.00     0.012 C 
HETATM    2  C2  UNL     1     -33.304  17.994  -0.377  1.00 20.00    -0.117 C 
HETATM    3  C8  UNL     1     -34.282  16.991  -0.817  1.00 20.00     0.093 C 
ENDROOT
BRANCH   3   4
HETATM    4  C9  UNL     1     -34.023  16.593  -2.260  1.00 20.00     0.017 C 
BRANCH   4   5
HETATM    5  C7  UNL     1     -34.799  15.338  -2.628  1.00 20.00    -0.006 C 
HETATM    6  C5  UNL     1     -33.968  14.343  -3.441  1.00 20.00     0.082 C 
HETATM    7  C3  UNL     1     -35.038  13.593  -4.193  1.00 20.00     0.127 C 
HETATM    8  C4  UNL     1     -36.382  14.268  -4.099  1.00 20.00     0.079 C 
HETATM    9  O10 UNL     1     -34.837  12.554  -4.808  1.00 20.00    -0.298 OA
HETATM   10  C6  UNL     1     -36.007  15.627  -3.519  1.00 20.00     0.012 C 
ENDBRANCH   4   5
ENDBRANCH   3   4
TORSDOF 2
ENDMDL
MODEL 4
REMARK VINA RESULT:      -4.9     11.060     12.114
REMARK  2 active torsions:
REMARK  status: ('A' for Active; 'I' for Inactive)
REMARK    1  A    between atoms: C7_7  and  C9_9 
REMARK    2  A    between atoms: C8_8  and  C9_9 
ROOT
HETATM    1  C1  UNL     1     -34.603  17.479   0.274  1.00 20.00     0.012 C 
HETATM    2  C2  UNL     1     -34.692  16.814  -0.722  1.00 20.00    -0.117 C 
HETATM    3  C8  UNL     1     -34.802  15.998  -1.938  1.00 20.00     0.093 C 
ENDROOT
BRANCH   3   4
HETATM    4  C9  UNL     1     -33.541  16.119  -2.777  1.00 20.00     0.017 C 
BRANCH   4   5
HETATM    5  C7  UNL     1     -33.541  15.109  -3.912  1.00 20.00    -0.006 C 
HETATM    6  C5  UNL     1     -34.229  15.634  -5.175  1.00 20.00     0.082 C 
HETATM    7  C3  UNL     1     -34.669  14.355  -5.838  1.00 20.00     0.127 C 
HETATM    8  C4  UNL     1     -34.549  13.165  -4.922  1.00 20.00     0.079 C 
HETATM    9  O10 UNL     1     -35.076  14.290  -6.991  1.00 20.00    -0.298 OA
HETATM   10  C6  UNL     1     -34.314  13.834  -3.573  1.00 20.00     0.012 C 
ENDBRANCH   4   5
ENDBRANCH   3   4
TORSDOF 2
ENDMDL
MODEL 5
REMARK VINA RESULT:      -4.7     11.138     12.105
REMARK  2 active torsions:
REMARK  status: ('A' for Active; 'I' for Inactive)
REMARK    1  A    between atoms: C7_7  and  C9_9 
REMARK    2  A    between atoms: C8_8  and  C9_9 
ROOT
HETATM    1  C1  UNL     1     -35.046  17.427   0.535  1.00 20.00     0.012 C 
HETATM    2  C2  UNL     1     -34.673  16.935  -0.495  1.00 20.00    -0.117 C 
HETATM    3  C8  UNL     1     -34.214  16.332  -1.753  1.00 20.00     0.093 C 
ENDROOT
BRANCH   3   4
HETATM    4  C9  UNL     1     -34.929  16.962  -2.936  1.00 20.00     0.017 C 
BRANCH   4   5
HETATM    5  C7  UNL     1     -35.226  15.926  -4.009  1.00 20.00    -0.006 C 
HETATM    6  C5  UNL     1     -35.032  14.489  -3.518  1.00 20.00     0.082 C 
HETATM    7  C3  UNL     1     -34.739  13.763  -4.805  1.00 20.00     0.127 C 
HETATM    8  C4  UNL     1     -34.461  14.708  -5.945  1.00 20.00     0.079 C 
HETATM    9  O10 UNL     1     -34.729  12.543  -4.912  1.00 20.00    -0.298 OA
HETATM   10  C6  UNL     1     -34.289  16.034  -5.214  1.00 20.00     0.012 C 
ENDBRANCH   4   5
ENDBRANCH   3   4
TORSDOF 2
ENDMDL
MODEL 6
REMARK VINA RESULT:      -4.3     10.914     11.941
REMARK  2 active torsions:
REMARK  status: ('A' for Active; 'I' for Inactive)
REMARK    1  A    between atoms: C7_7  and  C9_9 
REMARK    2  A    between atoms: C8_8  and  C9_9 
ROOT
HETATM    1  C1  UNL     1     -33.526  13.758  -3.819  1.00 20.00     0.012 C 
HETATM    2  C2  UNL     1     -34.040  14.654  -3.206  1.00 20.00    -0.117 C 
HETATM    3  C8  UNL     1     -34.673  15.747  -2.457  1.00 20.00     0.093 C 
ENDROOT
BRANCH   3   4
HETATM    4  C9  UNL     1     -33.693  16.891  -2.258  1.00 20.00     0.017 C 
BRANCH   4   5
HETATM    5  C7  UNL     1     -34.113  17.774  -1.094  1.00 20.00    -0.006 C 
HETATM    6  C5  UNL     1     -32.922  18.358  -0.331  1.00 20.00     0.082 C 
HETATM    7  C3  UNL     1     -33.519  18.595   1.033  1.00 20.00     0.127 C 
HETATM    8  C4  UNL     1     -34.860  17.926   1.194  1.00 20.00     0.079 C 
HETATM    9  O10 UNL     1     -32.976  19.255   1.909  1.00 20.00    -0.298 OA
HETATM   10  C6  UNL     1     -34.900  17.014  -0.026  1.00 20.00     0.012 C 
ENDBRANCH   4   5
ENDBRANCH   3   4
TORSDOF 2
ENDMDL
MODEL 7
REMARK VINA RESULT:      -4.3     11.753     12.837
REMARK  2 active torsions:
REMARK  status: ('A' for Active; 'I' for Inactive)
REMARK    1  A    between atoms: C7_7  and  C9_9 
REMARK    2  A    between atoms: C8_8  and  C9_9 
ROOT
HETATM    1  C1  UNL     1     -34.880  17.154   0.143  1.00 20.00     0.012 C 
HETATM    2  C2  UNL     1     -34.462  16.805  -0.928  1.00 20.00    -0.117 C 
HETATM    3  C8  UNL     1     -33.949  16.382  -2.237  1.00 20.00     0.093 C 
ENDROOT
BRANCH   3   4
HETATM    4  C9  UNL     1     -34.902  15.393  -2.887  1.00 20.00     0.017 C 
BRANCH   4   5
HETATM    5  C7  UNL     1     -35.050  15.674  -4.374  1.00 20.00    -0.006 C 
HETATM    6  C5  UNL     1     -35.620  14.484  -5.149  1.00 20.00     0.082 C 
HETATM    7  C3  UNL     1     -35.077  14.732  -6.533  1.00 20.00     0.127 C 
HETATM    8  C4  UNL     1     -34.011  15.798  -6.546  1.00 20.00     0.079 C 
HETATM    9  O10 UNL     1     -35.459  14.137  -7.532  1.00 20.00    -0.298 OA
HETATM   10  C6  UNL     1     -33.713  15.957  -5.060  1.00 20.00     0.012 C 
ENDBRANCH   4   5
ENDBRANCH   3   4
TORSDOF 2
ENDMDL
MODEL 8
REMARK VINA RESULT:      -4.2     12.083     13.545
REMARK  2 active torsions:
REMARK  status: ('A' for Active; 'I' for Inactive)
REMARK    1  A    between atoms: C7_7  and  C9_9 
REMARK    2  A    between atoms: C8_8  and  C9_9 
ROOT
HETATM    1  C1  UNL     1     -34.415  17.081  -0.462  1.00 20.00     0.012 C 
HETATM    2  C2  UNL     1     -34.522  16.405  -1.449  1.00 20.00    -0.117 C 
HETATM    3  C8  UNL     1     -34.658  15.578  -2.655  1.00 20.00     0.093 C 
ENDROOT
BRANCH   3   4
HETATM    4  C9  UNL     1     -33.306  15.383  -3.321  1.00 20.00     0.017 C 
BRANCH   4   5
HETATM    5  C7  UNL     1     -33.328  15.880  -4.757  1.00 20.00    -0.006 C 
HETATM    6  C5  UNL     1     -33.460  17.401  -4.858  1.00 20.00     0.082 C 
HETATM    7  C3  UNL     1     -34.092  17.564  -6.217  1.00 20.00     0.127 C 
HETATM    8  C4  UNL     1     -34.597  16.258  -6.772  1.00 20.00     0.079 C 
HETATM    9  O10 UNL     1     -34.183  18.635  -6.802  1.00 20.00    -0.298 OA
HETATM   10  C6  UNL     1     -34.525  15.351  -5.550  1.00 20.00     0.012 C 
ENDBRANCH   4   5
ENDBRANCH   3   4
TORSDOF 2
ENDMDL
MODEL 9
REMARK VINA RESULT:      -4.2     11.042     12.079
REMARK  2 active torsions:
REMARK  status: ('A' for Active; 'I' for Inactive)
REMARK    1  A    between atoms: C7_7  and  C9_9 
REMARK    2  A    between atoms: C8_8  and  C9_9 
ROOT
HETATM    1  C1  UNL     1     -34.371  15.097  -7.483  1.00 20.00     0.012 C 
HETATM    2  C2  UNL     1     -34.809  14.506  -6.533  1.00 20.00    -0.117 C 
HETATM    3  C8  UNL     1     -35.348  13.785  -5.372  1.00 20.00     0.093 C 
ENDROOT
BRANCH   3   4
HETATM    4  C9  UNL     1     -34.251  13.517  -4.356  1.00 20.00     0.017 C 
BRANCH   4   5
HETATM    5  C7  UNL     1     -34.322  14.504  -3.202  1.00 20.00    -0.006 C 
HETATM    6  C5  UNL     1     -35.662  15.240  -3.132  1.00 20.00     0.082 C 
HETATM    7  C3  UNL     1     -35.276  16.513  -2.423  1.00 20.00     0.127 C 
HETATM    8  C4  UNL     1     -33.782  16.693  -2.345  1.00 20.00     0.079 C 
HETATM    9  O10 UNL     1     -36.084  17.309  -1.963  1.00 20.00    -0.298 OA
HETATM   10  C6  UNL     1     -33.290  15.627  -3.317  1.00 20.00     0.012 C 
ENDBRANCH   4   5
ENDBRANCH   3   4
TORSDOF 2
ENDMDL
