MODEL 1
REMARK VINA RESULT:      -3.7      0.000      0.000
REMARK  3 active torsions:
REMARK  status: ('A' for Active; 'I' for Inactive)
REMARK    1  A    between atoms: C6_6  and  N10_10 
REMARK    2  A    between atoms: C7_7  and  C8_8 
REMARK    3  A    between atoms: C7_7  and  N10_10 
ROOT
HETATM    1  C1  UNL     1     -34.151  13.695  -4.066  1.00 20.00     0.086 C 
HETATM    2  C6  UNL     1     -33.227  14.778  -3.745  1.00 20.00     0.357 C 
HETATM    3  N9  UNL     1     -34.884  12.832  -4.321  1.00 20.00    -0.196 NA
ENDROOT
BRANCH   2   4
HETATM    4  N10 UNL     1     -33.871  16.107  -4.059  1.00 20.00    -0.062 N 
HETATM    5  C5  UNL     1     -33.451  16.606  -5.420  1.00 20.00     0.270 C 
HETATM    6  H27 UNL     1     -34.886  15.924  -4.123  1.00 20.00     0.280 HD
BRANCH   4   7
HETATM    7  C7  UNL     1     -33.655  17.112  -2.990  1.00 20.00     0.243 C 
BRANCH   7   8
HETATM    8  C8  UNL     1     -34.915  17.337  -2.127  1.00 20.00    -0.027 C 
HETATM    9  C2  UNL     1     -36.169  16.756  -2.803  1.00 20.00     0.016 C 
HETATM   10  C3  UNL     1     -34.702  16.610  -0.785  1.00 20.00     0.016 C 
HETATM   11  C4  UNL     1     -35.140  18.832  -1.841  1.00 20.00     0.016 C 
ENDBRANCH   7   8
ENDBRANCH   4   7
ENDBRANCH   2   4
TORSDOF 3
ENDMDL
MODEL 2
REMARK VINA RESULT:      -3.7      1.378      2.003
REMARK  3 active torsions:
REMARK  status: ('A' for Active; 'I' for Inactive)
REMARK    1  A    between atoms: C6_6  and  N10_10 
REMARK    2  A    between atoms: C7_7  and  C8_8 
REMARK    3  A    between atoms: C7_7  and  N10_10 
ROOT
HETATM    1  C1  UNL     1     -35.486  13.615  -4.219  1.00 20.00     0.086 C 
HETATM    2  C6  UNL     1     -36.332  14.732  -3.809  1.00 20.00     0.357 C 
HETATM    3  N9  UNL     1     -34.816  12.725  -4.545  1.00 20.00    -0.196 NA
ENDROOT
BRANCH   2   4
HETATM    4  N10 UNL     1     -35.493  15.977  -3.657  1.00 20.00    -0.062 N 
HETATM    5  C5  UNL     1     -34.672  16.234  -4.898  1.00 20.00     0.270 C 
HETATM    6  H27 UNL     1     -36.159  16.764  -3.588  1.00 20.00     0.280 HD
BRANCH   4   7
HETATM    7  C7  UNL     1     -34.672  15.964  -2.422  1.00 20.00     0.243 C 
BRANCH   7   8
HETATM    8  C8  UNL     1     -34.793  17.277  -1.619  1.00 20.00    -0.027 C 
HETATM    9  C2  UNL     1     -33.666  18.261  -1.978  1.00 20.00     0.016 C 
HETATM   10  C3  UNL     1     -36.142  17.927  -1.981  1.00 20.00     0.016 C 
HETATM   11  C4  UNL     1     -34.771  17.012  -0.103  1.00 20.00     0.016 C 
ENDBRANCH   7   8
ENDBRANCH   4   7
ENDBRANCH   2   4
TORSDOF 3
ENDMDL
MODEL 3
REMARK VINA RESULT:      -3.7      1.831      3.810
REMARK  3 active torsions:
REMARK  status: ('A' for Active; 'I' for Inactive)
REMARK    1  A    between atoms: C6_6  and  N10_10 
REMARK    2  A    between atoms: C7_7  and  C8_8 
REMARK    3  A    between atoms: C7_7  and  N10_10 
ROOT
HETATM    1  C1  UNL     1     -35.543  13.622  -4.183  1.00 20.00     0.086 C 
HETATM    2  C6  UNL     1     -36.440  14.724  -3.846  1.00 20.00     0.357 C 
HETATM    3  N9  UNL     1     -34.832  12.744  -4.450  1.00 20.00    -0.196 NA
ENDROOT
BRANCH   2   4
HETATM    4  N10 UNL     1     -35.753  16.040  -4.118  1.00 20.00    -0.062 N 
HETATM    5  C5  UNL     1     -36.226  17.108  -3.162  1.00 20.00     0.270 C 
HETATM    6  H27 UNL     1     -34.752  15.889  -3.904  1.00 20.00     0.280 HD
BRANCH   4   7
HETATM    7  C7  UNL     1     -35.859  16.457  -5.537  1.00 20.00     0.243 C 
BRANCH   7   8
HETATM    8  C8  UNL     1     -34.491  16.466  -6.254  1.00 20.00    -0.027 C 
HETATM    9  C2  UNL     1     -34.344  15.260  -7.197  1.00 20.00     0.016 C 
HETATM   10  C3  UNL     1     -34.409  17.756  -7.093  1.00 20.00     0.016 C 
HETATM   11  C4  UNL     1     -33.330  16.465  -5.245  1.00 20.00     0.016 C 
ENDBRANCH   7   8
ENDBRANCH   4   7
ENDBRANCH   2   4
TORSDOF 3
ENDMDL
MODEL 4
REMARK VINA RESULT:      -3.7      1.084      1.899
REMARK  3 active torsions:
REMARK  status: ('A' for Active; 'I' for Inactive)
REMARK    1  A    between atoms: C6_6  and  N10_10 
REMARK    2  A    between atoms: C7_7  and  C8_8 
REMARK    3  A    between atoms: C7_7  and  N10_10 
ROOT
HETATM    1  C1  UNL     1     -34.201  13.817  -4.040  1.00 20.00     0.086 C 
HETATM    2  C6  UNL     1     -33.458  15.041  -3.757  1.00 20.00     0.357 C 
HETATM    3  N9  UNL     1     -34.790  12.842  -4.266  1.00 20.00    -0.196 NA
ENDROOT
BRANCH   2   4
HETATM    4  N10 UNL     1     -34.419  16.151  -3.410  1.00 20.00    -0.062 N 
HETATM    5  C5  UNL     1     -35.369  16.425  -4.551  1.00 20.00     0.270 C 
HETATM    6  H27 UNL     1     -35.001  15.793  -2.634  1.00 20.00     0.280 HD
BRANCH   4   7
HETATM    7  C7  UNL     1     -33.730  17.376  -2.936  1.00 20.00     0.243 C 
BRANCH   7   8
HETATM    8  C8  UNL     1     -34.181  17.797  -1.521  1.00 20.00    -0.027 C 
HETATM    9  C2  UNL     1     -33.031  18.454  -0.738  1.00 20.00     0.016 C 
HETATM   10  C3  UNL     1     -35.317  18.826  -1.677  1.00 20.00     0.016 C 
HETATM   11  C4  UNL     1     -34.717  16.596  -0.722  1.00 20.00     0.016 C 
ENDBRANCH   7   8
ENDBRANCH   4   7
ENDBRANCH   2   4
TORSDOF 3
ENDMDL
MODEL 5
REMARK VINA RESULT:      -3.6      2.279      3.418
REMARK  3 active torsions:
REMARK  status: ('A' for Active; 'I' for Inactive)
REMARK    1  A    between atoms: C6_6  and  N10_10 
REMARK    2  A    between atoms: C7_7  and  C8_8 
REMARK    3  A    between atoms: C7_7  and  N10_10 
ROOT
HETATM    1  C1  UNL     1     -37.819  14.975  -4.536  1.00 20.00     0.086 C 
HETATM    2  C6  UNL     1     -37.074  15.781  -5.499  1.00 20.00     0.357 C 
HETATM    3  N9  UNL     1     -38.414  14.334  -3.772  1.00 20.00    -0.196 NA
ENDROOT
BRANCH   2   4
HETATM    4  N10 UNL     1     -35.930  16.477  -4.803  1.00 20.00    -0.062 N 
HETATM    5  C5  UNL     1     -35.874  17.938  -5.177  1.00 20.00     0.270 C 
HETATM    6  H27 UNL     1     -36.151  16.449  -3.793  1.00 20.00     0.280 HD
BRANCH   4   7
HETATM    7  C7  UNL     1     -34.634  15.785  -5.005  1.00 20.00     0.243 C 
BRANCH   7   8
HETATM    8  C8  UNL     1     -34.171  15.019  -3.748  1.00 20.00    -0.027 C 
HETATM    9  C2  UNL     1     -34.560  13.532  -3.822  1.00 20.00     0.016 C 
HETATM   10  C3  UNL     1     -32.635  15.119  -3.674  1.00 20.00     0.016 C 
HETATM   11  C4  UNL     1     -34.761  15.634  -2.467  1.00 20.00     0.016 C 
ENDBRANCH   7   8
ENDBRANCH   4   7
ENDBRANCH   2   4
TORSDOF 3
ENDMDL
MODEL 6
REMARK VINA RESULT:      -3.6      2.225      3.491
REMARK  3 active torsions:
REMARK  status: ('A' for Active; 'I' for Inactive)
REMARK    1  A    between atoms: C6_6  and  N10_10 
REMARK    2  A    between atoms: C7_7  and  C8_8 
REMARK    3  A    between atoms: C7_7  and  N10_10 
ROOT
HETATM    1  C1  UNL     1     -37.589  14.994  -4.470  1.00 20.00     0.086 C 
HETATM    2  C6  UNL     1     -36.838  15.881  -5.353  1.00 20.00     0.357 C 
HETATM    3  N9  UNL     1     -38.188  14.290  -3.767  1.00 20.00    -0.196 NA
ENDROOT
BRANCH   2   4
HETATM    4  N10 UNL     1     -35.470  15.299  -5.616  1.00 20.00    -0.062 N 
HETATM    5  C5  UNL     1     -35.488  14.391  -6.821  1.00 20.00     0.270 C 
HETATM    6  H27 UNL     1     -34.864  16.098  -5.869  1.00 20.00     0.280 HD
BRANCH   4   7
HETATM    7  C7  UNL     1     -34.888  14.646  -4.418  1.00 20.00     0.243 C 
BRANCH   7   8
HETATM    8  C8  UNL     1     -33.713  15.449  -3.820  1.00 20.00    -0.027 C 
HETATM    9  C2  UNL     1     -33.290  16.601  -4.748  1.00 20.00     0.016 C 
HETATM   10  C3  UNL     1     -34.185  16.048  -2.481  1.00 20.00     0.016 C 
HETATM   11  C4  UNL     1     -32.497  14.545  -3.548  1.00 20.00     0.016 C 
ENDBRANCH   7   8
ENDBRANCH   4   7
ENDBRANCH   2   4
TORSDOF 3
ENDMDL
MODEL 7
REMARK VINA RESULT:      -3.6      1.505      1.892
REMARK  3 active torsions:
REMARK  status: ('A' for Active; 'I' for Inactive)
REMARK    1  A    between atoms: C6_6  and  N10_10 
REMARK    2  A    between atoms: C7_7  and  C8_8 
REMARK    3  A    between atoms: C7_7  and  N10_10 
ROOT
HETATM    1  C1  UNL     1     -34.843  13.566  -5.230  1.00 20.00     0.086 C 
HETATM    2  C6  UNL     1     -34.676  14.443  -6.385  1.00 20.00     0.357 C 
HETATM    3  N9  UNL     1     -34.975  12.866  -4.314  1.00 20.00    -0.196 NA
ENDROOT
BRANCH   2   4
HETATM    4  N10 UNL     1     -34.679  15.883  -5.935  1.00 20.00    -0.062 N 
HETATM    5  C5  UNL     1     -34.509  16.820  -7.106  1.00 20.00     0.270 C 
HETATM    6  H27 UNL     1     -35.625  16.064  -5.560  1.00 20.00     0.280 HD
BRANCH   4   7
HETATM    7  C7  UNL     1     -33.701  16.144  -4.850  1.00 20.00     0.243 C 
BRANCH   7   8
HETATM    8  C8  UNL     1     -34.330  16.895  -3.656  1.00 20.00    -0.027 C 
HETATM    9  C2  UNL     1     -35.866  16.834  -3.701  1.00 20.00     0.016 C 
HETATM   10  C3  UNL     1     -33.851  16.208  -2.363  1.00 20.00     0.016 C 
HETATM   11  C4  UNL     1     -33.882  18.367  -3.622  1.00 20.00     0.016 C 
ENDBRANCH   7   8
ENDBRANCH   4   7
ENDBRANCH   2   4
TORSDOF 3
ENDMDL
MODEL 8
REMARK VINA RESULT:      -3.5      1.428      3.165
REMARK  3 active torsions:
REMARK  status: ('A' for Active; 'I' for Inactive)
REMARK    1  A    between atoms: C6_6  and  N10_10 
REMARK    2  A    between atoms: C7_7  and  C8_8 
REMARK    3  A    between atoms: C7_7  and  N10_10 
ROOT
HETATM    1  C1  UNL     1     -34.054  13.665  -3.997  1.00 20.00     0.086 C 
HETATM    2  C6  UNL     1     -33.112  14.740  -3.699  1.00 20.00     0.357 C 
HETATM    3  N9  UNL     1     -34.801  12.808  -4.234  1.00 20.00    -0.196 NA
ENDROOT
BRANCH   2   4
HETATM    4  N10 UNL     1     -33.855  16.047  -3.572  1.00 20.00    -0.062 N 
HETATM    5  C5  UNL     1     -34.231  16.322  -2.136  1.00 20.00     0.270 C 
HETATM    6  H27 UNL     1     -33.182  16.786  -3.837  1.00 20.00     0.280 HD
BRANCH   4   7
HETATM    7  C7  UNL     1     -35.015  16.136  -4.492  1.00 20.00     0.243 C 
BRANCH   7   8
HETATM    8  C8  UNL     1     -34.693  16.935  -5.773  1.00 20.00    -0.027 C 
HETATM    9  C2  UNL     1     -34.318  16.002  -6.937  1.00 20.00     0.016 C 
HETATM   10  C3  UNL     1     -35.957  17.724  -6.166  1.00 20.00     0.016 C 
HETATM   11  C4  UNL     1     -33.548  17.936  -5.537  1.00 20.00     0.016 C 
ENDBRANCH   7   8
ENDBRANCH   4   7
ENDBRANCH   2   4
TORSDOF 3
ENDMDL
MODEL 9
REMARK VINA RESULT:      -3.5      1.673      2.689
REMARK  3 active torsions:
REMARK  status: ('A' for Active; 'I' for Inactive)
REMARK    1  A    between atoms: C6_6  and  N10_10 
REMARK    2  A    between atoms: C7_7  and  C8_8 
REMARK    3  A    between atoms: C7_7  and  N10_10 
ROOT
HETATM    1  C1  UNL     1     -35.717  13.692  -4.465  1.00 20.00     0.086 C 
HETATM    2  C6  UNL     1     -36.675  14.760  -4.732  1.00 20.00     0.357 C 
HETATM    3  N9  UNL     1     -34.956  12.840  -4.255  1.00 20.00    -0.196 NA
ENDROOT
BRANCH   2   4
HETATM    4  N10 UNL     1     -36.534  15.842  -3.689  1.00 20.00    -0.062 N 
HETATM    5  C5  UNL     1     -37.875  16.441  -3.342  1.00 20.00     0.270 C 
HETATM    6  H27 UNL     1     -36.202  15.370  -2.831  1.00 20.00     0.280 HD
BRANCH   4   7
HETATM    7  C7  UNL     1     -35.530  16.868  -4.063  1.00 20.00     0.243 C 
BRANCH   7   8
HETATM    8  C8  UNL     1     -34.290  16.843  -3.144  1.00 20.00    -0.027 C 
HETATM    9  C2  UNL     1     -34.591  16.132  -1.814  1.00 20.00     0.016 C 
HETATM   10  C3  UNL     1     -33.179  16.063  -3.874  1.00 20.00     0.016 C 
HETATM   11  C4  UNL     1     -33.778  18.265  -2.854  1.00 20.00     0.016 C 
ENDBRANCH   7   8
ENDBRANCH   4   7
ENDBRANCH   2   4
TORSDOF 3
ENDMDL
