MODEL 1
REMARK VINA RESULT:      -4.8      0.000      0.000
REMARK  0 active torsions:
REMARK  status: ('A' for Active; 'I' for Inactive)
ROOT
HETATM    1  C1  UNL     1     -33.416  17.227  -4.665  1.00 20.00    -0.029 C 
HETATM    2  C2  UNL     1     -33.573  15.935  -4.998  1.00 20.00    -0.014 C 
HETATM    3  C3  UNL     1     -35.235  15.308  -3.154  1.00 20.00     0.143 C 
HETATM    4  C4  UNL     1     -33.964  17.946  -3.470  1.00 20.00     0.032 C 
HETATM    5  C5  UNL     1     -35.051  17.096  -1.272  1.00 20.00     0.018 A 
HETATM    6  C6  UNL     1     -34.518  15.882  -1.988  1.00 20.00     0.061 A 
HETATM    7  C7  UNL     1     -33.848  17.220  -2.165  1.00 20.00     0.001 A 
HETATM    8  C8  UNL     1     -34.358  14.825  -4.325  1.00 20.00     0.031 C 
HETATM    9  C9  UNL     1     -35.277  14.184  -5.384  1.00 20.00     0.027 C 
HETATM   10  C10 UNL     1     -33.381  13.751  -3.817  1.00 20.00     0.027 C 
HETATM   11  O11 UNL     1     -36.459  15.241  -3.141  1.00 20.00    -0.296 OA
ENDROOT
TORSDOF 0
ENDMDL
MODEL 2
REMARK VINA RESULT:      -4.8      1.875      3.144
REMARK  0 active torsions:
REMARK  status: ('A' for Active; 'I' for Inactive)
ROOT
HETATM    1  C1  UNL     1     -34.622  13.276  -4.689  1.00 20.00    -0.029 C 
HETATM    2  C2  UNL     1     -35.074  13.945  -5.763  1.00 20.00    -0.014 C 
HETATM    3  C3  UNL     1     -34.231  16.269  -5.095  1.00 20.00     0.143 C 
HETATM    4  C4  UNL     1     -33.974  13.834  -3.458  1.00 20.00     0.032 C 
HETATM    5  C5  UNL     1     -33.787  16.251  -2.531  1.00 20.00     0.018 A 
HETATM    6  C6  UNL     1     -34.737  16.310  -3.700  1.00 20.00     0.061 A 
HETATM    7  C7  UNL     1     -34.626  15.052  -2.877  1.00 20.00     0.001 A 
HETATM    8  C8  UNL     1     -35.048  15.426  -6.093  1.00 20.00     0.031 C 
HETATM    9  C9  UNL     1     -34.419  15.590  -7.491  1.00 20.00     0.027 C 
HETATM   10  C10 UNL     1     -36.490  15.958  -6.146  1.00 20.00     0.027 C 
HETATM   11  O11 UNL     1     -33.217  16.890  -5.391  1.00 20.00    -0.296 OA
ENDROOT
TORSDOF 0
ENDMDL
MODEL 3
REMARK VINA RESULT:      -4.8      1.698      3.671
REMARK  0 active torsions:
REMARK  status: ('A' for Active; 'I' for Inactive)
ROOT
HETATM    1  C1  UNL     1     -36.631  16.104  -4.283  1.00 20.00    -0.029 C 
HETATM    2  C2  UNL     1     -35.942  16.835  -3.391  1.00 20.00    -0.014 C 
HETATM    3  C3  UNL     1     -33.704  15.610  -3.603  1.00 20.00     0.143 C 
HETATM    4  C4  UNL     1     -36.184  14.872  -5.010  1.00 20.00     0.032 C 
HETATM    5  C5  UNL     1     -34.168  13.276  -4.657  1.00 20.00     0.018 A 
HETATM    6  C6  UNL     1     -34.188  14.213  -3.476  1.00 20.00     0.061 A 
HETATM    7  C7  UNL     1     -35.472  13.849  -4.178  1.00 20.00     0.001 A 
HETATM    8  C8  UNL     1     -34.525  16.687  -2.869  1.00 20.00     0.031 C 
HETATM    9  C9  UNL     1     -33.811  18.042  -3.044  1.00 20.00     0.027 C 
HETATM   10  C10 UNL     1     -34.571  16.354  -1.368  1.00 20.00     0.027 C 
HETATM   11  O11 UNL     1     -32.699  15.846  -4.264  1.00 20.00    -0.296 OA
ENDROOT
TORSDOF 0
ENDMDL
MODEL 4
REMARK VINA RESULT:      -4.7      1.869      3.983
REMARK  0 active torsions:
REMARK  status: ('A' for Active; 'I' for Inactive)
ROOT
HETATM    1  C1  UNL     1     -36.768  14.930  -4.378  1.00 20.00    -0.029 C 
HETATM    2  C2  UNL     1     -35.692  14.805  -3.584  1.00 20.00    -0.014 C 
HETATM    3  C3  UNL     1     -33.949  15.709  -5.228  1.00 20.00     0.143 C 
HETATM    4  C4  UNL     1     -36.810  15.335  -5.821  1.00 20.00     0.032 C 
HETATM    5  C5  UNL     1     -34.955  15.554  -7.623  1.00 20.00     0.018 A 
HETATM    6  C6  UNL     1     -34.315  14.907  -6.422  1.00 20.00     0.061 A 
HETATM    7  C7  UNL     1     -35.781  14.698  -6.704  1.00 20.00     0.001 A 
HETATM    8  C8  UNL     1     -34.221  15.058  -3.858  1.00 20.00     0.031 C 
HETATM    9  C9  UNL     1     -33.690  16.002  -2.761  1.00 20.00     0.027 C 
HETATM   10  C10 UNL     1     -33.454  13.729  -3.767  1.00 20.00     0.027 C 
HETATM   11  O11 UNL     1     -33.458  16.822  -5.372  1.00 20.00    -0.296 OA
ENDROOT
TORSDOF 0
ENDMDL
MODEL 5
REMARK VINA RESULT:      -4.7     11.854     13.174
REMARK  0 active torsions:
REMARK  status: ('A' for Active; 'I' for Inactive)
ROOT
HETATM    1  C1  UNL     1     -40.469   5.820  -0.479  1.00 20.00    -0.029 C 
HETATM    2  C2  UNL     1     -40.988   4.626  -0.807  1.00 20.00    -0.014 C 
HETATM    3  C3  UNL     1     -42.841   5.475  -2.357  1.00 20.00     0.143 C 
HETATM    4  C4  UNL     1     -40.984   7.181  -0.836  1.00 20.00     0.032 C 
HETATM    5  C5  UNL     1     -43.251   7.986  -1.810  1.00 20.00     0.018 A 
HETATM    6  C6  UNL     1     -43.417   6.525  -1.480  1.00 20.00     0.061 A 
HETATM    7  C7  UNL     1     -42.462   7.377  -0.685  1.00 20.00     0.001 A 
HETATM    8  C8  UNL     1     -42.201   4.267  -1.646  1.00 20.00     0.031 C 
HETATM    9  C9  UNL     1     -41.752   3.257  -2.721  1.00 20.00     0.027 C 
HETATM   10  C10 UNL     1     -43.252   3.588  -0.752  1.00 20.00     0.027 C 
HETATM   11  O11 UNL     1     -42.897   5.603  -3.574  1.00 20.00    -0.296 OA
ENDROOT
TORSDOF 0
ENDMDL
MODEL 6
REMARK VINA RESULT:      -4.7     12.116     13.434
REMARK  0 active torsions:
REMARK  status: ('A' for Active; 'I' for Inactive)
ROOT
HETATM    1  C1  UNL     1     -34.835   3.847   5.637  1.00 20.00    -0.029 C 
HETATM    2  C2  UNL     1     -35.122   4.167   4.365  1.00 20.00    -0.014 C 
HETATM    3  C3  UNL     1     -33.734   6.315   4.233  1.00 20.00     0.143 C 
HETATM    4  C4  UNL     1     -34.060   4.648   6.639  1.00 20.00     0.032 C 
HETATM    5  C5  UNL     1     -33.283   7.124   6.665  1.00 20.00     0.018 A 
HETATM    6  C6  UNL     1     -34.201   6.973   5.479  1.00 20.00     0.061 A 
HETATM    7  C7  UNL     1     -34.391   6.108   6.699  1.00 20.00     0.001 A 
HETATM    8  C8  UNL     1     -34.740   5.380   3.536  1.00 20.00     0.031 C 
HETATM    9  C9  UNL     1     -34.104   4.877   2.225  1.00 20.00     0.027 C 
HETATM   10  C10 UNL     1     -36.010   6.172   3.185  1.00 20.00     0.027 C 
HETATM   11  O11 UNL     1     -32.602   6.536   3.818  1.00 20.00    -0.296 OA
ENDROOT
TORSDOF 0
ENDMDL
MODEL 7
REMARK VINA RESULT:      -4.6      1.090      3.590
REMARK  0 active torsions:
REMARK  status: ('A' for Active; 'I' for Inactive)
ROOT
HETATM    1  C1  UNL     1     -33.641  13.765  -3.980  1.00 20.00    -0.029 C 
HETATM    2  C2  UNL     1     -33.521  14.860  -3.211  1.00 20.00    -0.014 C 
HETATM    3  C3  UNL     1     -35.749  15.957  -3.833  1.00 20.00     0.143 C 
HETATM    4  C4  UNL     1     -34.713  13.450  -4.979  1.00 20.00     0.032 C 
HETATM    5  C5  UNL     1     -36.555  14.911  -6.076  1.00 20.00     0.018 A 
HETATM    6  C6  UNL     1     -35.659  15.851  -5.311  1.00 20.00     0.061 A 
HETATM    7  C7  UNL     1     -35.102  14.575  -5.889  1.00 20.00     0.001 A 
HETATM    8  C8  UNL     1     -34.415  16.079  -3.074  1.00 20.00     0.031 C 
HETATM    9  C9  UNL     1     -34.727  16.272  -1.577  1.00 20.00     0.027 C 
HETATM   10  C10 UNL     1     -33.657  17.320  -3.575  1.00 20.00     0.027 C 
HETATM   11  O11 UNL     1     -36.848  15.947  -3.291  1.00 20.00    -0.296 OA
ENDROOT
TORSDOF 0
ENDMDL
MODEL 8
REMARK VINA RESULT:      -4.6      1.709      3.357
REMARK  0 active torsions:
REMARK  status: ('A' for Active; 'I' for Inactive)
ROOT
HETATM    1  C1  UNL     1     -33.426  16.610  -5.688  1.00 20.00    -0.029 C 
HETATM    2  C2  UNL     1     -33.280  16.008  -4.497  1.00 20.00    -0.014 C 
HETATM    3  C3  UNL     1     -34.944  14.098  -4.874  1.00 20.00     0.143 C 
HETATM    4  C4  UNL     1     -34.403  16.281  -6.777  1.00 20.00     0.032 C 
HETATM    5  C5  UNL     1     -36.529  14.794  -6.817  1.00 20.00     0.018 A 
HETATM    6  C6  UNL     1     -36.096  14.888  -5.377  1.00 20.00     0.061 A 
HETATM    7  C7  UNL     1     -35.809  16.020  -6.329  1.00 20.00     0.001 A 
HETATM    8  C8  UNL     1     -34.001  14.817  -3.891  1.00 20.00     0.031 C 
HETATM    9  C9  UNL     1     -32.935  13.807  -3.419  1.00 20.00     0.027 C 
HETATM   10  C10 UNL     1     -34.804  15.282  -2.665  1.00 20.00     0.027 C 
HETATM   11  O11 UNL     1     -34.793  12.941  -5.247  1.00 20.00    -0.296 OA
ENDROOT
TORSDOF 0
ENDMDL
MODEL 9
REMARK VINA RESULT:      -4.5      1.571      2.861
REMARK  0 active torsions:
REMARK  status: ('A' for Active; 'I' for Inactive)
ROOT
HETATM    1  C1  UNL     1     -34.426  16.704  -1.308  1.00 20.00    -0.029 C 
HETATM    2  C2  UNL     1     -34.781  15.658  -2.072  1.00 20.00    -0.014 C 
HETATM    3  C3  UNL     1     -33.771  16.487  -4.275  1.00 20.00     0.143 C 
HETATM    4  C4  UNL     1     -33.779  17.986  -1.739  1.00 20.00     0.032 C 
HETATM    5  C5  UNL     1     -33.425  19.059  -4.075  1.00 20.00     0.018 A 
HETATM    6  C6  UNL     1     -34.322  17.866  -4.281  1.00 20.00     0.061 A 
HETATM    7  C7  UNL     1     -34.347  18.617  -2.974  1.00 20.00     0.001 A 
HETATM    8  C8  UNL     1     -34.619  15.416  -3.562  1.00 20.00     0.031 C 
HETATM    9  C9  UNL     1     -33.927  14.051  -3.748  1.00 20.00     0.027 C 
HETATM   10  C10 UNL     1     -36.008  15.349  -4.217  1.00 20.00     0.027 C 
HETATM   11  O11 UNL     1     -32.699  16.260  -4.822  1.00 20.00    -0.296 OA
ENDROOT
TORSDOF 0
ENDMDL
