MODEL 1
REMARK VINA RESULT:      -5.2      0.000      0.000
REMARK  3 active torsions:
REMARK  status: ('A' for Active; 'I' for Inactive)
REMARK    1  A    between atoms: C2_2  and  N8_8 
REMARK    2  A    between atoms: C6_6  and  C7_7 
REMARK    3  A    between atoms: C6_6  and  N8_8 
ROOT
HETATM    1  N8  UNL     1     -32.636   6.306   3.648  1.00 20.00     0.097 N 
HETATM    2  H23 UNL     1     -31.753   5.805   3.612  1.00 20.00     0.316 HD
ENDROOT
BRANCH   1   3
HETATM    3  C2  UNL     1     -33.707   5.349   3.947  1.00 20.00     0.229 A 
HETATM    4  C1  UNL     1     -35.139   5.813   3.996  1.00 20.00     0.047 A 
HETATM    5  C3  UNL     1     -34.452   5.377   5.270  1.00 20.00    -0.015 A 
HETATM    6  C4  UNL     1     -34.850   4.053   5.868  1.00 20.00     0.017 C 
HETATM    7  C5  UNL     1     -34.128   6.438   6.290  1.00 20.00     0.017 C 
ENDBRANCH   1   3
BRANCH   1   8
HETATM    8  C6  UNL     1     -32.879   6.964   2.376  1.00 20.00     0.386 C 
BRANCH   8   9
HETATM    9  C7  UNL     1     -32.052   8.216   2.230  1.00 20.00     0.413 C 
HETATM   10  F9  UNL     1     -31.215   8.356   3.282  1.00 20.00    -0.169 F 
HETATM   11  F10 UNL     1     -31.298   8.180   1.110  1.00 20.00    -0.169 F 
HETATM   12  F11 UNL     1     -32.830   9.318   2.175  1.00 20.00    -0.169 F 
ENDBRANCH   8   9
ENDBRANCH   1   8
TORSDOF 3
ENDMDL
MODEL 2
REMARK VINA RESULT:      -5.1      3.502      5.004
REMARK  3 active torsions:
REMARK  status: ('A' for Active; 'I' for Inactive)
REMARK    1  A    between atoms: C2_2  and  N8_8 
REMARK    2  A    between atoms: C6_6  and  C7_7 
REMARK    3  A    between atoms: C6_6  and  N8_8 
ROOT
HETATM    1  N8  UNL     1     -33.975   6.411   4.721  1.00 20.00     0.097 N 
HETATM    2  H23 UNL     1     -34.390   7.284   5.033  1.00 20.00     0.316 HD
ENDROOT
BRANCH   1   3
HETATM    3  C2  UNL     1     -33.459   6.596   3.360  1.00 20.00     0.229 A 
HETATM    4  C1  UNL     1     -32.260   5.812   2.896  1.00 20.00     0.047 A 
HETATM    5  C3  UNL     1     -32.143   7.306   3.098  1.00 20.00    -0.015 A 
HETATM    6  C4  UNL     1     -32.058   8.177   1.872  1.00 20.00     0.017 C 
HETATM    7  C5  UNL     1     -31.311   7.793   4.256  1.00 20.00     0.017 C 
ENDBRANCH   1   3
BRANCH   1   8
HETATM    8  C6  UNL     1     -34.973   5.356   4.750  1.00 20.00     0.386 C 
BRANCH   8   9
HETATM    9  C7  UNL     1     -34.744   4.407   5.900  1.00 20.00     0.413 C 
HETATM   10  F9  UNL     1     -34.439   3.172   5.442  1.00 20.00    -0.169 F 
HETATM   11  F10 UNL     1     -33.722   4.817   6.681  1.00 20.00    -0.169 F 
HETATM   12  F11 UNL     1     -35.845   4.296   6.674  1.00 20.00    -0.169 F 
ENDBRANCH   8   9
ENDBRANCH   1   8
TORSDOF 3
ENDMDL
MODEL 3
REMARK VINA RESULT:      -5.0      3.499      5.032
REMARK  3 active torsions:
REMARK  status: ('A' for Active; 'I' for Inactive)
REMARK    1  A    between atoms: C2_2  and  N8_8 
REMARK    2  A    between atoms: C6_6  and  C7_7 
REMARK    3  A    between atoms: C6_6  and  N8_8 
ROOT
HETATM    1  N8  UNL     1     -33.984   6.404   4.701  1.00 20.00     0.097 N 
HETATM    2  H23 UNL     1     -34.414   7.273   5.005  1.00 20.00     0.316 HD
ENDROOT
BRANCH   1   3
HETATM    3  C2  UNL     1     -33.457   6.590   3.346  1.00 20.00     0.229 A 
HETATM    4  C1  UNL     1     -32.247   5.813   2.896  1.00 20.00     0.047 A 
HETATM    5  C3  UNL     1     -32.143   7.309   3.096  1.00 20.00    -0.015 A 
HETATM    6  C4  UNL     1     -32.052   8.179   1.869  1.00 20.00     0.017 C 
HETATM    7  C5  UNL     1     -31.326   7.804   4.261  1.00 20.00     0.017 C 
ENDBRANCH   1   3
BRANCH   1   8
HETATM    8  C6  UNL     1     -34.969   5.337   4.724  1.00 20.00     0.386 C 
BRANCH   8   9
HETATM    9  C7  UNL     1     -34.746   4.398   5.884  1.00 20.00     0.413 C 
HETATM   10  F9  UNL     1     -33.736   4.842   6.665  1.00 20.00    -0.169 F 
HETATM   11  F10 UNL     1     -35.848   4.300   6.657  1.00 20.00    -0.169 F 
HETATM   12  F11 UNL     1     -34.420   3.159   5.459  1.00 20.00    -0.169 F 
ENDBRANCH   8   9
ENDBRANCH   1   8
TORSDOF 3
ENDMDL
MODEL 4
REMARK VINA RESULT:      -4.5      3.189      5.002
REMARK  3 active torsions:
REMARK  status: ('A' for Active; 'I' for Inactive)
REMARK    1  A    between atoms: C2_2  and  N8_8 
REMARK    2  A    between atoms: C6_6  and  C7_7 
REMARK    3  A    between atoms: C6_6  and  N8_8 
ROOT
HETATM    1  N8  UNL     1     -33.870   6.704   3.492  1.00 20.00     0.097 N 
HETATM    2  H23 UNL     1     -34.614   6.490   2.835  1.00 20.00     0.316 HD
ENDROOT
BRANCH   1   3
HETATM    3  C2  UNL     1     -32.620   6.879   2.745  1.00 20.00     0.229 A 
HETATM    4  C1  UNL     1     -31.478   7.647   3.358  1.00 20.00     0.047 A 
HETATM    5  C3  UNL     1     -32.218   8.227   2.173  1.00 20.00    -0.015 A 
HETATM    6  C4  UNL     1     -31.518   8.233   0.839  1.00 20.00     0.017 C 
HETATM    7  C5  UNL     1     -33.089   9.433   2.414  1.00 20.00     0.017 C 
ENDBRANCH   1   3
BRANCH   1   8
HETATM    8  C6  UNL     1     -33.742   5.624   4.456  1.00 20.00     0.386 C 
BRANCH   8   9
HETATM    9  C7  UNL     1     -35.073   4.980   4.750  1.00 20.00     0.413 C 
HETATM   10  F9  UNL     1     -35.005   3.644   4.560  1.00 20.00    -0.169 F 
HETATM   11  F10 UNL     1     -35.451   5.192   6.028  1.00 20.00    -0.169 F 
HETATM   12  F11 UNL     1     -36.042   5.460   3.941  1.00 20.00    -0.169 F 
ENDBRANCH   8   9
ENDBRANCH   1   8
TORSDOF 3
ENDMDL
MODEL 5
REMARK VINA RESULT:      -4.4     10.837     11.816
REMARK  3 active torsions:
REMARK  status: ('A' for Active; 'I' for Inactive)
REMARK    1  A    between atoms: C2_2  and  N8_8 
REMARK    2  A    between atoms: C6_6  and  C7_7 
REMARK    3  A    between atoms: C6_6  and  N8_8 
ROOT
HETATM    1  N8  UNL     1     -34.197  16.394  -3.313  1.00 20.00     0.097 N 
HETATM    2  H23 UNL     1     -34.291  17.288  -3.788  1.00 20.00     0.316 HD
ENDROOT
BRANCH   1   3
HETATM    3  C2  UNL     1     -33.706  16.634  -1.952  1.00 20.00     0.229 A 
HETATM    4  C1  UNL     1     -34.668  16.624  -0.793  1.00 20.00     0.047 A 
HETATM    5  C3  UNL     1     -34.016  17.923  -1.211  1.00 20.00    -0.015 A 
HETATM    6  C4  UNL     1     -32.938  18.488  -0.324  1.00 20.00     0.017 C 
HETATM    7  C5  UNL     1     -34.889  18.968  -1.858  1.00 20.00     0.017 C 
ENDBRANCH   1   3
BRANCH   1   8
HETATM    8  C6  UNL     1     -33.273  15.546  -4.047  1.00 20.00     0.386 C 
BRANCH   8   9
HETATM    9  C7  UNL     1     -33.726  14.107  -4.053  1.00 20.00     0.413 C 
HETATM   10  F9  UNL     1     -32.733  13.296  -3.624  1.00 20.00    -0.169 F 
HETATM   11  F10 UNL     1     -34.786  13.921  -3.238  1.00 20.00    -0.169 F 
HETATM   12  F11 UNL     1     -34.075  13.705  -5.294  1.00 20.00    -0.169 F 
ENDBRANCH   8   9
ENDBRANCH   1   8
TORSDOF 3
ENDMDL
MODEL 6
REMARK VINA RESULT:      -4.4     10.888     13.201
REMARK  3 active torsions:
REMARK  status: ('A' for Active; 'I' for Inactive)
REMARK    1  A    between atoms: C2_2  and  N8_8 
REMARK    2  A    between atoms: C6_6  and  C7_7 
REMARK    3  A    between atoms: C6_6  and  N8_8 
ROOT
HETATM    1  N8  UNL     1     -32.857  15.846  -5.259  1.00 20.00     0.097 N 
HETATM    2  H23 UNL     1     -31.914  16.224  -5.264  1.00 20.00     0.316 HD
ENDROOT
BRANCH   1   3
HETATM    3  C2  UNL     1     -33.779  16.879  -5.742  1.00 20.00     0.229 A 
HETATM    4  C1  UNL     1     -35.264  16.712  -5.549  1.00 20.00     0.047 A 
HETATM    5  C3  UNL     1     -34.679  16.644  -6.942  1.00 20.00    -0.015 A 
HETATM    6  C4  UNL     1     -34.921  17.809  -7.865  1.00 20.00     0.017 C 
HETATM    7  C5  UNL     1     -34.671  15.304  -7.633  1.00 20.00     0.017 C 
ENDBRANCH   1   3
BRANCH   1   8
HETATM    8  C6  UNL     1     -33.212  15.432  -3.913  1.00 20.00     0.386 C 
BRANCH   8   9
HETATM    9  C7  UNL     1     -33.545  13.962  -3.853  1.00 20.00     0.413 C 
HETATM   10  F9  UNL     1     -34.539  13.737  -2.966  1.00 20.00    -0.169 F 
HETATM   11  F10 UNL     1     -33.956  13.501  -5.053  1.00 20.00    -0.169 F 
HETATM   12  F11 UNL     1     -32.478  13.230  -3.466  1.00 20.00    -0.169 F 
ENDBRANCH   8   9
ENDBRANCH   1   8
TORSDOF 3
ENDMDL
MODEL 7
REMARK VINA RESULT:      -4.3     11.667     12.377
REMARK  3 active torsions:
REMARK  status: ('A' for Active; 'I' for Inactive)
REMARK    1  A    between atoms: C2_2  and  N8_8 
REMARK    2  A    between atoms: C6_6  and  C7_7 
REMARK    3  A    between atoms: C6_6  and  N8_8 
ROOT
HETATM    1  N8  UNL     1     -33.530  14.649  -4.309  1.00 20.00     0.097 N 
HETATM    2  H23 UNL     1     -32.815  13.955  -4.113  1.00 20.00     0.316 HD
ENDROOT
BRANCH   1   3
HETATM    3  C2  UNL     1     -34.305  14.884  -3.087  1.00 20.00     0.229 A 
HETATM    4  C1  UNL     1     -35.685  15.480  -3.173  1.00 20.00     0.047 A 
HETATM    5  C3  UNL     1     -34.560  16.286  -2.563  1.00 20.00    -0.015 A 
HETATM    6  C4  UNL     1     -34.560  16.478  -1.069  1.00 20.00     0.017 C 
HETATM    7  C5  UNL     1     -34.053  17.477  -3.335  1.00 20.00     0.017 C 
ENDBRANCH   1   3
BRANCH   1   8
HETATM    8  C6  UNL     1     -34.392  14.175  -5.378  1.00 20.00     0.386 C 
BRANCH   8   9
HETATM    9  C7  UNL     1     -34.479  15.172  -6.507  1.00 20.00     0.413 C 
HETATM   10  F9  UNL     1     -35.696  15.759  -6.528  1.00 20.00    -0.169 F 
HETATM   11  F10 UNL     1     -33.556  16.148  -6.373  1.00 20.00    -0.169 F 
HETATM   12  F11 UNL     1     -34.290  14.578  -7.705  1.00 20.00    -0.169 F 
ENDBRANCH   8   9
ENDBRANCH   1   8
TORSDOF 3
ENDMDL
MODEL 8
REMARK VINA RESULT:      -4.3     11.333     12.151
REMARK  3 active torsions:
REMARK  status: ('A' for Active; 'I' for Inactive)
REMARK    1  A    between atoms: C2_2  and  N8_8 
REMARK    2  A    between atoms: C6_6  and  C7_7 
REMARK    3  A    between atoms: C6_6  and  N8_8 
ROOT
HETATM    1  N8  UNL     1     -36.094  14.389  -4.036  1.00 20.00     0.097 N 
HETATM    2  H23 UNL     1     -36.923  13.844  -3.815  1.00 20.00     0.316 HD
ENDROOT
BRANCH   1   3
HETATM    3  C2  UNL     1     -36.010  15.516  -3.101  1.00 20.00     0.229 A 
HETATM    4  C1  UNL     1     -35.486  16.847  -3.572  1.00 20.00     0.047 A 
HETATM    5  C3  UNL     1     -34.675  16.029  -2.593  1.00 20.00    -0.015 A 
HETATM    6  C4  UNL     1     -34.612  16.500  -1.163  1.00 20.00     0.017 C 
HETATM    7  C5  UNL     1     -33.395  15.408  -3.090  1.00 20.00     0.017 C 
ENDBRANCH   1   3
BRANCH   1   8
HETATM    8  C6  UNL     1     -36.174  14.866  -5.406  1.00 20.00     0.386 C 
BRANCH   8   9
HETATM    9  C7  UNL     1     -35.020  14.364  -6.238  1.00 20.00     0.413 C 
HETATM   10  F9  UNL     1     -34.396  13.341  -5.613  1.00 20.00    -0.169 F 
HETATM   11  F10 UNL     1     -35.440  13.914  -7.440  1.00 20.00    -0.169 F 
HETATM   12  F11 UNL     1     -34.105  15.334  -6.449  1.00 20.00    -0.169 F 
ENDBRANCH   8   9
ENDBRANCH   1   8
TORSDOF 3
ENDMDL
MODEL 9
REMARK VINA RESULT:      -4.3     11.689     12.607
REMARK  3 active torsions:
REMARK  status: ('A' for Active; 'I' for Inactive)
REMARK    1  A    between atoms: C2_2  and  N8_8 
REMARK    2  A    between atoms: C6_6  and  C7_7 
REMARK    3  A    between atoms: C6_6  and  N8_8 
ROOT
HETATM    1  N8  UNL     1     -34.550  16.506  -5.490  1.00 20.00     0.097 N 
HETATM    2  H23 UNL     1     -34.454  17.379  -6.001  1.00 20.00     0.316 HD
ENDROOT
BRANCH   1   3
HETATM    3  C2  UNL     1     -33.704  16.566  -4.294  1.00 20.00     0.229 A 
HETATM    4  C1  UNL     1     -33.137  15.300  -3.708  1.00 20.00     0.047 A 
HETATM    5  C3  UNL     1     -34.195  16.067  -2.947  1.00 20.00    -0.015 A 
HETATM    6  C4  UNL     1     -33.766  16.836  -1.724  1.00 20.00     0.017 C 
HETATM    7  C5  UNL     1     -35.564  15.447  -2.832  1.00 20.00     0.017 C 
ENDBRANCH   1   3
BRANCH   1   8
HETATM    8  C6  UNL     1     -34.154  15.397  -6.341  1.00 20.00     0.386 C 
BRANCH   8   9
HETATM    9  C7  UNL     1     -35.249  14.366  -6.456  1.00 20.00     0.413 C 
HETATM   10  F9  UNL     1     -36.430  14.882  -6.050  1.00 20.00    -0.169 F 
HETATM   11  F10 UNL     1     -35.401  13.950  -7.731  1.00 20.00    -0.169 F 
HETATM   12  F11 UNL     1     -34.990  13.284  -5.691  1.00 20.00    -0.169 F 
ENDBRANCH   8   9
ENDBRANCH   1   8
TORSDOF 3
ENDMDL
