MODEL 1
REMARK VINA RESULT:      -4.3      0.000      0.000
REMARK  2 active torsions:
REMARK  status: ('A' for Active; 'I' for Inactive)
REMARK    1  A    between atoms: C6_6  and  N9_9 
REMARK    2  A    between atoms: C7_7  and  N9_9 
ROOT
HETATM    1  C1  UNL     1     -34.726  16.756  -0.614  1.00 20.00     0.013 C 
HETATM    2  C2  UNL     1     -34.337  16.384  -1.687  1.00 20.00    -0.087 C 
HETATM    3  C6  UNL     1     -33.859  15.935  -2.998  1.00 20.00     0.366 C 
ENDROOT
BRANCH   3   4
HETATM    4  N9  UNL     1     -34.529  14.697  -3.395  1.00 20.00     0.112 N 
HETATM    5  C5  UNL     1     -33.549  13.694  -3.807  1.00 20.00     0.312 C 
BRANCH   4   6
HETATM    6  C7  UNL     1     -35.482  14.955  -4.474  1.00 20.00     0.325 C 
HETATM    7  C3  UNL     1     -36.837  14.588  -4.043  1.00 20.00     0.095 C 
HETATM    8  N8  UNL     1     -37.909  14.301  -3.704  1.00 20.00    -0.195 NA
HETATM    9  C4  UNL     1     -35.086  14.197  -5.734  1.00 20.00     0.059 C 
ENDBRANCH   4   6
ENDBRANCH   3   4
TORSDOF 2
ENDMDL
MODEL 2
REMARK VINA RESULT:      -4.2      1.552      2.263
REMARK  2 active torsions:
REMARK  status: ('A' for Active; 'I' for Inactive)
REMARK    1  A    between atoms: C6_6  and  N9_9 
REMARK    2  A    between atoms: C7_7  and  N9_9 
ROOT
HETATM    1  C1  UNL     1     -34.745  16.862  -0.448  1.00 20.00     0.013 C 
HETATM    2  C2  UNL     1     -34.284  16.572  -1.518  1.00 20.00    -0.087 C 
HETATM    3  C6  UNL     1     -33.717  16.218  -2.822  1.00 20.00     0.366 C 
ENDROOT
BRANCH   3   4
HETATM    4  N9  UNL     1     -34.778  15.992  -3.802  1.00 20.00     0.112 N 
HETATM    5  C5  UNL     1     -35.627  17.177  -3.919  1.00 20.00     0.312 C 
BRANCH   4   6
HETATM    6  C7  UNL     1     -35.578  14.825  -3.430  1.00 20.00     0.325 C 
HETATM    7  C3  UNL     1     -35.112  13.644  -4.167  1.00 20.00     0.095 C 
HETATM    8  N8  UNL     1     -34.744  12.708  -4.747  1.00 20.00    -0.195 NA
HETATM    9  C4  UNL     1     -37.057  15.081  -3.687  1.00 20.00     0.059 C 
ENDBRANCH   4   6
ENDBRANCH   3   4
TORSDOF 2
ENDMDL
MODEL 3
REMARK VINA RESULT:      -4.2      1.381      2.128
REMARK  2 active torsions:
REMARK  status: ('A' for Active; 'I' for Inactive)
REMARK    1  A    between atoms: C6_6  and  N9_9 
REMARK    2  A    between atoms: C7_7  and  N9_9 
ROOT
HETATM    1  C1  UNL     1     -34.760  16.969  -0.499  1.00 20.00     0.013 C 
HETATM    2  C2  UNL     1     -34.599  16.318  -1.495  1.00 20.00    -0.087 C 
HETATM    3  C6  UNL     1     -34.398  15.522  -2.709  1.00 20.00     0.366 C 
ENDROOT
BRANCH   3   4
HETATM    4  N9  UNL     1     -35.404  15.854  -3.717  1.00 20.00     0.112 N 
HETATM    5  C5  UNL     1     -36.719  15.361  -3.308  1.00 20.00     0.312 C 
BRANCH   4   6
HETATM    6  C7  UNL     1     -35.031  15.295  -5.016  1.00 20.00     0.325 C 
HETATM    7  C3  UNL     1     -34.853  13.841  -4.902  1.00 20.00     0.095 C 
HETATM    8  N8  UNL     1     -34.714  12.693  -4.815  1.00 20.00    -0.195 NA
HETATM    9  C4  UNL     1     -33.767  15.959  -5.545  1.00 20.00     0.059 C 
ENDBRANCH   4   6
ENDBRANCH   3   4
TORSDOF 2
ENDMDL
MODEL 4
REMARK VINA RESULT:      -4.0      1.840      2.207
REMARK  2 active torsions:
REMARK  status: ('A' for Active; 'I' for Inactive)
REMARK    1  A    between atoms: C6_6  and  N9_9 
REMARK    2  A    between atoms: C7_7  and  N9_9 
ROOT
HETATM    1  C1  UNL     1     -34.479  16.527  -1.043  1.00 20.00     0.013 C 
HETATM    2  C2  UNL     1     -34.835  16.559  -2.189  1.00 20.00    -0.087 C 
HETATM    3  C6  UNL     1     -35.274  16.600  -3.587  1.00 20.00     0.366 C 
ENDROOT
BRANCH   3   4
HETATM    4  N9  UNL     1     -34.259  16.019  -4.464  1.00 20.00     0.112 N 
HETATM    5  C5  UNL     1     -33.463  17.072  -5.094  1.00 20.00     0.312 C 
BRANCH   4   6
HETATM    6  C7  UNL     1     -34.884  15.174  -5.481  1.00 20.00     0.325 C 
HETATM    7  C3  UNL     1     -34.821  13.766  -5.069  1.00 20.00     0.095 C 
HETATM    8  N8  UNL     1     -34.774  12.653  -4.745  1.00 20.00    -0.195 NA
HETATM    9  C4  UNL     1     -34.217  15.377  -6.835  1.00 20.00     0.059 C 
ENDBRANCH   4   6
ENDBRANCH   3   4
TORSDOF 2
ENDMDL
MODEL 5
REMARK VINA RESULT:      -4.0     11.046     11.977
REMARK  2 active torsions:
REMARK  status: ('A' for Active; 'I' for Inactive)
REMARK    1  A    between atoms: C6_6  and  N9_9 
REMARK    2  A    between atoms: C7_7  and  N9_9 
ROOT
HETATM    1  C1  UNL     1     -35.123   4.203   6.092  1.00 20.00     0.013 C 
HETATM    2  C2  UNL     1     -34.568   5.226   5.796  1.00 20.00    -0.087 C 
HETATM    3  C6  UNL     1     -33.890   6.475   5.439  1.00 20.00     0.366 C 
ENDROOT
BRANCH   3   4
HETATM    4  N9  UNL     1     -33.850   6.644   3.988  1.00 20.00     0.112 N 
HETATM    5  C5  UNL     1     -34.588   5.568   3.327  1.00 20.00     0.312 C 
BRANCH   4   6
HETATM    6  C7  UNL     1     -32.466   6.679   3.515  1.00 20.00     0.325 C 
HETATM    7  C3  UNL     1     -32.295   7.776   2.554  1.00 20.00     0.095 C 
HETATM    8  N8  UNL     1     -32.155   8.643   1.795  1.00 20.00    -0.195 NA
HETATM    9  C4  UNL     1     -32.074   5.344   2.896  1.00 20.00     0.059 C 
ENDBRANCH   4   6
ENDBRANCH   3   4
TORSDOF 2
ENDMDL
MODEL 6
REMARK VINA RESULT:      -3.9      1.231      1.913
REMARK  2 active torsions:
REMARK  status: ('A' for Active; 'I' for Inactive)
REMARK    1  A    between atoms: C6_6  and  N9_9 
REMARK    2  A    between atoms: C7_7  and  N9_9 
ROOT
HETATM    1  C1  UNL     1     -34.579  16.665  -0.801  1.00 20.00     0.013 C 
HETATM    2  C2  UNL     1     -34.554  16.267  -1.934  1.00 20.00    -0.087 C 
HETATM    3  C6  UNL     1     -34.523  15.787  -3.318  1.00 20.00     0.366 C 
ENDROOT
BRANCH   3   4
HETATM    4  N9  UNL     1     -34.621  14.329  -3.360  1.00 20.00     0.112 N 
HETATM    5  C5  UNL     1     -33.326  13.740  -3.699  1.00 20.00     0.312 C 
BRANCH   4   6
HETATM    6  C7  UNL     1     -35.640  13.912  -4.323  1.00 20.00     0.325 C 
HETATM    7  C3  UNL     1     -35.206  14.248  -5.686  1.00 20.00     0.095 C 
HETATM    8  N8  UNL     1     -34.866  14.511  -6.763  1.00 20.00    -0.195 NA
HETATM    9  C4  UNL     1     -36.981  14.557  -4.002  1.00 20.00     0.059 C 
ENDBRANCH   4   6
ENDBRANCH   3   4
TORSDOF 2
ENDMDL
MODEL 7
REMARK VINA RESULT:      -3.9      1.121      1.748
REMARK  2 active torsions:
REMARK  status: ('A' for Active; 'I' for Inactive)
REMARK    1  A    between atoms: C6_6  and  N9_9 
REMARK    2  A    between atoms: C7_7  and  N9_9 
ROOT
HETATM    1  C1  UNL     1     -33.595  17.781  -0.714  1.00 20.00     0.013 C 
HETATM    2  C2  UNL     1     -34.183  16.933  -1.329  1.00 20.00    -0.087 C 
HETATM    3  C6  UNL     1     -34.902  15.896  -2.075  1.00 20.00     0.366 C 
ENDROOT
BRANCH   3   4
HETATM    4  N9  UNL     1     -34.686  16.051  -3.512  1.00 20.00     0.112 N 
HETATM    5  C5  UNL     1     -35.404  17.222  -4.014  1.00 20.00     0.312 C 
BRANCH   4   6
HETATM    6  C7  UNL     1     -35.110  14.847  -4.226  1.00 20.00     0.325 C 
HETATM    7  C3  UNL     1     -36.524  14.571  -3.942  1.00 20.00     0.095 C 
HETATM    8  N8  UNL     1     -37.642  14.351  -3.722  1.00 20.00    -0.195 NA
HETATM    9  C4  UNL     1     -34.235  13.660  -3.847  1.00 20.00     0.059 C 
ENDBRANCH   4   6
ENDBRANCH   3   4
TORSDOF 2
ENDMDL
MODEL 8
REMARK VINA RESULT:      -3.8     11.172     11.953
REMARK  2 active torsions:
REMARK  status: ('A' for Active; 'I' for Inactive)
REMARK    1  A    between atoms: C6_6  and  N9_9 
REMARK    2  A    between atoms: C7_7  and  N9_9 
ROOT
HETATM    1  C1  UNL     1     -31.997   8.384   1.960  1.00 20.00     0.013 C 
HETATM    2  C2  UNL     1     -32.262   7.484   2.711  1.00 20.00    -0.087 C 
HETATM    3  C6  UNL     1     -32.580   6.384   3.625  1.00 20.00     0.366 C 
ENDROOT
BRANCH   3   4
HETATM    4  N9  UNL     1     -33.871   6.609   4.274  1.00 20.00     0.112 N 
HETATM    5  C5  UNL     1     -33.731   6.544   5.728  1.00 20.00     0.312 C 
BRANCH   4   6
HETATM    6  C7  UNL     1     -34.854   5.630   3.811  1.00 20.00     0.325 C 
HETATM    7  C3  UNL     1     -34.984   4.549   4.797  1.00 20.00     0.095 C 
HETATM    8  N8  UNL     1     -35.090   3.695   5.575  1.00 20.00    -0.195 NA
HETATM    9  C4  UNL     1     -34.465   5.079   2.446  1.00 20.00     0.059 C 
ENDBRANCH   4   6
ENDBRANCH   3   4
TORSDOF 2
ENDMDL
MODEL 9
REMARK VINA RESULT:      -3.7      2.177      2.756
REMARK  2 active torsions:
REMARK  status: ('A' for Active; 'I' for Inactive)
REMARK    1  A    between atoms: C6_6  and  N9_9 
REMARK    2  A    between atoms: C7_7  and  N9_9 
ROOT
HETATM    1  C1  UNL     1     -32.758  14.138  -3.470  1.00 20.00     0.013 C 
HETATM    2  C2  UNL     1     -33.674  13.700  -4.111  1.00 20.00    -0.087 C 
HETATM    3  C6  UNL     1     -34.791  13.160  -4.892  1.00 20.00     0.366 C 
ENDROOT
BRANCH   3   4
HETATM    4  N9  UNL     1     -35.463  14.225  -5.635  1.00 20.00     0.112 N 
HETATM    5  C5  UNL     1     -34.543  14.838  -6.593  1.00 20.00     0.312 C 
BRANCH   4   6
HETATM    6  C7  UNL     1     -35.992  15.234  -4.718  1.00 20.00     0.325 C 
HETATM    7  C3  UNL     1     -37.255  14.764  -4.134  1.00 20.00     0.095 C 
HETATM    8  N8  UNL     1     -38.253  14.394  -3.670  1.00 20.00    -0.195 NA
HETATM    9  C4  UNL     1     -36.183  16.565  -5.433  1.00 20.00     0.059 C 
ENDBRANCH   4   6
ENDBRANCH   3   4
TORSDOF 2
ENDMDL
