MODEL 1
REMARK VINA RESULT:      -4.7      0.000      0.000
REMARK  2 active torsions:
REMARK  status: ('A' for Active; 'I' for Inactive)
REMARK    1  A    between atoms: C3_3  and  N10_10 
REMARK    2  A    between atoms: C8_8  and  N10_10 
ROOT
HETATM    1  C1  UNL     1     -32.120   7.966   2.205  1.00 20.00     0.094 C 
HETATM    2  C7  UNL     1     -31.921   5.592   2.840  1.00 20.00     0.059 C 
HETATM    3  C8  UNL     1     -32.260   7.001   3.304  1.00 20.00     0.322 C 
HETATM    4  N9  UNL     1     -32.005   8.729   1.338  1.00 20.00    -0.195 NA
ENDROOT
BRANCH   3   5
HETATM    5  N10 UNL     1     -33.610   7.055   3.839  1.00 20.00     0.106 N 
HETATM    6  H24 UNL     1     -34.186   7.655   3.255  1.00 20.00     0.318 HD
BRANCH   5   7
HETATM    7  C3  UNL     1     -34.207   5.715   3.868  1.00 20.00     0.230 A 
HETATM    8  C2  UNL     1     -35.681   5.554   4.125  1.00 20.00     0.047 A 
HETATM    9  C4  UNL     1     -34.687   5.087   5.164  1.00 20.00    -0.015 A 
HETATM   10  C5  UNL     1     -34.487   3.603   5.331  1.00 20.00     0.017 C 
HETATM   11  C6  UNL     1     -34.600   5.865   6.451  1.00 20.00     0.017 C 
ENDBRANCH   5   7
ENDBRANCH   3   5
TORSDOF 2
ENDMDL
MODEL 2
REMARK VINA RESULT:      -4.3     11.316     12.458
REMARK  2 active torsions:
REMARK  status: ('A' for Active; 'I' for Inactive)
REMARK    1  A    between atoms: C3_3  and  N10_10 
REMARK    2  A    between atoms: C8_8  and  N10_10 
ROOT
HETATM    1  C1  UNL     1     -35.633  13.651  -4.244  1.00 20.00     0.094 C 
HETATM    2  C7  UNL     1     -36.571  15.740  -5.161  1.00 20.00     0.059 C 
HETATM    3  C8  UNL     1     -36.540  14.777  -3.982  1.00 20.00     0.322 C 
HETATM    4  N9  UNL     1     -34.920  12.760  -4.453  1.00 20.00    -0.195 NA
ENDROOT
BRANCH   3   5
HETATM    5  N10 UNL     1     -36.135  15.465  -2.767  1.00 20.00     0.106 N 
HETATM    6  H24 UNL     1     -35.817  14.787  -2.080  1.00 20.00     0.318 HD
BRANCH   5   7
HETATM    7  C3  UNL     1     -35.040  16.400  -3.045  1.00 20.00     0.230 A 
HETATM    8  C2  UNL     1     -33.622  16.017  -2.716  1.00 20.00     0.047 A 
HETATM    9  C4  UNL     1     -34.301  17.114  -1.927  1.00 20.00    -0.015 A 
HETATM   10  C5  UNL     1     -33.868  18.534  -2.178  1.00 20.00     0.017 C 
HETATM   11  C6  UNL     1     -34.658  16.827  -0.491  1.00 20.00     0.017 C 
ENDBRANCH   5   7
ENDBRANCH   3   5
TORSDOF 2
ENDMDL
MODEL 3
REMARK VINA RESULT:      -4.1     11.387     12.205
REMARK  2 active torsions:
REMARK  status: ('A' for Active; 'I' for Inactive)
REMARK    1  A    between atoms: C3_3  and  N10_10 
REMARK    2  A    between atoms: C8_8  and  N10_10 
ROOT
HETATM    1  C1  UNL     1     -34.475  14.072  -4.201  1.00 20.00     0.094 C 
HETATM    2  C7  UNL     1     -33.443  16.140  -5.061  1.00 20.00     0.059 C 
HETATM    3  C8  UNL     1     -34.298  15.512  -3.969  1.00 20.00     0.322 C 
HETATM    4  N9  UNL     1     -34.618  12.935  -4.386  1.00 20.00    -0.195 NA
ENDROOT
BRANCH   3   5
HETATM    5  N10 UNL     1     -33.704  15.732  -2.661  1.00 20.00     0.106 N 
HETATM    6  H24 UNL     1     -32.990  16.452  -2.726  1.00 20.00     0.318 HD
BRANCH   5   7
HETATM    7  C3  UNL     1     -34.723  16.167  -1.699  1.00 20.00     0.230 A 
HETATM    8  C2  UNL     1     -35.509  17.426  -1.954  1.00 20.00     0.047 A 
HETATM    9  C4  UNL     1     -34.514  17.385  -0.816  1.00 20.00    -0.015 A 
HETATM   10  C5  UNL     1     -35.052  17.323   0.589  1.00 20.00     0.017 C 
HETATM   11  C6  UNL     1     -33.256  18.204  -0.955  1.00 20.00     0.017 C 
ENDBRANCH   5   7
ENDBRANCH   3   5
TORSDOF 2
ENDMDL
MODEL 4
REMARK VINA RESULT:      -4.1     11.122     13.805
REMARK  2 active torsions:
REMARK  status: ('A' for Active; 'I' for Inactive)
REMARK    1  A    between atoms: C3_3  and  N10_10 
REMARK    2  A    between atoms: C8_8  and  N10_10 
ROOT
HETATM    1  C1  UNL     1     -34.109  13.781  -3.993  1.00 20.00     0.094 C 
HETATM    2  C7  UNL     1     -33.932  15.876  -2.703  1.00 20.00     0.059 C 
HETATM    3  C8  UNL     1     -33.284  14.970  -3.741  1.00 20.00     0.322 C 
HETATM    4  N9  UNL     1     -34.758  12.840  -4.188  1.00 20.00    -0.195 NA
ENDROOT
BRANCH   3   5
HETATM    5  N10 UNL     1     -33.063  15.690  -4.985  1.00 20.00     0.106 N 
HETATM    6  H24 UNL     1     -32.494  15.127  -5.610  1.00 20.00     0.318 HD
BRANCH   5   7
HETATM    7  C3  UNL     1     -34.340  15.981  -5.646  1.00 20.00     0.230 A 
HETATM    8  C2  UNL     1     -34.374  16.260  -7.125  1.00 20.00     0.047 A 
HETATM    9  C4  UNL     1     -34.677  17.374  -6.148  1.00 20.00    -0.015 A 
HETATM   10  C5  UNL     1     -36.106  17.830  -6.019  1.00 20.00     0.017 C 
HETATM   11  C6  UNL     1     -33.665  18.483  -6.014  1.00 20.00     0.017 C 
ENDBRANCH   5   7
ENDBRANCH   3   5
TORSDOF 2
ENDMDL
MODEL 5
REMARK VINA RESULT:      -3.9      9.280     10.762
REMARK  2 active torsions:
REMARK  status: ('A' for Active; 'I' for Inactive)
REMARK    1  A    between atoms: C3_3  and  N10_10 
REMARK    2  A    between atoms: C8_8  and  N10_10 
ROOT
HETATM    1  C1  UNL     1     -41.692   2.405  -3.259  1.00 20.00     0.094 C 
HETATM    2  C7  UNL     1     -43.046   4.464  -3.173  1.00 20.00     0.059 C 
HETATM    3  C8  UNL     1     -42.398   3.341  -2.375  1.00 20.00     0.322 C 
HETATM    4  N9  UNL     1     -41.138   1.663  -3.959  1.00 20.00    -0.195 NA
ENDROOT
BRANCH   3   5
HETATM    5  N10 UNL     1     -41.476   3.879  -1.388  1.00 20.00     0.106 N 
HETATM    6  H24 UNL     1     -40.529   3.580  -1.606  1.00 20.00     0.318 HD
BRANCH   5   7
HETATM    7  C3  UNL     1     -41.517   5.346  -1.389  1.00 20.00     0.230 A 
HETATM    8  C2  UNL     1     -40.704   6.121  -0.388  1.00 20.00     0.047 A 
HETATM    9  C4  UNL     1     -42.212   6.122  -0.285  1.00 20.00    -0.015 A 
HETATM   10  C5  UNL     1     -42.944   7.378  -0.677  1.00 20.00     0.017 C 
HETATM   11  C6  UNL     1     -42.836   5.384   0.871  1.00 20.00     0.017 C 
ENDBRANCH   5   7
ENDBRANCH   3   5
TORSDOF 2
ENDMDL
MODEL 6
REMARK VINA RESULT:      -3.9     11.528     12.574
REMARK  2 active torsions:
REMARK  status: ('A' for Active; 'I' for Inactive)
REMARK    1  A    between atoms: C3_3  and  N10_10 
REMARK    2  A    between atoms: C8_8  and  N10_10 
ROOT
HETATM    1  C1  UNL     1     -36.870  14.900  -3.603  1.00 20.00     0.094 C 
HETATM    2  C7  UNL     1     -34.463  14.879  -3.065  1.00 20.00     0.059 C 
HETATM    3  C8  UNL     1     -35.715  15.729  -3.229  1.00 20.00     0.322 C 
HETATM    4  N9  UNL     1     -37.780  14.246  -3.901  1.00 20.00    -0.195 NA
ENDROOT
BRANCH   3   5
HETATM    5  N10 UNL     1     -36.006  16.458  -2.006  1.00 20.00     0.106 N 
HETATM    6  H24 UNL     1     -36.631  15.910  -1.421  1.00 20.00     0.318 HD
BRANCH   5   7
HETATM    7  C3  UNL     1     -34.772  16.721  -1.257  1.00 20.00     0.230 A 
HETATM    8  C2  UNL     1     -34.839  17.047   0.211  1.00 20.00     0.047 A 
HETATM    9  C4  UNL     1     -34.418  18.116  -0.773  1.00 20.00    -0.015 A 
HETATM   10  C5  UNL     1     -32.965  18.511  -0.804  1.00 20.00     0.017 C 
HETATM   11  C6  UNL     1     -35.370  19.258  -1.017  1.00 20.00     0.017 C 
ENDBRANCH   5   7
ENDBRANCH   3   5
TORSDOF 2
ENDMDL
MODEL 7
REMARK VINA RESULT:      -3.8     11.372     12.527
REMARK  2 active torsions:
REMARK  status: ('A' for Active; 'I' for Inactive)
REMARK    1  A    between atoms: C3_3  and  N10_10 
REMARK    2  A    between atoms: C8_8  and  N10_10 
ROOT
HETATM    1  C1  UNL     1     -33.518  16.015  -4.180  1.00 20.00     0.094 C 
HETATM    2  C7  UNL     1     -34.941  14.041  -3.783  1.00 20.00     0.059 C 
HETATM    3  C8  UNL     1     -34.150  15.178  -3.152  1.00 20.00     0.322 C 
HETATM    4  N9  UNL     1     -33.016  16.674  -4.993  1.00 20.00    -0.195 NA
ENDROOT
BRANCH   3   5
HETATM    5  N10 UNL     1     -35.008  15.995  -2.309  1.00 20.00     0.106 N 
HETATM    6  H24 UNL     1     -35.773  15.430  -1.951  1.00 20.00     0.318 HD
BRANCH   5   7
HETATM    7  C3  UNL     1     -34.252  16.536  -1.174  1.00 20.00     0.230 A 
HETATM    8  C2  UNL     1     -34.979  17.189  -0.030  1.00 20.00     0.047 A 
HETATM    9  C4  UNL     1     -34.122  18.032  -0.947  1.00 20.00    -0.015 A 
HETATM   10  C5  UNL     1     -32.808  18.539  -0.414  1.00 20.00     0.017 C 
HETATM   11  C6  UNL     1     -34.821  18.994  -1.872  1.00 20.00     0.017 C 
ENDBRANCH   5   7
ENDBRANCH   3   5
TORSDOF 2
ENDMDL
MODEL 8
REMARK VINA RESULT:      -3.8     11.847     14.016
REMARK  2 active torsions:
REMARK  status: ('A' for Active; 'I' for Inactive)
REMARK    1  A    between atoms: C3_3  and  N10_10 
REMARK    2  A    between atoms: C8_8  and  N10_10 
ROOT
HETATM    1  C1  UNL     1     -34.644  13.877  -5.006  1.00 20.00     0.094 C 
HETATM    2  C7  UNL     1     -34.397  15.000  -7.187  1.00 20.00     0.059 C 
HETATM    3  C8  UNL     1     -34.480  15.173  -5.677  1.00 20.00     0.322 C 
HETATM    4  N9  UNL     1     -34.778  12.853  -4.476  1.00 20.00    -0.195 NA
ENDROOT
BRANCH   3   5
HETATM    5  N10 UNL     1     -33.294  15.845  -5.171  1.00 20.00     0.106 N 
HETATM    6  H24 UNL     1     -32.832  16.340  -5.929  1.00 20.00     0.318 HD
BRANCH   5   7
HETATM    7  C3  UNL     1     -33.655  16.812  -4.129  1.00 20.00     0.230 A 
HETATM    8  C2  UNL     1     -35.015  17.455  -4.139  1.00 20.00     0.047 A 
HETATM    9  C4  UNL     1     -33.792  18.293  -4.433  1.00 20.00    -0.015 A 
HETATM   10  C5  UNL     1     -33.331  19.263  -3.376  1.00 20.00     0.017 C 
HETATM   11  C6  UNL     1     -33.604  18.790  -5.843  1.00 20.00     0.017 C 
ENDBRANCH   5   7
ENDBRANCH   3   5
TORSDOF 2
ENDMDL
MODEL 9
REMARK VINA RESULT:      -3.8     11.442     12.572
REMARK  2 active torsions:
REMARK  status: ('A' for Active; 'I' for Inactive)
REMARK    1  A    between atoms: C3_3  and  N10_10 
REMARK    2  A    between atoms: C8_8  and  N10_10 
ROOT
HETATM    1  C1  UNL     1     -34.520  16.784  -0.864  1.00 20.00     0.094 C 
HETATM    2  C7  UNL     1     -33.846  17.560  -3.106  1.00 20.00     0.059 C 
HETATM    3  C8  UNL     1     -33.998  16.367  -2.173  1.00 20.00     0.322 C 
HETATM    4  N9  UNL     1     -34.928  17.114   0.170  1.00 20.00    -0.195 NA
ENDROOT
BRANCH   3   5
HETATM    5  N10 UNL     1     -34.874  15.365  -2.758  1.00 20.00     0.106 N 
HETATM    6  H24 UNL     1     -35.762  15.356  -2.263  1.00 20.00     0.318 HD
BRANCH   5   7
HETATM    7  C3  UNL     1     -35.128  15.665  -4.171  1.00 20.00     0.230 A 
HETATM    8  C2  UNL     1     -36.352  15.111  -4.849  1.00 20.00     0.047 A 
HETATM    9  C4  UNL     1     -34.985  14.603  -5.247  1.00 20.00    -0.015 A 
HETATM   10  C5  UNL     1     -34.433  15.037  -6.579  1.00 20.00     0.017 C 
HETATM   11  C6  UNL     1     -34.622  13.192  -4.863  1.00 20.00     0.017 C 
ENDBRANCH   5   7
ENDBRANCH   3   5
TORSDOF 2
ENDMDL
