MODEL 1
REMARK VINA RESULT:      -4.7      0.000      0.000
REMARK  1 active torsions:
REMARK  status: ('A' for Active; 'I' for Inactive)
REMARK    1  A    between atoms: C6_6  and  N10_10 
ROOT
HETATM    1  C1  UNL     1     -34.824  13.727  -3.944  1.00 20.00     0.156 C 
HETATM    2  C2  UNL     1     -33.341  13.534  -3.828  1.00 20.00     0.110 C 
HETATM    3  C3  UNL     1     -35.231  15.104  -3.490  1.00 20.00     0.350 C 
HETATM    4  C5  UNL     1     -32.892  14.971  -3.603  1.00 20.00     0.281 C 
HETATM    5  N10 UNL     1     -33.999  15.572  -2.852  1.00 20.00     0.101 N 
HETATM    6  O11 UNL     1     -35.603  12.876  -4.352  1.00 20.00    -0.296 OA
ENDROOT
BRANCH   5   7
HETATM    7  C6  UNL     1     -33.916  17.023  -2.801  1.00 20.00     0.232 A 
HETATM    8  C4  UNL     1     -35.162  17.856  -2.661  1.00 20.00     0.047 A 
HETATM    9  C7  UNL     1     -34.165  17.808  -1.526  1.00 20.00    -0.015 A 
HETATM   10  C8  UNL     1     -34.569  17.091  -0.263  1.00 20.00     0.017 C 
HETATM   11  C9  UNL     1     -33.309  19.025  -1.288  1.00 20.00     0.017 C 
ENDBRANCH   5   7
TORSDOF 1
ENDMDL
MODEL 2
REMARK VINA RESULT:      -4.3      1.625      2.094
REMARK  1 active torsions:
REMARK  status: ('A' for Active; 'I' for Inactive)
REMARK    1  A    between atoms: C6_6  and  N10_10 
ROOT
HETATM    1  C1  UNL     1     -34.490  14.615  -5.851  1.00 20.00     0.156 C 
HETATM    2  C2  UNL     1     -34.828  13.366  -5.092  1.00 20.00     0.110 C 
HETATM    3  C3  UNL     1     -34.263  15.775  -4.917  1.00 20.00     0.350 C 
HETATM    4  C5  UNL     1     -34.456  13.792  -3.678  1.00 20.00     0.281 C 
HETATM    5  N10 UNL     1     -34.759  15.227  -3.653  1.00 20.00     0.101 N 
HETATM    6  O11 UNL     1     -34.412  14.684  -7.070  1.00 20.00    -0.296 OA
ENDROOT
BRANCH   5   7
HETATM    7  C6  UNL     1     -34.187  15.898  -2.496  1.00 20.00     0.232 A 
HETATM    8  C4  UNL     1     -33.744  17.333  -2.585  1.00 20.00     0.047 A 
HETATM    9  C7  UNL     1     -34.935  16.972  -1.727  1.00 20.00    -0.015 A 
HETATM   10  C8  UNL     1     -36.297  17.424  -2.188  1.00 20.00     0.017 C 
HETATM   11  C9  UNL     1     -34.760  16.998  -0.231  1.00 20.00     0.017 C 
ENDBRANCH   5   7
TORSDOF 1
ENDMDL
MODEL 3
REMARK VINA RESULT:      -4.1      1.346      2.118
REMARK  1 active torsions:
REMARK  status: ('A' for Active; 'I' for Inactive)
REMARK    1  A    between atoms: C6_6  and  N10_10 
ROOT
HETATM    1  C1  UNL     1     -34.919  13.689  -4.671  1.00 20.00     0.156 C 
HETATM    2  C2  UNL     1     -35.674  14.599  -5.595  1.00 20.00     0.110 C 
HETATM    3  C3  UNL     1     -34.700  14.336  -3.329  1.00 20.00     0.350 C 
HETATM    4  C5  UNL     1     -36.159  15.653  -4.609  1.00 20.00     0.281 C 
HETATM    5  N10 UNL     1     -35.087  15.720  -3.610  1.00 20.00     0.101 N 
HETATM    6  O11 UNL     1     -34.530  12.569  -4.970  1.00 20.00    -0.296 OA
ENDROOT
BRANCH   5   7
HETATM    7  C6  UNL     1     -35.486  16.439  -2.410  1.00 20.00     0.232 A 
HETATM    8  C4  UNL     1     -34.580  16.487  -1.210  1.00 20.00     0.047 A 
HETATM    9  C7  UNL     1     -34.844  17.750  -1.996  1.00 20.00    -0.015 A 
HETATM   10  C8  UNL     1     -33.709  18.325  -2.806  1.00 20.00     0.017 C 
HETATM   11  C9  UNL     1     -35.739  18.793  -1.378  1.00 20.00     0.017 C 
ENDBRANCH   5   7
TORSDOF 1
ENDMDL
MODEL 4
REMARK VINA RESULT:      -4.1      2.543      4.637
REMARK  1 active torsions:
REMARK  status: ('A' for Active; 'I' for Inactive)
REMARK    1  A    between atoms: C6_6  and  N10_10 
ROOT
HETATM    1  C1  UNL     1     -34.375  16.635  -1.763  1.00 20.00     0.156 C 
HETATM    2  C2  UNL     1     -34.037  17.898  -2.498  1.00 20.00     0.110 C 
HETATM    3  C3  UNL     1     -34.565  15.484  -2.716  1.00 20.00     0.350 C 
HETATM    4  C5  UNL     1     -33.717  17.338  -3.877  1.00 20.00     0.281 C 
HETATM    5  N10 UNL     1     -34.611  16.181  -4.002  1.00 20.00     0.101 N 
HETATM    6  O11 UNL     1     -34.486  16.551  -0.547  1.00 20.00    -0.296 OA
ENDROOT
BRANCH   5   7
HETATM    7  C6  UNL     1     -34.252  15.317  -5.115  1.00 20.00     0.232 A 
HETATM    8  C4  UNL     1     -34.743  13.895  -5.169  1.00 20.00     0.047 A 
HETATM    9  C7  UNL     1     -35.253  14.899  -6.177  1.00 20.00    -0.015 A 
HETATM   10  C8  UNL     1     -36.693  15.332  -6.071  1.00 20.00     0.017 C 
HETATM   11  C9  UNL     1     -34.753  14.793  -7.594  1.00 20.00     0.017 C 
ENDBRANCH   5   7
TORSDOF 1
ENDMDL
MODEL 5
REMARK VINA RESULT:      -4.0      2.892      3.612
REMARK  1 active torsions:
REMARK  status: ('A' for Active; 'I' for Inactive)
REMARK    1  A    between atoms: C6_6  and  N10_10 
ROOT
HETATM    1  C1  UNL     1     -34.660  13.668  -4.517  1.00 20.00     0.156 C 
HETATM    2  C2  UNL     1     -33.909  14.368  -3.423  1.00 20.00     0.110 C 
HETATM    3  C3  UNL     1     -34.793  14.544  -5.734  1.00 20.00     0.350 C 
HETATM    4  C5  UNL     1     -33.337  15.550  -4.195  1.00 20.00     0.281 C 
HETATM    5  N10 UNL     1     -34.360  15.839  -5.205  1.00 20.00     0.101 N 
HETATM    6  O11 UNL     1     -35.109  12.533  -4.430  1.00 20.00    -0.296 OA
ENDROOT
BRANCH   5   7
HETATM    7  C6  UNL     1     -33.879  16.732  -6.247  1.00 20.00     0.232 A 
HETATM    8  C4  UNL     1     -34.639  16.882  -7.537  1.00 20.00     0.047 A 
HETATM    9  C7  UNL     1     -34.566  18.045  -6.575  1.00 20.00    -0.015 A 
HETATM   10  C8  UNL     1     -35.828  18.439  -5.850  1.00 20.00     0.017 C 
HETATM   11  C9  UNL     1     -33.687  19.211  -6.943  1.00 20.00     0.017 C 
ENDBRANCH   5   7
TORSDOF 1
ENDMDL
MODEL 6
REMARK VINA RESULT:      -4.0      2.196      3.137
REMARK  1 active torsions:
REMARK  status: ('A' for Active; 'I' for Inactive)
REMARK    1  A    between atoms: C6_6  and  N10_10 
ROOT
HETATM    1  C1  UNL     1     -35.679  14.707  -6.804  1.00 20.00     0.156 C 
HETATM    2  C2  UNL     1     -36.998  15.283  -6.383  1.00 20.00     0.110 C 
HETATM    3  C3  UNL     1     -34.680  14.755  -5.678  1.00 20.00     0.350 C 
HETATM    4  C5  UNL     1     -36.801  15.353  -4.875  1.00 20.00     0.281 C 
HETATM    5  N10 UNL     1     -35.367  15.623  -4.720  1.00 20.00     0.101 N 
HETATM    6  O11 UNL     1     -35.444  14.259  -7.918  1.00 20.00    -0.296 OA
ENDROOT
BRANCH   5   7
HETATM    7  C6  UNL     1     -34.905  15.420  -3.356  1.00 20.00     0.232 A 
HETATM    8  C4  UNL     1     -33.434  15.324  -3.053  1.00 20.00     0.047 A 
HETATM    9  C7  UNL     1     -34.221  16.515  -2.558  1.00 20.00    -0.015 A 
HETATM   10  C8  UNL     1     -33.944  17.854  -3.193  1.00 20.00     0.017 C 
HETATM   11  C9  UNL     1     -34.532  16.593  -1.086  1.00 20.00     0.017 C 
ENDBRANCH   5   7
TORSDOF 1
ENDMDL
MODEL 7
REMARK VINA RESULT:      -4.0      2.631      4.665
REMARK  1 active torsions:
REMARK  status: ('A' for Active; 'I' for Inactive)
REMARK    1  A    between atoms: C6_6  and  N10_10 
ROOT
HETATM    1  C1  UNL     1     -33.874  18.237  -1.057  1.00 20.00     0.156 C 
HETATM    2  C2  UNL     1     -34.534  17.058  -0.405  1.00 20.00     0.110 C 
HETATM    3  C3  UNL     1     -33.688  18.009  -2.534  1.00 20.00     0.350 C 
HETATM    4  C5  UNL     1     -35.012  16.295  -1.632  1.00 20.00     0.281 C 
HETATM    5  N10 UNL     1     -33.989  16.580  -2.644  1.00 20.00     0.101 N 
HETATM    6  O11 UNL     1     -33.529  19.251  -0.466  1.00 20.00    -0.296 OA
ENDROOT
BRANCH   5   7
HETATM    7  C6  UNL     1     -34.409  16.203  -3.984  1.00 20.00     0.232 A 
HETATM    8  C4  UNL     1     -33.402  16.078  -5.095  1.00 20.00     0.047 A 
HETATM    9  C7  UNL     1     -34.101  14.841  -4.580  1.00 20.00    -0.015 A 
HETATM   10  C8  UNL     1     -33.282  13.842  -3.802  1.00 20.00     0.017 C 
HETATM   11  C9  UNL     1     -35.158  14.214  -5.451  1.00 20.00     0.017 C 
ENDBRANCH   5   7
TORSDOF 1
ENDMDL
MODEL 8
REMARK VINA RESULT:      -3.9     12.314     14.616
REMARK  1 active torsions:
REMARK  status: ('A' for Active; 'I' for Inactive)
REMARK    1  A    between atoms: C6_6  and  N10_10 
ROOT
HETATM    1  C1  UNL     1     -41.397   6.746  -1.080  1.00 20.00     0.156 C 
HETATM    2  C2  UNL     1     -40.805   5.881  -0.007  1.00 20.00     0.110 C 
HETATM    3  C3  UNL     1     -42.225   5.933  -2.040  1.00 20.00     0.350 C 
HETATM    4  C5  UNL     1     -41.605   4.601  -0.211  1.00 20.00     0.281 C 
HETATM    5  N10 UNL     1     -41.854   4.569  -1.656  1.00 20.00     0.101 N 
HETATM    6  O11 UNL     1     -41.226   7.954  -1.168  1.00 20.00    -0.296 OA
ENDROOT
BRANCH   5   7
HETATM    7  C6  UNL     1     -42.868   3.593  -2.025  1.00 20.00     0.232 A 
HETATM    8  C4  UNL     1     -43.417   3.554  -3.426  1.00 20.00     0.047 A 
HETATM    9  C7  UNL     1     -42.566   2.409  -2.925  1.00 20.00    -0.015 A 
HETATM   10  C8  UNL     1     -41.191   2.241  -3.520  1.00 20.00     0.017 C 
HETATM   11  C9  UNL     1     -43.254   1.107  -2.605  1.00 20.00     0.017 C 
ENDBRANCH   5   7
TORSDOF 1
ENDMDL
MODEL 9
REMARK VINA RESULT:      -3.9      2.499      3.531
REMARK  1 active torsions:
REMARK  status: ('A' for Active; 'I' for Inactive)
REMARK    1  A    between atoms: C6_6  and  N10_10 
ROOT
HETATM    1  C1  UNL     1     -33.583  13.765  -3.919  1.00 20.00     0.156 C 
HETATM    2  C2  UNL     1     -35.018  13.447  -4.218  1.00 20.00     0.110 C 
HETATM    3  C3  UNL     1     -33.292  15.227  -4.137  1.00 20.00     0.350 C 
HETATM    4  C5  UNL     1     -35.603  14.851  -4.292  1.00 20.00     0.281 C 
HETATM    5  N10 UNL     1     -34.505  15.660  -4.833  1.00 20.00     0.101 N 
HETATM    6  O11 UNL     1     -32.754  12.944  -3.550  1.00 20.00    -0.296 OA
ENDROOT
BRANCH   5   7
HETATM    7  C6  UNL     1     -34.745  17.088  -4.694  1.00 20.00     0.232 A 
HETATM    8  C4  UNL     1     -33.636  18.077  -4.938  1.00 20.00     0.047 A 
HETATM    9  C7  UNL     1     -34.809  18.022  -5.890  1.00 20.00    -0.015 A 
HETATM   10  C8  UNL     1     -34.563  17.490  -7.279  1.00 20.00     0.017 C 
HETATM   11  C9  UNL     1     -35.814  19.143  -5.836  1.00 20.00     0.017 C 
ENDBRANCH   5   7
TORSDOF 1
ENDMDL
