MODEL 1
REMARK VINA RESULT:      -4.6      0.000      0.000
REMARK  3 active torsions:
REMARK  status: ('A' for Active; 'I' for Inactive)
REMARK    1  A    between atoms: C2_2  and  C8_8 
REMARK    2  A    between atoms: C4_4  and  N9_9 
REMARK    3  A    between atoms: C8_8  and  N9_9 
ROOT
HETATM    1  N9  UNL     1     -32.922   6.494   2.939  1.00 20.00     0.093 N 
HETATM    2  H24 UNL     1     -33.809   6.834   2.579  1.00 20.00     0.316 HD
ENDROOT
BRANCH   1   3
HETATM    3  C4  UNL     1     -33.144   5.924   4.273  1.00 20.00     0.229 A 
HETATM    4  C3  UNL     1     -33.932   6.683   5.307  1.00 20.00     0.047 A 
HETATM    5  C5  UNL     1     -34.500   5.410   4.721  1.00 20.00    -0.015 A 
HETATM    6  C6  UNL     1     -35.694   5.527   3.809  1.00 20.00     0.017 C 
HETATM    7  C7  UNL     1     -34.517   4.180   5.593  1.00 20.00     0.017 C 
ENDBRANCH   1   3
BRANCH   1   8
HETATM    8  C8  UNL     1     -31.967   7.587   3.005  1.00 20.00     0.320 C 
BRANCH   8   9
HETATM    9  C2  UNL     1     -32.093   8.533   1.847  1.00 20.00     0.030 C 
HETATM   10  C1  UNL     1     -31.629   8.278   0.618  1.00 20.00     0.034 C 
HETATM   11 CL10 UNL     1     -32.835  10.061   2.188  1.00 20.00    -0.088 Cl
ENDBRANCH   8   9
ENDBRANCH   1   8
TORSDOF 3
ENDMDL
MODEL 2
REMARK VINA RESULT:      -4.2      1.453      1.921
REMARK  3 active torsions:
REMARK  status: ('A' for Active; 'I' for Inactive)
REMARK    1  A    between atoms: C2_2  and  C8_8 
REMARK    2  A    between atoms: C4_4  and  N9_9 
REMARK    3  A    between atoms: C8_8  and  N9_9 
ROOT
HETATM    1  N9  UNL     1     -33.531   5.563   2.808  1.00 20.00     0.093 N 
HETATM    2  H24 UNL     1     -33.924   5.991   1.974  1.00 20.00     0.316 HD
ENDROOT
BRANCH   1   3
HETATM    3  C4  UNL     1     -34.280   6.040   3.976  1.00 20.00     0.229 A 
HETATM    4  C3  UNL     1     -35.751   5.752   4.111  1.00 20.00     0.047 A 
HETATM    5  C5  UNL     1     -34.774   5.103   5.063  1.00 20.00    -0.015 A 
HETATM    6  C6  UNL     1     -34.554   3.617   4.939  1.00 20.00     0.017 C 
HETATM    7  C7  UNL     1     -34.731   5.609   6.482  1.00 20.00     0.017 C 
ENDBRANCH   1   3
BRANCH   1   8
HETATM    8  C8  UNL     1     -32.127   5.916   2.925  1.00 20.00     0.320 C 
BRANCH   8   9
HETATM    9  C2  UNL     1     -31.907   7.398   2.978  1.00 20.00     0.030 C 
HETATM   10  C1  UNL     1     -32.135   8.227   1.952  1.00 20.00     0.034 C 
HETATM   11 CL10 UNL     1     -31.255   8.020   4.458  1.00 20.00    -0.088 Cl
ENDBRANCH   8   9
ENDBRANCH   1   8
TORSDOF 3
ENDMDL
MODEL 3
REMARK VINA RESULT:      -4.1      2.091      4.617
REMARK  3 active torsions:
REMARK  status: ('A' for Active; 'I' for Inactive)
REMARK    1  A    between atoms: C2_2  and  C8_8 
REMARK    2  A    between atoms: C4_4  and  N9_9 
REMARK    3  A    between atoms: C8_8  and  N9_9 
ROOT
HETATM    1  N9  UNL     1     -34.502   6.499   3.429  1.00 20.00     0.093 N 
HETATM    2  H24 UNL     1     -34.547   6.392   2.420  1.00 20.00     0.316 HD
ENDROOT
BRANCH   1   3
HETATM    3  C4  UNL     1     -33.098   6.422   3.847  1.00 20.00     0.229 A 
HETATM    4  C3  UNL     1     -32.066   5.796   2.947  1.00 20.00     0.047 A 
HETATM    5  C5  UNL     1     -32.015   7.282   3.221  1.00 20.00    -0.015 A 
HETATM    6  C6  UNL     1     -32.351   8.217   2.088  1.00 20.00     0.017 C 
HETATM    7  C7  UNL     1     -30.927   7.793   4.131  1.00 20.00     0.017 C 
ENDBRANCH   1   3
BRANCH   1   8
HETATM    8  C8  UNL     1     -35.282   5.454   4.070  1.00 20.00     0.320 C 
BRANCH   8   9
HETATM    9  C2  UNL     1     -34.767   5.104   5.434  1.00 20.00     0.030 C 
HETATM   10  C1  UNL     1     -34.689   3.855   5.908  1.00 20.00     0.034 C 
HETATM   11 CL10 UNL     1     -34.319   6.439   6.445  1.00 20.00    -0.088 Cl
ENDBRANCH   8   9
ENDBRANCH   1   8
TORSDOF 3
ENDMDL
MODEL 4
REMARK VINA RESULT:      -3.9     10.558     11.531
REMARK  3 active torsions:
REMARK  status: ('A' for Active; 'I' for Inactive)
REMARK    1  A    between atoms: C2_2  and  C8_8 
REMARK    2  A    between atoms: C4_4  and  N9_9 
REMARK    3  A    between atoms: C8_8  and  N9_9 
ROOT
HETATM    1  N9  UNL     1     -34.290  15.784  -2.363  1.00 20.00     0.093 N 
HETATM    2  H24 UNL     1     -33.973  15.172  -1.618  1.00 20.00     0.316 HD
ENDROOT
BRANCH   1   3
HETATM    3  C4  UNL     1     -33.796  15.263  -3.643  1.00 20.00     0.229 A 
HETATM    4  C3  UNL     1     -33.521  13.793  -3.813  1.00 20.00     0.047 A 
HETATM    5  C5  UNL     1     -34.663  14.430  -4.570  1.00 20.00    -0.015 A 
HETATM    6  C6  UNL     1     -36.067  14.061  -4.166  1.00 20.00     0.017 C 
HETATM    7  C7  UNL     1     -34.493  14.646  -6.052  1.00 20.00     0.017 C 
ENDBRANCH   1   3
BRANCH   1   8
HETATM    8  C8  UNL     1     -33.793  17.131  -2.137  1.00 20.00     0.320 C 
BRANCH   8   9
HETATM    9  C2  UNL     1     -33.873  17.540  -0.696  1.00 20.00     0.030 C 
HETATM   10  C1  UNL     1     -34.888  17.224   0.118  1.00 20.00     0.034 C 
HETATM   11 CL10 UNL     1     -32.579  18.534  -0.112  1.00 20.00    -0.088 Cl
ENDBRANCH   8   9
ENDBRANCH   1   8
TORSDOF 3
ENDMDL
MODEL 5
REMARK VINA RESULT:      -3.9     10.503     11.434
REMARK  3 active torsions:
REMARK  status: ('A' for Active; 'I' for Inactive)
REMARK    1  A    between atoms: C2_2  and  C8_8 
REMARK    2  A    between atoms: C4_4  and  N9_9 
REMARK    3  A    between atoms: C8_8  and  N9_9 
ROOT
HETATM    1  N9  UNL     1     -35.605  15.924  -2.312  1.00 20.00     0.093 N 
HETATM    2  H24 UNL     1     -36.384  16.572  -2.394  1.00 20.00     0.316 HD
ENDROOT
BRANCH   1   3
HETATM    3  C4  UNL     1     -34.738  16.369  -1.216  1.00 20.00     0.229 A 
HETATM    4  C3  UNL     1     -33.787  17.520  -1.412  1.00 20.00     0.047 A 
HETATM    5  C5  UNL     1     -34.966  17.677  -0.479  1.00 20.00    -0.015 A 
HETATM    6  C6  UNL     1     -36.079  18.600  -0.901  1.00 20.00     0.017 C 
HETATM    7  C7  UNL     1     -34.693  17.689   1.004  1.00 20.00     0.017 C 
ENDBRANCH   1   3
BRANCH   1   8
HETATM    8  C8  UNL     1     -34.867  15.885  -3.563  1.00 20.00     0.320 C 
BRANCH   8   9
HETATM    9  C2  UNL     1     -34.150  14.584  -3.769  1.00 20.00     0.030 C 
HETATM   10  C1  UNL     1     -34.761  13.432  -4.074  1.00 20.00     0.034 C 
HETATM   11 CL10 UNL     1     -32.435  14.610  -3.524  1.00 20.00    -0.088 Cl
ENDBRANCH   8   9
ENDBRANCH   1   8
TORSDOF 3
ENDMDL
MODEL 6
REMARK VINA RESULT:      -3.9     11.092     12.051
REMARK  3 active torsions:
REMARK  status: ('A' for Active; 'I' for Inactive)
REMARK    1  A    between atoms: C2_2  and  C8_8 
REMARK    2  A    between atoms: C4_4  and  N9_9 
REMARK    3  A    between atoms: C8_8  and  N9_9 
ROOT
HETATM    1  N9  UNL     1     -35.538  14.546  -4.264  1.00 20.00     0.093 N 
HETATM    2  H24 UNL     1     -36.042  15.374  -4.567  1.00 20.00     0.316 HD
ENDROOT
BRANCH   1   3
HETATM    3  C4  UNL     1     -34.750  14.885  -3.073  1.00 20.00     0.229 A 
HETATM    4  C3  UNL     1     -33.455  15.642  -3.204  1.00 20.00     0.047 A 
HETATM    5  C5  UNL     1     -34.644  16.305  -2.547  1.00 20.00    -0.015 A 
HETATM    6  C6  UNL     1     -35.313  17.438  -3.282  1.00 20.00     0.017 C 
HETATM    7  C7  UNL     1     -34.612  16.485  -1.051  1.00 20.00     0.017 C 
ENDBRANCH   1   3
BRANCH   1   8
HETATM    8  C8  UNL     1     -34.671  14.080  -5.333  1.00 20.00     0.320 C 
BRANCH   8   9
HETATM    9  C2  UNL     1     -34.849  14.861  -6.601  1.00 20.00     0.030 C 
HETATM   10  C1  UNL     1     -35.489  14.398  -7.682  1.00 20.00     0.034 C 
HETATM   11 CL10 UNL     1     -34.109  16.428  -6.643  1.00 20.00    -0.088 Cl
ENDBRANCH   8   9
ENDBRANCH   1   8
TORSDOF 3
ENDMDL
MODEL 7
REMARK VINA RESULT:      -3.9     10.670     12.456
REMARK  3 active torsions:
REMARK  status: ('A' for Active; 'I' for Inactive)
REMARK    1  A    between atoms: C2_2  and  C8_8 
REMARK    2  A    between atoms: C4_4  and  N9_9 
REMARK    3  A    between atoms: C8_8  and  N9_9 
ROOT
HETATM    1  N9  UNL     1     -33.675  14.537  -4.584  1.00 20.00     0.093 N 
HETATM    2  H24 UNL     1     -33.260  15.415  -4.883  1.00 20.00     0.316 HD
ENDROOT
BRANCH   1   3
HETATM    3  C4  UNL     1     -34.790  14.215  -5.483  1.00 20.00     0.229 A 
HETATM    4  C3  UNL     1     -36.061  15.021  -5.443  1.00 20.00     0.047 A 
HETATM    5  C5  UNL     1     -35.166  15.098  -6.659  1.00 20.00    -0.015 A 
HETATM    6  C6  UNL     1     -34.426  16.387  -6.906  1.00 20.00     0.017 C 
HETATM    7  C7  UNL     1     -35.628  14.410  -7.918  1.00 20.00     0.017 C 
ENDBRANCH   1   3
BRANCH   1   8
HETATM    8  C8  UNL     1     -34.144  14.658  -3.214  1.00 20.00     0.320 C 
BRANCH   8   9
HETATM    9  C2  UNL     1     -34.113  16.073  -2.717  1.00 20.00     0.030 C 
HETATM   10  C1  UNL     1     -33.646  17.107  -3.427  1.00 20.00     0.034 C 
HETATM   11 CL10 UNL     1     -34.666  16.323  -1.093  1.00 20.00    -0.088 Cl
ENDBRANCH   8   9
ENDBRANCH   1   8
TORSDOF 3
ENDMDL
MODEL 8
REMARK VINA RESULT:      -3.8     10.589     12.938
REMARK  3 active torsions:
REMARK  status: ('A' for Active; 'I' for Inactive)
REMARK    1  A    between atoms: C2_2  and  C8_8 
REMARK    2  A    between atoms: C4_4  and  N9_9 
REMARK    3  A    between atoms: C8_8  and  N9_9 
ROOT
HETATM    1  N9  UNL     1     -32.976  15.888  -5.292  1.00 20.00     0.093 N 
HETATM    2  H24 UNL     1     -32.213  16.512  -5.540  1.00 20.00     0.316 HD
ENDROOT
BRANCH   1   3
HETATM    3  C4  UNL     1     -34.245  16.543  -5.626  1.00 20.00     0.229 A 
HETATM    4  C3  UNL     1     -34.413  17.261  -6.938  1.00 20.00     0.047 A 
HETATM    5  C5  UNL     1     -35.192  15.992  -6.677  1.00 20.00    -0.015 A 
HETATM    6  C6  UNL     1     -34.818  14.763  -7.464  1.00 20.00     0.017 C 
HETATM    7  C7  UNL     1     -36.670  16.116  -6.407  1.00 20.00     0.017 C 
ENDBRANCH   1   3
BRANCH   1   8
HETATM    8  C8  UNL     1     -32.917  15.583  -3.872  1.00 20.00     0.320 C 
BRANCH   8   9
HETATM    9  C2  UNL     1     -34.134  14.851  -3.390  1.00 20.00     0.030 C 
HETATM   10  C1  UNL     1     -34.478  13.622  -3.793  1.00 20.00     0.034 C 
HETATM   11 CL10 UNL     1     -35.160  15.716  -2.293  1.00 20.00    -0.088 Cl
ENDBRANCH   8   9
ENDBRANCH   1   8
TORSDOF 3
ENDMDL
MODEL 9
REMARK VINA RESULT:      -3.8     10.504     11.990
REMARK  3 active torsions:
REMARK  status: ('A' for Active; 'I' for Inactive)
REMARK    1  A    between atoms: C2_2  and  C8_8 
REMARK    2  A    between atoms: C4_4  and  N9_9 
REMARK    3  A    between atoms: C8_8  and  N9_9 
ROOT
HETATM    1  N9  UNL     1     -36.630  15.303  -2.984  1.00 20.00     0.093 N 
HETATM    2  H24 UNL     1     -37.619  15.441  -2.800  1.00 20.00     0.316 HD
ENDROOT
BRANCH   1   3
HETATM    3  C4  UNL     1     -36.015  16.609  -3.249  1.00 20.00     0.229 A 
HETATM    4  C3  UNL     1     -36.381  17.809  -2.417  1.00 20.00     0.047 A 
HETATM    5  C5  UNL     1     -34.989  17.228  -2.318  1.00 20.00    -0.015 A 
HETATM    6  C6  UNL     1     -34.608  16.529  -1.038  1.00 20.00     0.017 C 
HETATM    7  C7  UNL     1     -33.858  17.998  -2.952  1.00 20.00     0.017 C 
ENDBRANCH   1   3
BRANCH   1   8
HETATM    8  C8  UNL     1     -36.461  14.420  -4.126  1.00 20.00     0.320 C 
BRANCH   8   9
HETATM    9  C2  UNL     1     -35.019  14.186  -4.466  1.00 20.00     0.030 C 
HETATM   10  C1  UNL     1     -34.134  13.628  -3.632  1.00 20.00     0.034 C 
HETATM   11 CL10 UNL     1     -34.501  14.749  -6.021  1.00 20.00    -0.088 Cl
ENDBRANCH   8   9
ENDBRANCH   1   8
TORSDOF 3
ENDMDL
