MODEL 1
REMARK VINA RESULT:      -4.4      0.000      0.000
REMARK  0 active torsions:
REMARK  status: ('A' for Active; 'I' for Inactive)
ROOT
HETATM    1  C1  UNL     1     -34.550  14.975  -2.970  1.00 20.00     0.060 A 
HETATM    2  C2  UNL     1     -33.606  17.161  -4.476  1.00 20.00     0.065 A 
HETATM    3  C3  UNL     1     -34.183  17.737  -0.743  1.00 20.00     0.167 A 
HETATM    4  C4  UNL     1     -34.314  16.211  -2.332  1.00 20.00     0.076 A 
HETATM    5  C5  UNL     1     -33.848  15.927  -5.083  1.00 20.00     0.139 A 
HETATM    6  C6  UNL     1     -33.846  17.284  -3.098  1.00 20.00     0.038 A 
HETATM    7  C7  UNL     1     -34.313  14.846  -4.342  1.00 20.00     0.074 A 
HETATM    8  N8  UNL     1     -34.502  16.487  -0.985  1.00 20.00    -0.253 NA
HETATM    9  F9  UNL     1     -33.624  15.799  -6.399  1.00 20.00    -0.204 F 
HETATM   10  S10 UNL     1     -33.644  18.660  -2.079  1.00 20.00    -0.080 SA
HETATM   11 CL11 UNL     1     -34.606  13.333  -5.111  1.00 20.00    -0.081 Cl
ENDROOT
TORSDOF 0
ENDMDL
MODEL 2
REMARK VINA RESULT:      -4.4      3.601      4.555
REMARK  0 active torsions:
REMARK  status: ('A' for Active; 'I' for Inactive)
ROOT
HETATM    1  C1  UNL     1     -33.690  17.418  -4.184  1.00 20.00     0.060 A 
HETATM    2  C2  UNL     1     -34.713  15.116  -2.923  1.00 20.00     0.065 A 
HETATM    3  C3  UNL     1     -34.394  15.020  -6.729  1.00 20.00     0.167 A 
HETATM    4  C4  UNL     1     -34.056  16.300  -4.964  1.00 20.00     0.076 A 
HETATM    5  C5  UNL     1     -34.343  16.235  -2.175  1.00 20.00     0.139 A 
HETATM    6  C6  UNL     1     -34.563  15.167  -4.318  1.00 20.00     0.038 A 
HETATM    7  C7  UNL     1     -33.837  17.372  -2.795  1.00 20.00     0.074 A 
HETATM    8  N8  UNL     1     -33.966  16.200  -6.345  1.00 20.00    -0.253 NA
HETATM    9  F9  UNL     1     -34.484  16.197  -0.842  1.00 20.00    -0.204 F 
HETATM   10  S10 UNL     1     -34.926  13.962  -5.495  1.00 20.00    -0.080 SA
HETATM   11 CL11 UNL     1     -33.388  18.743  -1.853  1.00 20.00    -0.081 Cl
ENDROOT
TORSDOF 0
ENDMDL
MODEL 3
REMARK VINA RESULT:      -4.4     13.407     14.392
REMARK  0 active torsions:
REMARK  status: ('A' for Active; 'I' for Inactive)
ROOT
HETATM    1  C1  UNL     1     -42.621   6.110  -2.351  1.00 20.00     0.060 A 
HETATM    2  C2  UNL     1     -40.795   4.281  -1.229  1.00 20.00     0.065 A 
HETATM    3  C3  UNL     1     -43.124   2.966  -3.958  1.00 20.00     0.167 A 
HETATM    4  C4  UNL     1     -42.602   4.775  -2.808  1.00 20.00     0.076 A 
HETATM    5  C5  UNL     1     -40.835   5.609  -0.796  1.00 20.00     0.139 A 
HETATM    6  C6  UNL     1     -41.688   3.883  -2.237  1.00 20.00     0.038 A 
HETATM    7  C7  UNL     1     -41.735   6.513  -1.348  1.00 20.00     0.074 A 
HETATM    8  N8  UNL     1     -43.417   4.234  -3.792  1.00 20.00    -0.253 NA
HETATM    9  F9  UNL     1     -39.988   5.999   0.168  1.00 20.00    -0.204 F 
HETATM   10  S10 UNL     1     -41.877   2.335  -2.972  1.00 20.00    -0.080 SA
HETATM   11 CL11 UNL     1     -41.768   8.146  -0.798  1.00 20.00    -0.081 Cl
ENDROOT
TORSDOF 0
ENDMDL
MODEL 4
REMARK VINA RESULT:      -4.3      3.218      4.007
REMARK  0 active torsions:
REMARK  status: ('A' for Active; 'I' for Inactive)
ROOT
HETATM    1  C1  UNL     1     -34.976  15.275  -2.950  1.00 20.00     0.060 A 
HETATM    2  C2  UNL     1     -33.699  17.240  -4.514  1.00 20.00     0.065 A 
HETATM    3  C3  UNL     1     -35.104  14.195  -6.347  1.00 20.00     0.167 A 
HETATM    4  C4  UNL     1     -34.883  15.101  -4.347  1.00 20.00     0.076 A 
HETATM    5  C5  UNL     1     -33.806  17.387  -3.129  1.00 20.00     0.139 A 
HETATM    6  C6  UNL     1     -34.244  16.088  -5.106  1.00 20.00     0.038 A 
HETATM    7  C7  UNL     1     -34.436  16.419  -2.355  1.00 20.00     0.074 A 
HETATM    8  N8  UNL     1     -35.369  14.023  -5.073  1.00 20.00    -0.253 NA
HETATM    9  F9  UNL     1     -33.288  18.482  -2.555  1.00 20.00    -0.204 F 
HETATM   10  S10 UNL     1     -34.271  15.629  -6.766  1.00 20.00    -0.080 SA
HETATM   11 CL11 UNL     1     -34.555  16.620  -0.648  1.00 20.00    -0.081 Cl
ENDROOT
TORSDOF 0
ENDMDL
MODEL 5
REMARK VINA RESULT:      -4.3      1.895      2.413
REMARK  0 active torsions:
REMARK  status: ('A' for Active; 'I' for Inactive)
ROOT
HETATM    1  C1  UNL     1     -34.085  16.545  -5.441  1.00 20.00     0.060 A 
HETATM    2  C2  UNL     1     -34.497  14.628  -3.417  1.00 20.00     0.065 A 
HETATM    3  C3  UNL     1     -33.820  18.220  -2.303  1.00 20.00     0.167 A 
HETATM    4  C4  UNL     1     -34.035  16.939  -4.087  1.00 20.00     0.076 A 
HETATM    5  C5  UNL     1     -34.542  14.266  -4.765  1.00 20.00     0.139 A 
HETATM    6  C6  UNL     1     -34.242  15.972  -3.097  1.00 20.00     0.038 A 
HETATM    7  C7  UNL     1     -34.339  15.209  -5.766  1.00 20.00     0.074 A 
HETATM    8  N8  UNL     1     -33.795  18.222  -3.615  1.00 20.00    -0.253 NA
HETATM    9  F9  UNL     1     -34.784  12.985  -5.081  1.00 20.00    -0.204 F 
HETATM   10  S10 UNL     1     -34.127  16.716  -1.547  1.00 20.00    -0.080 SA
HETATM   11 CL11 UNL     1     -34.398  14.739  -7.422  1.00 20.00    -0.081 Cl
ENDROOT
TORSDOF 0
ENDMDL
MODEL 6
REMARK VINA RESULT:      -4.1      3.232      3.749
REMARK  0 active torsions:
REMARK  status: ('A' for Active; 'I' for Inactive)
ROOT
HETATM    1  C1  UNL     1     -35.601  14.078  -3.788  1.00 20.00     0.060 A 
HETATM    2  C2  UNL     1     -35.564  16.191  -5.652  1.00 20.00     0.065 A 
HETATM    3  C3  UNL     1     -38.986  14.967  -4.473  1.00 20.00     0.167 A 
HETATM    4  C4  UNL     1     -36.818  14.631  -4.239  1.00 20.00     0.076 A 
HETATM    5  C5  UNL     1     -34.373  15.626  -5.188  1.00 20.00     0.139 A 
HETATM    6  C6  UNL     1     -36.778  15.679  -5.165  1.00 20.00     0.038 A 
HETATM    7  C7  UNL     1     -34.389  14.583  -4.269  1.00 20.00     0.074 A 
HETATM    8  N8  UNL     1     -38.091  14.235  -3.853  1.00 20.00    -0.253 NA
HETATM    9  F9  UNL     1     -33.209  16.106  -5.648  1.00 20.00    -0.204 F 
HETATM   10  S10 UNL     1     -38.389  16.161  -5.542  1.00 20.00    -0.080 SA
HETATM   11 CL11 UNL     1     -32.908  13.900  -3.711  1.00 20.00    -0.081 Cl
ENDROOT
TORSDOF 0
ENDMDL
MODEL 7
REMARK VINA RESULT:      -4.1      3.769      4.666
REMARK  0 active torsions:
REMARK  status: ('A' for Active; 'I' for Inactive)
ROOT
HETATM    1  C1  UNL     1     -33.598  18.606  -2.350  1.00 20.00     0.060 A 
HETATM    2  C2  UNL     1     -34.689  16.038  -1.958  1.00 20.00     0.065 A 
HETATM    3  C3  UNL     1     -33.682  16.978  -5.522  1.00 20.00     0.167 A 
HETATM    4  C4  UNL     1     -33.747  17.737  -3.451  1.00 20.00     0.076 A 
HETATM    5  C5  UNL     1     -34.530  16.918  -0.885  1.00 20.00     0.139 A 
HETATM    6  C6  UNL     1     -34.292  16.466  -3.235  1.00 20.00     0.038 A 
HETATM    7  C7  UNL     1     -33.991  18.186  -1.076  1.00 20.00     0.074 A 
HETATM    8  N8  UNL     1     -33.404  18.014  -4.767  1.00 20.00    -0.253 NA
HETATM    9  F9  UNL     1     -34.907  16.520   0.339  1.00 20.00    -0.204 F 
HETATM   10  S10 UNL     1     -34.361  15.620  -4.735  1.00 20.00    -0.080 SA
HETATM   11 CL11 UNL     1     -33.805  19.256   0.262  1.00 20.00    -0.081 Cl
ENDROOT
TORSDOF 0
ENDMDL
MODEL 8
REMARK VINA RESULT:      -4.0      2.676      3.035
REMARK  0 active torsions:
REMARK  status: ('A' for Active; 'I' for Inactive)
ROOT
HETATM    1  C1  UNL     1     -34.445  15.679  -2.775  1.00 20.00     0.060 A 
HETATM    2  C2  UNL     1     -36.603  14.513  -4.161  1.00 20.00     0.065 A 
HETATM    3  C3  UNL     1     -37.271  17.813  -2.356  1.00 20.00     0.167 A 
HETATM    4  C4  UNL     1     -35.701  16.322  -2.777  1.00 20.00     0.076 A 
HETATM    5  C5  UNL     1     -35.348  13.898  -4.144  1.00 20.00     0.139 A 
HETATM    6  C6  UNL     1     -36.760  15.725  -3.470  1.00 20.00     0.038 A 
HETATM    7  C7  UNL     1     -34.282  14.472  -3.461  1.00 20.00     0.074 A 
HETATM    8  N8  UNL     1     -36.011  17.517  -2.143  1.00 20.00    -0.253 NA
HETATM    9  F9  UNL     1     -35.188  12.739  -4.800  1.00 20.00    -0.204 F 
HETATM   10  S10 UNL     1     -38.165  16.710  -3.310  1.00 20.00    -0.080 SA
HETATM   11 CL11 UNL     1     -32.743  13.696  -3.452  1.00 20.00    -0.081 Cl
ENDROOT
TORSDOF 0
ENDMDL
MODEL 9
REMARK VINA RESULT:      -4.0      3.678      4.604
REMARK  0 active torsions:
REMARK  status: ('A' for Active; 'I' for Inactive)
ROOT
HETATM    1  C1  UNL     1     -35.190  16.537  -4.421  1.00 20.00     0.060 A 
HETATM    2  C2  UNL     1     -34.712  13.883  -5.237  1.00 20.00     0.065 A 
HETATM    3  C3  UNL     1     -35.870  16.347  -7.917  1.00 20.00     0.167 A 
HETATM    4  C4  UNL     1     -35.382  16.177  -5.772  1.00 20.00     0.076 A 
HETATM    5  C5  UNL     1     -34.528  14.265  -3.906  1.00 20.00     0.139 A 
HETATM    6  C6  UNL     1     -35.140  14.854  -6.156  1.00 20.00     0.038 A 
HETATM    7  C7  UNL     1     -34.763  15.574  -3.501  1.00 20.00     0.074 A 
HETATM    8  N8  UNL     1     -35.801  17.020  -6.793  1.00 20.00    -0.253 NA
HETATM    9  F9  UNL     1     -34.121  13.345  -3.020  1.00 20.00    -0.204 F 
HETATM   10  S10 UNL     1     -35.450  14.691  -7.844  1.00 20.00    -0.080 SA
HETATM   11 CL11 UNL     1     -34.532  16.024  -1.854  1.00 20.00    -0.081 Cl
ENDROOT
TORSDOF 0
ENDMDL
