MODEL 1
REMARK VINA RESULT:      -5.3      0.000      0.000
REMARK  0 active torsions:
REMARK  status: ('A' for Active; 'I' for Inactive)
ROOT
HETATM    1  C1  UNL     1     -34.773  15.414  -2.986  1.00 20.00     0.042 C 
HETATM    2  C2  UNL     1     -34.194  17.850  -0.064  1.00 20.00    -0.026 A 
HETATM    3  C3  UNL     1     -33.676  18.905  -0.707  1.00 20.00    -0.026 A 
HETATM    4  C4  UNL     1     -34.346  16.592  -2.245  1.00 20.00    -0.050 A 
HETATM    5  C5  UNL     1     -33.822  17.656  -2.897  1.00 20.00    -0.067 A 
HETATM    6  C6  UNL     1     -34.372  15.244  -4.251  1.00 20.00     0.079 C 
HETATM    7  C7  UNL     1     -34.590  16.580  -0.758  1.00 20.00     0.065 A 
HETATM    8  C8  UNL     1     -33.434  18.929  -2.186  1.00 20.00     0.061 A 
HETATM    9  C9  UNL     1     -33.603  17.634  -4.400  1.00 20.00     0.074 C 
HETATM   10  C10 UNL     1     -34.463  14.774  -6.385  1.00 20.00     0.345 C 
HETATM   11  C11 UNL     1     -33.496  16.212  -4.954  1.00 20.00     0.184 C 
HETATM   12  O12 UNL     1     -34.859  14.277  -5.099  1.00 20.00    -0.328 OA
HETATM   13  O13 UNL     1     -33.960  16.115  -6.295  1.00 20.00    -0.354 OA
ENDROOT
TORSDOF 0
ENDMDL
MODEL 2
REMARK VINA RESULT:      -5.2      0.357      2.128
REMARK  0 active torsions:
REMARK  status: ('A' for Active; 'I' for Inactive)
ROOT
HETATM    1  C1  UNL     1     -33.660  17.461  -4.456  1.00 20.00     0.042 C 
HETATM    2  C2  UNL     1     -33.635  18.863  -0.873  1.00 20.00    -0.026 A 
HETATM    3  C3  UNL     1     -34.145  17.831  -0.189  1.00 20.00    -0.026 A 
HETATM    4  C4  UNL     1     -33.883  17.565  -3.022  1.00 20.00    -0.050 A 
HETATM    5  C5  UNL     1     -34.399  16.521  -2.333  1.00 20.00    -0.067 A 
HETATM    6  C6  UNL     1     -34.239  16.473  -5.148  1.00 20.00     0.079 C 
HETATM    7  C7  UNL     1     -33.444  18.846  -2.361  1.00 20.00     0.065 A 
HETATM    8  C8  UNL     1     -34.581  16.551  -0.836  1.00 20.00     0.061 A 
HETATM    9  C9  UNL     1     -34.820  15.241  -3.034  1.00 20.00     0.074 C 
HETATM   10  C10 UNL     1     -34.477  14.838  -6.581  1.00 20.00     0.345 C 
HETATM   11  C11 UNL     1     -35.119  15.459  -4.519  1.00 20.00     0.184 C 
HETATM   12  O12 UNL     1     -33.954  16.168  -6.458  1.00 20.00    -0.328 OA
HETATM   13  O13 UNL     1     -34.849  14.303  -5.303  1.00 20.00    -0.354 OA
ENDROOT
TORSDOF 0
ENDMDL
MODEL 3
REMARK VINA RESULT:      -5.2      2.269      4.543
REMARK  0 active torsions:
REMARK  status: ('A' for Active; 'I' for Inactive)
ROOT
HETATM    1  C1  UNL     1     -34.044  15.927  -2.255  1.00 20.00     0.042 C 
HETATM    2  C2  UNL     1     -34.847  13.525  -5.150  1.00 20.00    -0.026 A 
HETATM    3  C3  UNL     1     -34.654  14.323  -6.209  1.00 20.00    -0.026 A 
HETATM    4  C4  UNL     1     -34.286  15.436  -3.603  1.00 20.00    -0.050 A 
HETATM    5  C5  UNL     1     -34.091  16.245  -4.670  1.00 20.00    -0.067 A 
HETATM    6  C6  UNL     1     -33.932  17.243  -2.037  1.00 20.00     0.079 C 
HETATM    7  C7  UNL     1     -34.683  13.988  -3.733  1.00 20.00     0.065 A 
HETATM    8  C8  UNL     1     -34.255  15.764  -6.090  1.00 20.00     0.061 A 
HETATM    9  C9  UNL     1     -33.678  17.697  -4.498  1.00 20.00     0.074 C 
HETATM   10  C10 UNL     1     -33.164  19.135  -1.254  1.00 20.00     0.345 C 
HETATM   11  C11 UNL     1     -34.049  18.249  -3.120  1.00 20.00     0.184 C 
HETATM   12  O12 UNL     1     -33.521  17.805  -0.852  1.00 20.00    -0.328 OA
HETATM   13  O13 UNL     1     -33.151  19.263  -2.683  1.00 20.00    -0.354 OA
ENDROOT
TORSDOF 0
ENDMDL
MODEL 4
REMARK VINA RESULT:      -4.9      2.029      5.114
REMARK  0 active torsions:
REMARK  status: ('A' for Active; 'I' for Inactive)
ROOT
HETATM    1  C1  UNL     1     -33.991  17.541  -4.460  1.00 20.00     0.042 C 
HETATM    2  C2  UNL     1     -34.763  15.435  -7.585  1.00 20.00    -0.026 A 
HETATM    3  C3  UNL     1     -35.183  14.291  -7.029  1.00 20.00    -0.026 A 
HETATM    4  C4  UNL     1     -34.356  16.405  -5.293  1.00 20.00    -0.050 A 
HETATM    5  C5  UNL     1     -34.779  15.251  -4.728  1.00 20.00    -0.067 A 
HETATM    6  C6  UNL     1     -33.772  17.361  -3.152  1.00 20.00     0.079 C 
HETATM    7  C7  UNL     1     -34.307  16.618  -6.784  1.00 20.00     0.065 A 
HETATM    8  C8  UNL     1     -35.240  14.071  -5.547  1.00 20.00     0.061 A 
HETATM    9  C9  UNL     1     -34.827  15.079  -3.219  1.00 20.00     0.074 C 
HETATM   10  C10 UNL     1     -33.839  17.712  -0.994  1.00 20.00     0.345 C 
HETATM   11  C11 UNL     1     -33.881  16.038  -2.493  1.00 20.00     0.184 C 
HETATM   12  O12 UNL     1     -33.607  18.379  -2.243  1.00 20.00    -0.328 OA
HETATM   13  O13 UNL     1     -34.353  16.388  -1.197  1.00 20.00    -0.354 OA
ENDROOT
TORSDOF 0
ENDMDL
MODEL 5
REMARK VINA RESULT:      -4.8      5.374      7.724
REMARK  0 active torsions:
REMARK  status: ('A' for Active; 'I' for Inactive)
ROOT
HETATM    1  C1  UNL     1     -32.015  18.970   2.209  1.00 20.00     0.042 C 
HETATM    2  C2  UNL     1     -33.812  18.170  -1.097  1.00 20.00    -0.026 A 
HETATM    3  C3  UNL     1     -35.023  17.810  -0.653  1.00 20.00    -0.026 A 
HETATM    4  C4  UNL     1     -33.041  18.527   1.278  1.00 20.00    -0.050 A 
HETATM    5  C5  UNL     1     -34.264  18.162   1.730  1.00 20.00    -0.067 A 
HETATM    6  C6  UNL     1     -32.158  18.730   3.518  1.00 20.00     0.079 C 
HETATM    7  C7  UNL     1     -32.689  18.571  -0.187  1.00 20.00     0.065 A 
HETATM    8  C8  UNL     1     -35.385  17.767   0.802  1.00 20.00     0.061 A 
HETATM    9  C9  UNL     1     -34.584  18.142   3.215  1.00 20.00     0.074 C 
HETATM   10  C10 UNL     1     -32.149  19.070   5.678  1.00 20.00     0.345 C 
HETATM   11  C11 UNL     1     -33.329  18.017   4.082  1.00 20.00     0.184 C 
HETATM   12  O12 UNL     1     -31.354  19.261   4.499  1.00 20.00    -0.328 OA
HETATM   13  O13 UNL     1     -33.480  18.647   5.349  1.00 20.00    -0.354 OA
ENDROOT
TORSDOF 0
ENDMDL
MODEL 6
REMARK VINA RESULT:      -4.8      1.781      2.270
REMARK  0 active torsions:
REMARK  status: ('A' for Active; 'I' for Inactive)
ROOT
HETATM    1  C1  UNL     1     -36.435  16.581  -4.112  1.00 20.00     0.042 C 
HETATM    2  C2  UNL     1     -36.368  18.343  -0.693  1.00 20.00    -0.026 A 
HETATM    3  C3  UNL     1     -35.327  17.734  -0.109  1.00 20.00    -0.026 A 
HETATM    4  C4  UNL     1     -36.060  16.909  -2.745  1.00 20.00    -0.050 A 
HETATM    5  C5  UNL     1     -35.009  16.292  -2.158  1.00 20.00    -0.067 A 
HETATM    6  C6  UNL     1     -35.957  15.469  -4.683  1.00 20.00     0.079 C 
HETATM    7  C7  UNL     1     -36.849  18.003  -2.072  1.00 20.00     0.065 A 
HETATM    8  C8  UNL     1     -34.533  16.648  -0.771  1.00 20.00     0.061 A 
HETATM    9  C9  UNL     1     -34.231  15.201  -2.874  1.00 20.00     0.074 C 
HETATM   10  C10 UNL     1     -35.082  14.154  -6.196  1.00 20.00     0.345 C 
HETATM   11  C11 UNL     1     -35.048  14.531  -3.980  1.00 20.00     0.184 C 
HETATM   12  O12 UNL     1     -36.090  15.159  -6.016  1.00 20.00    -0.328 OA
HETATM   13  O13 UNL     1     -34.232  14.054  -5.044  1.00 20.00    -0.354 OA
ENDROOT
TORSDOF 0
ENDMDL
MODEL 7
REMARK VINA RESULT:      -4.8     13.154     14.644
REMARK  0 active torsions:
REMARK  status: ('A' for Active; 'I' for Inactive)
ROOT
HETATM    1  C1  UNL     1     -43.268   4.830  -3.435  1.00 20.00     0.042 C 
HETATM    2  C2  UNL     1     -42.390   7.753  -1.092  1.00 20.00    -0.026 A 
HETATM    3  C3  UNL     1     -41.306   7.270  -0.472  1.00 20.00    -0.026 A 
HETATM    4  C4  UNL     1     -42.607   5.604  -2.395  1.00 20.00    -0.050 A 
HETATM    5  C5  UNL     1     -41.512   5.113  -1.770  1.00 20.00    -0.067 A 
HETATM    6  C6  UNL     1     -43.000   3.525  -3.563  1.00 20.00     0.079 C 
HETATM    7  C7  UNL     1     -43.159   6.979  -2.122  1.00 20.00     0.065 A 
HETATM    8  C8  UNL     1     -40.745   5.905  -0.739  1.00 20.00     0.061 A 
HETATM    9  C9  UNL     1     -40.978   3.725  -2.082  1.00 20.00     0.074 C 
HETATM   10  C10 UNL     1     -42.547   1.608  -4.514  1.00 20.00     0.345 C 
HETATM   11  C11 UNL     1     -42.047   2.809  -2.681  1.00 20.00     0.184 C 
HETATM   12  O12 UNL     1     -43.417   2.744  -4.615  1.00 20.00    -0.328 OA
HETATM   13  O13 UNL     1     -41.497   1.838  -3.563  1.00 20.00    -0.354 OA
ENDROOT
TORSDOF 0
ENDMDL
MODEL 8
REMARK VINA RESULT:      -4.7      1.649      1.934
REMARK  0 active torsions:
REMARK  status: ('A' for Active; 'I' for Inactive)
ROOT
HETATM    1  C1  UNL     1     -34.367  15.255  -2.866  1.00 20.00     0.042 C 
HETATM    2  C2  UNL     1     -35.288  17.714  -0.055  1.00 20.00    -0.026 A 
HETATM    3  C3  UNL     1     -36.338  18.345  -0.597  1.00 20.00    -0.026 A 
HETATM    4  C4  UNL     1     -35.029  16.336  -2.151  1.00 20.00    -0.050 A 
HETATM    5  C5  UNL     1     -36.089  16.971  -2.701  1.00 20.00    -0.067 A 
HETATM    6  C6  UNL     1     -34.592  15.090  -4.175  1.00 20.00     0.079 C 
HETATM    7  C7  UNL     1     -34.519  16.640  -0.766  1.00 20.00     0.065 A 
HETATM    8  C8  UNL     1     -36.856  18.046  -1.972  1.00 20.00     0.061 A 
HETATM    9  C9  UNL     1     -36.580  16.627  -4.097  1.00 20.00     0.074 C 
HETATM   10  C10 UNL     1     -35.001  14.088  -6.075  1.00 20.00     0.345 C 
HETATM   11  C11 UNL     1     -35.495  15.971  -4.953  1.00 20.00     0.184 C 
HETATM   12  O12 UNL     1     -34.174  14.003  -4.906  1.00 20.00    -0.328 OA
HETATM   13  O13 UNL     1     -36.033  15.071  -5.915  1.00 20.00    -0.354 OA
ENDROOT
TORSDOF 0
ENDMDL
MODEL 9
REMARK VINA RESULT:      -4.7      3.042      4.535
REMARK  0 active torsions:
REMARK  status: ('A' for Active; 'I' for Inactive)
ROOT
HETATM    1  C1  UNL     1     -35.289  17.826   0.754  1.00 20.00     0.042 C 
HETATM    2  C2  UNL     1     -33.618  18.332   4.182  1.00 20.00    -0.026 A 
HETATM    3  C3  UNL     1     -32.399  18.751   3.816  1.00 20.00    -0.026 A 
HETATM    4  C4  UNL     1     -34.272  18.102   1.756  1.00 20.00    -0.050 A 
HETATM    5  C5  UNL     1     -33.041  18.524   1.384  1.00 20.00    -0.067 A 
HETATM    6  C6  UNL     1     -34.936  17.684  -0.529  1.00 20.00     0.079 C 
HETATM    7  C7  UNL     1     -34.689  17.965   3.198  1.00 20.00     0.065 A 
HETATM    8  C8  UNL     1     -31.975  18.894   2.385  1.00 20.00     0.061 A 
HETATM    9  C9  UNL     1     -32.662  18.660  -0.081  1.00 20.00     0.074 C 
HETATM   10  C10 UNL     1     -34.983  17.898  -2.705  1.00 20.00     0.345 C 
HETATM   11  C11 UNL     1     -33.531  17.793  -0.993  1.00 20.00     0.184 C 
HETATM   12  O12 UNL     1     -35.822  17.609  -1.578  1.00 20.00    -0.328 OA
HETATM   13  O13 UNL     1     -33.689  18.357  -2.290  1.00 20.00    -0.354 OA
ENDROOT
TORSDOF 0
ENDMDL
