MODEL 1
REMARK VINA RESULT:      -4.6      0.000      0.000
REMARK  0 active torsions:
REMARK  status: ('A' for Active; 'I' for Inactive)
ROOT
HETATM    1  C1  UNL     1     -33.638  17.549  -4.230  1.00 20.00     0.035 A 
HETATM    2  C2  UNL     1     -33.831  17.614  -2.847  1.00 20.00     0.026 A 
HETATM    3  C3  UNL     1     -34.817  15.399  -2.843  1.00 20.00     0.045 A 
HETATM    4  C4  UNL     1     -34.037  16.396  -4.940  1.00 20.00     0.077 A 
HETATM    5  C5  UNL     1     -34.619  15.341  -4.233  1.00 20.00     0.039 A 
HETATM    6  C6  UNL     1     -34.413  16.551  -2.165  1.00 20.00     0.035 A 
HETATM    7  C7  UNL     1     -34.384  15.008  -6.619  1.00 20.00     0.253 A 
HETATM    8  N8  UNL     1     -33.908  16.190  -6.306  1.00 20.00    -0.213 NA
HETATM    9  F9  UNL     1     -34.381  14.559  -7.883  1.00 20.00    -0.176 F 
HETATM   10  S10 UNL     1     -35.007  14.071  -5.331  1.00 20.00    -0.037 SA
HETATM   11 CL11 UNL     1     -34.638  16.655  -0.460  1.00 20.00    -0.084 Cl
ENDROOT
TORSDOF 0
ENDMDL
MODEL 2
REMARK VINA RESULT:      -4.4      1.417      1.445
REMARK  0 active torsions:
REMARK  status: ('A' for Active; 'I' for Inactive)
ROOT
HETATM    1  C1  UNL     1     -33.238  15.453  -4.148  1.00 20.00     0.035 A 
HETATM    2  C2  UNL     1     -33.367  15.885  -2.825  1.00 20.00     0.026 A 
HETATM    3  C3  UNL     1     -35.784  15.858  -3.011  1.00 20.00     0.045 A 
HETATM    4  C4  UNL     1     -34.394  15.217  -4.923  1.00 20.00     0.077 A 
HETATM    5  C5  UNL     1     -35.647  15.423  -4.341  1.00 20.00     0.039 A 
HETATM    6  C6  UNL     1     -34.624  16.084  -2.266  1.00 20.00     0.035 A 
HETATM    7  C7  UNL     1     -35.666  14.674  -6.643  1.00 20.00     0.253 A 
HETATM    8  N8  UNL     1     -34.421  14.787  -6.242  1.00 20.00    -0.213 NA
HETATM    9  F9  UNL     1     -35.974  14.274  -7.885  1.00 20.00    -0.176 F 
HETATM   10  S10 UNL     1     -36.874  15.063  -5.496  1.00 20.00    -0.037 SA
HETATM   11 CL11 UNL     1     -34.757  16.615  -0.632  1.00 20.00    -0.084 Cl
ENDROOT
TORSDOF 0
ENDMDL
MODEL 3
REMARK VINA RESULT:      -4.3      1.155      1.301
REMARK  0 active torsions:
REMARK  status: ('A' for Active; 'I' for Inactive)
ROOT
HETATM    1  C1  UNL     1     -33.720  18.022  -3.410  1.00 20.00     0.035 A 
HETATM    2  C2  UNL     1     -33.871  18.320  -2.053  1.00 20.00     0.026 A 
HETATM    3  C3  UNL     1     -34.616  16.057  -1.600  1.00 20.00     0.045 A 
HETATM    4  C4  UNL     1     -34.020  16.725  -3.880  1.00 20.00     0.077 A 
HETATM    5  C5  UNL     1     -34.462  15.765  -2.966  1.00 20.00     0.039 A 
HETATM    6  C6  UNL     1     -34.312  17.348  -1.161  1.00 20.00     0.035 A 
HETATM    7  C7  UNL     1     -34.276  15.025  -5.264  1.00 20.00     0.253 A 
HETATM    8  N8  UNL     1     -33.918  16.286  -5.192  1.00 20.00    -0.213 NA
HETATM    9  F9  UNL     1     -34.270  14.355  -6.425  1.00 20.00    -0.176 F 
HETATM   10  S10 UNL     1     -34.751  14.283  -3.797  1.00 20.00    -0.037 SA
HETATM   11 CL11 UNL     1     -34.488  17.740   0.507  1.00 20.00    -0.084 Cl
ENDROOT
TORSDOF 0
ENDMDL
MODEL 4
REMARK VINA RESULT:      -4.3      3.928      4.791
REMARK  0 active torsions:
REMARK  status: ('A' for Active; 'I' for Inactive)
ROOT
HETATM    1  C1  UNL     1     -34.628  14.247  -3.567  1.00 20.00     0.035 A 
HETATM    2  C2  UNL     1     -34.646  14.036  -4.949  1.00 20.00     0.026 A 
HETATM    3  C3  UNL     1     -34.194  16.384  -5.352  1.00 20.00     0.045 A 
HETATM    4  C4  UNL     1     -34.390  15.543  -3.059  1.00 20.00     0.077 A 
HETATM    5  C5  UNL     1     -34.176  16.589  -3.961  1.00 20.00     0.039 A 
HETATM    6  C6  UNL     1     -34.431  15.093  -5.828  1.00 20.00     0.035 A 
HETATM    7  C7  UNL     1     -34.099  17.186  -1.617  1.00 20.00     0.253 A 
HETATM    8  N8  UNL     1     -34.342  15.900  -1.720  1.00 20.00    -0.213 NA
HETATM    9  F9  UNL     1     -34.003  17.792  -0.425  1.00 20.00    -0.176 F 
HETATM   10  S10 UNL     1     -33.912  18.047  -3.083  1.00 20.00    -0.037 SA
HETATM   11 CL11 UNL     1     -34.457  14.807  -7.527  1.00 20.00    -0.084 Cl
ENDROOT
TORSDOF 0
ENDMDL
MODEL 5
REMARK VINA RESULT:      -4.2      1.394      1.411
REMARK  0 active torsions:
REMARK  status: ('A' for Active; 'I' for Inactive)
ROOT
HETATM    1  C1  UNL     1     -36.130  17.175  -4.167  1.00 20.00     0.035 A 
HETATM    2  C2  UNL     1     -35.806  17.386  -2.824  1.00 20.00     0.026 A 
HETATM    3  C3  UNL     1     -34.631  15.267  -2.736  1.00 20.00     0.045 A 
HETATM    4  C4  UNL     1     -35.704  15.995  -4.814  1.00 20.00     0.077 A 
HETATM    5  C5  UNL     1     -34.960  15.062  -4.086  1.00 20.00     0.039 A 
HETATM    6  C6  UNL     1     -35.065  16.443  -2.120  1.00 20.00     0.035 A 
HETATM    7  C7  UNL     1     -35.403  14.487  -6.396  1.00 20.00     0.253 A 
HETATM    8  N8  UNL     1     -35.949  15.652  -6.136  1.00 20.00    -0.213 NA
HETATM    9  F9  UNL     1     -35.493  13.921  -7.608  1.00 20.00    -0.176 F 
HETATM   10  S10 UNL     1     -34.572  13.729  -5.107  1.00 20.00    -0.037 SA
HETATM   11 CL11 UNL     1     -34.677  16.727  -0.466  1.00 20.00    -0.084 Cl
ENDROOT
TORSDOF 0
ENDMDL
MODEL 6
REMARK VINA RESULT:      -4.2      1.477      2.066
REMARK  0 active torsions:
REMARK  status: ('A' for Active; 'I' for Inactive)
ROOT
HETATM    1  C1  UNL     1     -34.478  15.116  -3.038  1.00 20.00     0.035 A 
HETATM    2  C2  UNL     1     -34.091  16.223  -2.277  1.00 20.00     0.026 A 
HETATM    3  C3  UNL     1     -33.881  17.573  -4.281  1.00 20.00     0.045 A 
HETATM    4  C4  UNL     1     -34.570  15.227  -4.442  1.00 20.00     0.077 A 
HETATM    5  C5  UNL     1     -34.270  16.455  -5.039  1.00 20.00     0.039 A 
HETATM    6  C6  UNL     1     -33.798  17.435  -2.893  1.00 20.00     0.035 A 
HETATM    7  C7  UNL     1     -34.915  14.678  -6.551  1.00 20.00     0.253 A 
HETATM    8  N8  UNL     1     -34.938  14.219  -5.321  1.00 20.00    -0.213 NA
HETATM    9  F9  UNL     1     -35.231  13.903  -7.598  1.00 20.00    -0.176 F 
HETATM   10  S10 UNL     1     -34.462  16.316  -6.746  1.00 20.00    -0.037 SA
HETATM   11 CL11 UNL     1     -33.326  18.786  -1.934  1.00 20.00    -0.084 Cl
ENDROOT
TORSDOF 0
ENDMDL
MODEL 7
REMARK VINA RESULT:      -4.0      2.529      2.772
REMARK  0 active torsions:
REMARK  status: ('A' for Active; 'I' for Inactive)
ROOT
HETATM    1  C1  UNL     1     -34.430  16.250  -1.652  1.00 20.00     0.035 A 
HETATM    2  C2  UNL     1     -35.087  17.405  -1.220  1.00 20.00     0.026 A 
HETATM    3  C3  UNL     1     -36.806  17.102  -2.903  1.00 20.00     0.045 A 
HETATM    4  C4  UNL     1     -34.960  15.502  -2.726  1.00 20.00     0.077 A 
HETATM    5  C5  UNL     1     -36.140  15.941  -3.332  1.00 20.00     0.039 A 
HETATM    6  C6  UNL     1     -36.260  17.823  -1.838  1.00 20.00     0.035 A 
HETATM    7  C7  UNL     1     -35.176  13.917  -4.245  1.00 20.00     0.253 A 
HETATM    8  N8  UNL     1     -34.420  14.341  -3.260  1.00 20.00    -0.213 NA
HETATM    9  F9  UNL     1     -34.878  12.808  -4.937  1.00 20.00    -0.176 F 
HETATM   10  S10 UNL     1     -36.562  14.854  -4.601  1.00 20.00    -0.037 SA
HETATM   11 CL11 UNL     1     -37.053  19.249  -1.286  1.00 20.00    -0.084 Cl
ENDROOT
TORSDOF 0
ENDMDL
MODEL 8
REMARK VINA RESULT:      -4.0     13.101     13.967
REMARK  0 active torsions:
REMARK  status: ('A' for Active; 'I' for Inactive)
ROOT
HETATM    1  C1  UNL     1     -40.935   3.905  -1.794  1.00 20.00     0.035 A 
HETATM    2  C2  UNL     1     -41.585   3.008  -2.647  1.00 20.00     0.026 A 
HETATM    3  C3  UNL     1     -43.058   4.767  -3.433  1.00 20.00     0.045 A 
HETATM    4  C4  UNL     1     -41.344   5.255  -1.753  1.00 20.00     0.077 A 
HETATM    5  C5  UNL     1     -42.399   5.663  -2.574  1.00 20.00     0.039 A 
HETATM    6  C6  UNL     1     -42.633   3.437  -3.456  1.00 20.00     0.035 A 
HETATM    7  C7  UNL     1     -41.422   7.384  -1.180  1.00 20.00     0.253 A 
HETATM    8  N8  UNL     1     -40.794   6.253  -0.961  1.00 20.00    -0.213 NA
HETATM    9  F9  UNL     1     -41.086   8.513  -0.539  1.00 20.00    -0.176 F 
HETATM   10  S10 UNL     1     -42.690   7.343  -2.328  1.00 20.00    -0.037 SA
HETATM   11 CL11 UNL     1     -43.417   2.313  -4.500  1.00 20.00    -0.084 Cl
ENDROOT
TORSDOF 0
ENDMDL
MODEL 9
REMARK VINA RESULT:      -3.9     13.328     13.943
REMARK  0 active torsions:
REMARK  status: ('A' for Active; 'I' for Inactive)
ROOT
HETATM    1  C1  UNL     1     -42.946   6.159  -2.244  1.00 20.00     0.035 A 
HETATM    2  C2  UNL     1     -42.144   6.651  -1.210  1.00 20.00     0.026 A 
HETATM    3  C3  UNL     1     -40.846   4.603  -1.191  1.00 20.00     0.045 A 
HETATM    4  C4  UNL     1     -42.703   4.870  -2.766  1.00 20.00     0.077 A 
HETATM    5  C5  UNL     1     -41.656   4.115  -2.230  1.00 20.00     0.039 A 
HETATM    6  C6  UNL     1     -41.108   5.881  -0.693  1.00 20.00     0.035 A 
HETATM    7  C7  UNL     1     -42.911   3.062  -4.013  1.00 20.00     0.253 A 
HETATM    8  N8  UNL     1     -43.412   4.254  -3.787  1.00 20.00    -0.213 NA
HETATM    9  F9  UNL     1     -43.416   2.251  -4.954  1.00 20.00    -0.176 F 
HETATM   10  S10 UNL     1     -41.581   2.597  -3.044  1.00 20.00    -0.037 SA
HETATM   11 CL11 UNL     1     -40.132   6.511   0.580  1.00 20.00    -0.084 Cl
ENDROOT
TORSDOF 0
ENDMDL
