MODEL 1
REMARK VINA RESULT:      -4.2      0.000      0.000
REMARK  1 active torsions:
REMARK  status: ('A' for Active; 'I' for Inactive)
REMARK    1  A    between atoms: C6_6  and  N7_7 
ROOT
HETATM    1  C1  UNL     1     -33.898   6.951   6.686  1.00 20.00     0.015 C 
HETATM    2  C2  UNL     1     -34.162   6.196   5.790  1.00 20.00    -0.084 C 
HETATM    3  C4  UNL     1     -34.767   3.869   5.231  1.00 20.00     0.055 C 
HETATM    4  C5  UNL     1     -35.670   5.786   3.874  1.00 20.00     0.055 C 
HETATM    5  C6  UNL     1     -34.490   5.271   4.694  1.00 20.00     0.112 C 
ENDROOT
BRANCH   5   6
HETATM    6  N7  UNL     1     -33.304   5.206   3.833  1.00 20.00    -0.224 NA
HETATM    7  C3  UNL     1     -32.999   6.233   3.356  1.00 20.00     0.333 C 
HETATM    8  O8  UNL     1     -32.688   7.259   2.875  1.00 20.00    -0.260 OA
ENDBRANCH   5   6
TORSDOF 1
ENDMDL
MODEL 2
REMARK VINA RESULT:      -4.1     11.773     12.411
REMARK  1 active torsions:
REMARK  status: ('A' for Active; 'I' for Inactive)
REMARK    1  A    between atoms: C6_6  and  N7_7 
ROOT
HETATM    1  C1  UNL     1     -34.466  16.686  -1.082  1.00 20.00     0.015 C 
HETATM    2  C2  UNL     1     -34.354  16.125  -2.138  1.00 20.00    -0.084 C 
HETATM    3  C4  UNL     1     -34.479  16.402  -4.588  1.00 20.00     0.055 C 
HETATM    4  C5  UNL     1     -32.837  14.793  -3.566  1.00 20.00     0.055 C 
HETATM    5  C6  UNL     1     -34.213  15.440  -3.433  1.00 20.00     0.112 C 
ENDROOT
BRANCH   5   6
HETATM    6  N7  UNL     1     -35.238  14.391  -3.464  1.00 20.00    -0.224 NA
HETATM    7  C3  UNL     1     -34.987  13.494  -4.177  1.00 20.00     0.333 C 
HETATM    8  O8  UNL     1     -34.741  12.592  -4.890  1.00 20.00    -0.260 OA
ENDBRANCH   5   6
TORSDOF 1
ENDMDL
MODEL 3
REMARK VINA RESULT:      -4.1     11.608     12.228
REMARK  1 active torsions:
REMARK  status: ('A' for Active; 'I' for Inactive)
REMARK    1  A    between atoms: C6_6  and  N7_7 
ROOT
HETATM    1  C1  UNL     1     -34.484  16.676  -0.962  1.00 20.00     0.015 C 
HETATM    2  C2  UNL     1     -34.701  16.109  -1.998  1.00 20.00    -0.084 C 
HETATM    3  C4  UNL     1     -36.454  15.104  -3.416  1.00 20.00     0.055 C 
HETATM    4  C5  UNL     1     -34.460  16.231  -4.456  1.00 20.00     0.055 C 
HETATM    5  C6  UNL     1     -34.967  15.416  -3.269  1.00 20.00     0.112 C 
ENDROOT
BRANCH   5   6
HETATM    6  N7  UNL     1     -34.235  14.146  -3.215  1.00 20.00    -0.224 NA
HETATM    7  C3  UNL     1     -34.517  13.392  -4.068  1.00 20.00     0.333 C 
HETATM    8  O8  UNL     1     -34.794  12.632  -4.920  1.00 20.00    -0.260 OA
ENDBRANCH   5   6
TORSDOF 1
ENDMDL
MODEL 4
REMARK VINA RESULT:      -3.8     11.797     12.899
REMARK  1 active torsions:
REMARK  status: ('A' for Active; 'I' for Inactive)
REMARK    1  A    between atoms: C6_6  and  N7_7 
ROOT
HETATM    1  C1  UNL     1     -33.962  16.604  -5.938  1.00 20.00     0.015 C 
HETATM    2  C2  UNL     1     -33.879  16.047  -4.877  1.00 20.00    -0.084 C 
HETATM    3  C4  UNL     1     -32.517  14.504  -3.514  1.00 20.00     0.055 C 
HETATM    4  C5  UNL     1     -33.806  16.372  -2.427  1.00 20.00     0.055 C 
HETATM    5  C6  UNL     1     -33.775  15.367  -3.576  1.00 20.00     0.112 C 
ENDROOT
BRANCH   5   6
HETATM    6  N7  UNL     1     -34.942  14.485  -3.470  1.00 20.00    -0.224 NA
HETATM    7  C3  UNL     1     -34.882  13.526  -4.141  1.00 20.00     0.333 C 
HETATM    8  O8  UNL     1     -34.828  12.562  -4.812  1.00 20.00    -0.260 OA
ENDBRANCH   5   6
TORSDOF 1
ENDMDL
MODEL 5
REMARK VINA RESULT:      -3.8     11.585     12.661
REMARK  1 active torsions:
REMARK  status: ('A' for Active; 'I' for Inactive)
REMARK    1  A    between atoms: C6_6  and  N7_7 
ROOT
HETATM    1  C1  UNL     1     -33.368  16.678  -5.217  1.00 20.00     0.015 C 
HETATM    2  C2  UNL     1     -33.961  16.116  -4.337  1.00 20.00    -0.084 C 
HETATM    3  C4  UNL     1     -34.458  16.124  -1.919  1.00 20.00     0.055 C 
HETATM    4  C5  UNL     1     -36.180  15.335  -3.576  1.00 20.00     0.055 C 
HETATM    5  C6  UNL     1     -34.690  15.429  -3.259  1.00 20.00     0.112 C 
ENDROOT
BRANCH   5   6
HETATM    6  N7  UNL     1     -34.134  14.074  -3.175  1.00 20.00    -0.224 NA
HETATM    7  C3  UNL     1     -34.477  13.360  -4.039  1.00 20.00     0.333 C 
HETATM    8  O8  UNL     1     -34.817  12.638  -4.903  1.00 20.00    -0.260 OA
ENDBRANCH   5   6
TORSDOF 1
ENDMDL
MODEL 6
REMARK VINA RESULT:      -3.7     12.339     12.827
REMARK  1 active torsions:
REMARK  status: ('A' for Active; 'I' for Inactive)
REMARK    1  A    between atoms: C6_6  and  N7_7 
ROOT
HETATM    1  C1  UNL     1     -34.535  16.313  -1.565  1.00 20.00     0.015 C 
HETATM    2  C2  UNL     1     -34.563  15.669  -2.578  1.00 20.00    -0.084 C 
HETATM    3  C4  UNL     1     -33.519  13.795  -3.801  1.00 20.00     0.055 C 
HETATM    4  C5  UNL     1     -35.979  14.269  -4.043  1.00 20.00     0.055 C 
HETATM    5  C6  UNL     1     -34.597  14.877  -3.818  1.00 20.00     0.112 C 
ENDROOT
BRANCH   5   6
HETATM    6  N7  UNL     1     -34.299  15.804  -4.915  1.00 20.00    -0.224 NA
HETATM    7  C3  UNL     1     -34.302  15.308  -5.977  1.00 20.00     0.333 C 
HETATM    8  O8  UNL     1     -34.303  14.817  -7.045  1.00 20.00    -0.260 OA
ENDBRANCH   5   6
TORSDOF 1
ENDMDL
MODEL 7
REMARK VINA RESULT:      -3.7     12.096     13.307
REMARK  1 active torsions:
REMARK  status: ('A' for Active; 'I' for Inactive)
REMARK    1  A    between atoms: C6_6  and  N7_7 
ROOT
HETATM    1  C1  UNL     1     -35.084  14.475  -7.071  1.00 20.00     0.015 C 
HETATM    2  C2  UNL     1     -34.815  14.695  -5.922  1.00 20.00    -0.084 C 
HETATM    3  C4  UNL     1     -34.179  13.666  -3.770  1.00 20.00     0.055 C 
HETATM    4  C5  UNL     1     -33.317  15.943  -4.402  1.00 20.00     0.055 C 
HETATM    5  C6  UNL     1     -34.483  14.964  -4.513  1.00 20.00     0.112 C 
ENDROOT
BRANCH   5   6
HETATM    6  N7  UNL     1     -35.674  15.571  -3.911  1.00 20.00    -0.224 NA
HETATM    7  C3  UNL     1     -36.593  14.847  -3.831  1.00 20.00     0.333 C 
HETATM    8  O8  UNL     1     -37.519  14.127  -3.748  1.00 20.00    -0.260 OA
ENDBRANCH   5   6
TORSDOF 1
ENDMDL
MODEL 8
REMARK VINA RESULT:      -3.6     12.392     13.142
REMARK  1 active torsions:
REMARK  status: ('A' for Active; 'I' for Inactive)
REMARK    1  A    between atoms: C6_6  and  N7_7 
ROOT
HETATM    1  C1  UNL     1     -36.044  16.265  -3.045  1.00 20.00     0.015 C 
HETATM    2  C2  UNL     1     -35.086  15.963  -3.703  1.00 20.00    -0.084 C 
HETATM    3  C4  UNL     1     -33.396  16.794  -5.300  1.00 20.00     0.055 C 
HETATM    4  C5  UNL     1     -32.808  15.005  -3.631  1.00 20.00     0.055 C 
HETATM    5  C6  UNL     1     -33.910  15.594  -4.508  1.00 20.00     0.112 C 
ENDROOT
BRANCH   5   6
HETATM    6  N7  UNL     1     -34.358  14.573  -5.461  1.00 20.00    -0.224 NA
HETATM    7  C3  UNL     1     -34.683  13.562  -4.964  1.00 20.00     0.333 C 
HETATM    8  O8  UNL     1     -35.011  12.546  -4.472  1.00 20.00    -0.260 OA
ENDBRANCH   5   6
TORSDOF 1
ENDMDL
MODEL 9
REMARK VINA RESULT:      -3.6      9.004     10.467
REMARK  1 active torsions:
REMARK  status: ('A' for Active; 'I' for Inactive)
REMARK    1  A    between atoms: C6_6  and  N7_7 
ROOT
HETATM    1  C1  UNL     1     -41.736   2.046  -3.525  1.00 20.00     0.015 C 
HETATM    2  C2  UNL     1     -41.877   3.014  -2.830  1.00 20.00    -0.084 C 
HETATM    3  C4  UNL     1     -42.545   5.391  -2.799  1.00 20.00     0.055 C 
HETATM    4  C5  UNL     1     -43.001   3.909  -0.818  1.00 20.00     0.055 C 
HETATM    5  C6  UNL     1     -42.053   4.201  -1.978  1.00 20.00     0.112 C 
ENDROOT
BRANCH   5   6
HETATM    6  N7  UNL     1     -40.729   4.531  -1.440  1.00 20.00    -0.224 NA
HETATM    7  C3  UNL     1     -40.726   5.433  -0.691  1.00 20.00     0.333 C 
HETATM    8  O8  UNL     1     -40.715   6.337   0.060  1.00 20.00    -0.260 OA
ENDBRANCH   5   6
TORSDOF 1
ENDMDL
