MODEL 1
REMARK VINA RESULT:      -4.4      0.000      0.000
REMARK  0 active torsions:
REMARK  status: ('A' for Active; 'I' for Inactive)
ROOT
HETATM    1  C1  UNL     1     -34.043   6.319   6.132  1.00 20.00     0.317 C 
HETATM    2  C2  UNL     1     -33.910   6.150   4.816  1.00 20.00     0.253 C 
HETATM    3  F3  UNL     1     -35.044   5.716   6.809  1.00 20.00    -0.169 F 
HETATM    4  F4  UNL     1     -33.167   7.102   6.796  1.00 20.00    -0.169 F 
HETATM    5  F5  UNL     1     -32.896   6.771   4.174  1.00 20.00    -0.187 F 
HETATM    6 CL6  UNL     1     -34.992   5.167   3.910  1.00 20.00    -0.046 Cl
ENDROOT
TORSDOF 0
ENDMDL
MODEL 2
REMARK VINA RESULT:      -4.4      1.886      2.578
REMARK  0 active torsions:
REMARK  status: ('A' for Active; 'I' for Inactive)
ROOT
HETATM    1  C1  UNL     1     -35.003   4.611   5.536  1.00 20.00     0.317 C 
HETATM    2  C2  UNL     1     -34.331   5.763   5.513  1.00 20.00     0.253 C 
HETATM    3  F3  UNL     1     -35.112   3.852   4.425  1.00 20.00    -0.169 F 
HETATM    4  F4  UNL     1     -35.580   4.199   6.683  1.00 20.00    -0.169 F 
HETATM    5  F5  UNL     1     -34.245   6.495   6.646  1.00 20.00    -0.187 F 
HETATM    6 CL6  UNL     1     -33.573   6.346   4.084  1.00 20.00    -0.046 Cl
ENDROOT
TORSDOF 0
ENDMDL
MODEL 3
REMARK VINA RESULT:      -4.3      1.687      2.151
REMARK  0 active torsions:
REMARK  status: ('A' for Active; 'I' for Inactive)
ROOT
HETATM    1  C1  UNL     1     -34.434   5.657   5.888  1.00 20.00     0.317 C 
HETATM    2  C2  UNL     1     -34.227   5.562   4.574  1.00 20.00     0.253 C 
HETATM    3  F3  UNL     1     -33.745   6.544   6.637  1.00 20.00    -0.169 F 
HETATM    4  F4  UNL     1     -35.346   4.855   6.478  1.00 20.00    -0.169 F 
HETATM    5  F5  UNL     1     -34.936   4.661   3.861  1.00 20.00    -0.187 F 
HETATM    6 CL6  UNL     1     -33.080   6.553   3.761  1.00 20.00    -0.046 Cl
ENDROOT
TORSDOF 0
ENDMDL
MODEL 4
REMARK VINA RESULT:      -4.3      2.247      3.277
REMARK  0 active torsions:
REMARK  status: ('A' for Active; 'I' for Inactive)
ROOT
HETATM    1  C1  UNL     1     -34.340   5.697   3.779  1.00 20.00     0.317 C 
HETATM    2  C2  UNL     1     -34.698   5.017   4.870  1.00 20.00     0.253 C 
HETATM    3  F3  UNL     1     -33.853   6.952   3.875  1.00 20.00    -0.169 F 
HETATM    4  F4  UNL     1     -34.465   5.122   2.565  1.00 20.00    -0.169 F 
HETATM    5  F5  UNL     1     -35.181   3.763   4.732  1.00 20.00    -0.187 F 
HETATM    6 CL6  UNL     1     -34.565   5.691   6.446  1.00 20.00    -0.046 Cl
ENDROOT
TORSDOF 0
ENDMDL
MODEL 5
REMARK VINA RESULT:      -4.3      2.081      2.733
REMARK  0 active torsions:
REMARK  status: ('A' for Active; 'I' for Inactive)
ROOT
HETATM    1  C1  UNL     1     -34.683   5.473   3.842  1.00 20.00     0.317 C 
HETATM    2  C2  UNL     1     -33.790   6.108   4.601  1.00 20.00     0.253 C 
HETATM    3  F3  UNL     1     -35.863   5.064   4.356  1.00 20.00    -0.169 F 
HETATM    4  F4  UNL     1     -34.406   5.235   2.543  1.00 20.00    -0.169 F 
HETATM    5  F5  UNL     1     -32.621   6.501   4.049  1.00 20.00    -0.187 F 
HETATM    6 CL6  UNL     1     -34.082   6.442   6.263  1.00 20.00    -0.046 Cl
ENDROOT
TORSDOF 0
ENDMDL
MODEL 6
REMARK VINA RESULT:      -4.3      1.609      2.573
REMARK  0 active torsions:
REMARK  status: ('A' for Active; 'I' for Inactive)
ROOT
HETATM    1  C1  UNL     1     -34.179   5.901   4.096  1.00 20.00     0.317 C 
HETATM    2  C2  UNL     1     -34.350   5.676   5.400  1.00 20.00     0.253 C 
HETATM    3  F3  UNL     1     -34.559   4.985   3.180  1.00 20.00    -0.169 F 
HETATM    4  F4  UNL     1     -33.619   7.058   3.687  1.00 20.00    -0.169 F 
HETATM    5  F5  UNL     1     -33.956   6.618   6.285  1.00 20.00    -0.187 F 
HETATM    6 CL6  UNL     1     -35.057   4.223   5.987  1.00 20.00    -0.046 Cl
ENDROOT
TORSDOF 0
ENDMDL
MODEL 7
REMARK VINA RESULT:      -4.2      2.232      3.092
REMARK  0 active torsions:
REMARK  status: ('A' for Active; 'I' for Inactive)
ROOT
HETATM    1  C1  UNL     1     -34.669   5.486   3.712  1.00 20.00     0.317 C 
HETATM    2  C2  UNL     1     -33.782   6.233   4.370  1.00 20.00     0.253 C 
HETATM    3  F3  UNL     1     -34.443   5.106   2.436  1.00 20.00    -0.169 F 
HETATM    4  F4  UNL     1     -35.807   5.103   4.328  1.00 20.00    -0.169 F 
HETATM    5  F5  UNL     1     -34.046   6.593   5.645  1.00 20.00    -0.187 F 
HETATM    6 CL6  UNL     1     -32.313   6.755   3.643  1.00 20.00    -0.046 Cl
ENDROOT
TORSDOF 0
ENDMDL
MODEL 8
REMARK VINA RESULT:      -4.1      2.122      2.542
REMARK  0 active torsions:
REMARK  status: ('A' for Active; 'I' for Inactive)
ROOT
HETATM    1  C1  UNL     1     -34.471   5.685   4.673  1.00 20.00     0.317 C 
HETATM    2  C2  UNL     1     -33.759   5.832   3.555  1.00 20.00     0.253 C 
HETATM    3  F3  UNL     1     -34.079   6.271   5.825  1.00 20.00    -0.169 F 
HETATM    4  F4  UNL     1     -35.597   4.942   4.654  1.00 20.00    -0.169 F 
HETATM    5  F5  UNL     1     -34.184   5.229   2.423  1.00 20.00    -0.187 F 
HETATM    6 CL6  UNL     1     -32.315   6.765   3.511  1.00 20.00    -0.046 Cl
ENDROOT
TORSDOF 0
ENDMDL
MODEL 9
REMARK VINA RESULT:      -4.1      1.183      2.593
REMARK  0 active torsions:
REMARK  status: ('A' for Active; 'I' for Inactive)
ROOT
HETATM    1  C1  UNL     1     -33.223   6.186   3.821  1.00 20.00     0.317 C 
HETATM    2  C2  UNL     1     -34.046   5.956   4.846  1.00 20.00     0.253 C 
HETATM    3  F3  UNL     1     -33.405   5.567   2.635  1.00 20.00    -0.169 F 
HETATM    4  F4  UNL     1     -32.197   7.049   3.971  1.00 20.00    -0.169 F 
HETATM    5  F5  UNL     1     -33.830   6.594   6.017  1.00 20.00    -0.187 F 
HETATM    6 CL6  UNL     1     -35.372   4.868   4.721  1.00 20.00    -0.046 Cl
ENDROOT
TORSDOF 0
ENDMDL
