MODEL 1
REMARK VINA RESULT:      -3.5      0.000      0.000
REMARK  0 active torsions:
REMARK  status: ('A' for Active; 'I' for Inactive)
ROOT
HETATM    1  C1  UNL     1     -34.727   3.774   5.191  1.00 20.00     0.089 C 
HETATM    2  C2  UNL     1     -34.712   5.261   4.889  1.00 20.00     0.251 C 
HETATM    3  F3  UNL     1     -35.921   5.608   4.372  1.00 20.00    -0.208 F 
HETATM    4 CL4  UNL     1     -33.451   5.636   3.694  1.00 20.00    -0.066 Cl
HETATM    5 CL5  UNL     1     -34.438   6.193   6.378  1.00 20.00    -0.066 Cl
ENDROOT
TORSDOF 0
ENDMDL
MODEL 2
REMARK VINA RESULT:      -3.4      1.605      2.174
REMARK  0 active torsions:
REMARK  status: ('A' for Active; 'I' for Inactive)
ROOT
HETATM    1  C1  UNL     1     -34.740   3.947   5.592  1.00 20.00     0.089 C 
HETATM    2  C2  UNL     1     -34.449   5.300   4.971  1.00 20.00     0.251 C 
HETATM    3  F3  UNL     1     -33.283   5.214   4.275  1.00 20.00    -0.208 F 
HETATM    4 CL4  UNL     1     -34.267   6.535   6.238  1.00 20.00    -0.066 Cl
HETATM    5 CL5  UNL     1     -35.751   5.762   3.852  1.00 20.00    -0.066 Cl
ENDROOT
TORSDOF 0
ENDMDL
MODEL 3
REMARK VINA RESULT:      -3.3      1.458      2.136
REMARK  0 active torsions:
REMARK  status: ('A' for Active; 'I' for Inactive)
ROOT
HETATM    1  C1  UNL     1     -33.623   5.647   3.767  1.00 20.00     0.089 C 
HETATM    2  C2  UNL     1     -34.662   5.359   4.835  1.00 20.00     0.251 C 
HETATM    3  F3  UNL     1     -35.882   5.727   4.360  1.00 20.00    -0.208 F 
HETATM    4 CL4  UNL     1     -34.314   6.298   6.304  1.00 20.00    -0.066 Cl
HETATM    5 CL5  UNL     1     -34.696   3.623   5.214  1.00 20.00    -0.066 Cl
ENDROOT
TORSDOF 0
ENDMDL
MODEL 4
REMARK VINA RESULT:      -3.3      1.462      2.139
REMARK  0 active torsions:
REMARK  status: ('A' for Active; 'I' for Inactive)
ROOT
HETATM    1  C1  UNL     1     -34.393   6.103   6.238  1.00 20.00     0.089 C 
HETATM    2  C2  UNL     1     -34.581   5.321   4.951  1.00 20.00     0.251 C 
HETATM    3  F3  UNL     1     -35.792   5.645   4.423  1.00 20.00    -0.208 F 
HETATM    4 CL4  UNL     1     -34.552   3.573   5.279  1.00 20.00    -0.066 Cl
HETATM    5 CL5  UNL     1     -33.314   5.743   3.778  1.00 20.00    -0.066 Cl
ENDROOT
TORSDOF 0
ENDMDL
MODEL 5
REMARK VINA RESULT:      -3.3      1.914      2.112
REMARK  0 active torsions:
REMARK  status: ('A' for Active; 'I' for Inactive)
ROOT
HETATM    1  C1  UNL     1     -35.515   5.740   3.985  1.00 20.00     0.089 C 
HETATM    2  C2  UNL     1     -34.389   5.356   4.927  1.00 20.00     0.251 C 
HETATM    3  F3  UNL     1     -33.223   5.349   4.226  1.00 20.00    -0.208 F 
HETATM    4 CL4  UNL     1     -34.665   3.729   5.591  1.00 20.00    -0.066 Cl
HETATM    5 CL5  UNL     1     -34.254   6.538   6.248  1.00 20.00    -0.066 Cl
ENDROOT
TORSDOF 0
ENDMDL
MODEL 6
REMARK VINA RESULT:      -3.2      1.923      2.142
REMARK  0 active torsions:
REMARK  status: ('A' for Active; 'I' for Inactive)
ROOT
HETATM    1  C1  UNL     1     -34.261   6.265   6.217  1.00 20.00     0.089 C 
HETATM    2  C2  UNL     1     -34.187   5.414   4.964  1.00 20.00     0.251 C 
HETATM    3  F3  UNL     1     -33.868   4.142   5.325  1.00 20.00    -0.208 F 
HETATM    4 CL4  UNL     1     -32.926   6.030   3.872  1.00 20.00    -0.066 Cl
HETATM    5 CL5  UNL     1     -35.758   5.395   4.132  1.00 20.00    -0.066 Cl
ENDROOT
TORSDOF 0
ENDMDL
MODEL 7
REMARK VINA RESULT:      -3.2      2.097      2.326
REMARK  0 active torsions:
REMARK  status: ('A' for Active; 'I' for Inactive)
ROOT
HETATM    1  C1  UNL     1     -34.267   6.414   6.015  1.00 20.00     0.089 C 
HETATM    2  C2  UNL     1     -34.385   5.359   4.931  1.00 20.00     0.251 C 
HETATM    3  F3  UNL     1     -33.225   5.340   4.220  1.00 20.00    -0.208 F 
HETATM    4 CL4  UNL     1     -35.723   5.752   3.829  1.00 20.00    -0.066 Cl
HETATM    5 CL5  UNL     1     -34.640   3.755   5.653  1.00 20.00    -0.066 Cl
ENDROOT
TORSDOF 0
ENDMDL
MODEL 8
REMARK VINA RESULT:      -3.2      1.667      1.963
REMARK  0 active torsions:
REMARK  status: ('A' for Active; 'I' for Inactive)
ROOT
HETATM    1  C1  UNL     1     -34.371   4.225   5.614  1.00 20.00     0.089 C 
HETATM    2  C2  UNL     1     -34.446   5.567   4.911  1.00 20.00     0.251 C 
HETATM    3  F3  UNL     1     -34.589   6.540   5.851  1.00 20.00    -0.208 F 
HETATM    4 CL4  UNL     1     -35.851   5.617   3.822  1.00 20.00    -0.066 Cl
HETATM    5 CL5  UNL     1     -32.953   5.872   3.995  1.00 20.00    -0.066 Cl
ENDROOT
TORSDOF 0
ENDMDL
MODEL 9
REMARK VINA RESULT:      -3.1      1.983      2.433
REMARK  0 active torsions:
REMARK  status: ('A' for Active; 'I' for Inactive)
ROOT
HETATM    1  C1  UNL     1     -33.167   5.778   3.863  1.00 20.00     0.089 C 
HETATM    2  C2  UNL     1     -34.394   5.642   4.745  1.00 20.00     0.251 C 
HETATM    3  F3  UNL     1     -34.420   6.691   5.611  1.00 20.00    -0.208 F 
HETATM    4 CL4  UNL     1     -34.318   4.132   5.681  1.00 20.00    -0.066 Cl
HETATM    5 CL5  UNL     1     -35.874   5.676   3.761  1.00 20.00    -0.066 Cl
ENDROOT
TORSDOF 0
ENDMDL
