MODEL 1
REMARK VINA RESULT:      -4.8      0.000      0.000
REMARK  1 active torsions:
REMARK  status: ('A' for Active; 'I' for Inactive)
REMARK    1  A    between atoms: C1_1  and  C2_2 
ROOT
HETATM    1  C2  UNL     1     -34.987   4.877   4.649  1.00 20.00     0.447 C 
HETATM    2  F5  UNL     1     -36.110   5.395   4.110  1.00 20.00    -0.166 F 
HETATM    3  F6  UNL     1     -33.936   5.323   3.929  1.00 20.00    -0.166 F 
HETATM    4  F7  UNL     1     -35.039   3.535   4.515  1.00 20.00    -0.166 F 
ENDROOT
BRANCH   1   5
HETATM    5  C1  UNL     1     -34.850   5.266   6.091  1.00 20.00     0.459 C 
HETATM    6  F3  UNL     1     -34.276   6.490   6.179  1.00 20.00    -0.205 F 
HETATM    7  F4  UNL     1     -34.022   4.396   6.720  1.00 20.00    -0.205 F 
ENDBRANCH   1   5
TORSDOF 1
ENDMDL
MODEL 2
REMARK VINA RESULT:      -4.8      0.004      1.429
REMARK  1 active torsions:
REMARK  status: ('A' for Active; 'I' for Inactive)
REMARK    1  A    between atoms: C1_1  and  C2_2 
ROOT
HETATM    1  C2  UNL     1     -34.985   4.874   4.651  1.00 20.00     0.447 C 
HETATM    2  F5  UNL     1     -35.040   3.532   4.516  1.00 20.00    -0.166 F 
HETATM    3  F6  UNL     1     -36.110   5.392   4.115  1.00 20.00    -0.166 F 
HETATM    4  F7  UNL     1     -33.938   5.324   3.927  1.00 20.00    -0.166 F 
ENDROOT
BRANCH   1   5
HETATM    5  C1  UNL     1     -34.848   5.267   6.091  1.00 20.00     0.459 C 
HETATM    6  F3  UNL     1     -34.274   6.492   6.175  1.00 20.00    -0.205 F 
HETATM    7  F4  UNL     1     -34.021   4.400   6.723  1.00 20.00    -0.205 F 
ENDBRANCH   1   5
TORSDOF 1
ENDMDL
MODEL 3
REMARK VINA RESULT:      -4.6      1.050      1.800
REMARK  1 active torsions:
REMARK  status: ('A' for Active; 'I' for Inactive)
REMARK    1  A    between atoms: C1_1  and  C2_2 
ROOT
HETATM    1  C2  UNL     1     -34.840   5.547   3.937  1.00 20.00     0.447 C 
HETATM    2  F5  UNL     1     -36.170   5.571   3.711  1.00 20.00    -0.166 F 
HETATM    3  F6  UNL     1     -34.406   6.823   3.998  1.00 20.00    -0.166 F 
HETATM    4  F7  UNL     1     -34.247   4.960   2.875  1.00 20.00    -0.166 F 
ENDROOT
BRANCH   1   5
HETATM    5  C1  UNL     1     -34.520   4.811   5.203  1.00 20.00     0.459 C 
HETATM    6  F3  UNL     1     -35.080   3.578   5.166  1.00 20.00    -0.205 F 
HETATM    7  F4  UNL     1     -35.067   5.461   6.258  1.00 20.00    -0.205 F 
ENDBRANCH   1   5
TORSDOF 1
ENDMDL
MODEL 4
REMARK VINA RESULT:      -4.6      1.045      1.951
REMARK  1 active torsions:
REMARK  status: ('A' for Active; 'I' for Inactive)
REMARK    1  A    between atoms: C1_1  and  C2_2 
ROOT
HETATM    1  C2  UNL     1     -34.838   5.542   3.953  1.00 20.00     0.447 C 
HETATM    2  F5  UNL     1     -34.413   6.822   3.998  1.00 20.00    -0.166 F 
HETATM    3  F6  UNL     1     -34.248   4.944   2.896  1.00 20.00    -0.166 F 
HETATM    4  F7  UNL     1     -36.169   5.552   3.731  1.00 20.00    -0.166 F 
ENDROOT
BRANCH   1   5
HETATM    5  C1  UNL     1     -34.513   4.820   5.226  1.00 20.00     0.459 C 
HETATM    6  F3  UNL     1     -35.079   3.588   5.207  1.00 20.00    -0.205 F 
HETATM    7  F4  UNL     1     -35.051   5.485   6.277  1.00 20.00    -0.205 F 
ENDBRANCH   1   5
TORSDOF 1
ENDMDL
MODEL 5
REMARK VINA RESULT:      -4.6      1.052      2.287
REMARK  1 active torsions:
REMARK  status: ('A' for Active; 'I' for Inactive)
REMARK    1  A    between atoms: C1_1  and  C2_2 
ROOT
HETATM    1  C2  UNL     1     -34.843   5.577   3.916  1.00 20.00     0.447 C 
HETATM    2  F5  UNL     1     -34.258   4.972   2.861  1.00 20.00    -0.166 F 
HETATM    3  F6  UNL     1     -36.174   5.613   3.690  1.00 20.00    -0.166 F 
HETATM    4  F7  UNL     1     -34.399   6.851   3.966  1.00 20.00    -0.166 F 
ENDROOT
BRANCH   1   5
HETATM    5  C1  UNL     1     -34.537   4.853   5.193  1.00 20.00     0.459 C 
HETATM    6  F3  UNL     1     -35.139   3.639   5.182  1.00 20.00    -0.205 F 
HETATM    7  F4  UNL     1     -35.053   5.540   6.240  1.00 20.00    -0.205 F 
ENDBRANCH   1   5
TORSDOF 1
ENDMDL
MODEL 6
REMARK VINA RESULT:      -4.6      1.164      1.920
REMARK  1 active torsions:
REMARK  status: ('A' for Active; 'I' for Inactive)
REMARK    1  A    between atoms: C1_1  and  C2_2 
ROOT
HETATM    1  C2  UNL     1     -34.976   4.799   5.561  1.00 20.00     0.447 C 
HETATM    2  F5  UNL     1     -35.818   4.875   4.510  1.00 20.00    -0.166 F 
HETATM    3  F6  UNL     1     -34.327   3.617   5.489  1.00 20.00    -0.166 F 
HETATM    4  F7  UNL     1     -35.716   4.794   6.690  1.00 20.00    -0.166 F 
ENDROOT
BRANCH   1   5
HETATM    5  C1  UNL     1     -34.006   5.942   5.562  1.00 20.00     0.459 C 
HETATM    6  F3  UNL     1     -34.245   6.740   6.631  1.00 20.00    -0.205 F 
HETATM    7  F4  UNL     1     -34.196   6.700   4.455  1.00 20.00    -0.205 F 
ENDBRANCH   1   5
TORSDOF 1
ENDMDL
MODEL 7
REMARK VINA RESULT:      -4.6      1.158      2.227
REMARK  1 active torsions:
REMARK  status: ('A' for Active; 'I' for Inactive)
REMARK    1  A    between atoms: C1_1  and  C2_2 
ROOT
HETATM    1  C2  UNL     1     -34.974   4.800   5.558  1.00 20.00     0.447 C 
HETATM    2  F5  UNL     1     -34.333   3.616   5.479  1.00 20.00    -0.166 F 
HETATM    3  F6  UNL     1     -35.714   4.798   6.687  1.00 20.00    -0.166 F 
HETATM    4  F7  UNL     1     -35.821   4.888   4.510  1.00 20.00    -0.166 F 
ENDROOT
BRANCH   1   5
HETATM    5  C1  UNL     1     -34.002   5.942   5.557  1.00 20.00     0.459 C 
HETATM    6  F3  UNL     1     -34.249   6.749   6.617  1.00 20.00    -0.205 F 
HETATM    7  F4  UNL     1     -34.180   6.690   4.442  1.00 20.00    -0.205 F 
ENDBRANCH   1   5
TORSDOF 1
ENDMDL
MODEL 8
REMARK VINA RESULT:      -4.5      0.964      2.570
REMARK  1 active torsions:
REMARK  status: ('A' for Active; 'I' for Inactive)
REMARK    1  A    between atoms: C1_1  and  C2_2 
ROOT
HETATM    1  C2  UNL     1     -34.607   5.090   6.063  1.00 20.00     0.447 C 
HETATM    2  F5  UNL     1     -33.615   4.240   6.402  1.00 20.00    -0.166 F 
HETATM    3  F6  UNL     1     -34.394   6.257   6.708  1.00 20.00    -0.166 F 
HETATM    4  F7  UNL     1     -35.770   4.575   6.516  1.00 20.00    -0.166 F 
ENDROOT
BRANCH   1   5
HETATM    5  C1  UNL     1     -34.656   5.300   4.579  1.00 20.00     0.459 C 
HETATM    6  F3  UNL     1     -34.255   6.560   4.285  1.00 20.00    -0.205 F 
HETATM    7  F4  UNL     1     -35.934   5.182   4.145  1.00 20.00    -0.205 F 
ENDBRANCH   1   5
TORSDOF 1
ENDMDL
MODEL 9
REMARK VINA RESULT:      -4.5      1.166      2.513
REMARK  1 active torsions:
REMARK  status: ('A' for Active; 'I' for Inactive)
REMARK    1  A    between atoms: C1_1  and  C2_2 
ROOT
HETATM    1  C2  UNL     1     -35.141   4.971   4.608  1.00 20.00     0.447 C 
HETATM    2  F5  UNL     1     -35.059   3.625   4.642  1.00 20.00    -0.166 F 
HETATM    3  F6  UNL     1     -35.161   5.420   5.881  1.00 20.00    -0.166 F 
HETATM    4  F7  UNL     1     -36.317   5.304   4.035  1.00 20.00    -0.166 F 
ENDROOT
BRANCH   1   5
HETATM    5  C1  UNL     1     -33.991   5.564   3.850  1.00 20.00     0.459 C 
HETATM    6  F3  UNL     1     -34.039   6.916   3.936  1.00 20.00    -0.205 F 
HETATM    7  F4  UNL     1     -34.100   5.248   2.537  1.00 20.00    -0.205 F 
ENDBRANCH   1   5
TORSDOF 1
ENDMDL
