MODEL 1
REMARK VINA RESULT:      -4.3      0.000      0.000
REMARK  0 active torsions:
REMARK  status: ('A' for Active; 'I' for Inactive)
ROOT
HETATM    1  C1  UNL     1     -34.561  13.717  -4.186  1.00 20.00     0.085 C 
HETATM    2  C2  UNL     1     -34.016  15.946  -5.084  1.00 20.00     0.051 C 
HETATM    3  C3  UNL     1     -34.582  15.615  -2.615  1.00 20.00     0.051 C 
HETATM    4  C4  UNL     1     -33.438  17.342  -4.868  1.00 20.00     0.076 C 
HETATM    5  C5  UNL     1     -34.048  16.985  -2.205  1.00 20.00     0.076 C 
HETATM    6  C6  UNL     1     -33.924  15.009  -3.866  1.00 20.00     0.127 C 
HETATM    7  N7  UNL     1     -35.063  12.701  -4.436  1.00 20.00    -0.195 NA
HETATM    8  S8  UNL     1     -34.270  18.219  -3.516  1.00 20.00    -0.169 SA
HETATM    9 CL9  UNL     1     -32.199  14.621  -3.524  1.00 20.00    -0.103 Cl
ENDROOT
TORSDOF 0
ENDMDL
MODEL 2
REMARK VINA RESULT:      -4.0      2.263      2.413
REMARK  0 active torsions:
REMARK  status: ('A' for Active; 'I' for Inactive)
ROOT
HETATM    1  C1  UNL     1     -37.185  14.554  -3.963  1.00 20.00     0.085 C 
HETATM    2  C2  UNL     1     -35.646  15.381  -5.701  1.00 20.00     0.051 C 
HETATM    3  C3  UNL     1     -35.107  15.649  -3.218  1.00 20.00     0.051 C 
HETATM    4  C4  UNL     1     -34.221  15.701  -6.148  1.00 20.00     0.076 C 
HETATM    5  C5  UNL     1     -33.641  15.990  -3.469  1.00 20.00     0.076 C 
HETATM    6  C6  UNL     1     -35.763  14.767  -4.294  1.00 20.00     0.127 C 
HETATM    7  N7  UNL     1     -38.303  14.388  -3.702  1.00 20.00    -0.195 NA
HETATM    8  S8  UNL     1     -33.411  16.880  -5.033  1.00 20.00    -0.169 SA
HETATM    9 CL9  UNL     1     -35.017  13.128  -4.279  1.00 20.00    -0.103 Cl
ENDROOT
TORSDOF 0
ENDMDL
MODEL 3
REMARK VINA RESULT:      -4.0      2.415      3.375
REMARK  0 active torsions:
REMARK  status: ('A' for Active; 'I' for Inactive)
ROOT
HETATM    1  C1  UNL     1     -34.415  15.874  -2.274  1.00 20.00     0.085 C 
HETATM    2  C2  UNL     1     -34.980  14.018  -3.793  1.00 20.00     0.051 C 
HETATM    3  C3  UNL     1     -34.338  16.320  -4.696  1.00 20.00     0.051 C 
HETATM    4  C4  UNL     1     -34.806  13.328  -5.144  1.00 20.00     0.076 C 
HETATM    5  C5  UNL     1     -34.113  15.812  -6.117  1.00 20.00     0.076 C 
HETATM    6  C6  UNL     1     -34.116  15.275  -3.589  1.00 20.00     0.127 C 
HETATM    7  N7  UNL     1     -34.650  16.345  -1.240  1.00 20.00    -0.195 NA
HETATM    8  S8  UNL     1     -35.216  14.431  -6.525  1.00 20.00    -0.169 SA
HETATM    9 CL9  UNL     1     -32.376  14.815  -3.523  1.00 20.00    -0.103 Cl
ENDROOT
TORSDOF 0
ENDMDL
MODEL 4
REMARK VINA RESULT:      -3.9      3.134      3.804
REMARK  0 active torsions:
REMARK  status: ('A' for Active; 'I' for Inactive)
ROOT
HETATM    1  C1  UNL     1     -33.934  17.705  -3.544  1.00 20.00     0.085 C 
HETATM    2  C2  UNL     1     -35.608  15.980  -4.089  1.00 20.00     0.051 C 
HETATM    3  C3  UNL     1     -33.140  15.386  -3.800  1.00 20.00     0.051 C 
HETATM    4  C4  UNL     1     -36.071  14.527  -4.004  1.00 20.00     0.076 C 
HETATM    5  C5  UNL     1     -33.409  13.888  -3.693  1.00 20.00     0.076 C 
HETATM    6  C6  UNL     1     -34.299  16.289  -3.341  1.00 20.00     0.127 C 
HETATM    7  N7  UNL     1     -33.648  18.817  -3.703  1.00 20.00    -0.195 NA
HETATM    8  S8  UNL     1     -34.840  13.383  -4.686  1.00 20.00    -0.169 SA
HETATM    9 CL9  UNL     1     -34.550  16.107  -1.568  1.00 20.00    -0.103 Cl
ENDROOT
TORSDOF 0
ENDMDL
MODEL 5
REMARK VINA RESULT:      -3.8      2.030      2.403
REMARK  0 active torsions:
REMARK  status: ('A' for Active; 'I' for Inactive)
ROOT
HETATM    1  C1  UNL     1     -34.761  13.723  -4.923  1.00 20.00     0.085 C 
HETATM    2  C2  UNL     1     -36.076  15.776  -5.276  1.00 20.00     0.051 C 
HETATM    3  C3  UNL     1     -33.574  15.877  -4.770  1.00 20.00     0.051 C 
HETATM    4  C4  UNL     1     -36.142  17.228  -5.744  1.00 20.00     0.076 C 
HETATM    5  C5  UNL     1     -33.443  17.336  -5.197  1.00 20.00     0.076 C 
HETATM    6  C6  UNL     1     -34.707  15.097  -5.459  1.00 20.00     0.127 C 
HETATM    7  N7  UNL     1     -34.803  12.643  -4.501  1.00 20.00    -0.195 NA
HETATM    8  S8  UNL     1     -34.956  18.279  -4.861  1.00 20.00    -0.169 SA
HETATM    9 CL9  UNL     1     -34.345  14.914  -7.213  1.00 20.00    -0.103 Cl
ENDROOT
TORSDOF 0
ENDMDL
MODEL 6
REMARK VINA RESULT:      -3.7     13.154     13.713
REMARK  0 active torsions:
REMARK  status: ('A' for Active; 'I' for Inactive)
ROOT
HETATM    1  C1  UNL     1     -41.714   3.064  -2.800  1.00 20.00     0.085 C 
HETATM    2  C2  UNL     1     -40.768   4.586  -1.108  1.00 20.00     0.051 C 
HETATM    3  C3  UNL     1     -42.585   5.368  -2.725  1.00 20.00     0.051 C 
HETATM    4  C4  UNL     1     -40.941   5.783  -0.176  1.00 20.00     0.076 C 
HETATM    5  C5  UNL     1     -42.901   6.626  -1.921  1.00 20.00     0.076 C 
HETATM    6  C6  UNL     1     -42.026   4.194  -1.903  1.00 20.00     0.127 C 
HETATM    7  N7  UNL     1     -41.468   2.177  -3.505  1.00 20.00    -0.195 NA
HETATM    8  S8  UNL     1     -41.434   7.278  -1.078  1.00 20.00    -0.169 SA
HETATM    9 CL9  UNL     1     -43.291   3.578  -0.779  1.00 20.00    -0.103 Cl
ENDROOT
TORSDOF 0
ENDMDL
MODEL 7
REMARK VINA RESULT:      -3.7      1.864      2.512
REMARK  0 active torsions:
REMARK  status: ('A' for Active; 'I' for Inactive)
ROOT
HETATM    1  C1  UNL     1     -35.045  13.743  -4.272  1.00 20.00     0.085 C 
HETATM    2  C2  UNL     1     -34.507  15.439  -2.568  1.00 20.00     0.051 C 
HETATM    3  C3  UNL     1     -35.015  16.102  -4.982  1.00 20.00     0.051 C 
HETATM    4  C4  UNL     1     -34.662  16.863  -2.038  1.00 20.00     0.076 C 
HETATM    5  C5  UNL     1     -35.211  17.577  -4.643  1.00 20.00     0.076 C 
HETATM    6  C6  UNL     1     -35.322  15.125  -3.835  1.00 20.00     0.127 C 
HETATM    7  N7  UNL     1     -34.826  12.657  -4.617  1.00 20.00    -0.195 NA
HETATM    8  S8  UNL     1     -34.156  18.100  -3.263  1.00 20.00    -0.169 SA
HETATM    9 CL9  UNL     1     -37.082  15.163  -3.454  1.00 20.00    -0.103 Cl
ENDROOT
TORSDOF 0
ENDMDL
MODEL 8
REMARK VINA RESULT:      -3.7      1.711      1.866
REMARK  0 active torsions:
REMARK  status: ('A' for Active; 'I' for Inactive)
ROOT
HETATM    1  C1  UNL     1     -34.849  13.883  -4.398  1.00 20.00     0.085 C 
HETATM    2  C2  UNL     1     -33.642  15.930  -5.051  1.00 20.00     0.051 C 
HETATM    3  C3  UNL     1     -36.164  15.953  -4.641  1.00 20.00     0.051 C 
HETATM    4  C4  UNL     1     -33.520  17.452  -5.009  1.00 20.00     0.076 C 
HETATM    5  C5  UNL     1     -36.240  17.476  -4.567  1.00 20.00     0.076 C 
HETATM    6  C6  UNL     1     -34.809  15.349  -4.232  1.00 20.00     0.127 C 
HETATM    7  N7  UNL     1     -34.881  12.731  -4.528  1.00 20.00    -0.195 NA
HETATM    8  S8  UNL     1     -35.012  18.269  -5.640  1.00 20.00    -0.169 SA
HETATM    9 CL9  UNL     1     -34.521  15.626  -2.477  1.00 20.00    -0.103 Cl
ENDROOT
TORSDOF 0
ENDMDL
MODEL 9
REMARK VINA RESULT:      -3.7      2.743      3.176
REMARK  0 active torsions:
REMARK  status: ('A' for Active; 'I' for Inactive)
ROOT
HETATM    1  C1  UNL     1     -37.471  14.592  -4.095  1.00 20.00     0.085 C 
HETATM    2  C2  UNL     1     -35.555  16.142  -4.042  1.00 20.00     0.051 C 
HETATM    3  C3  UNL     1     -35.213  13.611  -3.997  1.00 20.00     0.051 C 
HETATM    4  C4  UNL     1     -34.094  16.434  -4.376  1.00 20.00     0.076 C 
HETATM    5  C5  UNL     1     -33.726  13.704  -4.328  1.00 20.00     0.076 C 
HETATM    6  C6  UNL     1     -36.070  14.774  -4.524  1.00 20.00     0.127 C 
HETATM    7  N7  UNL     1     -38.571  14.449  -3.758  1.00 20.00    -0.195 NA
HETATM    8  S8  UNL     1     -32.974  15.208  -3.648  1.00 20.00    -0.169 SA
HETATM    9 CL9  UNL     1     -36.111  14.736  -6.324  1.00 20.00    -0.103 Cl
ENDROOT
TORSDOF 0
ENDMDL
