MODEL 1
REMARK VINA RESULT:      -4.2      0.000      0.000
REMARK  0 active torsions:
REMARK  status: ('A' for Active; 'I' for Inactive)
ROOT
HETATM    1  C1  UNL     1     -34.544  13.676  -4.203  1.00 20.00     0.085 C 
HETATM    2  C2  UNL     1     -33.932  15.893  -5.118  1.00 20.00     0.067 C 
HETATM    3  C3  UNL     1     -34.548  15.638  -2.693  1.00 20.00     0.067 C 
HETATM    4  C4  UNL     1     -33.461  17.304  -4.776  1.00 20.00     0.170 C 
HETATM    5  C5  UNL     1     -34.041  17.063  -2.490  1.00 20.00     0.170 C 
HETATM    6  C6  UNL     1     -33.886  14.957  -3.901  1.00 20.00     0.129 C 
HETATM    7  N7  UNL     1     -35.064  12.667  -4.441  1.00 20.00    -0.195 NA
HETATM    8  O8  UNL     1     -34.206  17.833  -3.680  1.00 20.00    -0.391 OA
HETATM    9 CL9  UNL     1     -32.176  14.555  -3.509  1.00 20.00    -0.103 Cl
ENDROOT
TORSDOF 0
ENDMDL
MODEL 2
REMARK VINA RESULT:      -4.2      2.035      2.192
REMARK  0 active torsions:
REMARK  status: ('A' for Active; 'I' for Inactive)
ROOT
HETATM    1  C1  UNL     1     -36.800  14.480  -4.012  1.00 20.00     0.085 C 
HETATM    2  C2  UNL     1     -35.236  15.731  -5.467  1.00 20.00     0.067 C 
HETATM    3  C3  UNL     1     -34.568  15.087  -3.130  1.00 20.00     0.067 C 
HETATM    4  C4  UNL     1     -33.778  16.118  -5.701  1.00 20.00     0.170 C 
HETATM    5  C5  UNL     1     -33.148  15.510  -3.497  1.00 20.00     0.170 C 
HETATM    6  C6  UNL     1     -35.384  14.672  -4.364  1.00 20.00     0.129 C 
HETATM    7  N7  UNL     1     -37.916  14.329  -3.735  1.00 20.00    -0.195 NA
HETATM    8  O8  UNL     1     -33.167  16.542  -4.482  1.00 20.00    -0.391 OA
HETATM    9 CL9  UNL     1     -34.803  13.080  -4.969  1.00 20.00    -0.103 Cl
ENDROOT
TORSDOF 0
ENDMDL
MODEL 3
REMARK VINA RESULT:      -4.1      2.131      2.533
REMARK  0 active torsions:
REMARK  status: ('A' for Active; 'I' for Inactive)
ROOT
HETATM    1  C1  UNL     1     -36.521  14.840  -3.599  1.00 20.00     0.085 C 
HETATM    2  C2  UNL     1     -34.080  14.441  -3.645  1.00 20.00     0.067 C 
HETATM    3  C3  UNL     1     -35.034  16.613  -4.478  1.00 20.00     0.067 C 
HETATM    4  C4  UNL     1     -32.703  15.096  -3.730  1.00 20.00     0.170 C 
HETATM    5  C5  UNL     1     -33.604  17.144  -4.515  1.00 20.00     0.170 C 
HETATM    6  C6  UNL     1     -35.201  15.474  -3.460  1.00 20.00     0.129 C 
HETATM    7  N7  UNL     1     -37.562  14.340  -3.710  1.00 20.00    -0.195 NA
HETATM    8  O8  UNL     1     -32.678  16.086  -4.758  1.00 20.00    -0.391 OA
HETATM    9 CL9  UNL     1     -35.144  16.140  -1.789  1.00 20.00    -0.103 Cl
ENDROOT
TORSDOF 0
ENDMDL
MODEL 4
REMARK VINA RESULT:      -4.1      2.309      2.653
REMARK  0 active torsions:
REMARK  status: ('A' for Active; 'I' for Inactive)
ROOT
HETATM    1  C1  UNL     1     -36.815  14.464  -4.087  1.00 20.00     0.085 C 
HETATM    2  C2  UNL     1     -34.979  16.104  -4.334  1.00 20.00     0.067 C 
HETATM    3  C3  UNL     1     -34.500  13.756  -3.574  1.00 20.00     0.067 C 
HETATM    4  C4  UNL     1     -33.471  16.284  -4.492  1.00 20.00     0.170 C 
HETATM    5  C5  UNL     1     -33.020  14.070  -3.775  1.00 20.00     0.170 C 
HETATM    6  C6  UNL     1     -35.401  14.632  -4.456  1.00 20.00     0.129 C 
HETATM    7  N7  UNL     1     -37.930  14.331  -3.795  1.00 20.00    -0.195 NA
HETATM    8  O8  UNL     1     -32.765  15.459  -3.567  1.00 20.00    -0.391 OA
HETATM    9 CL9  UNL     1     -35.270  14.104  -6.171  1.00 20.00    -0.103 Cl
ENDROOT
TORSDOF 0
ENDMDL
MODEL 5
REMARK VINA RESULT:      -4.0      2.938      3.645
REMARK  0 active torsions:
REMARK  status: ('A' for Active; 'I' for Inactive)
ROOT
HETATM    1  C1  UNL     1     -33.967  16.410  -2.317  1.00 20.00     0.085 C 
HETATM    2  C2  UNL     1     -33.419  14.332  -3.545  1.00 20.00     0.067 C 
HETATM    3  C3  UNL     1     -35.809  15.068  -3.283  1.00 20.00     0.067 C 
HETATM    4  C4  UNL     1     -33.922  13.301  -4.552  1.00 20.00     0.170 C 
HETATM    5  C5  UNL     1     -36.175  13.996  -4.305  1.00 20.00     0.170 C 
HETATM    6  C6  UNL     1     -34.357  15.544  -3.441  1.00 20.00     0.129 C 
HETATM    7  N7  UNL     1     -33.659  17.092  -1.430  1.00 20.00    -0.195 NA
HETATM    8  O8  UNL     1     -35.258  12.905  -4.244  1.00 20.00    -0.391 OA
HETATM    9 CL9  UNL     1     -34.206  16.556  -4.921  1.00 20.00    -0.103 Cl
ENDROOT
TORSDOF 0
ENDMDL
MODEL 6
REMARK VINA RESULT:      -3.9      2.328      3.304
REMARK  0 active torsions:
REMARK  status: ('A' for Active; 'I' for Inactive)
ROOT
HETATM    1  C1  UNL     1     -34.431  15.804  -2.355  1.00 20.00     0.085 C 
HETATM    2  C2  UNL     1     -34.875  13.825  -3.773  1.00 20.00     0.067 C 
HETATM    3  C3  UNL     1     -34.422  16.067  -4.816  1.00 20.00     0.067 C 
HETATM    4  C4  UNL     1     -34.734  13.227  -5.170  1.00 20.00     0.170 C 
HETATM    5  C5  UNL     1     -34.307  15.341  -6.154  1.00 20.00     0.170 C 
HETATM    6  C6  UNL     1     -34.104  15.146  -3.630  1.00 20.00     0.129 C 
HETATM    7  N7  UNL     1     -34.690  16.324  -1.350  1.00 20.00    -0.195 NA
HETATM    8  O8  UNL     1     -35.125  14.172  -6.166  1.00 20.00    -0.391 OA
HETATM    9 CL9  UNL     1     -32.336  14.813  -3.576  1.00 20.00    -0.103 Cl
ENDROOT
TORSDOF 0
ENDMDL
MODEL 7
REMARK VINA RESULT:      -3.9      2.912      3.656
REMARK  0 active torsions:
REMARK  status: ('A' for Active; 'I' for Inactive)
ROOT
HETATM    1  C1  UNL     1     -33.870  17.250  -4.093  1.00 20.00     0.085 C 
HETATM    2  C2  UNL     1     -35.263  15.251  -4.523  1.00 20.00     0.067 C 
HETATM    3  C3  UNL     1     -32.873  15.006  -3.782  1.00 20.00     0.067 C 
HETATM    4  C4  UNL     1     -35.420  13.753  -4.271  1.00 20.00     0.170 C 
HETATM    5  C5  UNL     1     -33.166  13.523  -3.572  1.00 20.00     0.170 C 
HETATM    6  C6  UNL     1     -34.141  15.866  -3.674  1.00 20.00     0.129 C 
HETATM    7  N7  UNL     1     -33.656  18.341  -4.424  1.00 20.00    -0.195 NA
HETATM    8  O8  UNL     1     -34.180  13.075  -4.471  1.00 20.00    -0.391 OA
HETATM    9 CL9  UNL     1     -34.664  15.962  -1.955  1.00 20.00    -0.103 Cl
ENDROOT
TORSDOF 0
ENDMDL
MODEL 8
REMARK VINA RESULT:      -3.9      1.988      2.283
REMARK  0 active torsions:
REMARK  status: ('A' for Active; 'I' for Inactive)
ROOT
HETATM    1  C1  UNL     1     -34.759  13.778  -4.948  1.00 20.00     0.085 C 
HETATM    2  C2  UNL     1     -35.947  15.927  -5.253  1.00 20.00     0.067 C 
HETATM    3  C3  UNL     1     -33.478  15.889  -4.782  1.00 20.00     0.067 C 
HETATM    4  C4  UNL     1     -35.791  17.413  -5.570  1.00 20.00     0.170 C 
HETATM    5  C5  UNL     1     -33.462  17.376  -5.125  1.00 20.00     0.170 C 
HETATM    6  C6  UNL     1     -34.639  15.151  -5.464  1.00 20.00     0.129 C 
HETATM    7  N7  UNL     1     -34.854  12.696  -4.541  1.00 20.00    -0.195 NA
HETATM    8  O8  UNL     1     -34.718  17.979  -4.818  1.00 20.00    -0.391 OA
HETATM    9 CL9  UNL     1     -34.305  14.990  -7.225  1.00 20.00    -0.103 Cl
ENDROOT
TORSDOF 0
ENDMDL
MODEL 9
REMARK VINA RESULT:      -3.8     12.875     13.578
REMARK  0 active torsions:
REMARK  status: ('A' for Active; 'I' for Inactive)
ROOT
HETATM    1  C1  UNL     1     -41.934   3.036  -2.723  1.00 20.00     0.085 C 
HETATM    2  C2  UNL     1     -40.705   4.486  -1.139  1.00 20.00     0.067 C 
HETATM    3  C3  UNL     1     -42.338   5.477  -2.772  1.00 20.00     0.067 C 
HETATM    4  C4  UNL     1     -40.672   5.850  -0.453  1.00 20.00     0.170 C 
HETATM    5  C5  UNL     1     -42.213   6.784  -1.994  1.00 20.00     0.170 C 
HETATM    6  C6  UNL     1     -42.017   4.254  -1.901  1.00 20.00     0.129 C 
HETATM    7  N7  UNL     1     -41.867   2.076  -3.372  1.00 20.00    -0.195 NA
HETATM    8  O8  UNL     1     -40.923   6.893  -1.394  1.00 20.00    -0.391 OA
HETATM    9 CL9  UNL     1     -43.356   3.971  -0.733  1.00 20.00    -0.103 Cl
ENDROOT
TORSDOF 0
ENDMDL
