MODEL 1
REMARK VINA RESULT:      -3.8      0.000      0.000
REMARK  1 active torsions:
REMARK  status: ('A' for Active; 'I' for Inactive)
REMARK    1  A    between atoms: C5_5  and  C6_6 
ROOT
HETATM    1  C1  UNL     1     -36.833  14.723  -4.186  1.00 20.00     0.080 C 
HETATM    2  C5  UNL     1     -35.593  15.259  -4.768  1.00 20.00     0.196 C 
HETATM    3  N7  UNL     1     -37.813  14.304  -3.724  1.00 20.00    -0.196 NA
HETATM    4 CL8  UNL     1     -35.330  14.367  -6.303  1.00 20.00    -0.109 Cl
ENDROOT
BRANCH   2   5
HETATM    5  C6  UNL     1     -34.368  15.190  -3.805  1.00 20.00    -0.022 C 
HETATM    6  C2  UNL     1     -33.886  13.730  -3.660  1.00 20.00     0.017 C 
HETATM    7  C3  UNL     1     -33.195  16.006  -4.395  1.00 20.00     0.017 C 
HETATM    8  C4  UNL     1     -34.684  15.739  -2.399  1.00 20.00     0.017 C 
ENDBRANCH   2   5
TORSDOF 1
ENDMDL
MODEL 2
REMARK VINA RESULT:      -3.8      0.043      1.536
REMARK  1 active torsions:
REMARK  status: ('A' for Active; 'I' for Inactive)
REMARK    1  A    between atoms: C5_5  and  C6_6 
ROOT
HETATM    1  C1  UNL     1     -36.813  14.719  -4.190  1.00 20.00     0.080 C 
HETATM    2  C5  UNL     1     -35.579  15.264  -4.779  1.00 20.00     0.196 C 
HETATM    3  N7  UNL     1     -37.787  14.293  -3.723  1.00 20.00    -0.196 NA
HETATM    4 CL8  UNL     1     -35.349  14.415  -6.342  1.00 20.00    -0.109 Cl
ENDROOT
BRANCH   2   5
HETATM    5  C6  UNL     1     -34.338  15.162  -3.840  1.00 20.00    -0.022 C 
HETATM    6  C2  UNL     1     -33.180  16.019  -4.393  1.00 20.00     0.017 C 
HETATM    7  C3  UNL     1     -34.696  15.718  -2.442  1.00 20.00     0.017 C 
HETATM    8  C4  UNL     1     -33.834  13.714  -3.674  1.00 20.00     0.017 C 
ENDBRANCH   2   5
TORSDOF 1
ENDMDL
MODEL 3
REMARK VINA RESULT:      -3.8      1.756      1.852
REMARK  1 active torsions:
REMARK  status: ('A' for Active; 'I' for Inactive)
REMARK    1  A    between atoms: C5_5  and  C6_6 
ROOT
HETATM    1  C1  UNL     1     -34.860  13.733  -4.804  1.00 20.00     0.080 C 
HETATM    2  C5  UNL     1     -34.780  15.199  -4.907  1.00 20.00     0.196 C 
HETATM    3  N7  UNL     1     -34.927  12.577  -4.720  1.00 20.00    -0.196 NA
HETATM    4 CL8  UNL     1     -34.151  15.556  -6.549  1.00 20.00    -0.109 Cl
ENDROOT
BRANCH   2   5
HETATM    5  C6  UNL     1     -33.938  15.862  -3.773  1.00 20.00    -0.022 C 
HETATM    6  C2  UNL     1     -32.585  15.134  -3.621  1.00 20.00     0.017 C 
HETATM    7  C3  UNL     1     -33.632  17.331  -4.143  1.00 20.00     0.017 C 
HETATM    8  C4  UNL     1     -34.656  15.842  -2.408  1.00 20.00     0.017 C 
ENDBRANCH   2   5
TORSDOF 1
ENDMDL
MODEL 4
REMARK VINA RESULT:      -3.7      1.764      2.441
REMARK  1 active torsions:
REMARK  status: ('A' for Active; 'I' for Inactive)
REMARK    1  A    between atoms: C5_5  and  C6_6 
ROOT
HETATM    1  C1  UNL     1     -34.843  13.728  -4.823  1.00 20.00     0.080 C 
HETATM    2  C5  UNL     1     -34.755  15.193  -4.925  1.00 20.00     0.196 C 
HETATM    3  N7  UNL     1     -34.916  12.572  -4.741  1.00 20.00    -0.196 NA
HETATM    4 CL8  UNL     1     -34.158  15.549  -6.579  1.00 20.00    -0.109 Cl
ENDROOT
BRANCH   2   5
HETATM    5  C6  UNL     1     -33.886  15.848  -3.807  1.00 20.00    -0.022 C 
HETATM    6  C2  UNL     1     -33.614  17.330  -4.144  1.00 20.00     0.017 C 
HETATM    7  C3  UNL     1     -34.652  15.813  -2.465  1.00 20.00     0.017 C 
HETATM    8  C4  UNL     1     -32.531  15.137  -3.613  1.00 20.00     0.017 C 
ENDBRANCH   2   5
TORSDOF 1
ENDMDL
MODEL 5
REMARK VINA RESULT:      -3.7      2.304      3.115
REMARK  1 active torsions:
REMARK  status: ('A' for Active; 'I' for Inactive)
REMARK    1  A    between atoms: C5_5  and  C6_6 
ROOT
HETATM    1  C1  UNL     1     -34.450  13.727  -4.454  1.00 20.00     0.080 C 
HETATM    2  C5  UNL     1     -33.872  15.073  -4.311  1.00 20.00     0.196 C 
HETATM    3  N7  UNL     1     -34.902  12.664  -4.569  1.00 20.00    -0.196 NA
HETATM    4 CL8  UNL     1     -34.283  15.626  -2.655  1.00 20.00    -0.109 Cl
ENDROOT
BRANCH   2   5
HETATM    5  C6  UNL     1     -34.328  16.071  -5.420  1.00 20.00    -0.022 C 
HETATM    6  C2  UNL     1     -35.800  16.481  -5.193  1.00 20.00     0.017 C 
HETATM    7  C3  UNL     1     -33.475  17.358  -5.345  1.00 20.00     0.017 C 
HETATM    8  C4  UNL     1     -34.201  15.484  -6.840  1.00 20.00     0.017 C 
ENDBRANCH   2   5
TORSDOF 1
ENDMDL
MODEL 6
REMARK VINA RESULT:      -3.5      1.642      2.256
REMARK  1 active torsions:
REMARK  status: ('A' for Active; 'I' for Inactive)
REMARK    1  A    between atoms: C5_5  and  C6_6 
ROOT
HETATM    1  C1  UNL     1     -36.872  14.828  -3.662  1.00 20.00     0.080 C 
HETATM    2  C5  UNL     1     -35.551  15.446  -3.466  1.00 20.00     0.196 C 
HETATM    3  N7  UNL     1     -37.914  14.338  -3.813  1.00 20.00    -0.196 NA
HETATM    4 CL8  UNL     1     -35.755  17.194  -3.813  1.00 20.00    -0.109 Cl
ENDROOT
BRANCH   2   5
HETATM    5  C6  UNL     1     -34.419  14.784  -4.310  1.00 20.00    -0.022 C 
HETATM    6  C2  UNL     1     -33.039  15.101  -3.693  1.00 20.00     0.017 C 
HETATM    7  C3  UNL     1     -34.589  13.247  -4.295  1.00 20.00     0.017 C 
HETATM    8  C4  UNL     1     -34.414  15.258  -5.778  1.00 20.00     0.017 C 
ENDBRANCH   2   5
TORSDOF 1
ENDMDL
MODEL 7
REMARK VINA RESULT:      -3.5      1.222      2.111
REMARK  1 active torsions:
REMARK  status: ('A' for Active; 'I' for Inactive)
REMARK    1  A    between atoms: C5_5  and  C6_6 
ROOT
HETATM    1  C1  UNL     1     -36.844  14.552  -4.039  1.00 20.00     0.080 C 
HETATM    2  C5  UNL     1     -35.465  14.778  -4.503  1.00 20.00     0.196 C 
HETATM    3  N7  UNL     1     -37.933  14.376  -3.678  1.00 20.00    -0.196 NA
HETATM    4 CL8  UNL     1     -34.586  13.237  -4.238  1.00 20.00    -0.109 Cl
ENDROOT
BRANCH   2   5
HETATM    5  C6  UNL     1     -34.771  16.001  -3.829  1.00 20.00    -0.022 C 
HETATM    6  C2  UNL     1     -35.568  17.291  -4.118  1.00 20.00     0.017 C 
HETATM    7  C3  UNL     1     -34.749  15.807  -2.295  1.00 20.00     0.017 C 
HETATM    8  C4  UNL     1     -33.322  16.206  -4.315  1.00 20.00     0.017 C 
ENDBRANCH   2   5
TORSDOF 1
ENDMDL
MODEL 8
REMARK VINA RESULT:      -3.5     11.825     12.795
REMARK  1 active torsions:
REMARK  status: ('A' for Active; 'I' for Inactive)
REMARK    1  A    between atoms: C5_5  and  C6_6 
ROOT
HETATM    1  C1  UNL     1     -32.506   6.489   3.584  1.00 20.00     0.080 C 
HETATM    2  C5  UNL     1     -33.346   5.284   3.664  1.00 20.00     0.196 C 
HETATM    3  N7  UNL     1     -31.840   7.438   3.523  1.00 20.00    -0.196 NA
HETATM    4 CL8  UNL     1     -33.964   4.988   2.006  1.00 20.00    -0.109 Cl
ENDROOT
BRANCH   2   5
HETATM    5  C6  UNL     1     -34.480   5.381   4.731  1.00 20.00    -0.022 C 
HETATM    6  C2  UNL     1     -35.811   5.781   4.057  1.00 20.00     0.017 C 
HETATM    7  C3  UNL     1     -34.694   3.999   5.390  1.00 20.00     0.017 C 
HETATM    8  C4  UNL     1     -34.169   6.407   5.840  1.00 20.00     0.017 C 
ENDBRANCH   2   5
TORSDOF 1
ENDMDL
MODEL 9
REMARK VINA RESULT:      -3.5      1.845      2.482
REMARK  1 active torsions:
REMARK  status: ('A' for Active; 'I' for Inactive)
REMARK    1  A    between atoms: C5_5  and  C6_6 
ROOT
HETATM    1  C1  UNL     1     -36.473  14.544  -3.865  1.00 20.00     0.080 C 
HETATM    2  C5  UNL     1     -35.039  14.867  -3.928  1.00 20.00     0.196 C 
HETATM    3  N7  UNL     1     -37.604  14.285  -3.817  1.00 20.00    -0.196 NA
HETATM    4 CL8  UNL     1     -34.634  15.672  -2.377  1.00 20.00    -0.109 Cl
ENDROOT
BRANCH   2   5
HETATM    5  C6  UNL     1     -34.642  15.713  -5.177  1.00 20.00    -0.022 C 
HETATM    6  C2  UNL     1     -33.246  16.340  -4.973  1.00 20.00     0.017 C 
HETATM    7  C3  UNL     1     -34.558  14.798  -6.420  1.00 20.00     0.017 C 
HETATM    8  C4  UNL     1     -35.645  16.846  -5.473  1.00 20.00     0.017 C 
ENDBRANCH   2   5
TORSDOF 1
ENDMDL
