MODEL 1
REMARK VINA RESULT:      -3.6      0.000      0.000
REMARK  1 active torsions:
REMARK  status: ('A' for Active; 'I' for Inactive)
REMARK    1  A    between atoms: C4_4  and  C5_5 
ROOT
HETATM    1  C1  UNL     1     -34.637  13.765  -4.329  1.00 20.00     0.085 C 
HETATM    2  C3  UNL     1     -32.812  15.229  -3.581  1.00 20.00     0.049 C 
HETATM    3  C5  UNL     1     -34.306  15.140  -3.916  1.00 20.00     0.121 C 
HETATM    4  N6  UNL     1     -34.897  12.680  -4.651  1.00 20.00    -0.195 NA
HETATM    5 CL7  UNL     1     -34.624  16.206  -5.325  1.00 20.00    -0.103 Cl
ENDROOT
BRANCH   3   6
HETATM    6  C4  UNL     1     -35.142  15.584  -2.697  1.00 20.00     0.036 C 
HETATM    7  C2  UNL     1     -34.400  16.409  -1.649  1.00 20.00     0.008 C 
ENDBRANCH   3   6
TORSDOF 1
ENDMDL
MODEL 2
REMARK VINA RESULT:      -3.5      1.708      2.594
REMARK  1 active torsions:
REMARK  status: ('A' for Active; 'I' for Inactive)
REMARK    1  A    between atoms: C4_4  and  C5_5 
ROOT
HETATM    1  C1  UNL     1     -34.563  13.690  -4.219  1.00 20.00     0.085 C 
HETATM    2  C3  UNL     1     -34.611  15.594  -2.668  1.00 20.00     0.049 C 
HETATM    3  C5  UNL     1     -33.956  14.999  -3.920  1.00 20.00     0.121 C 
HETATM    4  N6  UNL     1     -35.045  12.660  -4.454  1.00 20.00    -0.195 NA
HETATM    5 CL7  UNL     1     -32.223  14.706  -3.554  1.00 20.00    -0.103 Cl
ENDROOT
BRANCH   3   6
HETATM    6  C4  UNL     1     -34.105  15.977  -5.104  1.00 20.00     0.036 C 
HETATM    7  C2  UNL     1     -34.262  15.334  -6.479  1.00 20.00     0.008 C 
ENDBRANCH   3   6
TORSDOF 1
ENDMDL
MODEL 3
REMARK VINA RESULT:      -3.5     12.477     12.829
REMARK  1 active torsions:
REMARK  status: ('A' for Active; 'I' for Inactive)
REMARK    1  A    between atoms: C4_4  and  C5_5 
ROOT
HETATM    1  C1  UNL     1     -34.213   6.166   5.678  1.00 20.00     0.085 C 
HETATM    2  C3  UNL     1     -34.730   3.866   4.988  1.00 20.00     0.049 C 
HETATM    3  C5  UNL     1     -34.484   5.303   4.515  1.00 20.00     0.121 C 
HETATM    4  N6  UNL     1     -33.997   6.843   6.596  1.00 20.00    -0.195 NA
HETATM    5 CL7  UNL     1     -35.995   5.904   3.753  1.00 20.00    -0.103 Cl
ENDROOT
BRANCH   3   6
HETATM    6  C4  UNL     1     -33.318   5.329   3.505  1.00 20.00     0.036 C 
HETATM    7  C2  UNL     1     -32.697   6.699   3.244  1.00 20.00     0.008 C 
ENDBRANCH   3   6
TORSDOF 1
ENDMDL
MODEL 4
REMARK VINA RESULT:      -3.4      1.139      1.220
REMARK  1 active torsions:
REMARK  status: ('A' for Active; 'I' for Inactive)
REMARK    1  A    between atoms: C4_4  and  C5_5 
ROOT
HETATM    1  C1  UNL     1     -34.712  14.015  -4.157  1.00 20.00     0.085 C 
HETATM    2  C3  UNL     1     -33.707  15.966  -5.259  1.00 20.00     0.049 C 
HETATM    3  C5  UNL     1     -34.510  15.471  -4.051  1.00 20.00     0.121 C 
HETATM    4  N6  UNL     1     -34.868  12.868  -4.240  1.00 20.00    -0.195 NA
HETATM    5 CL7  UNL     1     -36.133  16.235  -4.111  1.00 20.00    -0.103 Cl
ENDROOT
BRANCH   3   6
HETATM    6  C4  UNL     1     -33.778  15.849  -2.746  1.00 20.00     0.036 C 
HETATM    7  C2  UNL     1     -34.672  16.262  -1.580  1.00 20.00     0.008 C 
ENDBRANCH   3   6
TORSDOF 1
ENDMDL
MODEL 5
REMARK VINA RESULT:      -3.4      2.373      2.935
REMARK  1 active torsions:
REMARK  status: ('A' for Active; 'I' for Inactive)
REMARK    1  A    between atoms: C4_4  and  C5_5 
ROOT
HETATM    1  C1  UNL     1     -37.072  14.583  -3.831  1.00 20.00     0.085 C 
HETATM    2  C3  UNL     1     -35.355  15.771  -5.124  1.00 20.00     0.049 C 
HETATM    3  C5  UNL     1     -35.628  14.860  -3.921  1.00 20.00     0.121 C 
HETATM    4  N6  UNL     1     -38.210  14.363  -3.764  1.00 20.00    -0.195 NA
HETATM    5 CL7  UNL     1     -35.168  15.752  -2.433  1.00 20.00    -0.103 Cl
ENDROOT
BRANCH   3   6
HETATM    6  C4  UNL     1     -34.807  13.561  -4.053  1.00 20.00     0.036 C 
HETATM    7  C2  UNL     1     -33.318  13.683  -3.741  1.00 20.00     0.008 C 
ENDBRANCH   3   6
TORSDOF 1
ENDMDL
MODEL 6
REMARK VINA RESULT:      -3.4      2.230      3.416
REMARK  1 active torsions:
REMARK  status: ('A' for Active; 'I' for Inactive)
REMARK    1  A    between atoms: C4_4  and  C5_5 
ROOT
HETATM    1  C1  UNL     1     -34.753  13.786  -4.958  1.00 20.00     0.085 C 
HETATM    2  C3  UNL     1     -35.864  15.960  -5.227  1.00 20.00     0.049 C 
HETATM    3  C5  UNL     1     -34.607  15.135  -5.530  1.00 20.00     0.121 C 
HETATM    4  N6  UNL     1     -34.871  12.721  -4.509  1.00 20.00    -0.195 NA
HETATM    5 CL7  UNL     1     -33.219  15.914  -4.699  1.00 20.00    -0.103 Cl
ENDROOT
BRANCH   3   6
HETATM    6  C4  UNL     1     -34.371  15.084  -7.054  1.00 20.00     0.036 C 
HETATM    7  C2  UNL     1     -35.517  14.510  -7.883  1.00 20.00     0.008 C 
ENDBRANCH   3   6
TORSDOF 1
ENDMDL
MODEL 7
REMARK VINA RESULT:      -3.4      1.680      2.046
REMARK  1 active torsions:
REMARK  status: ('A' for Active; 'I' for Inactive)
REMARK    1  A    between atoms: C4_4  and  C5_5 
ROOT
HETATM    1  C1  UNL     1     -36.647  14.440  -3.988  1.00 20.00     0.085 C 
HETATM    2  C3  UNL     1     -34.710  13.258  -4.927  1.00 20.00     0.049 C 
HETATM    3  C5  UNL     1     -35.214  14.566  -4.307  1.00 20.00     0.121 C 
HETATM    4  N6  UNL     1     -37.776  14.337  -3.734  1.00 20.00    -0.195 NA
HETATM    5 CL7  UNL     1     -35.060  15.861  -5.540  1.00 20.00    -0.103 Cl
ENDROOT
BRANCH   3   6
HETATM    6  C4  UNL     1     -34.381  14.905  -3.053  1.00 20.00     0.036 C 
HETATM    7  C2  UNL     1     -34.918  16.043  -2.189  1.00 20.00     0.008 C 
ENDBRANCH   3   6
TORSDOF 1
ENDMDL
MODEL 8
REMARK VINA RESULT:      -3.4     12.729     12.955
REMARK  1 active torsions:
REMARK  status: ('A' for Active; 'I' for Inactive)
REMARK    1  A    between atoms: C4_4  and  C5_5 
ROOT
HETATM    1  C1  UNL     1     -33.392   5.754   4.037  1.00 20.00     0.085 C 
HETATM    2  C3  UNL     1     -35.847   5.686   4.026  1.00 20.00     0.049 C 
HETATM    3  C5  UNL     1     -34.574   5.287   4.781  1.00 20.00     0.121 C 
HETATM    4  N6  UNL     1     -32.462   6.126   3.450  1.00 20.00    -0.195 NA
HETATM    5 CL7  UNL     1     -34.495   3.494   4.827  1.00 20.00    -0.103 Cl
ENDROOT
BRANCH   3   6
HETATM    6  C4  UNL     1     -34.611   5.867   6.211  1.00 20.00     0.036 C 
HETATM    7  C2  UNL     1     -33.644   7.016   6.485  1.00 20.00     0.008 C 
ENDBRANCH   3   6
TORSDOF 1
ENDMDL
MODEL 9
REMARK VINA RESULT:      -3.3      2.113      2.676
REMARK  1 active torsions:
REMARK  status: ('A' for Active; 'I' for Inactive)
REMARK    1  A    between atoms: C4_4  and  C5_5 
ROOT
HETATM    1  C1  UNL     1     -36.551  14.676  -3.727  1.00 20.00     0.085 C 
HETATM    2  C3  UNL     1     -34.917  15.889  -2.351  1.00 20.00     0.049 C 
HETATM    3  C5  UNL     1     -35.141  15.093  -3.642  1.00 20.00     0.121 C 
HETATM    4  N6  UNL     1     -37.664  14.351  -3.793  1.00 20.00    -0.195 NA
HETATM    5 CL7  UNL     1     -34.152  13.597  -3.551  1.00 20.00    -0.103 Cl
ENDROOT
BRANCH   3   6
HETATM    6  C4  UNL     1     -34.727  15.946  -4.860  1.00 20.00     0.036 C 
HETATM    7  C2  UNL     1     -33.268  16.394  -4.891  1.00 20.00     0.008 C 
ENDBRANCH   3   6
TORSDOF 1
ENDMDL
