MODEL 1
REMARK VINA RESULT:      -3.9      0.000      0.000
REMARK  1 active torsions:
REMARK  status: ('A' for Active; 'I' for Inactive)
REMARK    1  A    between atoms: C5_5  and  C6_6 
ROOT
HETATM    1  C1  UNL     1     -36.398  14.695  -3.799  1.00 20.00     0.084 C 
HETATM    2  C6  UNL     1     -34.981  15.104  -3.902  1.00 20.00     0.222 C 
HETATM    3  N7  UNL     1     -37.506  14.355  -3.715  1.00 20.00    -0.195 NA
HETATM    4 CL9  UNL     1     -33.975  13.646  -3.615  1.00 20.00    -0.104 Cl
ENDROOT
BRANCH   2   5
HETATM    5  C5  UNL     1     -34.591  16.202  -2.987  1.00 20.00    -0.019 A 
HETATM    6  C2  UNL     1     -34.710  16.134  -1.568  1.00 20.00     0.017 A 
HETATM    7  C3  UNL     1     -34.276  17.288  -0.957  1.00 20.00     0.050 A 
HETATM    8  S8  UNL     1     -33.729  18.449  -2.090  1.00 20.00    -0.113 SA
HETATM    9  C4  UNL     1     -34.071  17.407  -3.404  1.00 20.00     0.059 A 
ENDBRANCH   2   5
TORSDOF 1
ENDMDL
MODEL 2
REMARK VINA RESULT:      -3.9      2.842      3.562
REMARK  1 active torsions:
REMARK  status: ('A' for Active; 'I' for Inactive)
REMARK    1  A    between atoms: C5_5  and  C6_6 
ROOT
HETATM    1  C1  UNL     1     -34.223  13.840  -4.167  1.00 20.00     0.084 C 
HETATM    2  C6  UNL     1     -33.512  15.130  -4.033  1.00 20.00     0.222 C 
HETATM    3  N7  UNL     1     -34.789  12.830  -4.254  1.00 20.00    -0.195 NA
HETATM    4 CL9  UNL     1     -33.948  15.825  -2.437  1.00 20.00    -0.104 Cl
ENDROOT
BRANCH   2   5
HETATM    5  C5  UNL     1     -33.786  16.097  -5.122  1.00 20.00    -0.019 A 
HETATM    6  C2  UNL     1     -34.329  15.736  -6.388  1.00 20.00     0.017 A 
HETATM    7  C3  UNL     1     -34.485  16.826  -7.215  1.00 20.00     0.050 A 
HETATM    8  S8  UNL     1     -33.978  18.279  -6.464  1.00 20.00    -0.113 SA
HETATM    9  C4  UNL     1     -33.548  17.452  -5.029  1.00 20.00     0.059 A 
ENDBRANCH   2   5
TORSDOF 1
ENDMDL
MODEL 3
REMARK VINA RESULT:      -3.9      1.648      1.648
REMARK  1 active torsions:
REMARK  status: ('A' for Active; 'I' for Inactive)
REMARK    1  A    between atoms: C5_5  and  C6_6 
ROOT
HETATM    1  C1  UNL     1     -34.946  14.017  -4.416  1.00 20.00     0.084 C 
HETATM    2  C6  UNL     1     -34.976  15.484  -4.599  1.00 20.00     0.222 C 
HETATM    3  N7  UNL     1     -34.911  12.863  -4.287  1.00 20.00    -0.195 NA
HETATM    4 CL9  UNL     1     -33.874  15.881  -5.959  1.00 20.00    -0.104 Cl
ENDROOT
BRANCH   2   5
HETATM    5  C5  UNL     1     -34.620  16.261  -3.388  1.00 20.00    -0.019 A 
HETATM    6  C2  UNL     1     -34.880  15.822  -2.058  1.00 20.00     0.017 A 
HETATM    7  C3  UNL     1     -34.447  16.732  -1.119  1.00 20.00     0.050 A 
HETATM    8  S8  UNL     1     -33.731  18.110  -1.842  1.00 20.00    -0.113 SA
HETATM    9  C4  UNL     1     -33.997  17.490  -3.415  1.00 20.00     0.059 A 
ENDBRANCH   2   5
TORSDOF 1
ENDMDL
MODEL 4
REMARK VINA RESULT:      -3.8      3.087      3.938
REMARK  1 active torsions:
REMARK  status: ('A' for Active; 'I' for Inactive)
REMARK    1  A    between atoms: C5_5  and  C6_6 
ROOT
HETATM    1  C1  UNL     1     -34.421  16.756  -0.981  1.00 20.00     0.084 C 
HETATM    2  C6  UNL     1     -33.782  16.471  -2.284  1.00 20.00     0.222 C 
HETATM    3  N7  UNL     1     -34.924  17.000   0.037  1.00 20.00    -0.195 NA
HETATM    4 CL9  UNL     1     -33.715  18.011  -3.202  1.00 20.00    -0.104 Cl
ENDROOT
BRANCH   2   5
HETATM    5  C5  UNL     1     -34.452  15.413  -3.077  1.00 20.00    -0.019 A 
HETATM    6  C2  UNL     1     -35.864  15.328  -3.256  1.00 20.00     0.017 A 
HETATM    7  C3  UNL     1     -36.222  14.252  -4.036  1.00 20.00     0.050 A 
HETATM    8  S8  UNL     1     -34.860  13.350  -4.551  1.00 20.00    -0.113 SA
HETATM    9  C4  UNL     1     -33.786  14.399  -3.730  1.00 20.00     0.059 A 
ENDBRANCH   2   5
TORSDOF 1
ENDMDL
MODEL 5
REMARK VINA RESULT:      -3.8      3.873      4.816
REMARK  1 active torsions:
REMARK  status: ('A' for Active; 'I' for Inactive)
REMARK    1  A    between atoms: C5_5  and  C6_6 
ROOT
HETATM    1  C1  UNL     1     -32.505  18.946  -0.016  1.00 20.00     0.084 C 
HETATM    2  C6  UNL     1     -33.908  18.582  -0.311  1.00 20.00     0.222 C 
HETATM    3  N7  UNL     1     -31.406  19.227   0.234  1.00 20.00    -0.195 NA
HETATM    4 CL9  UNL     1     -34.609  17.878   1.184  1.00 20.00    -0.104 Cl
ENDROOT
BRANCH   2   5
HETATM    5  C5  UNL     1     -34.073  17.657  -1.457  1.00 20.00    -0.019 A 
HETATM    6  C2  UNL     1     -34.615  16.343  -1.346  1.00 20.00     0.017 A 
HETATM    7  C3  UNL     1     -34.658  15.697  -2.561  1.00 20.00     0.050 A 
HETATM    8  S8  UNL     1     -34.046  16.673  -3.829  1.00 20.00    -0.113 SA
HETATM    9  C4  UNL     1     -33.723  17.964  -2.754  1.00 20.00     0.059 A 
ENDBRANCH   2   5
TORSDOF 1
ENDMDL
MODEL 6
REMARK VINA RESULT:      -3.7      3.292      4.056
REMARK  1 active torsions:
REMARK  status: ('A' for Active; 'I' for Inactive)
REMARK    1  A    between atoms: C5_5  and  C6_6 
ROOT
HETATM    1  C1  UNL     1     -34.184  18.100  -2.601  1.00 20.00     0.084 C 
HETATM    2  C6  UNL     1     -35.012  16.952  -2.171  1.00 20.00     0.222 C 
HETATM    3  N7  UNL     1     -33.528  19.004  -2.920  1.00 20.00    -0.195 NA
HETATM    4 CL9  UNL     1     -34.707  16.690  -0.422  1.00 20.00    -0.104 Cl
ENDROOT
BRANCH   2   5
HETATM    5  C5  UNL     1     -34.779  15.707  -2.939  1.00 20.00    -0.019 A 
HETATM    6  C2  UNL     1     -33.487  15.177  -3.222  1.00 20.00     0.017 A 
HETATM    7  C3  UNL     1     -33.554  14.011  -3.951  1.00 20.00     0.050 A 
HETATM    8  S8  UNL     1     -35.170  13.558  -4.292  1.00 20.00    -0.113 SA
HETATM    9  C4  UNL     1     -35.785  14.923  -3.463  1.00 20.00     0.059 A 
ENDBRANCH   2   5
TORSDOF 1
ENDMDL
MODEL 7
REMARK VINA RESULT:      -3.7      2.375      2.560
REMARK  1 active torsions:
REMARK  status: ('A' for Active; 'I' for Inactive)
REMARK    1  A    between atoms: C5_5  and  C6_6 
ROOT
HETATM    1  C1  UNL     1     -33.451  16.235  -4.001  1.00 20.00     0.084 C 
HETATM    2  C6  UNL     1     -34.063  15.851  -2.710  1.00 20.00     0.222 C 
HETATM    3  N7  UNL     1     -32.987  16.531  -5.023  1.00 20.00    -0.195 NA
HETATM    4 CL9  UNL     1     -35.707  15.221  -3.057  1.00 20.00    -0.104 Cl
ENDROOT
BRANCH   2   5
HETATM    5  C5  UNL     1     -34.117  16.942  -1.708  1.00 20.00    -0.019 A 
HETATM    6  C2  UNL     1     -34.706  16.807  -0.417  1.00 20.00     0.017 A 
HETATM    7  C3  UNL     1     -34.622  17.971   0.313  1.00 20.00     0.050 A 
HETATM    8  S8  UNL     1     -33.835  19.220  -0.555  1.00 20.00    -0.113 SA
HETATM    9  C4  UNL     1     -33.605  18.204  -1.914  1.00 20.00     0.059 A 
ENDBRANCH   2   5
TORSDOF 1
ENDMDL
MODEL 8
REMARK VINA RESULT:      -3.6      2.448      2.954
REMARK  1 active torsions:
REMARK  status: ('A' for Active; 'I' for Inactive)
REMARK    1  A    between atoms: C5_5  and  C6_6 
ROOT
HETATM    1  C1  UNL     1     -35.047  13.745  -5.067  1.00 20.00     0.084 C 
HETATM    2  C6  UNL     1     -35.281  15.009  -5.799  1.00 20.00     0.222 C 
HETATM    3  N7  UNL     1     -34.855  12.745  -4.509  1.00 20.00    -0.195 NA
HETATM    4 CL9  UNL     1     -34.552  14.832  -7.430  1.00 20.00    -0.104 Cl
ENDROOT
BRANCH   2   5
HETATM    5  C5  UNL     1     -34.761  16.217  -5.118  1.00 20.00    -0.019 A 
HETATM    6  C2  UNL     1     -33.800  17.101  -5.689  1.00 20.00     0.017 A 
HETATM    7  C3  UNL     1     -33.490  18.144  -4.846  1.00 20.00     0.050 A 
HETATM    8  S8  UNL     1     -34.357  18.057  -3.372  1.00 20.00    -0.113 SA
HETATM    9  C4  UNL     1     -35.150  16.621  -3.859  1.00 20.00     0.059 A 
ENDBRANCH   2   5
TORSDOF 1
ENDMDL
MODEL 9
REMARK VINA RESULT:      -3.5      2.129      2.716
REMARK  1 active torsions:
REMARK  status: ('A' for Active; 'I' for Inactive)
REMARK    1  A    between atoms: C5_5  and  C6_6 
ROOT
HETATM    1  C1  UNL     1     -35.053  13.644  -4.152  1.00 20.00     0.084 C 
HETATM    2  C6  UNL     1     -35.438  14.883  -3.443  1.00 20.00     0.222 C 
HETATM    3  N7  UNL     1     -34.770  12.667  -4.713  1.00 20.00    -0.195 NA
HETATM    4 CL9  UNL     1     -37.222  15.044  -3.566  1.00 20.00    -0.104 Cl
ENDROOT
BRANCH   2   5
HETATM    5  C5  UNL     1     -34.763  16.107  -3.935  1.00 20.00    -0.019 A 
HETATM    6  C2  UNL     1     -34.037  16.176  -5.159  1.00 20.00     0.017 A 
HETATM    7  C3  UNL     1     -33.510  17.429  -5.378  1.00 20.00     0.050 A 
HETATM    8  S8  UNL     1     -33.892  18.517  -4.112  1.00 20.00    -0.113 SA
HETATM    9  C4  UNL     1     -34.764  17.311  -3.266  1.00 20.00     0.059 A 
ENDBRANCH   2   5
TORSDOF 1
ENDMDL
