MODEL 1
REMARK VINA RESULT:      -4.1      0.000      0.000
REMARK  2 active torsions:
REMARK  status: ('A' for Active; 'I' for Inactive)
REMARK    1  A    between atoms: C4_4  and  C5_5 
REMARK    2  A    between atoms: C4_4  and  C6_6 
ROOT
HETATM    1  C1  UNL     1     -32.121   8.035   1.984  1.00 20.00     0.079 C 
HETATM    2  C5  UNL     1     -32.217   7.097   3.109  1.00 20.00     0.189 C 
HETATM    3  N7  UNL     1     -32.047   8.774   1.093  1.00 20.00    -0.196 NA
HETATM    4 CL8  UNL     1     -31.169   7.734   4.415  1.00 20.00    -0.109 Cl
ENDROOT
BRANCH   2   5
HETATM    5  C4  UNL     1     -33.649   6.953   3.635  1.00 20.00     0.039 C 
BRANCH   5   6
HETATM    6  C6  UNL     1     -33.853   5.823   4.667  1.00 20.00    -0.020 C 
HETATM    7  C2  UNL     1     -34.027   6.356   6.090  1.00 20.00     0.009 C 
HETATM    8  C3  UNL     1     -35.073   4.983   4.278  1.00 20.00     0.009 C 
ENDBRANCH   5   6
ENDBRANCH   2   5
TORSDOF 2
ENDMDL
MODEL 2
REMARK VINA RESULT:      -4.0     10.717     11.404
REMARK  2 active torsions:
REMARK  status: ('A' for Active; 'I' for Inactive)
REMARK    1  A    between atoms: C4_4  and  C5_5 
REMARK    2  A    between atoms: C4_4  and  C6_6 
ROOT
HETATM    1  C1  UNL     1     -34.349  13.808  -3.861  1.00 20.00     0.079 C 
HETATM    2  C5  UNL     1     -33.717  15.036  -3.364  1.00 20.00     0.189 C 
HETATM    3  N7  UNL     1     -34.850  12.836  -4.249  1.00 20.00    -0.196 NA
HETATM    4 CL8  UNL     1     -33.235  15.995  -4.798  1.00 20.00    -0.109 Cl
ENDROOT
BRANCH   2   5
HETATM    5  C4  UNL     1     -34.659  15.871  -2.490  1.00 20.00     0.039 C 
BRANCH   5   6
HETATM    6  C6  UNL     1     -33.954  16.848  -1.522  1.00 20.00    -0.020 C 
HETATM    7  C2  UNL     1     -33.764  18.238  -2.131  1.00 20.00     0.009 C 
HETATM    8  C3  UNL     1     -34.759  16.959  -0.224  1.00 20.00     0.009 C 
ENDBRANCH   5   6
ENDBRANCH   2   5
TORSDOF 2
ENDMDL
MODEL 3
REMARK VINA RESULT:      -3.8      2.958      4.182
REMARK  2 active torsions:
REMARK  status: ('A' for Active; 'I' for Inactive)
REMARK    1  A    between atoms: C4_4  and  C5_5 
REMARK    2  A    between atoms: C4_4  and  C6_6 
ROOT
HETATM    1  C1  UNL     1     -34.859   4.737   5.195  1.00 20.00     0.079 C 
HETATM    2  C5  UNL     1     -34.698   6.191   5.076  1.00 20.00     0.189 C 
HETATM    3  N7  UNL     1     -34.989   3.588   5.286  1.00 20.00    -0.196 NA
HETATM    4 CL8  UNL     1     -33.534   6.695   6.340  1.00 20.00    -0.109 Cl
ENDROOT
BRANCH   2   5
HETATM    5  C4  UNL     1     -34.168   6.614   3.702  1.00 20.00     0.039 C 
BRANCH   5   6
HETATM    6  C6  UNL     1     -32.629   6.677   3.589  1.00 20.00    -0.020 C 
HETATM    7  C2  UNL     1     -32.030   5.378   3.047  1.00 20.00     0.009 C 
HETATM    8  C3  UNL     1     -32.226   7.847   2.686  1.00 20.00     0.009 C 
ENDBRANCH   5   6
ENDBRANCH   2   5
TORSDOF 2
ENDMDL
MODEL 4
REMARK VINA RESULT:      -3.7     10.791     11.409
REMARK  2 active torsions:
REMARK  status: ('A' for Active; 'I' for Inactive)
REMARK    1  A    between atoms: C4_4  and  C5_5 
REMARK    2  A    between atoms: C4_4  and  C6_6 
ROOT
HETATM    1  C1  UNL     1     -34.854  14.145  -5.416  1.00 20.00     0.079 C 
HETATM    2  C5  UNL     1     -34.741  13.913  -3.971  1.00 20.00     0.189 C 
HETATM    3  N7  UNL     1     -34.947  14.329  -6.558  1.00 20.00    -0.196 NA
HETATM    4 CL8  UNL     1     -33.004  13.655  -3.615  1.00 20.00    -0.109 Cl
ENDROOT
BRANCH   2   5
HETATM    5  C4  UNL     1     -35.257  15.095  -3.143  1.00 20.00     0.039 C 
BRANCH   5   6
HETATM    6  C6  UNL     1     -34.158  15.979  -2.515  1.00 20.00    -0.020 C 
HETATM    7  C2  UNL     1     -33.800  17.179  -3.393  1.00 20.00     0.009 C 
HETATM    8  C3  UNL     1     -34.613  16.467  -1.136  1.00 20.00     0.009 C 
ENDBRANCH   5   6
ENDBRANCH   2   5
TORSDOF 2
ENDMDL
MODEL 5
REMARK VINA RESULT:      -3.7     10.958     11.640
REMARK  2 active torsions:
REMARK  status: ('A' for Active; 'I' for Inactive)
REMARK    1  A    between atoms: C4_4  and  C5_5 
REMARK    2  A    between atoms: C4_4  and  C6_6 
ROOT
HETATM    1  C1  UNL     1     -35.160  13.736  -4.284  1.00 20.00     0.079 C 
HETATM    2  C5  UNL     1     -35.638  15.038  -3.804  1.00 20.00     0.189 C 
HETATM    3  N7  UNL     1     -34.778  12.708  -4.664  1.00 20.00    -0.196 NA
HETATM    4 CL8  UNL     1     -37.421  14.926  -3.672  1.00 20.00    -0.109 Cl
ENDROOT
BRANCH   2   5
HETATM    5  C4  UNL     1     -35.053  15.412  -2.437  1.00 20.00     0.039 C 
BRANCH   5   6
HETATM    6  C6  UNL     1     -33.802  16.318  -2.491  1.00 20.00    -0.020 C 
HETATM    7  C2  UNL     1     -33.753  17.170  -3.760  1.00 20.00     0.009 C 
HETATM    8  C3  UNL     1     -33.770  17.226  -1.258  1.00 20.00     0.009 C 
ENDBRANCH   5   6
ENDBRANCH   2   5
TORSDOF 2
ENDMDL
MODEL 6
REMARK VINA RESULT:      -3.7     11.053     11.647
REMARK  2 active torsions:
REMARK  status: ('A' for Active; 'I' for Inactive)
REMARK    1  A    between atoms: C4_4  and  C5_5 
REMARK    2  A    between atoms: C4_4  and  C6_6 
ROOT
HETATM    1  C1  UNL     1     -36.494  14.153  -4.012  1.00 20.00     0.079 C 
HETATM    2  C5  UNL     1     -35.073  13.858  -4.226  1.00 20.00     0.189 C 
HETATM    3  N7  UNL     1     -37.618  14.384  -3.839  1.00 20.00    -0.196 NA
HETATM    4 CL8  UNL     1     -34.682  14.347  -5.904  1.00 20.00    -0.109 Cl
ENDROOT
BRANCH   2   5
HETATM    5  C4  UNL     1     -34.162  14.615  -3.253  1.00 20.00     0.039 C 
BRANCH   5   6
HETATM    6  C6  UNL     1     -34.617  16.053  -2.919  1.00 20.00    -0.020 C 
HETATM    7  C2  UNL     1     -34.609  16.334  -1.416  1.00 20.00     0.009 C 
HETATM    8  C3  UNL     1     -33.714  17.060  -3.638  1.00 20.00     0.009 C 
ENDBRANCH   5   6
ENDBRANCH   2   5
TORSDOF 2
ENDMDL
MODEL 7
REMARK VINA RESULT:      -3.7      2.116      2.294
REMARK  2 active torsions:
REMARK  status: ('A' for Active; 'I' for Inactive)
REMARK    1  A    between atoms: C4_4  and  C5_5 
REMARK    2  A    between atoms: C4_4  and  C6_6 
ROOT
HETATM    1  C1  UNL     1     -32.583   6.846   3.330  1.00 20.00     0.079 C 
HETATM    2  C5  UNL     1     -33.878   6.288   2.923  1.00 20.00     0.189 C 
HETATM    3  N7  UNL     1     -31.561   7.291   3.652  1.00 20.00    -0.196 NA
HETATM    4 CL8  UNL     1     -33.546   4.717   2.127  1.00 20.00    -0.109 Cl
ENDROOT
BRANCH   2   5
HETATM    5  C4  UNL     1     -34.822   6.064   4.110  1.00 20.00     0.039 C 
BRANCH   5   6
HETATM    6  C6  UNL     1     -34.157   5.456   5.365  1.00 20.00    -0.020 C 
HETATM    7  C2  UNL     1     -34.073   6.453   6.522  1.00 20.00     0.009 C 
HETATM    8  C3  UNL     1     -34.934   4.214   5.809  1.00 20.00     0.009 C 
ENDBRANCH   5   6
ENDBRANCH   2   5
TORSDOF 2
ENDMDL
MODEL 8
REMARK VINA RESULT:      -3.6     11.558     12.712
REMARK  2 active torsions:
REMARK  status: ('A' for Active; 'I' for Inactive)
REMARK    1  A    between atoms: C4_4  and  C5_5 
REMARK    2  A    between atoms: C4_4  and  C6_6 
ROOT
HETATM    1  C1  UNL     1     -36.875  14.609  -4.035  1.00 20.00     0.079 C 
HETATM    2  C5  UNL     1     -35.522  15.004  -4.440  1.00 20.00     0.189 C 
HETATM    3  N7  UNL     1     -37.948  14.297  -3.719  1.00 20.00    -0.196 NA
HETATM    4 CL8  UNL     1     -34.515  15.024  -2.959  1.00 20.00    -0.109 Cl
ENDROOT
BRANCH   2   5
HETATM    5  C4  UNL     1     -34.906  14.036  -5.457  1.00 20.00     0.039 C 
BRANCH   5   6
HETATM    6  C6  UNL     1     -34.551  14.665  -6.823  1.00 20.00    -0.020 C 
HETATM    7  C2  UNL     1     -35.693  14.551  -7.833  1.00 20.00     0.009 C 
HETATM    8  C3  UNL     1     -34.177  16.138  -6.630  1.00 20.00     0.009 C 
ENDBRANCH   5   6
ENDBRANCH   2   5
TORSDOF 2
ENDMDL
MODEL 9
REMARK VINA RESULT:      -3.6     10.745     12.589
REMARK  2 active torsions:
REMARK  status: ('A' for Active; 'I' for Inactive)
REMARK    1  A    between atoms: C4_4  and  C5_5 
REMARK    2  A    between atoms: C4_4  and  C6_6 
ROOT
HETATM    1  C1  UNL     1     -35.250  13.772  -4.149  1.00 20.00     0.079 C 
HETATM    2  C5  UNL     1     -35.691  15.109  -3.735  1.00 20.00     0.189 C 
HETATM    3  N7  UNL     1     -34.905  12.714  -4.478  1.00 20.00    -0.196 NA
HETATM    4 CL8  UNL     1     -34.646  15.607  -2.368  1.00 20.00    -0.109 Cl
ENDROOT
BRANCH   2   5
HETATM    5  C4  UNL     1     -35.575  16.141  -4.862  1.00 20.00     0.039 C 
BRANCH   5   6
HETATM    6  C6  UNL     1     -34.214  16.158  -5.593  1.00 20.00    -0.020 C 
HETATM    7  C2  UNL     1     -34.347  15.832  -7.081  1.00 20.00     0.009 C 
HETATM    8  C3  UNL     1     -33.554  17.529  -5.422  1.00 20.00     0.009 C 
ENDBRANCH   5   6
ENDBRANCH   2   5
TORSDOF 2
ENDMDL
