MODEL 1
REMARK VINA RESULT:      -4.1      0.000      0.000
REMARK  1 active torsions:
REMARK  status: ('A' for Active; 'I' for Inactive)
REMARK    1  A    between atoms: C5_5  and  C6_6 
ROOT
HETATM    1  C1  UNL     1     -34.369  13.943  -3.771  1.00 20.00     0.080 C 
HETATM    2  C6  UNL     1     -33.803  15.211  -3.298  1.00 20.00     0.195 C 
HETATM    3  N7  UNL     1     -34.812  12.939  -4.148  1.00 20.00    -0.196 NA
HETATM    4 CL9  UNL     1     -33.038  16.024  -4.690  1.00 20.00    -0.109 Cl
ENDROOT
BRANCH   2   5
HETATM    5  C5  UNL     1     -34.875  16.116  -2.692  1.00 20.00     0.044 C 
HETATM    6  C2  UNL     1     -34.649  16.348  -1.212  1.00 20.00     0.035 C 
HETATM    7  C3  UNL     1     -33.659  17.495  -1.193  1.00 20.00     0.168 C 
HETATM    8  O8  UNL     1     -33.860  18.245  -2.399  1.00 20.00    -0.391 OA
HETATM    9  C4  UNL     1     -34.787  17.534  -3.233  1.00 20.00     0.174 C 
ENDBRANCH   2   5
TORSDOF 1
ENDMDL
MODEL 2
REMARK VINA RESULT:      -4.0      2.621      3.424
REMARK  1 active torsions:
REMARK  status: ('A' for Active; 'I' for Inactive)
REMARK    1  A    between atoms: C5_5  and  C6_6 
ROOT
HETATM    1  C1  UNL     1     -36.788  14.928  -3.617  1.00 20.00     0.080 C 
HETATM    2  C6  UNL     1     -35.515  15.657  -3.590  1.00 20.00     0.195 C 
HETATM    3  N7  UNL     1     -37.797  14.355  -3.635  1.00 20.00    -0.196 NA
HETATM    4 CL9  UNL     1     -35.094  15.962  -1.883  1.00 20.00    -0.109 Cl
ENDROOT
BRANCH   2   5
HETATM    5  C5  UNL     1     -34.398  14.867  -4.268  1.00 20.00     0.044 C 
HETATM    6  C2  UNL     1     -34.496  14.930  -5.779  1.00 20.00     0.035 C 
HETATM    7  C3  UNL     1     -33.791  16.228  -6.113  1.00 20.00     0.168 C 
HETATM    8  O8  UNL     1     -32.839  16.472  -5.069  1.00 20.00    -0.391 OA
HETATM    9  C4  UNL     1     -33.036  15.500  -4.032  1.00 20.00     0.174 C 
ENDBRANCH   2   5
TORSDOF 1
ENDMDL
MODEL 3
REMARK VINA RESULT:      -3.8      2.847      3.872
REMARK  1 active torsions:
REMARK  status: ('A' for Active; 'I' for Inactive)
REMARK    1  A    between atoms: C5_5  and  C6_6 
ROOT
HETATM    1  C1  UNL     1     -34.737  16.239  -1.677  1.00 20.00     0.080 C 
HETATM    2  C6  UNL     1     -35.092  15.620  -2.960  1.00 20.00     0.195 C 
HETATM    3  N7  UNL     1     -34.462  16.729  -0.662  1.00 20.00    -0.196 NA
HETATM    4 CL9  UNL     1     -36.063  16.797  -3.886  1.00 20.00    -0.109 Cl
ENDROOT
BRANCH   2   5
HETATM    5  C5  UNL     1     -33.851  15.226  -3.758  1.00 20.00     0.044 C 
HETATM    6  C2  UNL     1     -33.619  13.729  -3.743  1.00 20.00     0.035 C 
HETATM    7  C3  UNL     1     -34.508  13.234  -4.866  1.00 20.00     0.168 C 
HETATM    8  O8  UNL     1     -34.639  14.310  -5.805  1.00 20.00    -0.391 OA
HETATM    9  C4  UNL     1     -34.032  15.484  -5.246  1.00 20.00     0.174 C 
ENDBRANCH   2   5
TORSDOF 1
ENDMDL
MODEL 4
REMARK VINA RESULT:      -3.8      2.038      2.188
REMARK  1 active torsions:
REMARK  status: ('A' for Active; 'I' for Inactive)
REMARK    1  A    between atoms: C5_5  and  C6_6 
ROOT
HETATM    1  C1  UNL     1     -35.280  13.722  -4.319  1.00 20.00     0.080 C 
HETATM    2  C6  UNL     1     -35.861  15.023  -3.969  1.00 20.00     0.195 C 
HETATM    3  N7  UNL     1     -34.825  12.692  -4.600  1.00 20.00    -0.196 NA
HETATM    4 CL9  UNL     1     -37.612  14.793  -3.718  1.00 20.00    -0.109 Cl
ENDROOT
BRANCH   2   5
HETATM    5  C5  UNL     1     -35.225  15.603  -2.707  1.00 20.00     0.044 C 
HETATM    6  C2  UNL     1     -33.750  15.892  -2.897  1.00 20.00     0.035 C 
HETATM    7  C3  UNL     1     -33.750  17.265  -3.537  1.00 20.00     0.168 C 
HETATM    8  O8  UNL     1     -34.948  17.929  -3.110  1.00 20.00    -0.391 OA
HETATM    9  C4  UNL     1     -35.762  16.991  -2.392  1.00 20.00     0.174 C 
ENDBRANCH   2   5
TORSDOF 1
ENDMDL
MODEL 5
REMARK VINA RESULT:      -3.8      2.874      3.939
REMARK  1 active torsions:
REMARK  status: ('A' for Active; 'I' for Inactive)
REMARK    1  A    between atoms: C5_5  and  C6_6 
ROOT
HETATM    1  C1  UNL     1     -34.423  15.918  -2.156  1.00 20.00     0.080 C 
HETATM    2  C6  UNL     1     -34.147  15.325  -3.470  1.00 20.00     0.195 C 
HETATM    3  N7  UNL     1     -34.637  16.390  -1.118  1.00 20.00    -0.196 NA
HETATM    4 CL9  UNL     1     -32.442  14.800  -3.487  1.00 20.00    -0.109 Cl
ENDROOT
BRANCH   2   5
HETATM    5  C5  UNL     1     -35.061  14.134  -3.754  1.00 20.00     0.044 C 
HETATM    6  C2  UNL     1     -36.454  14.573  -4.159  1.00 20.00     0.035 C 
HETATM    7  C3  UNL     1     -36.312  14.829  -5.646  1.00 20.00     0.168 C 
HETATM    8  O8  UNL     1     -35.250  13.990  -6.119  1.00 20.00    -0.391 OA
HETATM    9  C4  UNL     1     -34.619  13.367  -4.991  1.00 20.00     0.174 C 
ENDBRANCH   2   5
TORSDOF 1
ENDMDL
MODEL 6
REMARK VINA RESULT:      -3.8      1.322      1.484
REMARK  1 active torsions:
REMARK  status: ('A' for Active; 'I' for Inactive)
REMARK    1  A    between atoms: C5_5  and  C6_6 
ROOT
HETATM    1  C1  UNL     1     -34.519  13.782  -4.831  1.00 20.00     0.080 C 
HETATM    2  C6  UNL     1     -34.116  15.184  -4.997  1.00 20.00     0.195 C 
HETATM    3  N7  UNL     1     -34.833  12.673  -4.704  1.00 20.00    -0.196 NA
HETATM    4 CL9  UNL     1     -34.142  15.559  -6.741  1.00 20.00    -0.109 Cl
ENDROOT
BRANCH   2   5
HETATM    5  C5  UNL     1     -35.051  16.131  -4.247  1.00 20.00     0.044 C 
HETATM    6  C2  UNL     1     -35.217  15.731  -2.795  1.00 20.00     0.035 C 
HETATM    7  C3  UNL     1     -34.019  16.371  -2.125  1.00 20.00     0.168 C 
HETATM    8  O8  UNL     1     -33.659  17.517  -2.908  1.00 20.00    -0.391 OA
HETATM    9  C4  UNL     1     -34.450  17.521  -4.106  1.00 20.00     0.174 C 
ENDBRANCH   2   5
TORSDOF 1
ENDMDL
MODEL 7
REMARK VINA RESULT:      -3.8      2.497      3.320
REMARK  1 active torsions:
REMARK  status: ('A' for Active; 'I' for Inactive)
REMARK    1  A    between atoms: C5_5  and  C6_6 
ROOT
HETATM    1  C1  UNL     1     -34.830  13.944  -4.292  1.00 20.00     0.080 C 
HETATM    2  C6  UNL     1     -34.665  15.399  -4.198  1.00 20.00     0.195 C 
HETATM    3  N7  UNL     1     -34.964  12.793  -4.362  1.00 20.00    -0.196 NA
HETATM    4 CL9  UNL     1     -34.105  15.781  -2.548  1.00 20.00    -0.109 Cl
ENDROOT
BRANCH   2   5
HETATM    5  C5  UNL     1     -33.659  15.920  -5.223  1.00 20.00     0.044 C 
HETATM    6  C2  UNL     1     -34.151  15.735  -6.644  1.00 20.00     0.035 C 
HETATM    7  C3  UNL     1     -35.021  16.955  -6.866  1.00 20.00     0.168 C 
HETATM    8  O8  UNL     1     -34.521  17.991  -6.009  1.00 20.00    -0.391 OA
HETATM    9  C4  UNL     1     -33.515  17.432  -5.153  1.00 20.00     0.174 C 
ENDBRANCH   2   5
TORSDOF 1
ENDMDL
MODEL 8
REMARK VINA RESULT:      -3.7      3.446      4.425
REMARK  1 active torsions:
REMARK  status: ('A' for Active; 'I' for Inactive)
REMARK    1  A    between atoms: C5_5  and  C6_6 
ROOT
HETATM    1  C1  UNL     1     -34.710  13.812  -4.833  1.00 20.00     0.080 C 
HETATM    2  C6  UNL     1     -34.542  15.189  -5.312  1.00 20.00     0.195 C 
HETATM    3  N7  UNL     1     -34.843  12.725  -4.449  1.00 20.00    -0.196 NA
HETATM    4 CL9  UNL     1     -33.111  15.880  -4.500  1.00 20.00    -0.109 Cl
ENDROOT
BRANCH   2   5
HETATM    5  C5  UNL     1     -34.355  15.240  -6.828  1.00 20.00     0.044 C 
HETATM    6  C2  UNL     1     -35.404  14.424  -7.555  1.00 20.00     0.035 C 
HETATM    7  C3  UNL     1     -36.572  15.384  -7.659  1.00 20.00     0.168 C 
HETATM    8  O8  UNL     1     -36.029  16.711  -7.655  1.00 20.00    -0.391 OA
HETATM    9  C4  UNL     1     -34.622  16.630  -7.382  1.00 20.00     0.174 C 
ENDBRANCH   2   5
TORSDOF 1
ENDMDL
MODEL 9
REMARK VINA RESULT:      -3.7      2.618      3.006
REMARK  1 active torsions:
REMARK  status: ('A' for Active; 'I' for Inactive)
REMARK    1  A    between atoms: C5_5  and  C6_6 
ROOT
HETATM    1  C1  UNL     1     -37.004  14.699  -3.788  1.00 20.00     0.080 C 
HETATM    2  C6  UNL     1     -35.601  15.128  -3.798  1.00 20.00     0.195 C 
HETATM    3  N7  UNL     1     -38.112  14.356  -3.775  1.00 20.00    -0.196 NA
HETATM    4 CL9  UNL     1     -34.579  13.665  -3.774  1.00 20.00    -0.109 Cl
ENDROOT
BRANCH   2   5
HETATM    5  C5  UNL     1     -35.277  15.968  -5.032  1.00 20.00     0.044 C 
HETATM    6  C2  UNL     1     -35.126  17.438  -4.694  1.00 20.00     0.035 C 
HETATM    7  C3  UNL     1     -33.685  17.537  -4.239  1.00 20.00     0.168 C 
HETATM    8  O8  UNL     1     -32.962  16.487  -4.896  1.00 20.00    -0.391 OA
HETATM    9  C4  UNL     1     -33.898  15.648  -5.587  1.00 20.00     0.174 C 
ENDBRANCH   2   5
TORSDOF 1
ENDMDL
