MODEL 1
REMARK VINA RESULT:      -3.7      0.000      0.000
REMARK  1 active torsions:
REMARK  status: ('A' for Active; 'I' for Inactive)
REMARK    1  A    between atoms: C7_7  and  N8_8 
ROOT
HETATM    1  C1  UNL     1     -33.671  17.176  -3.782  1.00 20.00     0.045 C 
HETATM    2  C2  UNL     1     -33.306  16.416  -5.049  1.00 20.00     0.236 C 
HETATM    3  C3  UNL     1     -34.358  14.947  -3.401  1.00 20.00     0.251 C 
HETATM    4  C4  UNL     1     -33.667  16.105  -2.698  1.00 20.00     0.086 C 
HETATM    5  N8  UNL     1     -33.764  14.992  -4.796  1.00 20.00    -0.066 N 
HETATM    6  S9  UNL     1     -34.572  16.625  -1.221  1.00 20.00    -0.091 SA
HETATM    7  H24 UNL     1     -32.918  14.405  -4.779  1.00 20.00     0.280 HD
ENDROOT
BRANCH   5   8
HETATM    8  C7  UNL     1     -34.662  14.435  -5.853  1.00 20.00     0.180 C 
HETATM    9  C5  UNL     1     -34.314  15.096  -7.177  1.00 20.00     0.039 C 
HETATM   10  C6  UNL     1     -36.104  14.689  -5.443  1.00 20.00     0.039 C 
ENDBRANCH   5   8
TORSDOF 1
ENDMDL
MODEL 2
REMARK VINA RESULT:      -3.6      1.546      2.116
REMARK  1 active torsions:
REMARK  status: ('A' for Active; 'I' for Inactive)
REMARK    1  A    between atoms: C7_7  and  N8_8 
ROOT
HETATM    1  C1  UNL     1     -34.122  13.956  -3.451  1.00 20.00     0.045 C 
HETATM    2  C2  UNL     1     -34.525  13.376  -4.798  1.00 20.00     0.236 C 
HETATM    3  C3  UNL     1     -35.237  15.705  -4.583  1.00 20.00     0.251 C 
HETATM    4  C4  UNL     1     -35.141  15.063  -3.208  1.00 20.00     0.086 C 
HETATM    5  N8  UNL     1     -35.228  14.512  -5.519  1.00 20.00    -0.066 N 
HETATM    6  S9  UNL     1     -34.583  16.242  -1.956  1.00 20.00    -0.091 SA
HETATM    7  H24 UNL     1     -36.208  14.224  -5.645  1.00 20.00     0.280 HD
ENDROOT
BRANCH   5   8
HETATM    8  C7  UNL     1     -34.681  14.813  -6.877  1.00 20.00     0.180 C 
HETATM    9  C5  UNL     1     -34.312  16.286  -6.931  1.00 20.00     0.039 C 
HETATM   10  C6  UNL     1     -35.732  14.443  -7.912  1.00 20.00     0.039 C 
ENDBRANCH   5   8
TORSDOF 1
ENDMDL
MODEL 3
REMARK VINA RESULT:      -3.6      2.348      4.008
REMARK  1 active torsions:
REMARK  status: ('A' for Active; 'I' for Inactive)
REMARK    1  A    between atoms: C7_7  and  N8_8 
ROOT
HETATM    1  C1  UNL     1     -35.186  13.696  -4.638  1.00 20.00     0.045 C 
HETATM    2  C2  UNL     1     -34.255  14.005  -3.474  1.00 20.00     0.236 C 
HETATM    3  C3  UNL     1     -34.049  15.677  -5.246  1.00 20.00     0.251 C 
HETATM    4  C4  UNL     1     -34.506  14.351  -5.835  1.00 20.00     0.086 C 
HETATM    5  N8  UNL     1     -33.542  15.284  -3.872  1.00 20.00    -0.066 N 
HETATM    6  S9  UNL     1     -35.644  14.591  -7.219  1.00 20.00    -0.091 SA
HETATM    7  H24 UNL     1     -32.545  15.049  -3.977  1.00 20.00     0.280 HD
ENDROOT
BRANCH   5   8
HETATM    8  C7  UNL     1     -33.629  16.380  -2.859  1.00 20.00     0.180 C 
HETATM    9  C5  UNL     1     -34.748  16.048  -1.885  1.00 20.00     0.039 C 
HETATM   10  C6  UNL     1     -33.871  17.692  -3.589  1.00 20.00     0.039 C 
ENDBRANCH   5   8
TORSDOF 1
ENDMDL
MODEL 4
REMARK VINA RESULT:      -3.5      2.039      3.072
REMARK  1 active torsions:
REMARK  status: ('A' for Active; 'I' for Inactive)
REMARK    1  A    between atoms: C7_7  and  N8_8 
ROOT
HETATM    1  C1  UNL     1     -34.764  16.507  -6.541  1.00 20.00     0.045 C 
HETATM    2  C2  UNL     1     -34.445  15.061  -6.191  1.00 20.00     0.236 C 
HETATM    3  C3  UNL     1     -33.355  16.612  -4.647  1.00 20.00     0.251 C 
HETATM    4  C4  UNL     1     -33.577  17.289  -5.990  1.00 20.00     0.086 C 
HETATM    5  N8  UNL     1     -33.551  15.143  -4.967  1.00 20.00    -0.066 N 
HETATM    6  S9  UNL     1     -33.947  19.048  -5.800  1.00 20.00    -0.091 SA
HETATM    7  H24 UNL     1     -32.631  14.772  -5.245  1.00 20.00     0.280 HD
ENDROOT
BRANCH   5   8
HETATM    8  C7  UNL     1     -34.020  14.328  -3.805  1.00 20.00     0.180 C 
HETATM    9  C5  UNL     1     -35.036  13.315  -4.306  1.00 20.00     0.039 C 
HETATM   10  C6  UNL     1     -34.607  15.267  -2.763  1.00 20.00     0.039 C 
ENDBRANCH   5   8
TORSDOF 1
ENDMDL
MODEL 5
REMARK VINA RESULT:      -3.5      0.741      1.332
REMARK  1 active torsions:
REMARK  status: ('A' for Active; 'I' for Inactive)
REMARK    1  A    between atoms: C7_7  and  N8_8 
ROOT
HETATM    1  C1  UNL     1     -34.073  17.578  -3.357  1.00 20.00     0.045 C 
HETATM    2  C2  UNL     1     -33.717  16.893  -4.668  1.00 20.00     0.236 C 
HETATM    3  C3  UNL     1     -34.338  15.264  -2.953  1.00 20.00     0.251 C 
HETATM    4  C4  UNL     1     -33.782  16.519  -2.299  1.00 20.00     0.086 C 
HETATM    5  N8  UNL     1     -33.904  15.411  -4.399  1.00 20.00    -0.066 N 
HETATM    6  S9  UNL     1     -34.606  16.878  -0.730  1.00 20.00    -0.091 SA
HETATM    7  H24 UNL     1     -32.975  14.974  -4.477  1.00 20.00     0.280 HD
ENDROOT
BRANCH   5   8
HETATM    8  C7  UNL     1     -34.799  14.715  -5.372  1.00 20.00     0.180 C 
HETATM    9  C5  UNL     1     -34.780  13.226  -5.065  1.00 20.00     0.039 C 
HETATM   10  C6  UNL     1     -34.311  15.020  -6.779  1.00 20.00     0.039 C 
ENDBRANCH   5   8
TORSDOF 1
ENDMDL
MODEL 6
REMARK VINA RESULT:      -3.4      1.628      2.439
REMARK  1 active torsions:
REMARK  status: ('A' for Active; 'I' for Inactive)
REMARK    1  A    between atoms: C7_7  and  N8_8 
ROOT
HETATM    1  C1  UNL     1     -34.408  16.644  -1.334  1.00 20.00     0.045 C 
HETATM    2  C2  UNL     1     -34.938  15.633  -2.341  1.00 20.00     0.236 C 
HETATM    3  C3  UNL     1     -33.762  17.465  -3.454  1.00 20.00     0.251 C 
HETATM    4  C4  UNL     1     -34.329  17.944  -2.127  1.00 20.00     0.086 C 
HETATM    5  N8  UNL     1     -34.506  16.165  -3.695  1.00 20.00    -0.066 N 
HETATM    6  S9  UNL     1     -33.249  19.159  -1.337  1.00 20.00    -0.091 SA
HETATM    7  H24 UNL     1     -35.365  16.404  -4.210  1.00 20.00     0.280 HD
ENDROOT
BRANCH   5   8
HETATM    8  C7  UNL     1     -33.751  15.183  -4.532  1.00 20.00     0.180 C 
HETATM    9  C5  UNL     1     -34.439  15.074  -5.883  1.00 20.00     0.039 C 
HETATM   10  C6  UNL     1     -33.711  13.853  -3.796  1.00 20.00     0.039 C 
ENDBRANCH   5   8
TORSDOF 1
ENDMDL
MODEL 7
REMARK VINA RESULT:      -3.3      2.339      3.920
REMARK  1 active torsions:
REMARK  status: ('A' for Active; 'I' for Inactive)
REMARK    1  A    between atoms: C7_7  and  N8_8 
ROOT
HETATM    1  C1  UNL     1     -33.340  15.948  -4.542  1.00 20.00     0.045 C 
HETATM    2  C2  UNL     1     -33.632  17.359  -4.054  1.00 20.00     0.236 C 
HETATM    3  C3  UNL     1     -35.284  15.766  -3.210  1.00 20.00     0.251 C 
HETATM    4  C4  UNL     1     -34.702  15.264  -4.523  1.00 20.00     0.086 C 
HETATM    5  N8  UNL     1     -34.873  17.226  -3.191  1.00 20.00    -0.066 N 
HETATM    6  S9  UNL     1     -34.560  13.462  -4.545  1.00 20.00    -0.091 SA
HETATM    7  H24 UNL     1     -35.622  17.753  -3.662  1.00 20.00     0.280 HD
ENDROOT
BRANCH   5   8
HETATM    8  C7  UNL     1     -34.733  17.796  -1.816  1.00 20.00     0.180 C 
HETATM    9  C5  UNL     1     -33.516  18.706  -1.794  1.00 20.00     0.039 C 
HETATM   10  C6  UNL     1     -34.614  16.647  -0.828  1.00 20.00     0.039 C 
ENDBRANCH   5   8
TORSDOF 1
ENDMDL
MODEL 8
REMARK VINA RESULT:      -3.3      2.717      4.183
REMARK  1 active torsions:
REMARK  status: ('A' for Active; 'I' for Inactive)
REMARK    1  A    between atoms: C7_7  and  N8_8 
ROOT
HETATM    1  C1  UNL     1     -36.387  15.568  -4.593  1.00 20.00     0.045 C 
HETATM    2  C2  UNL     1     -36.787  16.463  -3.429  1.00 20.00     0.236 C 
HETATM    3  C3  UNL     1     -34.884  15.043  -2.846  1.00 20.00     0.251 C 
HETATM    4  C4  UNL     1     -35.721  14.371  -3.923  1.00 20.00     0.086 C 
HETATM    5  N8  UNL     1     -35.808  16.125  -2.320  1.00 20.00    -0.066 N 
HETATM    6  S9  UNL     1     -34.696  13.428  -5.075  1.00 20.00    -0.091 SA
HETATM    7  H24 UNL     1     -36.355  15.705  -1.556  1.00 20.00     0.280 HD
ENDROOT
BRANCH   5   8
HETATM    8  C7  UNL     1     -35.092  17.306  -1.749  1.00 20.00     0.180 C 
HETATM    9  C5  UNL     1     -33.880  17.601  -2.617  1.00 20.00     0.039 C 
HETATM   10  C6  UNL     1     -34.708  16.987  -0.312  1.00 20.00     0.039 C 
ENDBRANCH   5   8
TORSDOF 1
ENDMDL
MODEL 9
REMARK VINA RESULT:      -3.3      2.573      3.705
REMARK  1 active torsions:
REMARK  status: ('A' for Active; 'I' for Inactive)
REMARK    1  A    between atoms: C7_7  and  N8_8 
ROOT
HETATM    1  C1  UNL     1     -34.253  15.833  -6.845  1.00 20.00     0.045 C 
HETATM    2  C2  UNL     1     -33.511  16.344  -5.618  1.00 20.00     0.236 C 
HETATM    3  C3  UNL     1     -35.785  15.641  -5.056  1.00 20.00     0.251 C 
HETATM    4  C4  UNL     1     -35.721  16.073  -6.512  1.00 20.00     0.086 C 
HETATM    5  N8  UNL     1     -34.501  16.203  -4.476  1.00 20.00    -0.066 N 
HETATM    6  S9  UNL     1     -36.825  15.089  -7.551  1.00 20.00    -0.091 SA
HETATM    7  H24 UNL     1     -34.713  17.155  -4.147  1.00 20.00     0.280 HD
ENDROOT
BRANCH   5   8
HETATM    8  C7  UNL     1     -33.983  15.438  -3.301  1.00 20.00     0.180 C 
HETATM    9  C5  UNL     1     -34.277  13.963  -3.519  1.00 20.00     0.039 C 
HETATM   10  C6  UNL     1     -34.645  15.979  -2.044  1.00 20.00     0.039 C 
ENDBRANCH   5   8
TORSDOF 1
ENDMDL
