MODEL 1
REMARK VINA RESULT:      -5.2      0.000      0.000
REMARK  1 active torsions:
REMARK  status: ('A' for Active; 'I' for Inactive)
REMARK    1  A    between atoms: C3_3  and  C8_8 
ROOT
HETATM    1  C1  UNL     1     -34.116  15.710  -6.527  1.00 20.00    -0.029 C 
HETATM    2  C2  UNL     1     -33.367  16.404  -5.663  1.00 20.00    -0.030 C 
HETATM    3  C4  UNL     1     -35.387  15.000  -6.183  1.00 20.00     0.045 C 
HETATM    4  C5  UNL     1     -33.678  16.543  -4.210  1.00 20.00     0.037 C 
HETATM    5  C6  UNL     1     -35.028  13.329  -4.242  1.00 20.00     0.019 C 
HETATM    6  C7  UNL     1     -33.734  13.982  -3.744  1.00 20.00     0.012 C 
HETATM    7  C8  UNL     1     -35.568  14.740  -4.673  1.00 20.00     0.031 C 
HETATM    8  C9  UNL     1     -34.480  15.350  -3.682  1.00 20.00    -0.026 C 
HETATM    9  C11 UNL     1     -34.968  15.642  -2.253  1.00 20.00     0.016 C 
ENDROOT
BRANCH   7  10
HETATM   10  C3  UNL     1     -37.062  14.993  -4.277  1.00 20.00     0.132 C 
HETATM   11  C10 UNL     1     -37.652  16.317  -4.680  1.00 20.00     0.091 C 
HETATM   12  O12 UNL     1     -37.720  14.151  -3.670  1.00 20.00    -0.298 OA
ENDBRANCH   7  10
TORSDOF 1
ENDMDL
MODEL 2
REMARK VINA RESULT:      -5.1      1.943      3.660
REMARK  1 active torsions:
REMARK  status: ('A' for Active; 'I' for Inactive)
REMARK    1  A    between atoms: C3_3  and  C8_8 
ROOT
HETATM    1  C1  UNL     1     -33.550  13.549  -3.900  1.00 20.00    -0.029 C 
HETATM    2  C2  UNL     1     -34.810  13.333  -4.294  1.00 20.00    -0.030 C 
HETATM    3  C4  UNL     1     -32.999  14.874  -3.477  1.00 20.00     0.045 C 
HETATM    4  C5  UNL     1     -35.849  14.401  -4.401  1.00 20.00     0.037 C 
HETATM    5  C6  UNL     1     -33.356  16.663  -5.310  1.00 20.00     0.019 C 
HETATM    6  C7  UNL     1     -34.471  15.894  -6.029  1.00 20.00     0.012 C 
HETATM    7  C8  UNL     1     -33.846  16.079  -3.936  1.00 20.00     0.031 C 
HETATM    8  C9  UNL     1     -35.228  15.775  -4.670  1.00 20.00    -0.026 C 
HETATM    9  C11 UNL     1     -36.304  16.866  -4.546  1.00 20.00     0.016 C 
ENDROOT
BRANCH   7  10
HETATM   10  C3  UNL     1     -33.911  17.138  -2.785  1.00 20.00     0.132 C 
HETATM   11  C10 UNL     1     -34.329  16.638  -1.429  1.00 20.00     0.091 C 
HETATM   12  O12 UNL     1     -33.631  18.320  -2.979  1.00 20.00    -0.298 OA
ENDBRANCH   7  10
TORSDOF 1
ENDMDL
MODEL 3
REMARK VINA RESULT:      -5.0      1.352      3.337
REMARK  1 active torsions:
REMARK  status: ('A' for Active; 'I' for Inactive)
REMARK    1  A    between atoms: C3_3  and  C8_8 
ROOT
HETATM    1  C1  UNL     1     -34.197  17.113  -2.368  1.00 20.00    -0.029 C 
HETATM    2  C2  UNL     1     -33.747  17.793  -3.430  1.00 20.00    -0.030 C 
HETATM    3  C4  UNL     1     -34.620  15.679  -2.385  1.00 20.00     0.045 C 
HETATM    4  C5  UNL     1     -33.633  17.219  -4.804  1.00 20.00     0.037 C 
HETATM    5  C6  UNL     1     -36.447  15.263  -4.166  1.00 20.00     0.019 C 
HETATM    6  C7  UNL     1     -36.139  16.532  -4.971  1.00 20.00     0.012 C 
HETATM    7  C8  UNL     1     -34.927  15.134  -3.795  1.00 20.00     0.031 C 
HETATM    8  C9  UNL     1     -34.643  16.092  -5.036  1.00 20.00    -0.026 C 
HETATM    9  C11 UNL     1     -34.339  15.387  -6.368  1.00 20.00     0.016 C 
ENDROOT
BRANCH   7  10
HETATM   10  C3  UNL     1     -34.367  13.677  -3.923  1.00 20.00     0.132 C 
HETATM   11  C10 UNL     1     -32.926  13.471  -3.540  1.00 20.00     0.091 C 
HETATM   12  O12 UNL     1     -35.069  12.748  -4.315  1.00 20.00    -0.298 OA
ENDBRANCH   7  10
TORSDOF 1
ENDMDL
MODEL 4
REMARK VINA RESULT:      -4.8      1.407      2.612
REMARK  1 active torsions:
REMARK  status: ('A' for Active; 'I' for Inactive)
REMARK    1  A    between atoms: C3_3  and  C8_8 
ROOT
HETATM    1  C1  UNL     1     -33.396  13.631  -3.884  1.00 20.00    -0.029 C 
HETATM    2  C2  UNL     1     -32.868  14.814  -3.548  1.00 20.00    -0.030 C 
HETATM    3  C4  UNL     1     -34.594  13.445  -4.760  1.00 20.00     0.045 C 
HETATM    4  C5  UNL     1     -33.426  16.131  -3.977  1.00 20.00     0.037 C 
HETATM    5  C6  UNL     1     -36.628  14.760  -3.853  1.00 20.00     0.019 C 
HETATM    6  C7  UNL     1     -35.795  15.708  -2.983  1.00 20.00     0.012 C 
HETATM    7  C8  UNL     1     -35.465  14.711  -4.907  1.00 20.00     0.031 C 
HETATM    8  C9  UNL     1     -34.933  16.055  -4.236  1.00 20.00    -0.026 C 
HETATM    9  C11 UNL     1     -35.416  17.361  -4.887  1.00 20.00     0.016 C 
ENDROOT
BRANCH   7  10
HETATM   10  C3  UNL     1     -35.948  14.839  -6.390  1.00 20.00     0.132 C 
HETATM   11  C10 UNL     1     -34.894  14.724  -7.458  1.00 20.00     0.091 C 
HETATM   12  O12 UNL     1     -37.131  15.023  -6.669  1.00 20.00    -0.298 OA
ENDBRANCH   7  10
TORSDOF 1
ENDMDL
MODEL 5
REMARK VINA RESULT:      -4.7      1.537      2.536
REMARK  1 active torsions:
REMARK  status: ('A' for Active; 'I' for Inactive)
REMARK    1  A    between atoms: C3_3  and  C8_8 
ROOT
HETATM    1  C1  UNL     1     -33.660  17.542  -5.032  1.00 20.00    -0.029 C 
HETATM    2  C2  UNL     1     -34.798  18.072  -4.569  1.00 20.00    -0.030 C 
HETATM    3  C4  UNL     1     -33.428  16.084  -5.273  1.00 20.00     0.045 C 
HETATM    4  C5  UNL     1     -36.001  17.271  -4.192  1.00 20.00     0.037 C 
HETATM    5  C6  UNL     1     -33.897  14.698  -3.141  1.00 20.00     0.019 C 
HETATM    6  C7  UNL     1     -34.748  15.780  -2.465  1.00 20.00     0.012 C 
HETATM    7  C8  UNL     1     -34.428  15.163  -4.544  1.00 20.00     0.031 C 
HETATM    8  C9  UNL     1     -35.627  15.853  -3.752  1.00 20.00    -0.026 C 
HETATM    9  C11 UNL     1     -36.899  15.004  -3.594  1.00 20.00     0.016 C 
ENDROOT
BRANCH   7  10
HETATM   10  C3  UNL     1     -34.833  13.983  -5.490  1.00 20.00     0.132 C 
HETATM   11  C10 UNL     1     -35.227  14.348  -6.896  1.00 20.00     0.091 C 
HETATM   12  O12 UNL     1     -34.829  12.816  -5.104  1.00 20.00    -0.298 OA
ENDBRANCH   7  10
TORSDOF 1
ENDMDL
MODEL 6
REMARK VINA RESULT:      -4.7      1.839      3.231
REMARK  1 active torsions:
REMARK  status: ('A' for Active; 'I' for Inactive)
REMARK    1  A    between atoms: C3_3  and  C8_8 
ROOT
HETATM    1  C1  UNL     1     -33.625  15.919  -2.684  1.00 20.00    -0.029 C 
HETATM    2  C2  UNL     1     -34.892  16.063  -2.277  1.00 20.00    -0.030 C 
HETATM    3  C4  UNL     1     -33.203  15.659  -4.095  1.00 20.00     0.045 C 
HETATM    4  C5  UNL     1     -36.078  15.953  -3.176  1.00 20.00     0.037 C 
HETATM    5  C6  UNL     1     -34.370  13.558  -5.049  1.00 20.00     0.019 C 
HETATM    6  C7  UNL     1     -35.502  13.555  -4.015  1.00 20.00     0.012 C 
HETATM    7  C8  UNL     1     -34.334  15.127  -4.999  1.00 20.00     0.031 C 
HETATM    8  C9  UNL     1     -35.799  15.043  -4.377  1.00 20.00    -0.026 C 
HETATM    9  C11 UNL     1     -36.958  15.140  -5.383  1.00 20.00     0.016 C 
ENDROOT
BRANCH   7  10
HETATM   10  C3  UNL     1     -34.235  15.803  -6.408  1.00 20.00     0.132 C 
HETATM   11  C10 UNL     1     -34.139  17.305  -6.432  1.00 20.00     0.091 C 
HETATM   12  O12 UNL     1     -34.234  15.140  -7.443  1.00 20.00    -0.298 OA
ENDBRANCH   7  10
TORSDOF 1
ENDMDL
MODEL 7
REMARK VINA RESULT:      -4.5      1.510      2.321
REMARK  1 active torsions:
REMARK  status: ('A' for Active; 'I' for Inactive)
REMARK    1  A    between atoms: C3_3  and  C8_8 
ROOT
HETATM    1  C1  UNL     1     -33.135  16.094  -4.152  1.00 20.00    -0.029 C 
HETATM    2  C2  UNL     1     -33.733  15.952  -2.963  1.00 20.00    -0.030 C 
HETATM    3  C4  UNL     1     -33.816  15.951  -5.476  1.00 20.00     0.045 C 
HETATM    4  C5  UNL     1     -35.172  15.596  -2.788  1.00 20.00     0.037 C 
HETATM    5  C6  UNL     1     -34.994  13.658  -5.680  1.00 20.00     0.019 C 
HETATM    6  C7  UNL     1     -35.030  13.394  -4.170  1.00 20.00     0.012 C 
HETATM    7  C8  UNL     1     -35.160  15.196  -5.411  1.00 20.00     0.031 C 
HETATM    8  C9  UNL     1     -35.707  14.785  -3.972  1.00 20.00    -0.026 C 
HETATM    9  C11 UNL     1     -37.233  14.639  -3.855  1.00 20.00     0.016 C 
ENDROOT
BRANCH   7  10
HETATM   10  C3  UNL     1     -36.195  15.896  -6.354  1.00 20.00     0.132 C 
HETATM   11  C10 UNL     1     -36.327  17.389  -6.226  1.00 20.00     0.091 C 
HETATM   12  O12 UNL     1     -36.866  15.256  -7.162  1.00 20.00    -0.298 OA
ENDBRANCH   7  10
TORSDOF 1
ENDMDL
MODEL 8
REMARK VINA RESULT:      -4.5      1.606      3.214
REMARK  1 active torsions:
REMARK  status: ('A' for Active; 'I' for Inactive)
REMARK    1  A    between atoms: C3_3  and  C8_8 
ROOT
HETATM    1  C1  UNL     1     -36.007  14.825  -7.778  1.00 20.00    -0.029 C 
HETATM    2  C2  UNL     1     -37.177  15.244  -7.281  1.00 20.00    -0.030 C 
HETATM    3  C4  UNL     1     -34.847  14.357  -6.959  1.00 20.00     0.045 C 
HETATM    4  C5  UNL     1     -37.483  15.334  -5.823  1.00 20.00     0.037 C 
HETATM    5  C6  UNL     1     -34.145  16.142  -5.225  1.00 20.00     0.019 C 
HETATM    6  C7  UNL     1     -35.477  16.899  -5.268  1.00 20.00     0.012 C 
HETATM    7  C8  UNL     1     -34.908  14.793  -5.480  1.00 20.00     0.031 C 
HETATM    8  C9  UNL     1     -36.218  15.555  -4.988  1.00 20.00    -0.026 C 
HETATM    9  C11 UNL     1     -36.550  15.415  -3.493  1.00 20.00     0.016 C 
ENDROOT
BRANCH   7  10
HETATM   10  C3  UNL     1     -34.429  13.613  -4.570  1.00 20.00     0.132 C 
HETATM   11  C10 UNL     1     -33.223  13.869  -3.708  1.00 20.00     0.091 C 
HETATM   12  O12 UNL     1     -35.012  12.530  -4.558  1.00 20.00    -0.298 OA
ENDBRANCH   7  10
TORSDOF 1
ENDMDL
MODEL 9
REMARK VINA RESULT:      -4.5      1.868      3.638
REMARK  1 active torsions:
REMARK  status: ('A' for Active; 'I' for Inactive)
REMARK    1  A    between atoms: C3_3  and  C8_8 
ROOT
HETATM    1  C1  UNL     1     -37.067  15.187  -3.450  1.00 20.00    -0.029 C 
HETATM    2  C2  UNL     1     -37.559  14.992  -4.679  1.00 20.00    -0.030 C 
HETATM    3  C4  UNL     1     -35.642  15.516  -3.140  1.00 20.00     0.045 C 
HETATM    4  C5  UNL     1     -36.740  15.043  -5.926  1.00 20.00     0.037 C 
HETATM    5  C6  UNL     1     -34.035  13.755  -4.143  1.00 20.00     0.019 C 
HETATM    6  C7  UNL     1     -35.048  13.218  -5.161  1.00 20.00     0.012 C 
HETATM    7  C8  UNL     1     -34.660  15.189  -4.285  1.00 20.00     0.031 C 
HETATM    8  C9  UNL     1     -35.276  14.677  -5.662  1.00 20.00    -0.026 C 
HETATM    9  C11 UNL     1     -34.434  14.962  -6.916  1.00 20.00     0.016 C 
ENDROOT
BRANCH   7  10
HETATM   10  C3  UNL     1     -33.598  16.333  -4.402  1.00 20.00     0.132 C 
HETATM   11  C10 UNL     1     -34.101  17.742  -4.240  1.00 20.00     0.091 C 
HETATM   12  O12 UNL     1     -32.411  16.093  -4.614  1.00 20.00    -0.298 OA
ENDBRANCH   7  10
TORSDOF 1
ENDMDL
