MODEL 1
REMARK VINA RESULT:      -3.6      0.000      0.000
REMARK  1 active torsions:
REMARK  status: ('A' for Active; 'I' for Inactive)
REMARK    1  A    between atoms: C2_2  and  C4_4 
ROOT
HETATM    1  C1  UNL     1     -35.948  15.665  -3.071  1.00 20.00     0.076 A 
HETATM    2  C2  UNL     1     -34.659  15.604  -2.730  1.00 20.00     0.053 A 
HETATM    3  C3  UNL     1     -34.992  13.572  -4.284  1.00 20.00     0.255 A 
HETATM    4  O5  UNL     1     -34.843  12.563  -4.958  1.00 20.00    -0.272 OA
HETATM    5  S7  UNL     1     -36.529  14.424  -4.135  1.00 20.00    -0.051 SA
HETATM    6  S8  UNL     1     -33.695  14.325  -3.360  1.00 20.00    -0.037 SA
ENDROOT
BRANCH   2   7
HETATM    7  C4  UNL     1     -34.051  16.589  -1.843  1.00 20.00     0.278 C 
HETATM    8  O6  UNL     1     -34.363  16.703  -0.660  1.00 20.00    -0.301 OA
ENDBRANCH   2   7
TORSDOF 1
ENDMDL
MODEL 2
REMARK VINA RESULT:      -3.5      2.300      3.156
REMARK  1 active torsions:
REMARK  status: ('A' for Active; 'I' for Inactive)
REMARK    1  A    between atoms: C2_2  and  C4_4 
ROOT
HETATM    1  C1  UNL     1     -35.403  15.915  -3.321  1.00 20.00     0.076 A 
HETATM    2  C2  UNL     1     -36.140  14.922  -3.824  1.00 20.00     0.053 A 
HETATM    3  C3  UNL     1     -33.760  13.933  -3.691  1.00 20.00     0.255 A 
HETATM    4  O5  UNL     1     -32.776  13.210  -3.750  1.00 20.00    -0.272 OA
HETATM    5  S7  UNL     1     -33.715  15.591  -3.091  1.00 20.00    -0.051 SA
HETATM    6  S8  UNL     1     -35.370  13.427  -4.196  1.00 20.00    -0.037 SA
ENDROOT
BRANCH   2   7
HETATM    7  C4  UNL     1     -37.570  15.069  -4.063  1.00 20.00     0.278 C 
HETATM    8  O6  UNL     1     -38.374  14.158  -3.881  1.00 20.00    -0.301 OA
ENDBRANCH   2   7
TORSDOF 1
ENDMDL
MODEL 3
REMARK VINA RESULT:      -3.4      2.009      4.100
REMARK  1 active torsions:
REMARK  status: ('A' for Active; 'I' for Inactive)
REMARK    1  A    between atoms: C2_2  and  C4_4 
ROOT
HETATM    1  C1  UNL     1     -34.030  15.767  -5.683  1.00 20.00     0.076 A 
HETATM    2  C2  UNL     1     -34.393  14.863  -4.771  1.00 20.00     0.053 A 
HETATM    3  C3  UNL     1     -33.837  16.965  -3.381  1.00 20.00     0.255 A 
HETATM    4  O5  UNL     1     -33.651  17.771  -2.482  1.00 20.00    -0.272 OA
HETATM    5  S7  UNL     1     -33.581  17.333  -5.087  1.00 20.00    -0.051 SA
HETATM    6  S8  UNL     1     -34.388  15.314  -3.110  1.00 20.00    -0.037 SA
ENDROOT
BRANCH   2   7
HETATM    7  C4  UNL     1     -34.792  13.511  -5.144  1.00 20.00     0.278 C 
HETATM    8  O6  UNL     1     -35.043  12.638  -4.318  1.00 20.00    -0.301 OA
ENDBRANCH   2   7
TORSDOF 1
ENDMDL
MODEL 4
REMARK VINA RESULT:      -3.4      2.958      4.087
REMARK  1 active torsions:
REMARK  status: ('A' for Active; 'I' for Inactive)
REMARK    1  A    between atoms: C2_2  and  C4_4 
ROOT
HETATM    1  C1  UNL     1     -34.707  14.856  -6.073  1.00 20.00     0.076 A 
HETATM    2  C2  UNL     1     -34.215  14.770  -4.835  1.00 20.00     0.053 A 
HETATM    3  C3  UNL     1     -33.701  17.197  -5.544  1.00 20.00     0.255 A 
HETATM    4  O5  UNL     1     -33.328  18.360  -5.592  1.00 20.00    -0.272 OA
HETATM    5  S7  UNL     1     -34.531  16.386  -6.872  1.00 20.00    -0.051 SA
HETATM    6  S8  UNL     1     -33.464  16.155  -4.143  1.00 20.00    -0.037 SA
ENDROOT
BRANCH   2   7
HETATM    7  C4  UNL     1     -34.301  13.539  -4.058  1.00 20.00     0.278 C 
HETATM    8  O6  UNL     1     -35.060  12.618  -4.350  1.00 20.00    -0.301 OA
ENDBRANCH   2   7
TORSDOF 1
ENDMDL
MODEL 5
REMARK VINA RESULT:      -3.3      2.495      4.101
REMARK  1 active torsions:
REMARK  status: ('A' for Active; 'I' for Inactive)
REMARK    1  A    between atoms: C2_2  and  C4_4 
ROOT
HETATM    1  C1  UNL     1     -34.410  15.223  -3.343  1.00 20.00     0.076 A 
HETATM    2  C2  UNL     1     -34.386  14.900  -4.639  1.00 20.00     0.053 A 
HETATM    3  C3  UNL     1     -33.668  17.378  -4.596  1.00 20.00     0.255 A 
HETATM    4  O5  UNL     1     -33.314  18.511  -4.889  1.00 20.00    -0.272 OA
HETATM    5  S7  UNL     1     -33.972  16.852  -2.940  1.00 20.00    -0.051 SA
HETATM    6  S8  UNL     1     -33.928  16.102  -5.782  1.00 20.00    -0.037 SA
ENDROOT
BRANCH   2   7
HETATM    7  C4  UNL     1     -34.733  13.564  -5.105  1.00 20.00     0.278 C 
HETATM    8  O6  UNL     1     -35.029  12.647  -4.342  1.00 20.00    -0.301 OA
ENDBRANCH   2   7
TORSDOF 1
ENDMDL
MODEL 6
REMARK VINA RESULT:      -3.3      2.990      3.411
REMARK  1 active torsions:
REMARK  status: ('A' for Active; 'I' for Inactive)
REMARK    1  A    between atoms: C2_2  and  C4_4 
ROOT
HETATM    1  C1  UNL     1     -33.261  16.048  -4.520  1.00 20.00     0.076 A 
HETATM    2  C2  UNL     1     -34.011  16.169  -5.618  1.00 20.00     0.053 A 
HETATM    3  C3  UNL     1     -34.420  13.742  -4.844  1.00 20.00     0.255 A 
HETATM    4  O5  UNL     1     -34.799  12.585  -4.734  1.00 20.00    -0.272 OA
HETATM    5  S7  UNL     1     -33.298  14.509  -3.721  1.00 20.00    -0.051 SA
HETATM    6  S8  UNL     1     -34.936  14.816  -6.142  1.00 20.00    -0.037 SA
ENDROOT
BRANCH   2   7
HETATM    7  C4  UNL     1     -34.066  17.411  -6.379  1.00 20.00     0.278 C 
HETATM    8  O6  UNL     1     -33.509  18.443  -6.012  1.00 20.00    -0.301 OA
ENDBRANCH   2   7
TORSDOF 1
ENDMDL
MODEL 7
REMARK VINA RESULT:      -3.3      2.464      3.307
REMARK  1 active torsions:
REMARK  status: ('A' for Active; 'I' for Inactive)
REMARK    1  A    between atoms: C2_2  and  C4_4 
ROOT
HETATM    1  C1  UNL     1     -35.893  13.687  -4.511  1.00 20.00     0.076 A 
HETATM    2  C2  UNL     1     -36.223  14.754  -3.780  1.00 20.00     0.053 A 
HETATM    3  C3  UNL     1     -33.644  14.718  -3.710  1.00 20.00     0.255 A 
HETATM    4  O5  UNL     1     -32.465  14.957  -3.496  1.00 20.00    -0.272 OA
HETATM    5  S7  UNL     1     -34.199  13.355  -4.681  1.00 20.00    -0.051 SA
HETATM    6  S8  UNL     1     -34.965  15.698  -3.080  1.00 20.00    -0.037 SA
ENDROOT
BRANCH   2   7
HETATM    7  C4  UNL     1     -37.612  15.139  -3.564  1.00 20.00     0.278 C 
HETATM    8  O6  UNL     1     -38.546  14.348  -3.665  1.00 20.00    -0.301 OA
ENDBRANCH   2   7
TORSDOF 1
ENDMDL
MODEL 8
REMARK VINA RESULT:      -3.3      2.599      2.631
REMARK  1 active torsions:
REMARK  status: ('A' for Active; 'I' for Inactive)
REMARK    1  A    between atoms: C2_2  and  C4_4 
ROOT
HETATM    1  C1  UNL     1     -34.626  16.037  -6.022  1.00 20.00     0.076 A 
HETATM    2  C2  UNL     1     -34.100  16.219  -4.808  1.00 20.00     0.053 A 
HETATM    3  C3  UNL     1     -34.722  13.716  -4.851  1.00 20.00     0.255 A 
HETATM    4  O5  UNL     1     -34.901  12.538  -4.577  1.00 20.00    -0.272 OA
HETATM    5  S7  UNL     1     -35.164  14.432  -6.401  1.00 20.00    -0.051 SA
HETATM    6  S8  UNL     1     -33.998  14.874  -3.739  1.00 20.00    -0.037 SA
ENDROOT
BRANCH   2   7
HETATM    7  C4  UNL     1     -33.611  17.521  -4.370  1.00 20.00     0.278 C 
HETATM    8  O6  UNL     1     -33.307  18.417  -5.153  1.00 20.00    -0.301 OA
ENDBRANCH   2   7
TORSDOF 1
ENDMDL
MODEL 9
REMARK VINA RESULT:      -3.2      1.907      2.021
REMARK  1 active torsions:
REMARK  status: ('A' for Active; 'I' for Inactive)
REMARK    1  A    between atoms: C2_2  and  C4_4 
ROOT
HETATM    1  C1  UNL     1     -34.467  14.251  -3.411  1.00 20.00     0.076 A 
HETATM    2  C2  UNL     1     -34.133  15.542  -3.462  1.00 20.00     0.053 A 
HETATM    3  C3  UNL     1     -34.325  14.846  -5.940  1.00 20.00     0.255 A 
HETATM    4  O5  UNL     1     -34.335  14.818  -7.161  1.00 20.00    -0.272 OA
HETATM    5  S7  UNL     1     -34.684  13.444  -4.932  1.00 20.00    -0.051 SA
HETATM    6  S8  UNL     1     -33.950  16.290  -5.002  1.00 20.00    -0.037 SA
ENDROOT
BRANCH   2   7
HETATM    7  C4  UNL     1     -33.923  16.331  -2.255  1.00 20.00     0.278 C 
HETATM    8  O6  UNL     1     -34.624  16.214  -1.252  1.00 20.00    -0.301 OA
ENDBRANCH   2   7
TORSDOF 1
ENDMDL
