MODEL 1
REMARK VINA RESULT:      -4.8      0.000      0.000
REMARK  0 active torsions:
REMARK  status: ('A' for Active; 'I' for Inactive)
ROOT
HETATM    1  C1  UNL     1     -33.910  15.833  -5.679  1.00 20.00     0.022 A 
HETATM    2  C2  UNL     1     -34.426  13.642  -3.509  1.00 20.00     0.120 C 
HETATM    3  C3  UNL     1     -34.858  13.660  -5.758  1.00 20.00     0.101 C 
HETATM    4  C4  UNL     1     -35.049  15.136  -5.742  1.00 20.00     0.025 A 
HETATM    5  C5  UNL     1     -34.528  14.981  -3.380  1.00 20.00    -0.048 C 
HETATM    6  C6  UNL     1     -33.812  17.029  -1.959  1.00 20.00     0.014 A 
HETATM    7  C7  UNL     1     -35.380  17.167  -4.079  1.00 20.00     0.021 C 
HETATM    8  C8  UNL     1     -34.628  15.779  -2.142  1.00 20.00     0.021 A 
HETATM    9  C9  UNL     1     -35.184  17.133  -2.571  1.00 20.00    -0.005 A 
HETATM   10  C10 UNL     1     -34.769  15.880  -4.532  1.00 20.00     0.004 A 
HETATM   11  N11 UNL     1     -34.539  12.956  -4.709  1.00 20.00    -0.276 NA
ENDROOT
TORSDOF 0
ENDMDL
MODEL 2
REMARK VINA RESULT:      -4.8      1.496      3.481
REMARK  0 active torsions:
REMARK  status: ('A' for Active; 'I' for Inactive)
ROOT
HETATM    1  C1  UNL     1     -34.439  16.287  -4.249  1.00 20.00     0.022 A 
HETATM    2  C2  UNL     1     -34.487  13.236  -4.932  1.00 20.00     0.120 C 
HETATM    3  C3  UNL     1     -33.106  14.448  -3.566  1.00 20.00     0.101 C 
HETATM    4  C4  UNL     1     -33.272  15.658  -4.417  1.00 20.00     0.025 A 
HETATM    5  C5  UNL     1     -34.751  14.276  -5.750  1.00 20.00    -0.048 C 
HETATM    6  C6  UNL     1     -36.461  15.262  -7.433  1.00 20.00     0.014 A 
HETATM    7  C7  UNL     1     -34.180  16.422  -6.781  1.00 20.00     0.021 C 
HETATM    8  C8  UNL     1     -35.397  14.260  -7.077  1.00 20.00     0.021 A 
HETATM    9  C9  UNL     1     -35.021  15.584  -7.733  1.00 20.00    -0.005 A 
HETATM   10  C10 UNL     1     -34.222  15.638  -5.509  1.00 20.00     0.004 A 
HETATM   11  N11 UNL     1     -33.699  13.310  -3.794  1.00 20.00    -0.276 NA
ENDROOT
TORSDOF 0
ENDMDL
MODEL 3
REMARK VINA RESULT:      -4.8      1.265      2.905
REMARK  0 active torsions:
REMARK  status: ('A' for Active; 'I' for Inactive)
ROOT
HETATM    1  C1  UNL     1     -34.023  15.630  -3.178  1.00 20.00     0.022 A 
HETATM    2  C2  UNL     1     -34.965  13.751  -5.493  1.00 20.00     0.120 C 
HETATM    3  C3  UNL     1     -33.499  13.394  -3.770  1.00 20.00     0.101 C 
HETATM    4  C4  UNL     1     -33.117  14.833  -3.754  1.00 20.00     0.025 A 
HETATM    5  C5  UNL     1     -34.736  15.080  -5.541  1.00 20.00    -0.048 C 
HETATM    6  C6  UNL     1     -35.731  17.373  -6.231  1.00 20.00     0.014 A 
HETATM    7  C7  UNL     1     -33.331  17.051  -5.178  1.00 20.00     0.021 C 
HETATM    8  C8  UNL     1     -35.130  16.042  -6.589  1.00 20.00     0.021 A 
HETATM    9  C9  UNL     1     -34.237  17.261  -6.383  1.00 20.00    -0.005 A 
HETATM   10  C10 UNL     1     -33.833  15.771  -4.592  1.00 20.00     0.004 A 
HETATM   11  N11 UNL     1     -34.390  12.886  -4.574  1.00 20.00    -0.276 NA
ENDROOT
TORSDOF 0
ENDMDL
MODEL 4
REMARK VINA RESULT:      -4.7      1.916      3.886
REMARK  0 active torsions:
REMARK  status: ('A' for Active; 'I' for Inactive)
ROOT
HETATM    1  C1  UNL     1     -33.577  16.261  -2.956  1.00 20.00     0.022 A 
HETATM    2  C2  UNL     1     -36.638  16.563  -3.517  1.00 20.00     0.120 C 
HETATM    3  C3  UNL     1     -35.384  17.121  -1.683  1.00 20.00     0.101 C 
HETATM    4  C4  UNL     1     -34.431  16.012  -1.958  1.00 20.00     0.025 A 
HETATM    5  C5  UNL     1     -35.818  15.559  -3.893  1.00 20.00    -0.048 C 
HETATM    6  C6  UNL     1     -35.013  14.127  -5.898  1.00 20.00     0.014 A 
HETATM    7  C7  UNL     1     -34.159  13.823  -3.418  1.00 20.00     0.021 C 
HETATM    8  C8  UNL     1     -36.063  14.498  -4.889  1.00 20.00     0.021 A 
HETATM    9  C9  UNL     1     -35.049  13.403  -4.578  1.00 20.00    -0.005 A 
HETATM   10  C10 UNL     1     -34.561  15.243  -3.177  1.00 20.00     0.004 A 
HETATM   11  N11 UNL     1     -36.414  17.399  -2.433  1.00 20.00    -0.276 NA
ENDROOT
TORSDOF 0
ENDMDL
MODEL 5
REMARK VINA RESULT:      -4.7     11.260     12.576
REMARK  0 active torsions:
REMARK  status: ('A' for Active; 'I' for Inactive)
ROOT
HETATM    1  C1  UNL     1     -41.544   4.557  -0.202  1.00 20.00     0.022 A 
HETATM    2  C2  UNL     1     -42.986   4.980  -2.944  1.00 20.00     0.120 C 
HETATM    3  C3  UNL     1     -41.415   3.446  -2.293  1.00 20.00     0.101 C 
HETATM    4  C4  UNL     1     -40.829   4.410  -1.322  1.00 20.00     0.025 A 
HETATM    5  C5  UNL     1     -42.573   5.919  -2.068  1.00 20.00    -0.048 C 
HETATM    6  C6  UNL     1     -43.291   8.015  -0.721  1.00 20.00     0.014 A 
HETATM    7  C7  UNL     1     -40.866   6.971  -0.663  1.00 20.00     0.021 C 
HETATM    8  C8  UNL     1     -42.930   7.351  -2.020  1.00 20.00     0.021 A 
HETATM    9  C9  UNL     1     -41.853   8.014  -1.168  1.00 20.00    -0.005 A 
HETATM   10  C10 UNL     1     -41.485   5.680  -1.092  1.00 20.00     0.004 A 
HETATM   11  N11 UNL     1     -42.449   3.705  -3.043  1.00 20.00    -0.276 NA
ENDROOT
TORSDOF 0
ENDMDL
MODEL 6
REMARK VINA RESULT:      -4.6      1.426      2.236
REMARK  0 active torsions:
REMARK  status: ('A' for Active; 'I' for Inactive)
ROOT
HETATM    1  C1  UNL     1     -34.874  13.461  -4.354  1.00 20.00     0.022 A 
HETATM    2  C2  UNL     1     -36.362  16.128  -5.023  1.00 20.00     0.120 C 
HETATM    3  C3  UNL     1     -35.655  14.422  -6.377  1.00 20.00     0.101 C 
HETATM    4  C4  UNL     1     -34.521  14.123  -5.460  1.00 20.00     0.025 A 
HETATM    5  C5  UNL     1     -35.404  15.920  -4.096  1.00 20.00    -0.048 C 
HETATM    6  C6  UNL     1     -34.774  16.233  -1.600  1.00 20.00     0.014 A 
HETATM    7  C7  UNL     1     -33.194  15.127  -3.404  1.00 20.00     0.021 C 
HETATM    8  C8  UNL     1     -35.005  16.794  -2.976  1.00 20.00     0.021 A 
HETATM    9  C9  UNL     1     -33.617  16.320  -2.560  1.00 20.00    -0.005 A 
HETATM   10  C10 UNL     1     -34.425  14.813  -4.192  1.00 20.00     0.004 A 
HETATM   11  N11 UNL     1     -36.540  15.354  -6.159  1.00 20.00    -0.276 NA
ENDROOT
TORSDOF 0
ENDMDL
MODEL 7
REMARK VINA RESULT:      -4.6      1.746      2.717
REMARK  0 active torsions:
REMARK  status: ('A' for Active; 'I' for Inactive)
ROOT
HETATM    1  C1  UNL     1     -34.515  15.772  -2.291  1.00 20.00     0.022 A 
HETATM    2  C2  UNL     1     -35.015  13.342  -4.194  1.00 20.00     0.120 C 
HETATM    3  C3  UNL     1     -33.080  14.416  -3.605  1.00 20.00     0.101 C 
HETATM    4  C4  UNL     1     -33.809  15.700  -3.425  1.00 20.00     0.025 A 
HETATM    5  C5  UNL     1     -35.789  14.433  -4.017  1.00 20.00    -0.048 C 
HETATM    6  C6  UNL     1     -38.193  15.260  -3.508  1.00 20.00     0.014 A 
HETATM    7  C7  UNL     1     -36.133  16.856  -3.936  1.00 20.00     0.021 C 
HETATM    8  C8  UNL     1     -37.186  14.646  -4.441  1.00 20.00     0.021 A 
HETATM    9  C9  UNL     1     -37.396  16.156  -4.418  1.00 20.00    -0.005 A 
HETATM   10  C10 UNL     1     -35.254  15.721  -3.519  1.00 20.00     0.004 A 
HETATM   11  N11 UNL     1     -33.652  13.294  -3.945  1.00 20.00    -0.276 NA
ENDROOT
TORSDOF 0
ENDMDL
MODEL 8
REMARK VINA RESULT:      -4.6      1.515      1.944
REMARK  0 active torsions:
REMARK  status: ('A' for Active; 'I' for Inactive)
ROOT
HETATM    1  C1  UNL     1     -34.666  14.674  -6.614  1.00 20.00     0.022 A 
HETATM    2  C2  UNL     1     -33.282  14.726  -3.811  1.00 20.00     0.120 C 
HETATM    3  C3  UNL     1     -34.601  13.140  -4.806  1.00 20.00     0.101 C 
HETATM    4  C4  UNL     1     -35.339  14.185  -5.567  1.00 20.00     0.025 A 
HETATM    5  C5  UNL     1     -33.844  15.754  -4.480  1.00 20.00    -0.048 C 
HETATM    6  C6  UNL     1     -33.474  18.171  -5.342  1.00 20.00     0.014 A 
HETATM    7  C7  UNL     1     -35.707  16.802  -5.674  1.00 20.00     0.021 C 
HETATM    8  C8  UNL     1     -33.715  17.200  -4.219  1.00 20.00     0.021 A 
HETATM    9  C9  UNL     1     -34.889  17.854  -4.938  1.00 20.00    -0.005 A 
HETATM   10  C10 UNL     1     -34.891  15.560  -5.510  1.00 20.00     0.004 A 
HETATM   11  N11 UNL     1     -33.612  13.392  -3.994  1.00 20.00    -0.276 NA
ENDROOT
TORSDOF 0
ENDMDL
MODEL 9
REMARK VINA RESULT:      -4.5      1.675      2.825
REMARK  0 active torsions:
REMARK  status: ('A' for Active; 'I' for Inactive)
ROOT
HETATM    1  C1  UNL     1     -35.704  15.555  -2.981  1.00 20.00     0.022 A 
HETATM    2  C2  UNL     1     -33.450  17.207  -4.383  1.00 20.00     0.120 C 
HETATM    3  C3  UNL     1     -33.962  14.977  -4.483  1.00 20.00     0.101 C 
HETATM    4  C4  UNL     1     -34.491  15.003  -3.092  1.00 20.00     0.025 A 
HETATM    5  C5  UNL     1     -33.945  17.364  -3.138  1.00 20.00    -0.048 C 
HETATM    6  C6  UNL     1     -34.938  19.071  -1.457  1.00 20.00     0.014 A 
HETATM    7  C7  UNL     1     -34.548  16.515  -0.922  1.00 20.00     0.021 C 
HETATM    8  C8  UNL     1     -33.771  18.505  -2.218  1.00 20.00     0.021 A 
HETATM    9  C9  UNL     1     -34.119  17.972  -0.833  1.00 20.00    -0.005 A 
HETATM   10  C10 UNL     1     -34.606  16.267  -2.395  1.00 20.00     0.004 A 
HETATM   11  N11 UNL     1     -33.492  16.023  -5.104  1.00 20.00    -0.276 NA
ENDROOT
TORSDOF 0
ENDMDL
