MODEL 1
REMARK VINA RESULT:      -4.9      0.000      0.000
REMARK  2 active torsions:
REMARK  status: ('A' for Active; 'I' for Inactive)
REMARK    1  A    between atoms: C4_4  and  C5_5 
REMARK    2  A    between atoms: C6_6  and  C10_10 
ROOT
HETATM    1  C1  UNL     1     -33.698  13.867  -3.787  1.00 20.00    -0.003 C 
HETATM    2  C2  UNL     1     -35.083  13.756  -4.160  1.00 20.00     0.010 C 
HETATM    3  C3  UNL     1     -33.185  15.014  -3.325  1.00 20.00    -0.021 C 
HETATM    4  C4  UNL     1     -35.945  14.759  -3.941  1.00 20.00    -0.016 C 
HETATM    5  C6  UNL     1     -34.001  16.275  -3.174  1.00 20.00     0.016 C 
HETATM    6  C7  UNL     1     -35.551  16.079  -3.314  1.00 20.00     0.025 C 
HETATM    7  C8  UNL     1     -36.133  17.281  -4.077  1.00 20.00     0.016 C 
ENDROOT
BRANCH   4   8
HETATM    8  C5  UNL     1     -37.347  14.479  -4.271  1.00 20.00     0.266 C 
HETATM    9  O11 UNL     1     -38.223  14.400  -3.418  1.00 20.00    -0.302 OA
ENDBRANCH   4   8
BRANCH   5  10
HETATM   10  C10 UNL     1     -33.671  16.952  -1.838  1.00 20.00     0.005 C 
HETATM   11  C9  UNL     1     -34.668  16.599  -0.786  1.00 20.00     0.006 C 
ENDBRANCH   5  10
TORSDOF 2
ENDMDL
MODEL 2
REMARK VINA RESULT:      -4.6      1.779      2.382
REMARK  2 active torsions:
REMARK  status: ('A' for Active; 'I' for Inactive)
REMARK    1  A    between atoms: C4_4  and  C5_5 
REMARK    2  A    between atoms: C6_6  and  C10_10 
ROOT
HETATM    1  C1  UNL     1     -33.302  16.933  -4.632  1.00 20.00    -0.003 C 
HETATM    2  C2  UNL     1     -33.739  15.723  -5.274  1.00 20.00     0.010 C 
HETATM    3  C3  UNL     1     -33.871  17.373  -3.502  1.00 20.00    -0.021 C 
HETATM    4  C4  UNL     1     -34.647  14.920  -4.702  1.00 20.00    -0.016 C 
HETATM    5  C6  UNL     1     -35.014  16.656  -2.826  1.00 20.00     0.016 C 
HETATM    6  C7  UNL     1     -35.298  15.211  -3.367  1.00 20.00     0.025 C 
HETATM    7  C8  UNL     1     -36.820  14.989  -3.402  1.00 20.00     0.016 C 
ENDROOT
BRANCH   4   8
HETATM    8  C5  UNL     1     -34.928  13.666  -5.412  1.00 20.00     0.266 C 
HETATM    9  O11 UNL     1     -34.797  12.567  -4.886  1.00 20.00    -0.302 OA
ENDBRANCH   4   8
BRANCH   5  10
HETATM   10  C10 UNL     1     -34.782  16.618  -1.311  1.00 20.00     0.005 C 
HETATM   11  C9  UNL     1     -33.684  17.542  -0.903  1.00 20.00     0.006 C 
ENDBRANCH   5  10
TORSDOF 2
ENDMDL
MODEL 3
REMARK VINA RESULT:      -4.5      2.240      2.272
REMARK  2 active torsions:
REMARK  status: ('A' for Active; 'I' for Inactive)
REMARK    1  A    between atoms: C4_4  and  C5_5 
REMARK    2  A    between atoms: C6_6  and  C10_10 
ROOT
HETATM    1  C1  UNL     1     -33.752  13.422  -4.032  1.00 20.00    -0.003 C 
HETATM    2  C2  UNL     1     -34.565  13.556  -5.211  1.00 20.00     0.010 C 
HETATM    3  C3  UNL     1     -33.231  14.490  -3.414  1.00 20.00    -0.021 C 
HETATM    4  C4  UNL     1     -34.939  14.760  -5.666  1.00 20.00    -0.016 C 
HETATM    5  C6  UNL     1     -33.435  15.902  -3.904  1.00 20.00     0.016 C 
HETATM    6  C7  UNL     1     -34.536  16.064  -5.010  1.00 20.00     0.025 C 
HETATM    7  C8  UNL     1     -34.056  17.105  -6.036  1.00 20.00     0.016 C 
ENDROOT
BRANCH   4   8
HETATM    8  C5  UNL     1     -35.854  14.753  -6.814  1.00 20.00     0.266 C 
HETATM    9  O11 UNL     1     -35.561  14.241  -7.887  1.00 20.00    -0.302 OA
ENDBRANCH   4   8
BRANCH   5  10
HETATM   10  C10 UNL     1     -33.736  16.826  -2.719  1.00 20.00     0.005 C 
HETATM   11  C9  UNL     1     -34.691  16.195  -1.762  1.00 20.00     0.006 C 
ENDBRANCH   5  10
TORSDOF 2
ENDMDL
MODEL 4
REMARK VINA RESULT:      -4.3      2.119      3.082
REMARK  2 active torsions:
REMARK  status: ('A' for Active; 'I' for Inactive)
REMARK    1  A    between atoms: C4_4  and  C5_5 
REMARK    2  A    between atoms: C6_6  and  C10_10 
ROOT
HETATM    1  C1  UNL     1     -37.028  16.046  -4.106  1.00 20.00    -0.003 C 
HETATM    2  C2  UNL     1     -36.501  15.365  -5.258  1.00 20.00     0.010 C 
HETATM    3  C3  UNL     1     -36.339  16.124  -2.961  1.00 20.00    -0.021 C 
HETATM    4  C4  UNL     1     -35.247  14.889  -5.273  1.00 20.00    -0.016 C 
HETATM    5  C6  UNL     1     -34.978  15.498  -2.778  1.00 20.00     0.016 C 
HETATM    6  C7  UNL     1     -34.296  15.003  -4.101  1.00 20.00     0.025 C 
HETATM    7  C8  UNL     1     -33.565  13.680  -3.816  1.00 20.00     0.016 C 
ENDROOT
BRANCH   4   8
HETATM    8  C5  UNL     1     -34.799  14.309  -6.545  1.00 20.00     0.266 C 
HETATM    9  O11 UNL     1     -34.196  14.959  -7.390  1.00 20.00    -0.302 OA
ENDBRANCH   4   8
BRANCH   5  10
HETATM   10  C10 UNL     1     -34.053  16.469  -2.036  1.00 20.00     0.005 C 
HETATM   11  C9  UNL     1     -34.561  16.771  -0.667  1.00 20.00     0.006 C 
ENDBRANCH   5  10
TORSDOF 2
ENDMDL
MODEL 5
REMARK VINA RESULT:      -4.2      1.448      2.459
REMARK  2 active torsions:
REMARK  status: ('A' for Active; 'I' for Inactive)
REMARK    1  A    between atoms: C4_4  and  C5_5 
REMARK    2  A    between atoms: C6_6  and  C10_10 
ROOT
HETATM    1  C1  UNL     1     -34.991  16.112  -6.153  1.00 20.00    -0.003 C 
HETATM    2  C2  UNL     1     -36.234  15.944  -5.450  1.00 20.00     0.010 C 
HETATM    3  C3  UNL     1     -33.814  16.081  -5.514  1.00 20.00    -0.021 C 
HETATM    4  C4  UNL     1     -36.262  15.625  -4.149  1.00 20.00    -0.016 C 
HETATM    5  C6  UNL     1     -33.696  15.889  -4.022  1.00 20.00     0.016 C 
HETATM    6  C7  UNL     1     -35.017  15.434  -3.308  1.00 20.00     0.025 C 
HETATM    7  C8  UNL     1     -35.117  16.151  -1.951  1.00 20.00     0.016 C 
ENDROOT
BRANCH   4   8
HETATM    8  C5  UNL     1     -37.591  15.381  -3.578  1.00 20.00     0.266 C 
HETATM    9  O11 UNL     1     -38.143  14.288  -3.633  1.00 20.00    -0.302 OA
ENDBRANCH   4   8
BRANCH   5  10
HETATM   10  C10 UNL     1     -32.561  14.906  -3.712  1.00 20.00     0.005 C 
HETATM   11  C9  UNL     1     -33.058  13.501  -3.642  1.00 20.00     0.006 C 
ENDBRANCH   5  10
TORSDOF 2
ENDMDL
MODEL 6
REMARK VINA RESULT:      -4.2      2.064      3.077
REMARK  2 active torsions:
REMARK  status: ('A' for Active; 'I' for Inactive)
REMARK    1  A    between atoms: C4_4  and  C5_5 
REMARK    2  A    between atoms: C6_6  and  C10_10 
ROOT
HETATM    1  C1  UNL     1     -33.864  16.433  -2.612  1.00 20.00    -0.003 C 
HETATM    2  C2  UNL     1     -34.452  15.167  -2.957  1.00 20.00     0.010 C 
HETATM    3  C3  UNL     1     -33.617  17.369  -3.537  1.00 20.00    -0.021 C 
HETATM    4  C4  UNL     1     -34.893  14.920  -4.199  1.00 20.00    -0.016 C 
HETATM    5  C6  UNL     1     -33.915  17.171  -5.003  1.00 20.00     0.016 C 
HETATM    6  C7  UNL     1     -34.800  15.918  -5.333  1.00 20.00     0.025 C 
HETATM    7  C8  UNL     1     -34.281  15.276  -6.631  1.00 20.00     0.016 C 
ENDROOT
BRANCH   4   8
HETATM    8  C5  UNL     1     -35.566  13.631  -4.393  1.00 20.00     0.266 C 
HETATM    9  O11 UNL     1     -34.957  12.569  -4.439  1.00 20.00    -0.302 OA
ENDBRANCH   4   8
BRANCH   5  10
HETATM   10  C10 UNL     1     -34.555  18.439  -5.580  1.00 20.00     0.005 C 
HETATM   11  C9  UNL     1     -36.036  18.432  -5.406  1.00 20.00     0.006 C 
ENDBRANCH   5  10
TORSDOF 2
ENDMDL
MODEL 7
REMARK VINA RESULT:      -4.2      2.144      3.623
REMARK  2 active torsions:
REMARK  status: ('A' for Active; 'I' for Inactive)
REMARK    1  A    between atoms: C4_4  and  C5_5 
REMARK    2  A    between atoms: C6_6  and  C10_10 
ROOT
HETATM    1  C1  UNL     1     -33.824  13.305  -4.022  1.00 20.00    -0.003 C 
HETATM    2  C2  UNL     1     -33.771  14.356  -3.042  1.00 20.00     0.010 C 
HETATM    3  C3  UNL     1     -34.724  13.315  -5.014  1.00 20.00    -0.021 C 
HETATM    4  C4  UNL     1     -34.535  15.451  -3.152  1.00 20.00    -0.016 C 
HETATM    5  C6  UNL     1     -35.755  14.406  -5.175  1.00 20.00     0.016 C 
HETATM    6  C7  UNL     1     -35.519  15.674  -4.282  1.00 20.00     0.025 C 
HETATM    7  C8  UNL     1     -36.879  16.181  -3.775  1.00 20.00     0.016 C 
ENDROOT
BRANCH   4   8
HETATM    8  C5  UNL     1     -34.309  16.493  -2.143  1.00 20.00     0.266 C 
HETATM    9  O11 UNL     1     -34.603  16.343  -0.964  1.00 20.00    -0.302 OA
ENDBRANCH   4   8
BRANCH   5  10
HETATM   10  C10 UNL     1     -35.861  14.809  -6.650  1.00 20.00     0.005 C 
HETATM   11  C9  UNL     1     -34.550  15.279  -7.184  1.00 20.00     0.006 C 
ENDBRANCH   5  10
TORSDOF 2
ENDMDL
MODEL 8
REMARK VINA RESULT:      -4.1      2.791      3.699
REMARK  2 active torsions:
REMARK  status: ('A' for Active; 'I' for Inactive)
REMARK    1  A    between atoms: C4_4  and  C5_5 
REMARK    2  A    between atoms: C6_6  and  C10_10 
ROOT
HETATM    1  C1  UNL     1     -34.905  15.607  -7.555  1.00 20.00    -0.003 C 
HETATM    2  C2  UNL     1     -34.745  14.490  -6.663  1.00 20.00     0.010 C 
HETATM    3  C3  UNL     1     -34.844  16.870  -7.115  1.00 20.00    -0.021 C 
HETATM    4  C4  UNL     1     -34.404  14.667  -5.379  1.00 20.00    -0.016 C 
HETATM    5  C6  UNL     1     -34.623  17.224  -5.664  1.00 20.00     0.016 C 
HETATM    6  C7  UNL     1     -34.178  16.027  -4.754  1.00 20.00     0.025 C 
HETATM    7  C8  UNL     1     -34.872  16.161  -3.388  1.00 20.00     0.016 C 
ENDROOT
BRANCH   4   8
HETATM    8  C5  UNL     1     -34.171  13.442  -4.605  1.00 20.00     0.266 C 
HETATM    9  O11 UNL     1     -35.059  12.632  -4.369  1.00 20.00    -0.302 OA
ENDBRANCH   4   8
BRANCH   5  10
HETATM   10  C10 UNL     1     -33.616  18.375  -5.557  1.00 20.00     0.005 C 
HETATM   11  C9  UNL     1     -33.633  19.232  -6.777  1.00 20.00     0.006 C 
ENDBRANCH   5  10
TORSDOF 2
ENDMDL
MODEL 9
REMARK VINA RESULT:      -4.1     11.823     12.894
REMARK  2 active torsions:
REMARK  status: ('A' for Active; 'I' for Inactive)
REMARK    1  A    between atoms: C4_4  and  C5_5 
REMARK    2  A    between atoms: C6_6  and  C10_10 
ROOT
HETATM    1  C1  UNL     1     -33.371   7.081   6.408  1.00 20.00    -0.003 C 
HETATM    2  C2  UNL     1     -32.709   7.362   5.162  1.00 20.00     0.010 C 
HETATM    3  C3  UNL     1     -34.381   6.206   6.484  1.00 20.00    -0.021 C 
HETATM    4  C4  UNL     1     -32.992   6.667   4.051  1.00 20.00    -0.016 C 
HETATM    5  C6  UNL     1     -34.915   5.463   5.284  1.00 20.00     0.016 C 
HETATM    6  C7  UNL     1     -34.023   5.560   3.997  1.00 20.00     0.025 C 
HETATM    7  C8  UNL     1     -34.940   5.680   2.769  1.00 20.00     0.016 C 
ENDROOT
BRANCH   4   8
HETATM    8  C5  UNL     1     -32.173   6.982   2.875  1.00 20.00     0.266 C 
HETATM    9  O11 UNL     1     -32.174   8.087   2.347  1.00 20.00    -0.302 OA
ENDBRANCH   4   8
BRANCH   5  10
HETATM   10  C10 UNL     1     -35.161   3.994   5.648  1.00 20.00     0.005 C 
HETATM   11  C9  UNL     1     -33.889   3.296   5.994  1.00 20.00     0.006 C 
ENDBRANCH   5  10
TORSDOF 2
ENDMDL
