MODEL 1
REMARK VINA RESULT:      -3.6      0.000      0.000
REMARK  4 active torsions:
REMARK  status: ('A' for Active; 'I' for Inactive)
REMARK    1  A    between atoms: C4_4  and  C6_6 
REMARK    2  A    between atoms: C4_4  and  N7_7 
REMARK    3  A    between atoms: C5_5  and  C6_6 
REMARK    4  A    between atoms: C5_5  and  O8_8 
ROOT
HETATM    1  C1  UNL     1     -32.105   7.739   2.554  1.00 20.00     0.157 C 
HETATM    2  N7  UNL     1     -32.094   6.933   3.408  1.00 20.00    -0.275 NA
HETATM    3  S9  UNL     1     -32.100   8.848   1.410  1.00 20.00    -0.055 SA
ENDROOT
BRANCH   2   4
HETATM    4  C4  UNL     1     -33.039   5.828   3.225  1.00 20.00     0.157 C 
BRANCH   4   5
HETATM    5  C6  UNL     1     -34.261   5.998   4.133  1.00 20.00     0.025 C 
HETATM    6  C2  UNL     1     -35.568   5.751   3.371  1.00 20.00     0.014 C 
BRANCH   5   7
HETATM    7  C5  UNL     1     -34.166   5.112   5.381  1.00 20.00     0.172 C 
BRANCH   7   8
HETATM    8  O8  UNL     1     -34.517   5.866   6.535  1.00 20.00    -0.396 OA
HETATM    9  C3  UNL     1     -33.731   7.042   6.648  1.00 20.00     0.201 C 
ENDBRANCH   7   8
ENDBRANCH   5   7
ENDBRANCH   4   5
ENDBRANCH   2   4
TORSDOF 4
ENDMDL
MODEL 2
REMARK VINA RESULT:      -3.6      0.784      1.234
REMARK  4 active torsions:
REMARK  status: ('A' for Active; 'I' for Inactive)
REMARK    1  A    between atoms: C4_4  and  C6_6 
REMARK    2  A    between atoms: C4_4  and  N7_7 
REMARK    3  A    between atoms: C5_5  and  C6_6 
REMARK    4  A    between atoms: C5_5  and  O8_8 
ROOT
HETATM    1  C1  UNL     1     -31.989   8.018   2.371  1.00 20.00     0.157 C 
HETATM    2  N7  UNL     1     -31.836   7.327   3.308  1.00 20.00    -0.275 NA
HETATM    3  S9  UNL     1     -32.176   8.975   1.111  1.00 20.00    -0.055 SA
ENDROOT
BRANCH   2   4
HETATM    4  C4  UNL     1     -32.678   6.128   3.333  1.00 20.00     0.157 C 
BRANCH   4   5
HETATM    5  C6  UNL     1     -34.036   6.427   3.976  1.00 20.00     0.025 C 
HETATM    6  C2  UNL     1     -35.162   5.626   3.314  1.00 20.00     0.014 C 
BRANCH   5   7
HETATM    7  C5  UNL     1     -34.006   6.198   5.492  1.00 20.00     0.172 C 
BRANCH   7   8
HETATM    8  O8  UNL     1     -35.030   5.283   5.863  1.00 20.00    -0.396 OA
HETATM    9  C3  UNL     1     -34.510   3.981   6.084  1.00 20.00     0.201 C 
ENDBRANCH   7   8
ENDBRANCH   5   7
ENDBRANCH   4   5
ENDBRANCH   2   4
TORSDOF 4
ENDMDL
MODEL 3
REMARK VINA RESULT:      -3.6     11.127     11.914
REMARK  4 active torsions:
REMARK  status: ('A' for Active; 'I' for Inactive)
REMARK    1  A    between atoms: C4_4  and  C6_6 
REMARK    2  A    between atoms: C4_4  and  N7_7 
REMARK    3  A    between atoms: C5_5  and  C6_6 
REMARK    4  A    between atoms: C5_5  and  O8_8 
ROOT
HETATM    1  C1  UNL     1     -34.787  16.792  -0.650  1.00 20.00     0.157 C 
HETATM    2  N7  UNL     1     -34.731  16.107  -1.601  1.00 20.00    -0.275 NA
HETATM    3  S9  UNL     1     -34.888  17.708   0.650  1.00 20.00    -0.055 SA
ENDROOT
BRANCH   2   4
HETATM    4  C4  UNL     1     -33.633  16.416  -2.520  1.00 20.00     0.157 C 
BRANCH   4   5
HETATM    5  C6  UNL     1     -33.768  15.620  -3.822  1.00 20.00     0.025 C 
HETATM    6  C2  UNL     1     -33.242  16.411  -5.024  1.00 20.00     0.014 C 
BRANCH   5   7
HETATM    7  C5  UNL     1     -33.094  14.247  -3.718  1.00 20.00     0.172 C 
BRANCH   7   8
HETATM    8  O8  UNL     1     -34.069  13.249  -3.444  1.00 20.00    -0.396 OA
HETATM    9  C3  UNL     1     -35.186  13.360  -4.314  1.00 20.00     0.201 C 
ENDBRANCH   7   8
ENDBRANCH   5   7
ENDBRANCH   4   5
ENDBRANCH   2   4
TORSDOF 4
ENDMDL
MODEL 4
REMARK VINA RESULT:      -3.4     11.541     12.564
REMARK  4 active torsions:
REMARK  status: ('A' for Active; 'I' for Inactive)
REMARK    1  A    between atoms: C4_4  and  C6_6 
REMARK    2  A    between atoms: C4_4  and  N7_7 
REMARK    3  A    between atoms: C5_5  and  C6_6 
REMARK    4  A    between atoms: C5_5  and  O8_8 
ROOT
HETATM    1  C1  UNL     1     -35.234  13.716  -5.606  1.00 20.00     0.157 C 
HETATM    2  N7  UNL     1     -35.214  13.178  -4.563  1.00 20.00    -0.275 NA
HETATM    3  S9  UNL     1     -35.282  14.428  -7.031  1.00 20.00    -0.055 SA
ENDROOT
BRANCH   2   4
HETATM    4  C4  UNL     1     -34.214  13.691  -3.624  1.00 20.00     0.157 C 
BRANCH   4   5
HETATM    5  C6  UNL     1     -34.286  15.219  -3.529  1.00 20.00     0.025 C 
HETATM    6  C2  UNL     1     -34.918  15.673  -2.209  1.00 20.00     0.014 C 
BRANCH   5   7
HETATM    7  C5  UNL     1     -32.912  15.865  -3.742  1.00 20.00     0.172 C 
BRANCH   7   8
HETATM    8  O8  UNL     1     -32.818  16.376  -5.066  1.00 20.00    -0.396 OA
HETATM    9  C3  UNL     1     -33.569  17.571  -5.217  1.00 20.00     0.201 C 
ENDBRANCH   7   8
ENDBRANCH   5   7
ENDBRANCH   4   5
ENDBRANCH   2   4
TORSDOF 4
ENDMDL
MODEL 5
REMARK VINA RESULT:      -3.4      1.252      1.894
REMARK  4 active torsions:
REMARK  status: ('A' for Active; 'I' for Inactive)
REMARK    1  A    between atoms: C4_4  and  C6_6 
REMARK    2  A    between atoms: C4_4  and  N7_7 
REMARK    3  A    between atoms: C5_5  and  C6_6 
REMARK    4  A    between atoms: C5_5  and  O8_8 
ROOT
HETATM    1  C1  UNL     1     -32.107   8.017   2.292  1.00 20.00     0.157 C 
HETATM    2  N7  UNL     1     -32.112   7.261   3.190  1.00 20.00    -0.275 NA
HETATM    3  S9  UNL     1     -32.081   9.061   1.089  1.00 20.00    -0.055 SA
ENDROOT
BRANCH   2   4
HETATM    4  C4  UNL     1     -32.967   6.086   3.001  1.00 20.00     0.157 C 
BRANCH   4   5
HETATM    5  C6  UNL     1     -33.682   5.716   4.305  1.00 20.00     0.025 C 
HETATM    6  C2  UNL     1     -33.638   6.866   5.318  1.00 20.00     0.014 C 
BRANCH   5   7
HETATM    7  C5  UNL     1     -35.121   5.253   4.048  1.00 20.00     0.172 C 
BRANCH   7   8
HETATM    8  O8  UNL     1     -35.314   3.954   4.596  1.00 20.00    -0.396 OA
HETATM    9  C3  UNL     1     -34.882   3.890   5.947  1.00 20.00     0.201 C 
ENDBRANCH   7   8
ENDBRANCH   5   7
ENDBRANCH   4   5
ENDBRANCH   2   4
TORSDOF 4
ENDMDL
MODEL 6
REMARK VINA RESULT:      -3.4     11.793     12.547
REMARK  4 active torsions:
REMARK  status: ('A' for Active; 'I' for Inactive)
REMARK    1  A    between atoms: C4_4  and  C6_6 
REMARK    2  A    between atoms: C4_4  and  N7_7 
REMARK    3  A    between atoms: C5_5  and  C6_6 
REMARK    4  A    between atoms: C5_5  and  O8_8 
ROOT
HETATM    1  C1  UNL     1     -33.715  16.723  -5.761  1.00 20.00     0.157 C 
HETATM    2  N7  UNL     1     -33.099  16.680  -4.762  1.00 20.00    -0.275 NA
HETATM    3  S9  UNL     1     -34.525  16.771  -7.132  1.00 20.00    -0.055 SA
ENDROOT
BRANCH   2   4
HETATM    4  C4  UNL     1     -33.817  17.154  -3.576  1.00 20.00     0.157 C 
BRANCH   4   5
HETATM    5  C6  UNL     1     -34.042  16.011  -2.580  1.00 20.00     0.025 C 
HETATM    6  C2  UNL     1     -34.479  16.537  -1.209  1.00 20.00     0.014 C 
BRANCH   5   7
HETATM    7  C5  UNL     1     -35.034  14.976  -3.123  1.00 20.00     0.172 C 
BRANCH   7   8
HETATM    8  O8  UNL     1     -34.348  13.771  -3.440  1.00 20.00    -0.396 OA
HETATM    9  C3  UNL     1     -34.750  13.259  -4.702  1.00 20.00     0.201 C 
ENDBRANCH   7   8
ENDBRANCH   5   7
ENDBRANCH   4   5
ENDBRANCH   2   4
TORSDOF 4
ENDMDL
MODEL 7
REMARK VINA RESULT:      -3.3     11.879     12.610
REMARK  4 active torsions:
REMARK  status: ('A' for Active; 'I' for Inactive)
REMARK    1  A    between atoms: C4_4  and  C6_6 
REMARK    2  A    between atoms: C4_4  and  N7_7 
REMARK    3  A    between atoms: C5_5  and  C6_6 
REMARK    4  A    between atoms: C5_5  and  O8_8 
ROOT
HETATM    1  C1  UNL     1     -34.004  16.949  -2.874  1.00 20.00     0.157 C 
HETATM    2  N7  UNL     1     -33.668  17.209  -3.968  1.00 20.00    -0.275 NA
HETATM    3  S9  UNL     1     -34.466  16.627  -1.384  1.00 20.00    -0.055 SA
ENDROOT
BRANCH   2   4
HETATM    4  C4  UNL     1     -33.162  16.073  -4.743  1.00 20.00     0.157 C 
BRANCH   4   5
HETATM    5  C6  UNL     1     -34.313  15.306  -5.404  1.00 20.00     0.025 C 
HETATM    6  C2  UNL     1     -34.253  15.408  -6.932  1.00 20.00     0.014 C 
BRANCH   5   7
HETATM    7  C5  UNL     1     -34.358  13.845  -4.943  1.00 20.00     0.172 C 
BRANCH   7   8
HETATM    8  O8  UNL     1     -35.255  13.712  -3.847  1.00 20.00    -0.396 OA
HETATM    9  C3  UNL     1     -36.474  14.400  -4.085  1.00 20.00     0.201 C 
ENDBRANCH   7   8
ENDBRANCH   5   7
ENDBRANCH   4   5
ENDBRANCH   2   4
TORSDOF 4
ENDMDL
MODEL 8
REMARK VINA RESULT:      -3.3     11.742     12.475
REMARK  4 active torsions:
REMARK  status: ('A' for Active; 'I' for Inactive)
REMARK    1  A    between atoms: C4_4  and  C6_6 
REMARK    2  A    between atoms: C4_4  and  N7_7 
REMARK    3  A    between atoms: C5_5  and  C6_6 
REMARK    4  A    between atoms: C5_5  and  O8_8 
ROOT
HETATM    1  C1  UNL     1     -38.034  14.769  -3.786  1.00 20.00     0.157 C 
HETATM    2  N7  UNL     1     -37.021  14.181  -3.863  1.00 20.00    -0.275 NA
HETATM    3  S9  UNL     1     -39.424  15.543  -3.695  1.00 20.00    -0.055 SA
ENDROOT
BRANCH   2   4
HETATM    4  C4  UNL     1     -35.841  14.928  -3.421  1.00 20.00     0.157 C 
BRANCH   4   5
HETATM    5  C6  UNL     1     -34.564  14.107  -3.629  1.00 20.00     0.025 C 
HETATM    6  C2  UNL     1     -34.671  13.202  -4.861  1.00 20.00     0.014 C 
BRANCH   5   7
HETATM    7  C5  UNL     1     -33.321  15.001  -3.699  1.00 20.00     0.172 C 
BRANCH   7   8
HETATM    8  O8  UNL     1     -33.711  16.353  -3.908  1.00 20.00    -0.396 OA
HETATM    9  C3  UNL     1     -33.336  16.810  -5.199  1.00 20.00     0.201 C 
ENDBRANCH   7   8
ENDBRANCH   5   7
ENDBRANCH   4   5
ENDBRANCH   2   4
TORSDOF 4
ENDMDL
MODEL 9
REMARK VINA RESULT:      -3.2     11.504     12.230
REMARK  4 active torsions:
REMARK  status: ('A' for Active; 'I' for Inactive)
REMARK    1  A    between atoms: C4_4  and  C6_6 
REMARK    2  A    between atoms: C4_4  and  N7_7 
REMARK    3  A    between atoms: C5_5  and  C6_6 
REMARK    4  A    between atoms: C5_5  and  O8_8 
ROOT
HETATM    1  C1  UNL     1     -33.739  14.379  -4.007  1.00 20.00     0.157 C 
HETATM    2  N7  UNL     1     -33.054  15.134  -3.425  1.00 20.00    -0.275 NA
HETATM    3  S9  UNL     1     -34.645  13.335  -4.799  1.00 20.00    -0.055 SA
ENDROOT
BRANCH   2   4
HETATM    4  C4  UNL     1     -33.688  16.413  -3.095  1.00 20.00     0.157 C 
BRANCH   4   5
HETATM    5  C6  UNL     1     -34.880  16.206  -2.154  1.00 20.00     0.025 C 
HETATM    6  C2  UNL     1     -34.567  16.693  -0.734  1.00 20.00     0.014 C 
BRANCH   5   7
HETATM    7  C5  UNL     1     -36.153  16.861  -2.701  1.00 20.00     0.172 C 
BRANCH   7   8
HETATM    8  O8  UNL     1     -36.899  15.912  -3.454  1.00 20.00    -0.396 OA
HETATM    9  C3  UNL     1     -37.084  16.340  -4.795  1.00 20.00     0.201 C 
ENDBRANCH   7   8
ENDBRANCH   5   7
ENDBRANCH   4   5
ENDBRANCH   2   4
TORSDOF 4
ENDMDL
