MODEL 1
REMARK VINA RESULT:      -4.6      0.000      0.000
REMARK  2 active torsions:
REMARK  status: ('A' for Active; 'I' for Inactive)
REMARK    1  A    between atoms: C3_3  and  C8_8 
REMARK    2  A    between atoms: C8_8  and  C10_10 
ROOT
HETATM    1  C1  UNL     1     -34.174  17.080  -2.759  1.00 20.00    -0.026 C 
HETATM    2  C2  UNL     1     -34.528  15.949  -2.131  1.00 20.00    -0.024 C 
HETATM    3  C4  UNL     1     -32.931  15.376  -3.682  1.00 20.00     0.018 C 
HETATM    4  C5  UNL     1     -34.752  16.174  -4.997  1.00 20.00     0.025 C 
HETATM    5  C6  UNL     1     -33.599  16.686  -4.099  1.00 20.00     0.010 C 
HETATM    6  C7  UNL     1     -34.220  14.802  -3.069  1.00 20.00     0.024 C 
HETATM    7  C8  UNL     1     -35.201  14.858  -4.280  1.00 20.00     0.020 C 
ENDROOT
BRANCH   7   8
HETATM    8  C3  UNL     1     -34.961  13.651  -5.154  1.00 20.00     0.241 C 
HETATM    9  O11 UNL     1     -34.858  12.509  -4.717  1.00 20.00    -0.306 OA
ENDBRANCH   7   8
BRANCH   7  10
HETATM   10  C10 UNL     1     -36.683  14.863  -3.903  1.00 20.00     0.013 C 
HETATM   11  C9  UNL     1     -37.423  15.956  -4.600  1.00 20.00     0.006 C 
ENDBRANCH   7  10
TORSDOF 2
ENDMDL
MODEL 2
REMARK VINA RESULT:      -4.5      1.245      1.926
REMARK  2 active torsions:
REMARK  status: ('A' for Active; 'I' for Inactive)
REMARK    1  A    between atoms: C3_3  and  C8_8 
REMARK    2  A    between atoms: C8_8  and  C10_10 
ROOT
HETATM    1  C1  UNL     1     -34.947  17.772  -3.550  1.00 20.00    -0.026 C 
HETATM    2  C2  UNL     1     -36.030  16.982  -3.592  1.00 20.00    -0.024 C 
HETATM    3  C4  UNL     1     -34.540  15.990  -2.151  1.00 20.00     0.018 C 
HETATM    4  C5  UNL     1     -33.423  15.944  -4.257  1.00 20.00     0.025 C 
HETATM    5  C6  UNL     1     -33.785  16.915  -3.106  1.00 20.00     0.010 C 
HETATM    6  C7  UNL     1     -35.582  15.589  -3.209  1.00 20.00     0.024 C 
HETATM    7  C8  UNL     1     -34.679  15.015  -4.344  1.00 20.00     0.020 C 
ENDROOT
BRANCH   7   8
HETATM    8  C3  UNL     1     -34.326  13.586  -4.006  1.00 20.00     0.241 C 
HETATM    9  O11 UNL     1     -35.008  12.624  -4.341  1.00 20.00    -0.306 OA
ENDBRANCH   7   8
BRANCH   7  10
HETATM   10  C10 UNL     1     -35.320  15.012  -5.732  1.00 20.00     0.013 C 
HETATM   11  C9  UNL     1     -34.314  15.274  -6.803  1.00 20.00     0.006 C 
ENDBRANCH   7  10
TORSDOF 2
ENDMDL
MODEL 3
REMARK VINA RESULT:      -4.5      1.807      3.480
REMARK  2 active torsions:
REMARK  status: ('A' for Active; 'I' for Inactive)
REMARK    1  A    between atoms: C3_3  and  C8_8 
REMARK    2  A    between atoms: C8_8  and  C10_10 
ROOT
HETATM    1  C1  UNL     1     -34.224  15.540  -7.096  1.00 20.00    -0.026 C 
HETATM    2  C2  UNL     1     -35.089  14.517  -7.160  1.00 20.00    -0.024 C 
HETATM    3  C4  UNL     1     -36.262  16.330  -6.372  1.00 20.00     0.018 C 
HETATM    4  C5  UNL     1     -34.638  15.913  -4.677  1.00 20.00     0.025 C 
HETATM    5  C6  UNL     1     -34.772  16.527  -6.092  1.00 20.00     0.010 C 
HETATM    6  C7  UNL     1     -36.197  14.806  -6.170  1.00 20.00     0.024 C 
HETATM    7  C8  UNL     1     -35.627  14.701  -4.722  1.00 20.00     0.020 C 
ENDROOT
BRANCH   7   8
HETATM    8  C3  UNL     1     -36.760  14.882  -3.741  1.00 20.00     0.241 C 
HETATM    9  O11 UNL     1     -37.780  14.203  -3.754  1.00 20.00    -0.306 OA
ENDBRANCH   7   8
BRANCH   7  10
HETATM   10  C10 UNL     1     -34.949  13.369  -4.398  1.00 20.00     0.013 C 
HETATM   11  C9  UNL     1     -33.579  13.572  -3.840  1.00 20.00     0.006 C 
ENDBRANCH   7  10
TORSDOF 2
ENDMDL
MODEL 4
REMARK VINA RESULT:      -4.5      1.182      2.644
REMARK  2 active torsions:
REMARK  status: ('A' for Active; 'I' for Inactive)
REMARK    1  A    between atoms: C3_3  and  C8_8 
REMARK    2  A    between atoms: C8_8  and  C10_10 
ROOT
HETATM    1  C1  UNL     1     -34.965  17.542  -5.565  1.00 20.00    -0.026 C 
HETATM    2  C2  UNL     1     -33.669  17.234  -5.408  1.00 20.00    -0.024 C 
HETATM    3  C4  UNL     1     -34.631  15.494  -6.562  1.00 20.00     0.018 C 
HETATM    4  C5  UNL     1     -35.732  15.461  -4.447  1.00 20.00     0.025 C 
HETATM    5  C6  UNL     1     -35.710  16.246  -5.783  1.00 20.00     0.010 C 
HETATM    6  C7  UNL     1     -33.556  15.727  -5.486  1.00 20.00     0.024 C 
HETATM    7  C8  UNL     1     -34.226  15.100  -4.225  1.00 20.00     0.020 C 
ENDROOT
BRANCH   7   8
HETATM    8  C3  UNL     1     -34.012  13.605  -4.256  1.00 20.00     0.241 C 
HETATM    9  O11 UNL     1     -34.929  12.791  -4.239  1.00 20.00    -0.306 OA
ENDBRANCH   7   8
BRANCH   7  10
HETATM   10  C10 UNL     1     -33.683  15.613  -2.891  1.00 20.00     0.013 C 
HETATM   11  C9  UNL     1     -34.783  16.046  -1.980  1.00 20.00     0.006 C 
ENDBRANCH   7  10
TORSDOF 2
ENDMDL
MODEL 5
REMARK VINA RESULT:      -4.5      1.450      2.546
REMARK  2 active torsions:
REMARK  status: ('A' for Active; 'I' for Inactive)
REMARK    1  A    between atoms: C3_3  and  C8_8 
REMARK    2  A    between atoms: C8_8  and  C10_10 
ROOT
HETATM    1  C1  UNL     1     -33.037  15.392  -3.989  1.00 20.00    -0.026 C 
HETATM    2  C2  UNL     1     -33.705  16.508  -4.317  1.00 20.00    -0.024 C 
HETATM    3  C4  UNL     1     -34.751  15.627  -2.470  1.00 20.00     0.018 C 
HETATM    4  C5  UNL     1     -35.066  13.970  -4.155  1.00 20.00     0.025 C 
HETATM    5  C6  UNL     1     -33.983  14.522  -3.195  1.00 20.00     0.010 C 
HETATM    6  C7  UNL     1     -35.109  16.365  -3.771  1.00 20.00     0.024 C 
HETATM    7  C8  UNL     1     -35.856  15.254  -4.572  1.00 20.00     0.020 C 
ENDROOT
BRANCH   7   8
HETATM    8  C3  UNL     1     -37.288  15.194  -4.096  1.00 20.00     0.241 C 
HETATM    9  O11 UNL     1     -37.845  14.154  -3.761  1.00 20.00    -0.306 OA
ENDBRANCH   7   8
BRANCH   7  10
HETATM   10  C10 UNL     1     -35.886  15.468  -6.086  1.00 20.00     0.013 C 
HETATM   11  C9  UNL     1     -35.322  14.296  -6.818  1.00 20.00     0.006 C 
ENDBRANCH   7  10
TORSDOF 2
ENDMDL
MODEL 6
REMARK VINA RESULT:      -4.4      1.269      2.884
REMARK  2 active torsions:
REMARK  status: ('A' for Active; 'I' for Inactive)
REMARK    1  A    between atoms: C3_3  and  C8_8 
REMARK    2  A    between atoms: C8_8  and  C10_10 
ROOT
HETATM    1  C1  UNL     1     -36.041  16.606  -5.216  1.00 20.00    -0.026 C 
HETATM    2  C2  UNL     1     -34.806  17.129  -5.257  1.00 20.00    -0.024 C 
HETATM    3  C4  UNL     1     -34.637  14.962  -6.007  1.00 20.00     0.018 C 
HETATM    4  C5  UNL     1     -35.343  14.735  -3.741  1.00 20.00     0.025 C 
HETATM    5  C6  UNL     1     -35.890  15.106  -5.142  1.00 20.00     0.010 C 
HETATM    6  C7  UNL     1     -33.830  15.975  -5.175  1.00 20.00     0.024 C 
HETATM    7  C8  UNL     1     -33.903  15.346  -3.750  1.00 20.00     0.020 C 
ENDROOT
BRANCH   7   8
HETATM    8  C3  UNL     1     -32.851  14.269  -3.641  1.00 20.00     0.241 C 
HETATM    9  O11 UNL     1     -33.110  13.070  -3.625  1.00 20.00    -0.306 OA
ENDBRANCH   7   8
BRANCH   7  10
HETATM   10  C10 UNL     1     -33.670  16.332  -2.604  1.00 20.00     0.013 C 
HETATM   11  C9  UNL     1     -34.748  16.243  -1.575  1.00 20.00     0.006 C 
ENDBRANCH   7  10
TORSDOF 2
ENDMDL
MODEL 7
REMARK VINA RESULT:      -4.3      2.167      3.350
REMARK  2 active torsions:
REMARK  status: ('A' for Active; 'I' for Inactive)
REMARK    1  A    between atoms: C3_3  and  C8_8 
REMARK    2  A    between atoms: C8_8  and  C10_10 
ROOT
HETATM    1  C1  UNL     1     -35.199  13.272  -4.146  1.00 20.00    -0.026 C 
HETATM    2  C2  UNL     1     -33.927  13.586  -4.432  1.00 20.00    -0.024 C 
HETATM    3  C4  UNL     1     -34.770  15.312  -3.171  1.00 20.00     0.018 C 
HETATM    4  C5  UNL     1     -36.082  15.358  -5.162  1.00 20.00     0.025 C 
HETATM    5  C6  UNL     1     -35.921  14.563  -3.843  1.00 20.00     0.010 C 
HETATM    6  C7  UNL     1     -33.810  15.092  -4.353  1.00 20.00     0.024 C 
HETATM    7  C8  UNL     1     -34.608  15.727  -5.534  1.00 20.00     0.020 C 
ENDROOT
BRANCH   7   8
HETATM    8  C3  UNL     1     -34.396  17.222  -5.513  1.00 20.00     0.241 C 
HETATM    9  O11 UNL     1     -33.315  17.749  -5.276  1.00 20.00    -0.306 OA
ENDBRANCH   7   8
BRANCH   7  10
HETATM   10  C10 UNL     1     -34.202  15.227  -6.921  1.00 20.00     0.013 C 
HETATM   11  C9  UNL     1     -35.364  14.648  -7.658  1.00 20.00     0.006 C 
ENDBRANCH   7  10
TORSDOF 2
ENDMDL
MODEL 8
REMARK VINA RESULT:      -4.2      1.926      3.162
REMARK  2 active torsions:
REMARK  status: ('A' for Active; 'I' for Inactive)
REMARK    1  A    between atoms: C3_3  and  C8_8 
REMARK    2  A    between atoms: C8_8  and  C10_10 
ROOT
HETATM    1  C1  UNL     1     -35.078  14.043  -5.629  1.00 20.00    -0.026 C 
HETATM    2  C2  UNL     1     -34.162  15.012  -5.772  1.00 20.00    -0.024 C 
HETATM    3  C4  UNL     1     -33.615  13.855  -3.862  1.00 20.00     0.018 C 
HETATM    4  C5  UNL     1     -35.739  14.818  -3.365  1.00 20.00     0.025 C 
HETATM    5  C6  UNL     1     -35.100  13.659  -4.169  1.00 20.00     0.010 C 
HETATM    6  C7  UNL     1     -33.597  15.298  -4.398  1.00 20.00     0.024 C 
HETATM    7  C8  UNL     1     -34.698  15.975  -3.525  1.00 20.00     0.020 C 
ENDROOT
BRANCH   7   8
HETATM    8  C3  UNL     1     -34.095  16.356  -2.194  1.00 20.00     0.241 C 
HETATM    9  O11 UNL     1     -34.685  16.235  -1.126  1.00 20.00    -0.306 OA
ENDBRANCH   7   8
BRANCH   7  10
HETATM   10  C10 UNL     1     -35.306  17.241  -4.132  1.00 20.00     0.013 C 
HETATM   11  C9  UNL     1     -36.793  17.150  -4.215  1.00 20.00     0.006 C 
ENDBRANCH   7  10
TORSDOF 2
ENDMDL
MODEL 9
REMARK VINA RESULT:      -4.2      1.546      1.894
REMARK  2 active torsions:
REMARK  status: ('A' for Active; 'I' for Inactive)
REMARK    1  A    between atoms: C3_3  and  C8_8 
REMARK    2  A    between atoms: C8_8  and  C10_10 
ROOT
HETATM    1  C1  UNL     1     -33.741  16.020  -2.621  1.00 20.00    -0.026 C 
HETATM    2  C2  UNL     1     -34.966  15.480  -2.696  1.00 20.00    -0.024 C 
HETATM    3  C4  UNL     1     -33.536  14.039  -3.775  1.00 20.00     0.018 C 
HETATM    4  C5  UNL     1     -33.447  16.029  -5.086  1.00 20.00     0.025 C 
HETATM    5  C6  UNL     1     -32.925  15.440  -3.752  1.00 20.00     0.010 C 
HETATM    6  C7  UNL     1     -34.977  14.565  -3.902  1.00 20.00     0.024 C 
HETATM    7  C8  UNL     1     -34.888  15.429  -5.197  1.00 20.00     0.020 C 
ENDROOT
BRANCH   7   8
HETATM    8  C3  UNL     1     -35.010  14.518  -6.396  1.00 20.00     0.241 C 
HETATM    9  O11 UNL     1     -34.415  14.707  -7.451  1.00 20.00    -0.306 OA
ENDBRANCH   7   8
BRANCH   7  10
HETATM   10  C10 UNL     1     -35.970  16.502  -5.326  1.00 20.00     0.013 C 
HETATM   11  C9  UNL     1     -35.383  17.840  -5.633  1.00 20.00     0.006 C 
ENDBRANCH   7  10
TORSDOF 2
ENDMDL
