MODEL 1
REMARK VINA RESULT:      -4.0      0.000      0.000
REMARK  2 active torsions:
REMARK  status: ('A' for Active; 'I' for Inactive)
REMARK    1  A    between atoms: C1_1  and  C3_3 
REMARK       I    between atoms: C1_1  and  N8_8 
REMARK    2  A    between atoms: N8_8  and  O10_10 
ROOT
HETATM    1  C1  UNL     1     -33.775   5.940   3.301  1.00 20.00     0.247 C 
HETATM    2  C6  UNL     1     -34.975   4.331   4.772  1.00 20.00     0.189 C 
HETATM    3  N8  UNL     1     -34.264   5.573   4.530  1.00 20.00    -0.231 N 
HETATM    4  O9  UNL     1     -33.889   5.256   2.282  1.00 20.00    -0.271 OA
ENDROOT
BRANCH   1   5
HETATM    5  C3  UNL     1     -33.048   7.261   3.246  1.00 20.00     0.084 A 
HETATM    6  C2  UNL     1     -31.578   7.257   3.475  1.00 20.00     0.019 A 
HETATM    7  C4  UNL     1     -32.130   7.501   2.099  1.00 20.00    -0.005 A 
HETATM    8  C5  UNL     1     -32.065   8.863   1.496  1.00 20.00     0.011 C 
ENDBRANCH   1   5
BRANCH   3   9
HETATM    9  O10 UNL     1     -34.128   6.362   5.688  1.00 20.00    -0.281 OA
HETATM   10  C7  UNL     1     -34.650   5.644   6.802  1.00 20.00     0.238 C 
ENDBRANCH   3   9
TORSDOF 2
ENDMDL
MODEL 2
REMARK VINA RESULT:      -3.9     11.215     11.869
REMARK  2 active torsions:
REMARK  status: ('A' for Active; 'I' for Inactive)
REMARK    1  A    between atoms: C1_1  and  C3_3 
REMARK       I    between atoms: C1_1  and  N8_8 
REMARK    2  A    between atoms: N8_8  and  O10_10 
ROOT
HETATM    1  C1  UNL     1     -34.208  15.523  -3.043  1.00 20.00     0.247 C 
HETATM    2  C6  UNL     1     -35.102  13.521  -4.221  1.00 20.00     0.189 C 
HETATM    3  N8  UNL     1     -35.260  14.741  -3.451  1.00 20.00    -0.231 N 
HETATM    4  O9  UNL     1     -33.027  15.268  -3.288  1.00 20.00    -0.271 OA
ENDROOT
BRANCH   1   5
HETATM    5  C3  UNL     1     -34.566  16.747  -2.237  1.00 20.00     0.084 A 
HETATM    6  C2  UNL     1     -34.671  16.602  -0.761  1.00 20.00     0.019 A 
HETATM    7  C4  UNL     1     -33.511  17.339  -1.369  1.00 20.00    -0.005 A 
HETATM    8  C5  UNL     1     -33.421  18.822  -1.250  1.00 20.00     0.011 C 
ENDBRANCH   1   5
BRANCH   3   9
HETATM    9  O10 UNL     1     -36.606  15.041  -3.166  1.00 20.00    -0.281 OA
HETATM   10  C7  UNL     1     -37.399  14.748  -4.313  1.00 20.00     0.238 C 
ENDBRANCH   3   9
TORSDOF 2
ENDMDL
MODEL 3
REMARK VINA RESULT:      -3.9     10.212     11.347
REMARK  2 active torsions:
REMARK  status: ('A' for Active; 'I' for Inactive)
REMARK    1  A    between atoms: C1_1  and  C3_3 
REMARK       I    between atoms: C1_1  and  N8_8 
REMARK    2  A    between atoms: N8_8  and  O10_10 
ROOT
HETATM    1  C1  UNL     1     -42.463   4.748  -2.816  1.00 20.00     0.247 C 
HETATM    2  C6  UNL     1     -41.966   7.107  -2.197  1.00 20.00     0.189 C 
HETATM    3  N8  UNL     1     -41.727   5.677  -2.123  1.00 20.00    -0.231 N 
HETATM    4  O9  UNL     1     -43.397   5.032  -3.568  1.00 20.00    -0.271 OA
ENDROOT
BRANCH   1   5
HETATM    5  C3  UNL     1     -42.078   3.305  -2.601  1.00 20.00     0.084 A 
HETATM    6  C2  UNL     1     -43.170   2.320  -2.374  1.00 20.00     0.019 A 
HETATM    7  C4  UNL     1     -42.414   2.330  -3.674  1.00 20.00    -0.005 A 
HETATM    8  C5  UNL     1     -41.450   1.238  -3.987  1.00 20.00     0.011 C 
ENDBRANCH   1   5
BRANCH   3   9
HETATM    9  O10 UNL     1     -40.662   5.342  -1.266  1.00 20.00    -0.281 OA
HETATM   10  C7  UNL     1     -40.772   6.106  -0.069  1.00 20.00     0.238 C 
ENDBRANCH   3   9
TORSDOF 2
ENDMDL
MODEL 4
REMARK VINA RESULT:      -3.9     11.021     12.010
REMARK  2 active torsions:
REMARK  status: ('A' for Active; 'I' for Inactive)
REMARK    1  A    between atoms: C1_1  and  C3_3 
REMARK       I    between atoms: C1_1  and  N8_8 
REMARK    2  A    between atoms: N8_8  and  O10_10 
ROOT
HETATM    1  C1  UNL     1     -35.654  16.154  -2.786  1.00 20.00     0.247 C 
HETATM    2  C6  UNL     1     -36.002  14.877  -4.893  1.00 20.00     0.189 C 
HETATM    3  N8  UNL     1     -35.346  15.108  -3.620  1.00 20.00    -0.231 N 
HETATM    4  O9  UNL     1     -36.517  16.999  -3.033  1.00 20.00    -0.271 OA
ENDROOT
BRANCH   1   5
HETATM    5  C3  UNL     1     -34.854  16.241  -1.510  1.00 20.00     0.084 A 
HETATM    6  C2  UNL     1     -33.701  17.180  -1.474  1.00 20.00     0.019 A 
HETATM    7  C4  UNL     1     -34.957  17.493  -0.710  1.00 20.00    -0.005 A 
HETATM    8  C5  UNL     1     -34.970  17.403   0.777  1.00 20.00     0.011 C 
ENDBRANCH   1   5
BRANCH   3   9
HETATM    9  O10 UNL     1     -34.359  14.147  -3.328  1.00 20.00    -0.281 OA
HETATM   10  C7  UNL     1     -34.149  13.335  -4.480  1.00 20.00     0.238 C 
ENDBRANCH   3   9
TORSDOF 2
ENDMDL
MODEL 5
REMARK VINA RESULT:      -3.8     11.278     12.045
REMARK  2 active torsions:
REMARK  status: ('A' for Active; 'I' for Inactive)
REMARK    1  A    between atoms: C1_1  and  C3_3 
REMARK       I    between atoms: C1_1  and  N8_8 
REMARK    2  A    between atoms: N8_8  and  O10_10 
ROOT
HETATM    1  C1  UNL     1     -33.970  16.525  -2.802  1.00 20.00     0.247 C 
HETATM    2  C6  UNL     1     -33.469  18.414  -1.261  1.00 20.00     0.189 C 
HETATM    3  N8  UNL     1     -34.028  17.109  -1.561  1.00 20.00    -0.231 N 
HETATM    4  O9  UNL     1     -33.439  17.048  -3.784  1.00 20.00    -0.271 OA
ENDROOT
BRANCH   1   5
HETATM    5  C3  UNL     1     -34.622  15.170  -2.928  1.00 20.00     0.084 A 
HETATM    6  C2  UNL     1     -36.044  15.119  -3.359  1.00 20.00     0.019 A 
HETATM    7  C4  UNL     1     -34.952  14.683  -4.295  1.00 20.00    -0.005 A 
HETATM    8  C5  UNL     1     -34.771  13.238  -4.612  1.00 20.00     0.011 C 
ENDBRANCH   1   5
BRANCH   3   9
HETATM    9  O10 UNL     1     -34.638  16.503  -0.446  1.00 20.00    -0.281 OA
HETATM   10  C7  UNL     1     -35.097  17.520   0.440  1.00 20.00     0.238 C 
ENDBRANCH   3   9
TORSDOF 2
ENDMDL
MODEL 6
REMARK VINA RESULT:      -3.8     11.604     12.442
REMARK  2 active torsions:
REMARK  status: ('A' for Active; 'I' for Inactive)
REMARK    1  A    between atoms: C1_1  and  C3_3 
REMARK       I    between atoms: C1_1  and  N8_8 
REMARK    2  A    between atoms: N8_8  and  O10_10 
ROOT
HETATM    1  C1  UNL     1     -35.697  15.656  -4.493  1.00 20.00     0.247 C 
HETATM    2  C6  UNL     1     -37.644  15.291  -5.999  1.00 20.00     0.189 C 
HETATM    3  N8  UNL     1     -36.933  15.117  -4.746  1.00 20.00    -0.231 N 
HETATM    4  O9  UNL     1     -35.067  16.341  -5.302  1.00 20.00    -0.271 OA
ENDROOT
BRANCH   1   5
HETATM    5  C3  UNL     1     -35.107  15.354  -3.138  1.00 20.00     0.084 A 
HETATM    6  C2  UNL     1     -33.626  15.380  -3.001  1.00 20.00     0.019 A 
HETATM    7  C4  UNL     1     -34.462  16.473  -2.397  1.00 20.00    -0.005 A 
HETATM    8  C5  UNL     1     -34.632  16.554  -0.918  1.00 20.00     0.011 C 
ENDBRANCH   1   5
BRANCH   3   9
HETATM    9  O10 UNL     1     -37.645  14.336  -3.815  1.00 20.00    -0.281 OA
HETATM   10  C7  UNL     1     -38.953  14.879  -3.658  1.00 20.00     0.238 C 
ENDBRANCH   3   9
TORSDOF 2
ENDMDL
MODEL 7
REMARK VINA RESULT:      -3.6     12.174     13.250
REMARK  2 active torsions:
REMARK  status: ('A' for Active; 'I' for Inactive)
REMARK    1  A    between atoms: C1_1  and  C3_3 
REMARK       I    between atoms: C1_1  and  N8_8 
REMARK    2  A    between atoms: N8_8  and  O10_10 
ROOT
HETATM    1  C1  UNL     1     -33.882  16.374  -4.585  1.00 20.00     0.247 C 
HETATM    2  C6  UNL     1     -34.313  15.767  -6.959  1.00 20.00     0.189 C 
HETATM    3  N8  UNL     1     -34.739  16.208  -5.644  1.00 20.00    -0.231 N 
HETATM    4  O9  UNL     1     -32.668  16.167  -4.643  1.00 20.00    -0.271 OA
ENDROOT
BRANCH   1   5
HETATM    5  C3  UNL     1     -34.510  16.825  -3.290  1.00 20.00     0.084 A 
HETATM    6  C2  UNL     1     -34.987  15.779  -2.346  1.00 20.00     0.019 A 
HETATM    7  C4  UNL     1     -33.755  16.580  -2.030  1.00 20.00    -0.005 A 
HETATM    8  C5  UNL     1     -33.788  17.610  -0.954  1.00 20.00     0.011 C 
ENDBRANCH   1   5
BRANCH   3   9
HETATM    9  O10 UNL     1     -36.124  16.448  -5.568  1.00 20.00    -0.281 OA
HETATM   10  C7  UNL     1     -36.820  15.230  -5.819  1.00 20.00     0.238 C 
ENDBRANCH   3   9
TORSDOF 2
ENDMDL
MODEL 8
REMARK VINA RESULT:      -3.6     11.562     13.117
REMARK  2 active torsions:
REMARK  status: ('A' for Active; 'I' for Inactive)
REMARK    1  A    between atoms: C1_1  and  C3_3 
REMARK       I    between atoms: C1_1  and  N8_8 
REMARK    2  A    between atoms: N8_8  and  O10_10 
ROOT
HETATM    1  C1  UNL     1     -34.272  15.560  -3.659  1.00 20.00     0.247 C 
HETATM    2  C6  UNL     1     -33.719  17.817  -2.771  1.00 20.00     0.189 C 
HETATM    3  N8  UNL     1     -33.705  16.801  -3.806  1.00 20.00    -0.231 N 
HETATM    4  O9  UNL     1     -34.848  15.184  -2.636  1.00 20.00    -0.271 OA
ENDROOT
BRANCH   1   5
HETATM    5  C3  UNL     1     -34.144  14.629  -4.839  1.00 20.00     0.084 A 
HETATM    6  C2  UNL     1     -34.911  13.355  -4.808  1.00 20.00     0.019 A 
HETATM    7  C4  UNL     1     -35.328  14.468  -5.728  1.00 20.00    -0.005 A 
HETATM    8  C5  UNL     1     -35.118  14.342  -7.198  1.00 20.00     0.011 C 
ENDBRANCH   1   5
BRANCH   3   9
HETATM    9  O10 UNL     1     -33.049  17.221  -4.979  1.00 20.00    -0.281 OA
HETATM   10  C7  UNL     1     -33.736  18.346  -5.517  1.00 20.00     0.238 C 
ENDBRANCH   3   9
TORSDOF 2
ENDMDL
MODEL 9
REMARK VINA RESULT:      -3.5     11.108     12.293
REMARK  2 active torsions:
REMARK  status: ('A' for Active; 'I' for Inactive)
REMARK    1  A    between atoms: C1_1  and  C3_3 
REMARK       I    between atoms: C1_1  and  N8_8 
REMARK    2  A    between atoms: N8_8  and  O10_10 
ROOT
HETATM    1  C1  UNL     1     -36.460  15.616  -3.541  1.00 20.00     0.247 C 
HETATM    2  C6  UNL     1     -38.759  16.525  -3.254  1.00 20.00     0.189 C 
HETATM    3  N8  UNL     1     -37.823  15.453  -3.538  1.00 20.00    -0.231 N 
HETATM    4  O9  UNL     1     -35.895  16.685  -3.303  1.00 20.00    -0.271 OA
ENDROOT
BRANCH   1   5
HETATM    5  C3  UNL     1     -35.647  14.390  -3.874  1.00 20.00     0.084 A 
HETATM    6  C2  UNL     1     -35.187  14.220  -5.278  1.00 20.00     0.019 A 
HETATM    7  C4  UNL     1     -34.206  14.579  -4.198  1.00 20.00    -0.005 A 
HETATM    8  C5  UNL     1     -33.218  13.572  -3.719  1.00 20.00     0.011 C 
ENDBRANCH   1   5
BRANCH   3   9
HETATM    9  O10 UNL     1     -38.459  14.227  -3.811  1.00 20.00    -0.281 OA
HETATM   10  C7  UNL     1     -39.605  14.469  -4.621  1.00 20.00     0.238 C 
ENDBRANCH   3   9
TORSDOF 2
ENDMDL
