MODEL 1
REMARK VINA RESULT:      -5.2      0.000      0.000
REMARK  1 active torsions:
REMARK  status: ('A' for Active; 'I' for Inactive)
REMARK    1  A    between atoms: C3_3  and  C8_8 
ROOT
HETATM    1  C1  UNL     1     -33.801  17.664  -1.374  1.00 20.00    -0.028 C 
HETATM    2  C2  UNL     1     -33.764  18.457  -2.457  1.00 20.00    -0.016 C 
HETATM    3  C4  UNL     1     -34.505  16.333  -1.323  1.00 20.00     0.042 C 
HETATM    4  C5  UNL     1     -33.445  17.538  -4.774  1.00 20.00     0.020 C 
HETATM    5  C6  UNL     1     -33.479  16.005  -4.864  1.00 20.00     0.016 C 
HETATM    6  C7  UNL     1     -34.434  18.170  -3.781  1.00 20.00     0.070 C 
HETATM    7  C8  UNL     1     -33.697  15.300  -3.518  1.00 20.00     0.086 C 
HETATM    8  C9  UNL     1     -34.929  15.765  -2.695  1.00 20.00     0.063 C 
HETATM    9  S11 UNL     1     -35.873  17.079  -3.546  1.00 20.00    -0.154 SA
ENDROOT
BRANCH   7  10
HETATM   10  C3  UNL     1     -33.823  13.828  -3.789  1.00 20.00     0.224 C 
HETATM   11  O10 UNL     1     -32.866  13.068  -3.686  1.00 20.00    -0.279 OA
HETATM   12 CL12 UNL     1     -35.441  13.384  -4.243  1.00 20.00    -0.043 Cl
ENDBRANCH   7  10
TORSDOF 1
ENDMDL
MODEL 2
REMARK VINA RESULT:      -5.0      2.646      4.063
REMARK  1 active torsions:
REMARK  status: ('A' for Active; 'I' for Inactive)
REMARK    1  A    between atoms: C3_3  and  C8_8 
ROOT
HETATM    1  C1  UNL     1     -33.432  13.411  -3.909  1.00 20.00    -0.028 C 
HETATM    2  C2  UNL     1     -34.663  13.396  -4.443  1.00 20.00    -0.016 C 
HETATM    3  C4  UNL     1     -32.671  14.667  -3.569  1.00 20.00     0.042 C 
HETATM    4  C5  UNL     1     -36.462  14.984  -3.695  1.00 20.00     0.020 C 
HETATM    5  C6  UNL     1     -35.989  16.074  -2.722  1.00 20.00     0.016 C 
HETATM    6  C7  UNL     1     -35.477  14.614  -4.815  1.00 20.00     0.070 C 
HETATM    7  C8  UNL     1     -34.496  16.000  -2.372  1.00 20.00     0.086 C 
HETATM    8  C9  UNL     1     -33.513  15.962  -3.574  1.00 20.00     0.063 C 
HETATM    9  S11 UNL     1     -34.383  16.025  -5.180  1.00 20.00    -0.154 SA
ENDROOT
BRANCH   7  10
HETATM   10  C3  UNL     1     -34.168  17.190  -1.516  1.00 20.00     0.224 C 
HETATM   11  O10 UNL     1     -33.511  18.132  -1.946  1.00 20.00    -0.279 OA
HETATM   12 CL12 UNL     1     -34.825  17.044   0.086  1.00 20.00    -0.043 Cl
ENDBRANCH   7  10
TORSDOF 1
ENDMDL
MODEL 3
REMARK VINA RESULT:      -4.8      2.732      3.907
REMARK  1 active torsions:
REMARK  status: ('A' for Active; 'I' for Inactive)
REMARK    1  A    between atoms: C3_3  and  C8_8 
ROOT
HETATM    1  C1  UNL     1     -33.935  16.058  -6.129  1.00 20.00    -0.028 C 
HETATM    2  C2  UNL     1     -33.116  16.117  -5.067  1.00 20.00    -0.016 C 
HETATM    3  C4  UNL     1     -35.152  15.175  -6.213  1.00 20.00     0.042 C 
HETATM    4  C5  UNL     1     -33.987  16.099  -2.709  1.00 20.00     0.020 C 
HETATM    5  C6  UNL     1     -35.495  15.835  -2.586  1.00 20.00     0.016 C 
HETATM    6  C7  UNL     1     -33.256  15.302  -3.801  1.00 20.00     0.070 C 
HETATM    7  C8  UNL     1     -36.210  15.633  -3.930  1.00 20.00     0.086 C 
HETATM    8  C9  UNL     1     -35.603  14.556  -4.871  1.00 20.00     0.063 C 
HETATM    9  S11 UNL     1     -34.138  13.745  -4.140  1.00 20.00    -0.154 SA
ENDROOT
BRANCH   7  10
HETATM   10  C3  UNL     1     -37.638  15.271  -3.637  1.00 20.00     0.224 C 
HETATM   11  O10 UNL     1     -38.049  14.121  -3.756  1.00 20.00    -0.279 OA
HETATM   12 CL12 UNL     1     -38.570  16.647  -3.130  1.00 20.00    -0.043 Cl
ENDBRANCH   7  10
TORSDOF 1
ENDMDL
MODEL 4
REMARK VINA RESULT:      -4.7      2.593      4.082
REMARK  1 active torsions:
REMARK  status: ('A' for Active; 'I' for Inactive)
REMARK    1  A    between atoms: C3_3  and  C8_8 
ROOT
HETATM    1  C1  UNL     1     -34.388  16.064  -6.976  1.00 20.00    -0.028 C 
HETATM    2  C2  UNL     1     -34.499  14.746  -6.747  1.00 20.00    -0.016 C 
HETATM    3  C4  UNL     1     -34.905  17.132  -6.048  1.00 20.00     0.042 C 
HETATM    4  C5  UNL     1     -34.149  13.754  -4.464  1.00 20.00     0.020 C 
HETATM    5  C6  UNL     1     -33.981  14.785  -3.338  1.00 20.00     0.016 C 
HETATM    6  C7  UNL     1     -35.174  14.114  -5.552  1.00 20.00     0.070 C 
HETATM    7  C8  UNL     1     -34.051  16.245  -3.806  1.00 20.00     0.086 C 
HETATM    8  C9  UNL     1     -35.302  16.637  -4.640  1.00 20.00     0.063 C 
HETATM    9  S11 UNL     1     -36.445  15.230  -4.873  1.00 20.00    -0.154 SA
ENDROOT
BRANCH   7  10
HETATM   10  C3  UNL     1     -33.990  17.119  -2.586  1.00 20.00     0.224 C 
HETATM   11  O10 UNL     1     -33.531  18.255  -2.628  1.00 20.00    -0.279 OA
HETATM   12 CL12 UNL     1     -34.634  16.324  -1.180  1.00 20.00    -0.043 Cl
ENDBRANCH   7  10
TORSDOF 1
ENDMDL
MODEL 5
REMARK VINA RESULT:      -4.7      2.263      3.155
REMARK  1 active torsions:
REMARK  status: ('A' for Active; 'I' for Inactive)
REMARK    1  A    between atoms: C3_3  and  C8_8 
ROOT
HETATM    1  C1  UNL     1     -33.666  17.812  -5.928  1.00 20.00    -0.028 C 
HETATM    2  C2  UNL     1     -34.509  17.691  -6.965  1.00 20.00    -0.016 C 
HETATM    3  C4  UNL     1     -33.825  17.087  -4.618  1.00 20.00     0.042 C 
HETATM    4  C5  UNL     1     -35.486  15.476  -7.640  1.00 20.00     0.020 C 
HETATM    5  C6  UNL     1     -35.186  14.323  -6.671  1.00 20.00     0.016 C 
HETATM    6  C7  UNL     1     -35.759  16.842  -6.990  1.00 20.00     0.070 C 
HETATM    7  C8  UNL     1     -34.335  14.726  -5.459  1.00 20.00     0.086 C 
HETATM    8  C9  UNL     1     -34.853  15.934  -4.631  1.00 20.00     0.063 C 
HETATM    9  S11 UNL     1     -36.409  16.616  -5.303  1.00 20.00    -0.154 SA
ENDROOT
BRANCH   7  10
HETATM   10  C3  UNL     1     -34.231  13.530  -4.556  1.00 20.00     0.224 C 
HETATM   11  O10 UNL     1     -35.055  12.621  -4.592  1.00 20.00    -0.279 OA
HETATM   12 CL12 UNL     1     -32.845  13.617  -3.511  1.00 20.00    -0.043 Cl
ENDBRANCH   7  10
TORSDOF 1
ENDMDL
MODEL 6
REMARK VINA RESULT:      -4.6      2.831      4.286
REMARK  1 active torsions:
REMARK  status: ('A' for Active; 'I' for Inactive)
REMARK    1  A    between atoms: C3_3  and  C8_8 
ROOT
HETATM    1  C1  UNL     1     -35.770  14.608  -7.891  1.00 20.00    -0.028 C 
HETATM    2  C2  UNL     1     -36.948  15.011  -7.389  1.00 20.00    -0.016 C 
HETATM    3  C4  UNL     1     -34.433  14.924  -7.274  1.00 20.00     0.042 C 
HETATM    4  C5  UNL     1     -37.424  14.987  -4.921  1.00 20.00     0.020 C 
HETATM    5  C6  UNL     1     -36.212  14.652  -4.039  1.00 20.00     0.016 C 
HETATM    6  C7  UNL     1     -37.133  15.860  -6.152  1.00 20.00     0.070 C 
HETATM    7  C8  UNL     1     -34.919  14.384  -4.822  1.00 20.00     0.086 C 
HETATM    8  C9  UNL     1     -34.494  15.482  -5.835  1.00 20.00     0.063 C 
HETATM    9  S11 UNL     1     -35.659  16.890  -5.859  1.00 20.00    -0.154 SA
ENDROOT
BRANCH   7  10
HETATM   10  C3  UNL     1     -33.813  14.192  -3.824  1.00 20.00     0.224 C 
HETATM   11  O10 UNL     1     -33.209  13.129  -3.728  1.00 20.00    -0.279 OA
HETATM   12 CL12 UNL     1     -33.529  15.623  -2.879  1.00 20.00    -0.043 Cl
ENDBRANCH   7  10
TORSDOF 1
ENDMDL
MODEL 7
REMARK VINA RESULT:      -4.6      2.605      3.287
REMARK  1 active torsions:
REMARK  status: ('A' for Active; 'I' for Inactive)
REMARK    1  A    between atoms: C3_3  and  C8_8 
ROOT
HETATM    1  C1  UNL     1     -34.309  16.687  -2.182  1.00 20.00    -0.028 C 
HETATM    2  C2  UNL     1     -33.398  15.823  -2.658  1.00 20.00    -0.016 C 
HETATM    3  C4  UNL     1     -35.525  17.141  -2.946  1.00 20.00     0.042 C 
HETATM    4  C5  UNL     1     -34.051  13.787  -3.979  1.00 20.00     0.020 C 
HETATM    5  C6  UNL     1     -35.540  13.714  -4.346  1.00 20.00     0.016 C 
HETATM    6  C7  UNL     1     -33.418  15.187  -4.029  1.00 20.00     0.070 C 
HETATM    7  C8  UNL     1     -36.373  14.898  -3.836  1.00 20.00     0.086 C 
HETATM    8  C9  UNL     1     -35.850  16.312  -4.209  1.00 20.00     0.063 C 
HETATM    9  S11 UNL     1     -34.321  16.243  -5.207  1.00 20.00    -0.154 SA
ENDROOT
BRANCH   7  10
HETATM   10  C3  UNL     1     -37.767  14.741  -4.373  1.00 20.00     0.224 C 
HETATM   11  O10 UNL     1     -38.654  14.206  -3.716  1.00 20.00    -0.279 OA
HETATM   12 CL12 UNL     1     -37.928  15.396  -5.974  1.00 20.00    -0.043 Cl
ENDBRANCH   7  10
TORSDOF 1
ENDMDL
MODEL 8
REMARK VINA RESULT:      -4.6      1.877      2.607
REMARK  1 active torsions:
REMARK  status: ('A' for Active; 'I' for Inactive)
REMARK    1  A    between atoms: C3_3  and  C8_8 
ROOT
HETATM    1  C1  UNL     1     -36.557  17.949  -3.893  1.00 20.00    -0.028 C 
HETATM    2  C2  UNL     1     -35.634  18.124  -2.934  1.00 20.00    -0.016 C 
HETATM    3  C4  UNL     1     -36.332  17.149  -5.149  1.00 20.00     0.042 C 
HETATM    4  C5  UNL     1     -34.127  16.261  -2.177  1.00 20.00     0.020 C 
HETATM    5  C6  UNL     1     -34.224  14.978  -3.016  1.00 20.00     0.016 C 
HETATM    6  C7  UNL     1     -34.224  17.580  -2.959  1.00 20.00     0.070 C 
HETATM    7  C8  UNL     1     -35.232  15.058  -4.171  1.00 20.00     0.086 C 
HETATM    8  C9  UNL     1     -35.069  16.261  -5.140  1.00 20.00     0.063 C 
HETATM    9  S11 UNL     1     -33.666  17.336  -4.676  1.00 20.00    -0.154 SA
ENDROOT
BRANCH   7  10
HETATM   10  C3  UNL     1     -35.124  13.783  -4.960  1.00 20.00     0.224 C 
HETATM   11  O10 UNL     1     -35.016  12.692  -4.410  1.00 20.00    -0.279 OA
HETATM   12 CL12 UNL     1     -35.174  14.069  -6.673  1.00 20.00    -0.043 Cl
ENDBRANCH   7  10
TORSDOF 1
ENDMDL
MODEL 9
REMARK VINA RESULT:      -4.5      2.834      3.812
REMARK  1 active torsions:
REMARK  status: ('A' for Active; 'I' for Inactive)
REMARK    1  A    between atoms: C3_3  and  C8_8 
ROOT
HETATM    1  C1  UNL     1     -36.930  15.022  -4.978  1.00 20.00    -0.028 C 
HETATM    2  C2  UNL     1     -36.011  14.846  -5.941  1.00 20.00    -0.016 C 
HETATM    3  C4  UNL     1     -36.613  15.081  -3.506  1.00 20.00     0.042 C 
HETATM    4  C5  UNL     1     -33.770  15.982  -5.872  1.00 20.00     0.020 C 
HETATM    5  C6  UNL     1     -33.475  16.735  -4.566  1.00 20.00     0.016 C 
HETATM    6  C7  UNL     1     -34.529  14.653  -5.719  1.00 20.00     0.070 C 
HETATM    7  C8  UNL     1     -34.607  16.666  -3.531  1.00 20.00     0.086 C 
HETATM    8  C9  UNL     1     -35.115  15.244  -3.166  1.00 20.00     0.063 C 
HETATM    9  S11 UNL     1     -34.218  13.936  -4.074  1.00 20.00    -0.154 SA
ENDROOT
BRANCH   7  10
HETATM   10  C3  UNL     1     -34.122  17.342  -2.279  1.00 20.00     0.224 C 
HETATM   11  O10 UNL     1     -33.466  18.378  -2.318  1.00 20.00    -0.279 OA
HETATM   12 CL12 UNL     1     -34.604  16.486  -0.846  1.00 20.00    -0.043 Cl
ENDBRANCH   7  10
TORSDOF 1
ENDMDL
