MODEL 1
REMARK VINA RESULT:      -3.5      0.000      0.000
REMARK  2 active torsions:
REMARK  status: ('A' for Active; 'I' for Inactive)
REMARK    1  A    between atoms: C6_6  and  S8_8 
REMARK    2  A    between atoms: C7_7  and  S9_9 
ROOT
HETATM    1  C1  UNL     1     -42.448   5.199   0.186  1.00 20.00     0.011 C 
HETATM    2  C2  UNL     1     -40.841   4.440  -1.400  1.00 20.00     0.020 C 
HETATM    3  C3  UNL     1     -41.010   6.862  -0.731  1.00 20.00     0.020 C 
HETATM    4  C4  UNL     1     -40.989   5.411  -0.211  1.00 20.00    -0.012 C 
HETATM    5  C5  UNL     1     -42.978   5.548  -1.210  1.00 20.00     0.013 C 
HETATM    6  C6  UNL     1     -42.203   4.557  -2.116  1.00 20.00     0.050 C 
HETATM    7  C7  UNL     1     -42.370   6.953  -1.453  1.00 20.00     0.050 C 
ENDROOT
BRANCH   6   8
HETATM    8  S8  UNL     1     -43.045   2.946  -2.251  1.00 20.00    -0.177 SA
HETATM    9  H20 UNL     1     -43.405   2.874  -0.964  1.00 20.00     0.102 HD
ENDBRANCH   6   8
BRANCH   7  10
HETATM   10  S9  UNL     1     -43.416   8.282  -0.775  1.00 20.00    -0.177 SA
HETATM   11  H21 UNL     1     -43.178   7.997   0.512  1.00 20.00     0.102 HD
ENDBRANCH   7  10
TORSDOF 2
ENDMDL
MODEL 2
REMARK VINA RESULT:      -3.5     11.575     12.361
REMARK  2 active torsions:
REMARK  status: ('A' for Active; 'I' for Inactive)
REMARK    1  A    between atoms: C6_6  and  S8_8 
REMARK    2  A    between atoms: C7_7  and  S9_9 
ROOT
HETATM    1  C1  UNL     1     -36.366  14.397  -4.011  1.00 20.00     0.011 C 
HETATM    2  C2  UNL     1     -34.905  13.906  -5.827  1.00 20.00     0.020 C 
HETATM    3  C3  UNL     1     -34.067  14.099  -3.460  1.00 20.00     0.020 C 
HETATM    4  C4  UNL     1     -35.172  13.511  -4.361  1.00 20.00    -0.012 C 
HETATM    5  C5  UNL     1     -35.631  15.693  -4.376  1.00 20.00     0.013 C 
HETATM    6  C6  UNL     1     -35.187  15.422  -5.836  1.00 20.00     0.050 C 
HETATM    7  C7  UNL     1     -34.360  15.613  -3.494  1.00 20.00     0.050 C 
ENDROOT
BRANCH   6   8
HETATM    8  S8  UNL     1     -36.477  15.870  -7.043  1.00 20.00    -0.177 SA
HETATM    9  H20 UNL     1     -35.881  16.991  -7.468  1.00 20.00     0.102 HD
ENDBRANCH   6   8
BRANCH   7  10
HETATM   10  S9  UNL     1     -34.635  16.294  -1.826  1.00 20.00    -0.177 SA
HETATM   11  H21 UNL     1     -35.219  15.196  -1.327  1.00 20.00     0.102 HD
ENDBRANCH   7  10
TORSDOF 2
ENDMDL
MODEL 3
REMARK VINA RESULT:      -3.5     12.120     13.257
REMARK  2 active torsions:
REMARK  status: ('A' for Active; 'I' for Inactive)
REMARK    1  A    between atoms: C6_6  and  S8_8 
REMARK    2  A    between atoms: C7_7  and  S9_9 
ROOT
HETATM    1  C1  UNL     1     -32.963  15.503  -3.430  1.00 20.00     0.011 C 
HETATM    2  C2  UNL     1     -34.313  15.891  -5.353  1.00 20.00     0.020 C 
HETATM    3  C3  UNL     1     -34.166  17.559  -3.472  1.00 20.00     0.020 C 
HETATM    4  C4  UNL     1     -33.355  16.622  -4.391  1.00 20.00    -0.012 C 
HETATM    5  C5  UNL     1     -34.416  15.196  -3.044  1.00 20.00     0.013 C 
HETATM    6  C6  UNL     1     -35.074  14.926  -4.421  1.00 20.00     0.050 C 
HETATM    7  C7  UNL     1     -34.929  16.577  -2.560  1.00 20.00     0.050 C 
ENDROOT
BRANCH   6   8
HETATM    8  S8  UNL     1     -34.896  13.189  -4.940  1.00 20.00    -0.177 SA
HETATM    9  H20 UNL     1     -34.346  12.762  -3.797  1.00 20.00     0.102 HD
ENDBRANCH   6   8
BRANCH   7  10
HETATM   10  S9  UNL     1     -34.570  16.864  -0.796  1.00 20.00    -0.177 SA
HETATM   11  H21 UNL     1     -34.337  18.178  -0.919  1.00 20.00     0.102 HD
ENDBRANCH   7  10
TORSDOF 2
ENDMDL
MODEL 4
REMARK VINA RESULT:      -3.5     12.728     13.950
REMARK  2 active torsions:
REMARK  status: ('A' for Active; 'I' for Inactive)
REMARK    1  A    between atoms: C6_6  and  S8_8 
REMARK    2  A    between atoms: C7_7  and  S9_9 
ROOT
HETATM    1  C1  UNL     1     -35.464  16.610  -3.364  1.00 20.00     0.011 C 
HETATM    2  C2  UNL     1     -33.720  18.032  -2.585  1.00 20.00     0.020 C 
HETATM    3  C3  UNL     1     -33.357  16.383  -4.453  1.00 20.00     0.020 C 
HETATM    4  C4  UNL     1     -34.308  17.458  -3.889  1.00 20.00    -0.012 C 
HETATM    5  C5  UNL     1     -34.559  15.772  -2.451  1.00 20.00     0.013 C 
HETATM    6  C6  UNL     1     -33.860  16.858  -1.594  1.00 20.00     0.050 C 
HETATM    7  C7  UNL     1     -33.501  15.226  -3.443  1.00 20.00     0.050 C 
ENDROOT
BRANCH   6   8
HETATM    8  S8  UNL     1     -34.839  17.314  -0.126  1.00 20.00    -0.177 SA
HETATM    9  H20 UNL     1     -34.430  18.588  -0.082  1.00 20.00     0.102 HD
ENDBRANCH   6   8
BRANCH   7  10
HETATM   10  S9  UNL     1     -34.042  13.682  -4.245  1.00 20.00    -0.177 SA
HETATM   11  H21 UNL     1     -35.170  13.549  -3.535  1.00 20.00     0.102 HD
ENDBRANCH   7  10
TORSDOF 2
ENDMDL
MODEL 5
REMARK VINA RESULT:      -3.4     12.074     12.998
REMARK  2 active torsions:
REMARK  status: ('A' for Active; 'I' for Inactive)
REMARK    1  A    between atoms: C6_6  and  S8_8 
REMARK    2  A    between atoms: C7_7  and  S9_9 
ROOT
HETATM    1  C1  UNL     1     -35.828  15.360  -4.096  1.00 20.00     0.011 C 
HETATM    2  C2  UNL     1     -34.372  13.683  -4.956  1.00 20.00     0.020 C 
HETATM    3  C3  UNL     1     -33.638  15.290  -3.161  1.00 20.00     0.020 C 
HETATM    4  C4  UNL     1     -34.775  14.358  -3.630  1.00 20.00    -0.012 C 
HETATM    5  C5  UNL     1     -34.878  16.039  -5.091  1.00 20.00     0.013 C 
HETATM    6  C6  UNL     1     -34.408  14.849  -5.966  1.00 20.00     0.050 C 
HETATM    7  C7  UNL     1     -33.683  16.438  -4.189  1.00 20.00     0.050 C 
ENDROOT
BRANCH   6   8
HETATM    8  S8  UNL     1     -35.546  14.519  -7.350  1.00 20.00    -0.177 SA
HETATM    9  H20 UNL     1     -35.510  15.760  -7.852  1.00 20.00     0.102 HD
ENDBRANCH   6   8
BRANCH   7  10
HETATM   10  S9  UNL     1     -33.932  18.058  -3.393  1.00 20.00    -0.177 SA
HETATM   11  H21 UNL     1     -32.709  18.133  -2.852  1.00 20.00     0.102 HD
ENDBRANCH   7  10
TORSDOF 2
ENDMDL
MODEL 6
REMARK VINA RESULT:      -3.4     12.305     13.606
REMARK  2 active torsions:
REMARK  status: ('A' for Active; 'I' for Inactive)
REMARK    1  A    between atoms: C6_6  and  S8_8 
REMARK    2  A    between atoms: C7_7  and  S9_9 
ROOT
HETATM    1  C1  UNL     1     -33.240  16.307  -4.580  1.00 20.00     0.011 C 
HETATM    2  C2  UNL     1     -34.088  16.094  -2.365  1.00 20.00     0.020 C 
HETATM    3  C3  UNL     1     -34.123  14.174  -3.995  1.00 20.00     0.020 C 
HETATM    4  C4  UNL     1     -33.268  15.320  -3.417  1.00 20.00    -0.012 C 
HETATM    5  C5  UNL     1     -34.769  16.402  -4.661  1.00 20.00     0.013 C 
HETATM    6  C6  UNL     1     -35.151  16.818  -3.217  1.00 20.00     0.050 C 
HETATM    7  C7  UNL     1     -35.184  14.918  -4.830  1.00 20.00     0.050 C 
ENDROOT
BRANCH   6   8
HETATM    8  S8  UNL     1     -35.099  18.625  -2.985  1.00 20.00    -0.177 SA
HETATM    9  H20 UNL     1     -34.623  18.904  -4.205  1.00 20.00     0.102 HD
ENDBRANCH   6   8
BRANCH   7  10
HETATM   10  S9  UNL     1     -35.172  14.394  -6.575  1.00 20.00    -0.177 SA
HETATM   11  H21 UNL     1     -35.611  13.150  -6.345  1.00 20.00     0.102 HD
ENDBRANCH   7  10
TORSDOF 2
ENDMDL
MODEL 7
REMARK VINA RESULT:      -3.3     12.347     13.226
REMARK  2 active torsions:
REMARK  status: ('A' for Active; 'I' for Inactive)
REMARK    1  A    between atoms: C6_6  and  S8_8 
REMARK    2  A    between atoms: C7_7  and  S9_9 
ROOT
HETATM    1  C1  UNL     1     -35.078  15.728  -2.441  1.00 20.00     0.011 C 
HETATM    2  C2  UNL     1     -33.070  15.276  -3.639  1.00 20.00     0.020 C 
HETATM    3  C3  UNL     1     -33.847  17.628  -3.183  1.00 20.00     0.020 C 
HETATM    4  C4  UNL     1     -33.641  16.228  -2.569  1.00 20.00    -0.012 C 
HETATM    5  C5  UNL     1     -35.378  15.919  -3.933  1.00 20.00     0.013 C 
HETATM    6  C6  UNL     1     -34.257  15.086  -4.606  1.00 20.00     0.050 C 
HETATM    7  C7  UNL     1     -35.026  17.412  -4.153  1.00 20.00     0.050 C 
ENDROOT
BRANCH   6   8
HETATM    8  S8  UNL     1     -34.716  13.332  -4.787  1.00 20.00    -0.177 SA
HETATM    9  H20 UNL     1     -35.859  13.560  -5.447  1.00 20.00     0.102 HD
ENDBRANCH   6   8
BRANCH   7  10
HETATM   10  S9  UNL     1     -36.430  18.512  -3.778  1.00 20.00    -0.177 SA
HETATM   11  H21 UNL     1     -37.160  17.587  -3.141  1.00 20.00     0.102 HD
ENDBRANCH   7  10
TORSDOF 2
ENDMDL
MODEL 8
REMARK VINA RESULT:      -3.3     11.475     12.923
REMARK  2 active torsions:
REMARK  status: ('A' for Active; 'I' for Inactive)
REMARK    1  A    between atoms: C6_6  and  S8_8 
REMARK    2  A    between atoms: C7_7  and  S9_9 
ROOT
HETATM    1  C1  UNL     1     -34.969  16.009  -2.536  1.00 20.00     0.011 C 
HETATM    2  C2  UNL     1     -35.114  14.079  -3.925  1.00 20.00     0.020 C 
HETATM    3  C3  UNL     1     -33.241  15.747  -4.155  1.00 20.00     0.020 C 
HETATM    4  C4  UNL     1     -34.084  14.930  -3.155  1.00 20.00    -0.012 C 
HETATM    5  C5  UNL     1     -35.533  16.457  -3.891  1.00 20.00     0.013 C 
HETATM    6  C6  UNL     1     -36.102  15.134  -4.466  1.00 20.00     0.050 C 
HETATM    7  C7  UNL     1     -34.248  16.784  -4.693  1.00 20.00     0.050 C 
ENDROOT
BRANCH   6   8
HETATM    8  S8  UNL     1     -37.809  14.821  -3.913  1.00 20.00    -0.177 SA
HETATM    9  H20 UNL     1     -38.355  14.855  -5.135  1.00 20.00     0.102 HD
ENDBRANCH   6   8
BRANCH   7  10
HETATM   10  S9  UNL     1     -33.680  18.493  -4.416  1.00 20.00    -0.177 SA
HETATM   11  H21 UNL     1     -33.415  18.757  -5.702  1.00 20.00     0.102 HD
ENDBRANCH   7  10
TORSDOF 2
ENDMDL
MODEL 9
REMARK VINA RESULT:      -3.2     12.230     13.297
REMARK  2 active torsions:
REMARK  status: ('A' for Active; 'I' for Inactive)
REMARK    1  A    between atoms: C6_6  and  S8_8 
REMARK    2  A    between atoms: C7_7  and  S9_9 
ROOT
HETATM    1  C1  UNL     1     -34.527  17.111  -4.615  1.00 20.00     0.011 C 
HETATM    2  C2  UNL     1     -33.243  15.466  -3.468  1.00 20.00     0.020 C 
HETATM    3  C3  UNL     1     -34.372  14.978  -5.665  1.00 20.00     0.020 C 
HETATM    4  C4  UNL     1     -33.517  15.999  -4.888  1.00 20.00    -0.012 C 
HETATM    5  C5  UNL     1     -35.510  16.173  -3.903  1.00 20.00     0.013 C 
HETATM    6  C6  UNL     1     -34.626  15.551  -2.791  1.00 20.00     0.050 C 
HETATM    7  C7  UNL     1     -35.744  15.070  -4.966  1.00 20.00     0.050 C 
ENDROOT
BRANCH   6   8
HETATM    8  S8  UNL     1     -34.589  16.577  -1.286  1.00 20.00    -0.177 SA
HETATM    9  H20 UNL     1     -35.496  17.468  -1.708  1.00 20.00     0.102 HD
ENDBRANCH   6   8
BRANCH   7  10
HETATM   10  S9  UNL     1     -37.077  15.507  -6.129  1.00 20.00    -0.177 SA
HETATM   11  H21 UNL     1     -36.490  14.977  -7.211  1.00 20.00     0.102 HD
ENDBRANCH   7  10
TORSDOF 2
ENDMDL
