MODEL 1
REMARK VINA RESULT:      -3.8      0.000      0.000
REMARK  0 active torsions:
REMARK  status: ('A' for Active; 'I' for Inactive)
ROOT
HETATM    1  C1  UNL     1     -34.519   5.629   6.410  1.00 20.00     0.096 A 
HETATM    2  C2  UNL     1     -35.329   4.336   4.747  1.00 20.00     0.096 A 
HETATM    3  C3  UNL     1     -33.920   6.023   5.240  1.00 20.00    -0.025 A 
HETATM    4  C4  UNL     1     -34.428   5.214   4.199  1.00 20.00    -0.025 A 
HETATM    5  C5  UNL     1     -32.925   7.049   4.884  1.00 20.00     0.114 A 
HETATM    6  C6  UNL     1     -33.921   5.458   2.837  1.00 20.00     0.114 A 
HETATM    7  N7  UNL     1     -35.377   4.599   6.097  1.00 20.00    -0.374 N 
HETATM    8  S8  UNL     1     -32.713   6.854   3.049  1.00 20.00    -0.160 SA
HETATM    9  H15 UNL     1     -35.958   4.108   6.762  1.00 20.00     0.164 HD
ENDROOT
TORSDOF 0
ENDMDL
MODEL 2
REMARK VINA RESULT:      -3.8      0.039      1.924
REMARK  0 active torsions:
REMARK  status: ('A' for Active; 'I' for Inactive)
ROOT
HETATM    1  C1  UNL     1     -35.337   4.326   4.698  1.00 20.00     0.096 A 
HETATM    2  C2  UNL     1     -34.522   5.587   6.383  1.00 20.00     0.096 A 
HETATM    3  C3  UNL     1     -34.431   5.209   4.165  1.00 20.00    -0.025 A 
HETATM    4  C4  UNL     1     -33.921   5.998   5.220  1.00 20.00    -0.025 A 
HETATM    5  C5  UNL     1     -33.924   5.474   2.807  1.00 20.00     0.114 A 
HETATM    6  C6  UNL     1     -32.922   7.026   4.881  1.00 20.00     0.114 A 
HETATM    7  N7  UNL     1     -35.384   4.566   6.052  1.00 20.00    -0.374 N 
HETATM    8  S8  UNL     1     -32.712   6.861   3.042  1.00 20.00    -0.160 SA
HETATM    9  H15 UNL     1     -35.967   4.065   6.709  1.00 20.00     0.164 HD
ENDROOT
TORSDOF 0
ENDMDL
MODEL 3
REMARK VINA RESULT:      -3.7     12.155     12.512
REMARK  0 active torsions:
REMARK  status: ('A' for Active; 'I' for Inactive)
ROOT
HETATM    1  C1  UNL     1     -33.219  13.979  -3.690  1.00 20.00     0.096 A 
HETATM    2  C2  UNL     1     -35.305  13.411  -4.338  1.00 20.00     0.096 A 
HETATM    3  C3  UNL     1     -34.073  14.973  -3.282  1.00 20.00    -0.025 A 
HETATM    4  C4  UNL     1     -35.379  14.617  -3.688  1.00 20.00    -0.025 A 
HETATM    5  C5  UNL     1     -33.907  16.245  -2.557  1.00 20.00     0.114 A 
HETATM    6  C6  UNL     1     -36.473  15.546  -3.355  1.00 20.00     0.114 A 
HETATM    7  N7  UNL     1     -33.981  13.032  -4.334  1.00 20.00    -0.374 N 
HETATM    8  S8  UNL     1     -35.628  16.935  -2.456  1.00 20.00    -0.160 SA
HETATM    9  H15 UNL     1     -33.622  12.180  -4.742  1.00 20.00     0.164 HD
ENDROOT
TORSDOF 0
ENDMDL
MODEL 4
REMARK VINA RESULT:      -3.7     12.156     12.614
REMARK  0 active torsions:
REMARK  status: ('A' for Active; 'I' for Inactive)
ROOT
HETATM    1  C1  UNL     1     -35.231  13.402  -4.322  1.00 20.00     0.096 A 
HETATM    2  C2  UNL     1     -33.161  14.016  -3.664  1.00 20.00     0.096 A 
HETATM    3  C3  UNL     1     -35.333  14.612  -3.682  1.00 20.00    -0.025 A 
HETATM    4  C4  UNL     1     -34.037  14.996  -3.270  1.00 20.00    -0.025 A 
HETATM    5  C5  UNL     1     -36.447  15.522  -3.365  1.00 20.00     0.114 A 
HETATM    6  C6  UNL     1     -33.901  16.276  -2.554  1.00 20.00     0.114 A 
HETATM    7  N7  UNL     1     -33.901  13.047  -4.304  1.00 20.00    -0.374 N 
HETATM    8  S8  UNL     1     -35.637  16.934  -2.471  1.00 20.00    -0.160 SA
HETATM    9  H15 UNL     1     -33.522  12.200  -4.704  1.00 20.00     0.164 HD
ENDROOT
TORSDOF 0
ENDMDL
MODEL 5
REMARK VINA RESULT:      -3.6     12.704     13.537
REMARK  0 active torsions:
REMARK  status: ('A' for Active; 'I' for Inactive)
ROOT
HETATM    1  C1  UNL     1     -33.425  14.664  -3.667  1.00 20.00     0.096 A 
HETATM    2  C2  UNL     1     -34.629  13.120  -4.789  1.00 20.00     0.096 A 
HETATM    3  C3  UNL     1     -33.827  15.224  -4.853  1.00 20.00    -0.025 A 
HETATM    4  C4  UNL     1     -34.581  14.257  -5.556  1.00 20.00    -0.025 A 
HETATM    5  C5  UNL     1     -33.641  16.539  -5.491  1.00 20.00     0.114 A 
HETATM    6  C6  UNL     1     -35.122  14.638  -6.872  1.00 20.00     0.114 A 
HETATM    7  N7  UNL     1     -33.920  13.380  -3.638  1.00 20.00    -0.374 N 
HETATM    8  S8  UNL     1     -34.548  16.390  -7.105  1.00 20.00    -0.160 SA
HETATM    9  H15 UNL     1     -33.783  12.723  -2.882  1.00 20.00     0.164 HD
ENDROOT
TORSDOF 0
ENDMDL
MODEL 6
REMARK VINA RESULT:      -3.6     12.705     13.670
REMARK  0 active torsions:
REMARK  status: ('A' for Active; 'I' for Inactive)
ROOT
HETATM    1  C1  UNL     1     -34.702  13.092  -4.835  1.00 20.00     0.096 A 
HETATM    2  C2  UNL     1     -33.483  14.613  -3.698  1.00 20.00     0.096 A 
HETATM    3  C3  UNL     1     -34.639  14.234  -5.594  1.00 20.00    -0.025 A 
HETATM    4  C4  UNL     1     -33.876  15.186  -4.881  1.00 20.00    -0.025 A 
HETATM    5  C5  UNL     1     -35.171  14.632  -6.909  1.00 20.00     0.114 A 
HETATM    6  C6  UNL     1     -33.673  16.504  -5.508  1.00 20.00     0.114 A 
HETATM    7  N7  UNL     1     -33.994  13.335  -3.681  1.00 20.00    -0.374 N 
HETATM    8  S8  UNL     1     -34.578  16.379  -7.126  1.00 20.00    -0.160 SA
HETATM    9  H15 UNL     1     -33.866  12.671  -2.930  1.00 20.00     0.164 HD
ENDROOT
TORSDOF 0
ENDMDL
MODEL 7
REMARK VINA RESULT:      -3.6      9.527     10.135
REMARK  0 active torsions:
REMARK  status: ('A' for Active; 'I' for Inactive)
ROOT
HETATM    1  C1  UNL     1     -40.626   5.513  -0.471  1.00 20.00     0.096 A 
HETATM    2  C2  UNL     1     -41.526   4.183  -2.057  1.00 20.00     0.096 A 
HETATM    3  C3  UNL     1     -41.458   6.283  -1.245  1.00 20.00    -0.025 A 
HETATM    4  C4  UNL     1     -42.021   5.450  -2.238  1.00 20.00    -0.025 A 
HETATM    5  C5  UNL     1     -41.850   7.703  -1.243  1.00 20.00     0.114 A 
HETATM    6  C6  UNL     1     -42.956   6.066  -3.195  1.00 20.00     0.114 A 
HETATM    7  N7  UNL     1     -40.675   4.234  -0.976  1.00 20.00    -0.374 N 
HETATM    8  S8  UNL     1     -43.029   7.847  -2.671  1.00 20.00    -0.160 SA
HETATM    9  H15 UNL     1     -40.162   3.445  -0.605  1.00 20.00     0.164 HD
ENDROOT
TORSDOF 0
ENDMDL
MODEL 8
REMARK VINA RESULT:      -3.5      9.621     10.324
REMARK  0 active torsions:
REMARK  status: ('A' for Active; 'I' for Inactive)
ROOT
HETATM    1  C1  UNL     1     -40.769   6.880  -0.659  1.00 20.00     0.096 A 
HETATM    2  C2  UNL     1     -42.348   7.569  -2.118  1.00 20.00     0.096 A 
HETATM    3  C3  UNL     1     -41.242   5.776  -1.322  1.00 20.00    -0.025 A 
HETATM    4  C4  UNL     1     -42.230   6.207  -2.236  1.00 20.00    -0.025 A 
HETATM    5  C5  UNL     1     -40.942   4.334  -1.272  1.00 20.00     0.114 A 
HETATM    6  C6  UNL     1     -42.885   5.182  -3.066  1.00 20.00     0.114 A 
HETATM    7  N7  UNL     1     -41.451   7.969  -1.152  1.00 20.00    -0.374 N 
HETATM    8  S8  UNL     1     -42.081   3.592  -2.537  1.00 20.00    -0.160 SA
HETATM    9  H15 UNL     1     -41.313   8.924  -0.850  1.00 20.00     0.164 HD
ENDROOT
TORSDOF 0
ENDMDL
MODEL 9
REMARK VINA RESULT:      -3.4      9.817     10.610
REMARK  0 active torsions:
REMARK  status: ('A' for Active; 'I' for Inactive)
ROOT
HETATM    1  C1  UNL     1     -42.210   3.877  -2.545  1.00 20.00     0.096 A 
HETATM    2  C2  UNL     1     -40.735   4.700  -1.048  1.00 20.00     0.096 A 
HETATM    3  C3  UNL     1     -42.440   5.225  -2.423  1.00 20.00    -0.025 A 
HETATM    4  C4  UNL     1     -41.516   5.740  -1.486  1.00 20.00    -0.025 A 
HETATM    5  C5  UNL     1     -43.391   6.170  -3.033  1.00 20.00     0.114 A 
HETATM    6  C6  UNL     1     -41.576   7.181  -1.191  1.00 20.00     0.114 A 
HETATM    7  N7  UNL     1     -41.168   3.568  -1.701  1.00 20.00    -0.374 N 
HETATM    8  S8  UNL     1     -42.962   7.804  -2.261  1.00 20.00    -0.160 SA
HETATM    9  H15 UNL     1     -40.776   2.644  -1.580  1.00 20.00     0.164 HD
ENDROOT
TORSDOF 0
ENDMDL
