MODEL 1
REMARK VINA RESULT:      -4.1      0.000      0.000
REMARK  2 active torsions:
REMARK  status: ('A' for Active; 'I' for Inactive)
REMARK    1  A    between atoms: C1_1  and  C5_5 
REMARK    2  A    between atoms: C5_5  and  C6_6 
ROOT
HETATM    1  C5  UNL     1     -34.075   6.623   4.175  1.00 20.00     0.190 C 
HETATM    2 CL9  UNL     1     -35.045   5.403   3.297  1.00 20.00    -0.114 Cl
ENDROOT
BRANCH   1   3
HETATM    3  C1  UNL     1     -34.063   6.156   5.624  1.00 20.00     0.144 C 
HETATM    4  C2  UNL     1     -34.498   4.737   5.881  1.00 20.00     0.092 C 
HETATM    5  O7  UNL     1     -33.742   6.899   6.552  1.00 20.00    -0.297 OA
ENDBRANCH   1   3
BRANCH   1   6
HETATM    6  C6  UNL     1     -32.663   6.783   3.583  1.00 20.00     0.119 C 
HETATM    7  C3  UNL     1     -32.117   5.449   3.065  1.00 20.00     0.053 C 
HETATM    8  C4  UNL     1     -32.617   7.816   2.455  1.00 20.00     0.053 C 
HETATM    9  F8  UNL     1     -31.817   7.215   4.564  1.00 20.00    -0.242 F 
ENDBRANCH   1   6
TORSDOF 2
ENDMDL
MODEL 2
REMARK VINA RESULT:      -4.0      2.376      3.501
REMARK  2 active torsions:
REMARK  status: ('A' for Active; 'I' for Inactive)
REMARK    1  A    between atoms: C1_1  and  C5_5 
REMARK    2  A    between atoms: C5_5  and  C6_6 
ROOT
HETATM    1  C5  UNL     1     -33.941   6.627   4.105  1.00 20.00     0.190 C 
HETATM    2 CL9  UNL     1     -33.532   6.587   5.846  1.00 20.00    -0.114 Cl
ENDROOT
BRANCH   1   3
HETATM    3  C1  UNL     1     -32.604   6.604   3.379  1.00 20.00     0.144 C 
HETATM    4  C2  UNL     1     -32.283   7.795   2.513  1.00 20.00     0.092 C 
HETATM    5  O7  UNL     1     -31.825   5.654   3.465  1.00 20.00    -0.297 OA
ENDBRANCH   1   3
BRANCH   1   6
HETATM    6  C6  UNL     1     -34.868   5.467   3.696  1.00 20.00     0.119 C 
HETATM    7  C3  UNL     1     -34.937   4.393   4.785  1.00 20.00     0.053 C 
HETATM    8  C4  UNL     1     -36.285   5.941   3.367  1.00 20.00     0.053 C 
HETATM    9  F8  UNL     1     -34.366   4.875   2.572  1.00 20.00    -0.242 F 
ENDBRANCH   1   6
TORSDOF 2
ENDMDL
MODEL 3
REMARK VINA RESULT:      -4.0     11.830     12.516
REMARK  2 active torsions:
REMARK  status: ('A' for Active; 'I' for Inactive)
REMARK    1  A    between atoms: C1_1  and  C5_5 
REMARK    2  A    between atoms: C5_5  and  C6_6 
ROOT
HETATM    1  C5  UNL     1     -34.089  15.082  -4.397  1.00 20.00     0.190 C 
HETATM    2 CL9  UNL     1     -32.629  14.493  -3.548  1.00 20.00    -0.114 Cl
ENDROOT
BRANCH   1   3
HETATM    3  C1  UNL     1     -34.605  13.885  -5.182  1.00 20.00     0.144 C 
HETATM    4  C2  UNL     1     -35.253  14.176  -6.511  1.00 20.00     0.092 C 
HETATM    5  O7  UNL     1     -34.528  12.733  -4.753  1.00 20.00    -0.297 OA
ENDBRANCH   1   3
BRANCH   1   6
HETATM    6  C6  UNL     1     -35.135  15.660  -3.426  1.00 20.00     0.119 C 
HETATM    7  C3  UNL     1     -34.518  15.986  -2.063  1.00 20.00     0.053 C 
HETATM    8  C4  UNL     1     -35.816  16.913  -3.981  1.00 20.00     0.053 C 
HETATM    9  F8  UNL     1     -36.110  14.727  -3.219  1.00 20.00    -0.242 F 
ENDBRANCH   1   6
TORSDOF 2
ENDMDL
MODEL 4
REMARK VINA RESULT:      -4.0     12.163     12.573
REMARK  2 active torsions:
REMARK  status: ('A' for Active; 'I' for Inactive)
REMARK    1  A    between atoms: C1_1  and  C5_5 
REMARK    2  A    between atoms: C5_5  and  C6_6 
ROOT
HETATM    1  C5  UNL     1     -35.127  14.917  -3.992  1.00 20.00     0.190 C 
HETATM    2 CL9  UNL     1     -36.269  16.082  -4.724  1.00 20.00    -0.114 Cl
ENDROOT
BRANCH   1   3
HETATM    3  C1  UNL     1     -34.999  13.790  -5.007  1.00 20.00     0.144 C 
HETATM    4  C2  UNL     1     -35.161  14.165  -6.458  1.00 20.00     0.092 C 
HETATM    5  O7  UNL     1     -34.802  12.621  -4.673  1.00 20.00    -0.297 OA
ENDBRANCH   1   3
BRANCH   1   6
HETATM    6  C6  UNL     1     -33.775  15.566  -3.642  1.00 20.00     0.119 C 
HETATM    7  C3  UNL     1     -33.299  16.506  -4.752  1.00 20.00     0.053 C 
HETATM    8  C4  UNL     1     -33.822  16.334  -2.319  1.00 20.00     0.053 C 
HETATM    9  F8  UNL     1     -32.834  14.585  -3.507  1.00 20.00    -0.242 F 
ENDBRANCH   1   6
TORSDOF 2
ENDMDL
MODEL 5
REMARK VINA RESULT:      -3.9     11.637     12.972
REMARK  2 active torsions:
REMARK  status: ('A' for Active; 'I' for Inactive)
REMARK    1  A    between atoms: C1_1  and  C5_5 
REMARK    2  A    between atoms: C5_5  and  C6_6 
ROOT
HETATM    1  C5  UNL     1     -35.314  14.943  -4.675  1.00 20.00     0.190 C 
HETATM    2 CL9  UNL     1     -37.018  14.648  -4.219  1.00 20.00    -0.114 Cl
ENDROOT
BRANCH   1   3
HETATM    3  C1  UNL     1     -34.571  13.672  -4.288  1.00 20.00     0.144 C 
HETATM    4  C2  UNL     1     -33.205  13.847  -3.677  1.00 20.00     0.092 C 
HETATM    5  O7  UNL     1     -35.039  12.550  -4.485  1.00 20.00    -0.297 OA
ENDBRANCH   1   3
BRANCH   1   6
HETATM    6  C6  UNL     1     -35.162  15.298  -6.166  1.00 20.00     0.119 C 
HETATM    7  C3  UNL     1     -36.457  15.036  -6.940  1.00 20.00     0.053 C 
HETATM    8  C4  UNL     1     -34.735  16.752  -6.378  1.00 20.00     0.053 C 
HETATM    9  F8  UNL     1     -34.193  14.507  -6.713  1.00 20.00    -0.242 F 
ENDBRANCH   1   6
TORSDOF 2
ENDMDL
MODEL 6
REMARK VINA RESULT:      -3.8      2.134      2.311
REMARK  2 active torsions:
REMARK  status: ('A' for Active; 'I' for Inactive)
REMARK    1  A    between atoms: C1_1  and  C5_5 
REMARK    2  A    between atoms: C5_5  and  C6_6 
ROOT
HETATM    1  C5  UNL     1     -33.624   5.768   4.995  1.00 20.00     0.190 C 
HETATM    2 CL9  UNL     1     -33.758   6.913   6.363  1.00 20.00    -0.114 Cl
ENDROOT
BRANCH   1   3
HETATM    3  C1  UNL     1     -34.932   4.991   4.994  1.00 20.00     0.144 C 
HETATM    4  C2  UNL     1     -35.061   3.882   6.007  1.00 20.00     0.092 C 
HETATM    5  O7  UNL     1     -35.838   5.227   4.194  1.00 20.00    -0.297 OA
ENDBRANCH   1   3
BRANCH   1   6
HETATM    6  C6  UNL     1     -33.349   6.484   3.660  1.00 20.00     0.119 C 
HETATM    7  C3  UNL     1     -31.957   7.122   3.641  1.00 20.00     0.053 C 
HETATM    8  C4  UNL     1     -33.489   5.549   2.457  1.00 20.00     0.053 C 
HETATM    9  F8  UNL     1     -34.259   7.490   3.501  1.00 20.00    -0.242 F 
ENDBRANCH   1   6
TORSDOF 2
ENDMDL
MODEL 7
REMARK VINA RESULT:      -3.7     12.219     13.068
REMARK  2 active torsions:
REMARK  status: ('A' for Active; 'I' for Inactive)
REMARK    1  A    between atoms: C1_1  and  C5_5 
REMARK    2  A    between atoms: C5_5  and  C6_6 
ROOT
HETATM    1  C5  UNL     1     -34.536  14.970  -4.543  1.00 20.00     0.190 C 
HETATM    2 CL9  UNL     1     -34.403  13.222  -4.895  1.00 20.00    -0.114 Cl
ENDROOT
BRANCH   1   3
HETATM    3  C1  UNL     1     -33.453  15.254  -3.512  1.00 20.00     0.144 C 
HETATM    4  C2  UNL     1     -33.768  16.295  -2.469  1.00 20.00     0.092 C 
HETATM    5  O7  UNL     1     -32.359  14.689  -3.533  1.00 20.00    -0.297 OA
ENDBRANCH   1   3
BRANCH   1   6
HETATM    6  C6  UNL     1     -34.399  15.833  -5.812  1.00 20.00     0.119 C 
HETATM    7  C3  UNL     1     -34.420  14.974  -7.079  1.00 20.00     0.053 C 
HETATM    8  C4  UNL     1     -35.488  16.902  -5.910  1.00 20.00     0.053 C 
HETATM    9  F8  UNL     1     -33.196  16.480  -5.779  1.00 20.00    -0.242 F 
ENDBRANCH   1   6
TORSDOF 2
ENDMDL
MODEL 8
REMARK VINA RESULT:      -3.7     11.990     12.531
REMARK  2 active torsions:
REMARK  status: ('A' for Active; 'I' for Inactive)
REMARK    1  A    between atoms: C1_1  and  C5_5 
REMARK    2  A    between atoms: C5_5  and  C6_6 
ROOT
HETATM    1  C5  UNL     1     -34.741  15.716  -3.796  1.00 20.00     0.190 C 
HETATM    2 CL9  UNL     1     -34.700  15.820  -2.011  1.00 20.00    -0.114 Cl
ENDROOT
BRANCH   1   3
HETATM    3  C1  UNL     1     -33.283  15.737  -4.232  1.00 20.00     0.144 C 
HETATM    4  C2  UNL     1     -32.363  14.750  -3.561  1.00 20.00     0.092 C 
HETATM    5  O7  UNL     1     -32.857  16.534  -5.068  1.00 20.00    -0.297 OA
ENDBRANCH   1   3
BRANCH   1   6
HETATM    6  C6  UNL     1     -35.498  14.469  -4.290  1.00 20.00     0.119 C 
HETATM    7  C3  UNL     1     -37.004  14.590  -4.040  1.00 20.00     0.053 C 
HETATM    8  C4  UNL     1     -35.257  14.191  -5.776  1.00 20.00     0.053 C 
HETATM    9  F8  UNL     1     -35.057  13.379  -3.597  1.00 20.00    -0.242 F 
ENDBRANCH   1   6
TORSDOF 2
ENDMDL
MODEL 9
REMARK VINA RESULT:      -3.7     11.790     12.365
REMARK  2 active torsions:
REMARK  status: ('A' for Active; 'I' for Inactive)
REMARK    1  A    between atoms: C1_1  and  C5_5 
REMARK    2  A    between atoms: C5_5  and  C6_6 
ROOT
HETATM    1  C5  UNL     1     -35.342  15.219  -4.597  1.00 20.00     0.190 C 
HETATM    2 CL9  UNL     1     -35.117  14.008  -5.895  1.00 20.00    -0.114 Cl
ENDROOT
BRANCH   1   3
HETATM    3  C1  UNL     1     -36.807  15.110  -4.199  1.00 20.00     0.144 C 
HETATM    4  C2  UNL     1     -37.627  16.371  -4.285  1.00 20.00     0.092 C 
HETATM    5  O7  UNL     1     -37.304  14.057  -3.798  1.00 20.00    -0.297 OA
ENDBRANCH   1   3
BRANCH   1   6
HETATM    6  C6  UNL     1     -34.379  14.995  -3.417  1.00 20.00     0.119 C 
HETATM    7  C3  UNL     1     -32.933  15.317  -3.802  1.00 20.00     0.053 C 
HETATM    8  C4  UNL     1     -34.766  15.817  -2.185  1.00 20.00     0.053 C 
HETATM    9  F8  UNL     1     -34.421  13.679  -3.055  1.00 20.00    -0.242 F 
ENDBRANCH   1   6
TORSDOF 2
ENDMDL
