MODEL 1
REMARK VINA RESULT:      -4.1      0.000      0.000
REMARK  2 active torsions:
REMARK  status: ('A' for Active; 'I' for Inactive)
REMARK    1  A    between atoms: C1_1  and  C5_5 
REMARK    2  A    between atoms: C1_1  and  C6_6 
ROOT
HETATM    1  C1  UNL     1     -35.152  15.149  -3.319  1.00 20.00     0.184 C 
HETATM    2  O7  UNL     1     -36.362  15.347  -3.200  1.00 20.00    -0.293 OA
ENDROOT
BRANCH   1   3
HETATM    3  C5  UNL     1     -34.124  16.008  -2.586  1.00 20.00     0.052 C 
HETATM    4  C2  UNL     1     -33.794  17.236  -3.425  1.00 20.00     0.017 C 
HETATM    5  C3  UNL     1     -34.632  16.413  -1.204  1.00 20.00     0.017 C 
ENDBRANCH   1   3
BRANCH   1   6
HETATM    6  C6  UNL     1     -34.620  14.024  -4.194  1.00 20.00     0.235 C 
HETATM    7  C4  UNL     1     -34.608  14.421  -5.660  1.00 20.00     0.079 C 
HETATM    8  F8  UNL     1     -35.362  12.891  -4.070  1.00 20.00    -0.217 F 
HETATM    9 CL9  UNL     1     -32.969  13.671  -3.628  1.00 20.00    -0.075 Cl
ENDBRANCH   1   6
TORSDOF 2
ENDMDL
MODEL 2
REMARK VINA RESULT:      -3.9     11.610     12.182
REMARK  2 active torsions:
REMARK  status: ('A' for Active; 'I' for Inactive)
REMARK    1  A    between atoms: C1_1  and  C5_5 
REMARK    2  A    between atoms: C1_1  and  C6_6 
ROOT
HETATM    1  C1  UNL     1     -33.564   6.291   4.818  1.00 20.00     0.184 C 
HETATM    2  O7  UNL     1     -33.497   6.838   5.921  1.00 20.00    -0.293 OA
ENDROOT
BRANCH   1   3
HETATM    3  C5  UNL     1     -34.479   5.095   4.572  1.00 20.00     0.052 C 
HETATM    4  C2  UNL     1     -34.866   4.466   5.905  1.00 20.00     0.017 C 
HETATM    5  C3  UNL     1     -35.720   5.506   3.784  1.00 20.00     0.017 C 
ENDBRANCH   1   3
BRANCH   1   6
HETATM    6  C6  UNL     1     -32.744   6.793   3.640  1.00 20.00     0.235 C 
HETATM    7  C4  UNL     1     -31.516   7.557   4.103  1.00 20.00     0.079 C 
HETATM    8  F8  UNL     1     -33.468   7.613   2.830  1.00 20.00    -0.217 F 
HETATM    9 CL9  UNL     1     -32.271   5.359   2.697  1.00 20.00    -0.075 Cl
ENDBRANCH   1   6
TORSDOF 2
ENDMDL
MODEL 3
REMARK VINA RESULT:      -3.9      1.587      1.607
REMARK  2 active torsions:
REMARK  status: ('A' for Active; 'I' for Inactive)
REMARK    1  A    between atoms: C1_1  and  C5_5 
REMARK    2  A    between atoms: C1_1  and  C6_6 
ROOT
HETATM    1  C1  UNL     1     -34.819  15.535  -3.042  1.00 20.00     0.184 C 
HETATM    2  O7  UNL     1     -36.049  15.509  -2.973  1.00 20.00    -0.293 OA
ENDROOT
BRANCH   1   3
HETATM    3  C5  UNL     1     -33.987  16.455  -2.151  1.00 20.00     0.052 C 
HETATM    4  C2  UNL     1     -33.810  17.805  -2.835  1.00 20.00     0.017 C 
HETATM    5  C3  UNL     1     -34.634  16.621  -0.777  1.00 20.00     0.017 C 
ENDBRANCH   1   3
BRANCH   1   6
HETATM    6  C6  UNL     1     -34.065  14.638  -4.010  1.00 20.00     0.235 C 
HETATM    7  C4  UNL     1     -34.764  13.301  -4.188  1.00 20.00     0.079 C 
HETATM    8  F8  UNL     1     -32.792  14.396  -3.593  1.00 20.00    -0.217 F 
HETATM    9 CL9  UNL     1     -33.984  15.511  -5.560  1.00 20.00    -0.075 Cl
ENDBRANCH   1   6
TORSDOF 2
ENDMDL
MODEL 4
REMARK VINA RESULT:      -3.9      2.347      3.370
REMARK  2 active torsions:
REMARK  status: ('A' for Active; 'I' for Inactive)
REMARK    1  A    between atoms: C1_1  and  C5_5 
REMARK    2  A    between atoms: C1_1  and  C6_6 
ROOT
HETATM    1  C1  UNL     1     -34.589  14.067  -4.861  1.00 20.00     0.184 C 
HETATM    2  O7  UNL     1     -34.717  12.843  -4.785  1.00 20.00    -0.293 OA
ENDROOT
BRANCH   1   3
HETATM    3  C5  UNL     1     -35.411  14.898  -5.844  1.00 20.00     0.052 C 
HETATM    4  C2  UNL     1     -35.331  14.273  -7.232  1.00 20.00     0.017 C 
HETATM    5  C3  UNL     1     -36.861  15.017  -5.383  1.00 20.00     0.017 C 
ENDBRANCH   1   3
BRANCH   1   6
HETATM    6  C6  UNL     1     -33.612  14.814  -3.967  1.00 20.00     0.235 C 
HETATM    7  C4  UNL     1     -33.039  16.033  -4.667  1.00 20.00     0.079 C 
HETATM    8  F8  UNL     1     -32.574  14.025  -3.578  1.00 20.00    -0.217 F 
HETATM    9 CL9  UNL     1     -34.517  15.297  -2.511  1.00 20.00    -0.075 Cl
ENDBRANCH   1   6
TORSDOF 2
ENDMDL
MODEL 5
REMARK VINA RESULT:      -3.9      2.343      3.596
REMARK  2 active torsions:
REMARK  status: ('A' for Active; 'I' for Inactive)
REMARK    1  A    between atoms: C1_1  and  C5_5 
REMARK    2  A    between atoms: C1_1  and  C6_6 
ROOT
HETATM    1  C1  UNL     1     -33.694  15.843  -4.921  1.00 20.00     0.184 C 
HETATM    2  O7  UNL     1     -32.971  16.772  -5.286  1.00 20.00    -0.293 OA
ENDROOT
BRANCH   1   3
HETATM    3  C5  UNL     1     -34.844  15.335  -5.788  1.00 20.00     0.052 C 
HETATM    4  C2  UNL     1     -35.974  16.358  -5.786  1.00 20.00     0.017 C 
HETATM    5  C3  UNL     1     -34.373  15.047  -7.211  1.00 20.00     0.017 C 
ENDBRANCH   1   3
BRANCH   1   6
HETATM    6  C6  UNL     1     -33.466  15.143  -3.590  1.00 20.00     0.235 C 
HETATM    7  C4  UNL     1     -33.861  16.030  -2.422  1.00 20.00     0.079 C 
HETATM    8  F8  UNL     1     -32.164  14.782  -3.423  1.00 20.00    -0.217 F 
HETATM    9 CL9  UNL     1     -34.454  13.663  -3.613  1.00 20.00    -0.075 Cl
ENDBRANCH   1   6
TORSDOF 2
ENDMDL
MODEL 6
REMARK VINA RESULT:      -3.8      1.990      2.380
REMARK  2 active torsions:
REMARK  status: ('A' for Active; 'I' for Inactive)
REMARK    1  A    between atoms: C1_1  and  C5_5 
REMARK    2  A    between atoms: C1_1  and  C6_6 
ROOT
HETATM    1  C1  UNL     1     -33.594  15.031  -3.887  1.00 20.00     0.184 C 
HETATM    2  O7  UNL     1     -32.419  14.787  -3.606  1.00 20.00    -0.293 OA
ENDROOT
BRANCH   1   3
HETATM    3  C5  UNL     1     -34.284  16.304  -3.404  1.00 20.00     0.052 C 
HETATM    4  C2  UNL     1     -34.143  16.419  -1.891  1.00 20.00     0.017 C 
HETATM    5  C3  UNL     1     -33.710  17.537  -4.100  1.00 20.00     0.017 C 
ENDBRANCH   1   3
BRANCH   1   6
HETATM    6  C6  UNL     1     -34.413  14.078  -4.743  1.00 20.00     0.235 C 
HETATM    7  C4  UNL     1     -35.835  13.950  -4.225  1.00 20.00     0.079 C 
HETATM    8  F8  UNL     1     -33.866  12.832  -4.783  1.00 20.00    -0.217 F 
HETATM    9 CL9  UNL     1     -34.407  14.740  -6.396  1.00 20.00    -0.075 Cl
ENDBRANCH   1   6
TORSDOF 2
ENDMDL
MODEL 7
REMARK VINA RESULT:      -3.7      2.803      3.247
REMARK  2 active torsions:
REMARK  status: ('A' for Active; 'I' for Inactive)
REMARK    1  A    between atoms: C1_1  and  C5_5 
REMARK    2  A    between atoms: C1_1  and  C6_6 
ROOT
HETATM    1  C1  UNL     1     -33.820  15.767  -5.095  1.00 20.00     0.184 C 
HETATM    2  O7  UNL     1     -32.858  16.524  -4.951  1.00 20.00    -0.293 OA
ENDROOT
BRANCH   1   3
HETATM    3  C5  UNL     1     -34.347  14.914  -3.944  1.00 20.00     0.052 C 
HETATM    4  C2  UNL     1     -33.489  13.663  -3.802  1.00 20.00     0.017 C 
HETATM    5  C3  UNL     1     -34.372  15.708  -2.640  1.00 20.00     0.017 C 
ENDBRANCH   1   3
BRANCH   1   6
HETATM    6  C6  UNL     1     -34.542  15.657  -6.429  1.00 20.00     0.235 C 
HETATM    7  C4  UNL     1     -35.985  15.222  -6.244  1.00 20.00     0.079 C 
HETATM    8  F8  UNL     1     -33.938  14.766  -7.262  1.00 20.00    -0.217 F 
HETATM    9 CL9  UNL     1     -34.467  17.266  -7.188  1.00 20.00    -0.075 Cl
ENDBRANCH   1   6
TORSDOF 2
ENDMDL
MODEL 8
REMARK VINA RESULT:      -3.6     12.040     12.540
REMARK  2 active torsions:
REMARK  status: ('A' for Active; 'I' for Inactive)
REMARK    1  A    between atoms: C1_1  and  C5_5 
REMARK    2  A    between atoms: C1_1  and  C6_6 
ROOT
HETATM    1  C1  UNL     1     -33.890   6.054   4.574  1.00 20.00     0.184 C 
HETATM    2  O7  UNL     1     -32.841   6.568   4.179  1.00 20.00    -0.293 OA
ENDROOT
BRANCH   1   3
HETATM    3  C5  UNL     1     -34.359   6.201   6.020  1.00 20.00     0.052 C 
HETATM    4  C2  UNL     1     -34.368   4.835   6.694  1.00 20.00     0.017 C 
HETATM    5  C3  UNL     1     -33.474   7.181   6.786  1.00 20.00     0.017 C 
ENDBRANCH   1   3
BRANCH   1   6
HETATM    6  C6  UNL     1     -34.779   5.257   3.632  1.00 20.00     0.235 C 
HETATM    7  C4  UNL     1     -36.125   5.933   3.436  1.00 20.00     0.079 C 
HETATM    8  F8  UNL     1     -35.005   3.996   4.091  1.00 20.00    -0.217 F 
HETATM    9 CL9  UNL     1     -33.908   5.136   2.084  1.00 20.00    -0.075 Cl
ENDBRANCH   1   6
TORSDOF 2
ENDMDL
MODEL 9
REMARK VINA RESULT:      -3.6      2.345      3.386
REMARK  2 active torsions:
REMARK  status: ('A' for Active; 'I' for Inactive)
REMARK    1  A    between atoms: C1_1  and  C5_5 
REMARK    2  A    between atoms: C1_1  and  C6_6 
ROOT
HETATM    1  C1  UNL     1     -33.863  15.834  -4.993  1.00 20.00     0.184 C 
HETATM    2  O7  UNL     1     -32.780  16.406  -4.858  1.00 20.00    -0.293 OA
ENDROOT
BRANCH   1   3
HETATM    3  C5  UNL     1     -34.721  16.031  -6.241  1.00 20.00     0.052 C 
HETATM    4  C2  UNL     1     -34.437  17.400  -6.845  1.00 20.00     0.017 C 
HETATM    5  C3  UNL     1     -34.470  14.922  -7.261  1.00 20.00     0.017 C 
ENDBRANCH   1   3
BRANCH   1   6
HETATM    6  C6  UNL     1     -34.393  14.888  -3.927  1.00 20.00     0.235 C 
HETATM    7  C4  UNL     1     -33.532  13.642  -3.813  1.00 20.00     0.079 C 
HETATM    8  F8  UNL     1     -35.670  14.495  -4.186  1.00 20.00    -0.217 F 
HETATM    9 CL9  UNL     1     -34.391  15.792  -2.393  1.00 20.00    -0.075 Cl
ENDBRANCH   1   6
TORSDOF 2
ENDMDL
