MODEL 1
REMARK VINA RESULT:      -4.6      0.000      0.000
REMARK  1 active torsions:
REMARK  status: ('A' for Active; 'I' for Inactive)
REMARK    1  A    between atoms: C6_6  and  C10_10 
ROOT
HETATM    1  C1  UNL     1     -34.519  13.512  -4.162  1.00 20.00     0.059 C 
HETATM    2  C10 UNL     1     -34.144  14.534  -3.201  1.00 20.00     0.133 C 
HETATM    3  N11 UNL     1     -34.784  12.668  -4.913  1.00 20.00    -0.197 NA
ENDROOT
BRANCH   2   4
HETATM    4  C6  UNL     1     -35.156  15.670  -3.471  1.00 20.00    -0.025 C 
HETATM    5  C4  UNL     1     -34.874  16.271  -4.864  1.00 20.00     0.011 C 
HETATM    6  C2  UNL     1     -33.810  17.349  -4.652  1.00 20.00     0.002 C 
HETATM    7  C3  UNL     1     -33.724  17.598  -3.145  1.00 20.00     0.010 C 
HETATM    8  C5  UNL     1     -34.959  16.909  -2.528  1.00 20.00    -0.040 C 
HETATM    9  C7  UNL     1     -34.700  16.544  -1.059  1.00 20.00     0.015 C 
HETATM   10  C8  UNL     1     -36.151  17.893  -2.561  1.00 20.00     0.015 C 
HETATM   11  C9  UNL     1     -36.564  15.059  -3.419  1.00 20.00     0.017 C 
ENDBRANCH   2   4
TORSDOF 1
ENDMDL
MODEL 2
REMARK VINA RESULT:      -4.6      1.660      3.114
REMARK  1 active torsions:
REMARK  status: ('A' for Active; 'I' for Inactive)
REMARK    1  A    between atoms: C6_6  and  C10_10 
ROOT
HETATM    1  C1  UNL     1     -37.338  14.960  -4.020  1.00 20.00     0.059 C 
HETATM    2  C10 UNL     1     -36.218  15.776  -4.458  1.00 20.00     0.133 C 
HETATM    3  N11 UNL     1     -38.262  14.337  -3.697  1.00 20.00    -0.197 NA
ENDROOT
BRANCH   2   4
HETATM    4  C6  UNL     1     -35.001  15.109  -3.778  1.00 20.00    -0.025 C 
HETATM    5  C4  UNL     1     -35.119  15.290  -2.250  1.00 20.00     0.011 C 
HETATM    6  C2  UNL     1     -34.480  16.643  -1.935  1.00 20.00     0.002 C 
HETATM    7  C3  UNL     1     -33.716  17.076  -3.186  1.00 20.00     0.010 C 
HETATM    8  C5  UNL     1     -33.645  15.831  -4.095  1.00 20.00    -0.040 C 
HETATM    9  C7  UNL     1     -33.481  16.241  -5.566  1.00 20.00     0.015 C 
HETATM   10  C8  UNL     1     -32.405  14.995  -3.703  1.00 20.00     0.015 C 
HETATM   11  C9  UNL     1     -35.021  13.619  -4.150  1.00 20.00     0.017 C 
ENDBRANCH   2   4
TORSDOF 1
ENDMDL
MODEL 3
REMARK VINA RESULT:      -4.5      1.862      3.039
REMARK  1 active torsions:
REMARK  status: ('A' for Active; 'I' for Inactive)
REMARK    1  A    between atoms: C6_6  and  C10_10 
ROOT
HETATM    1  C1  UNL     1     -37.702  14.761  -3.845  1.00 20.00     0.059 C 
HETATM    2  C10 UNL     1     -36.464  15.150  -3.191  1.00 20.00     0.133 C 
HETATM    3  N11 UNL     1     -38.710  14.444  -4.324  1.00 20.00    -0.197 NA
ENDROOT
BRANCH   2   4
HETATM    4  C6  UNL     1     -35.524  15.486  -4.370  1.00 20.00    -0.025 C 
HETATM    5  C4  UNL     1     -35.468  14.275  -5.326  1.00 20.00     0.011 C 
HETATM    6  C2  UNL     1     -34.368  13.361  -4.786  1.00 20.00     0.002 C 
HETATM    7  C3  UNL     1     -33.584  14.172  -3.752  1.00 20.00     0.010 C 
HETATM    8  C5  UNL     1     -34.024  15.640  -3.939  1.00 20.00    -0.040 C 
HETATM    9  C7  UNL     1     -33.822  16.436  -2.641  1.00 20.00     0.015 C 
HETATM   10  C8  UNL     1     -33.142  16.292  -5.028  1.00 20.00     0.015 C 
HETATM   11  C9  UNL     1     -36.101  16.716  -5.086  1.00 20.00     0.017 C 
ENDBRANCH   2   4
TORSDOF 1
ENDMDL
MODEL 4
REMARK VINA RESULT:      -4.4      1.041      2.340
REMARK  1 active torsions:
REMARK  status: ('A' for Active; 'I' for Inactive)
REMARK    1  A    between atoms: C6_6  and  C10_10 
ROOT
HETATM    1  C1  UNL     1     -35.307  13.657  -4.296  1.00 20.00     0.059 C 
HETATM    2  C10 UNL     1     -36.016  14.889  -3.995  1.00 20.00     0.133 C 
HETATM    3  N11 UNL     1     -34.784  12.650  -4.537  1.00 20.00    -0.197 NA
ENDROOT
BRANCH   2   4
HETATM    4  C6  UNL     1     -34.892  15.948  -3.951  1.00 20.00    -0.025 C 
HETATM    5  C4  UNL     1     -33.952  15.632  -2.769  1.00 20.00     0.011 C 
HETATM    6  C2  UNL     1     -34.565  16.317  -1.547  1.00 20.00     0.002 C 
HETATM    7  C3  UNL     1     -35.636  17.277  -2.066  1.00 20.00     0.010 C 
HETATM    8  C5  UNL     1     -35.412  17.384  -3.589  1.00 20.00    -0.040 C 
HETATM    9  C7  UNL     1     -36.712  17.779  -4.304  1.00 20.00     0.015 C 
HETATM   10  C8  UNL     1     -34.372  18.493  -3.865  1.00 20.00     0.015 C 
HETATM   11  C9  UNL     1     -34.133  15.872  -5.284  1.00 20.00     0.017 C 
ENDBRANCH   2   4
TORSDOF 1
ENDMDL
MODEL 5
REMARK VINA RESULT:      -4.4      2.164      3.617
REMARK  1 active torsions:
REMARK  status: ('A' for Active; 'I' for Inactive)
REMARK    1  A    between atoms: C6_6  and  C10_10 
ROOT
HETATM    1  C1  UNL     1     -36.265  16.737  -6.238  1.00 20.00     0.059 C 
HETATM    2  C10 UNL     1     -35.976  16.302  -4.882  1.00 20.00     0.133 C 
HETATM    3  N11 UNL     1     -36.539  17.098  -7.306  1.00 20.00    -0.197 NA
ENDROOT
BRANCH   2   4
HETATM    4  C6  UNL     1     -34.526  15.776  -4.975  1.00 20.00    -0.025 C 
HETATM    5  C4  UNL     1     -34.476  14.624  -6.001  1.00 20.00     0.011 C 
HETATM    6  C2  UNL     1     -34.826  13.353  -5.226  1.00 20.00     0.002 C 
HETATM    7  C3  UNL     1     -34.749  13.703  -3.740  1.00 20.00     0.010 C 
HETATM    8  C5  UNL     1     -34.041  15.072  -3.660  1.00 20.00    -0.040 C 
HETATM    9  C7  UNL     1     -34.431  15.811  -2.371  1.00 20.00     0.015 C 
HETATM   10  C8  UNL     1     -32.513  14.843  -3.621  1.00 20.00     0.015 C 
HETATM   11  C9  UNL     1     -33.638  16.944  -5.427  1.00 20.00     0.017 C 
ENDBRANCH   2   4
TORSDOF 1
ENDMDL
MODEL 6
REMARK VINA RESULT:      -4.3      1.963      2.723
REMARK  1 active torsions:
REMARK  status: ('A' for Active; 'I' for Inactive)
REMARK    1  A    between atoms: C6_6  and  C10_10 
ROOT
HETATM    1  C1  UNL     1     -36.031  14.713  -7.175  1.00 20.00     0.059 C 
HETATM    2  C10 UNL     1     -34.935  14.371  -6.285  1.00 20.00     0.133 C 
HETATM    3  N11 UNL     1     -36.888  14.957  -7.918  1.00 20.00    -0.197 NA
ENDROOT
BRANCH   2   4
HETATM    4  C6  UNL     1     -35.251  15.171  -5.001  1.00 20.00    -0.025 C 
HETATM    5  C4  UNL     1     -35.315  16.673  -5.350  1.00 20.00     0.011 C 
HETATM    6  C2  UNL     1     -33.881  17.192  -5.250  1.00 20.00     0.002 C 
HETATM    7  C3  UNL     1     -33.065  16.111  -4.540  1.00 20.00     0.010 C 
HETATM    8  C5  UNL     1     -34.092  15.124  -3.944  1.00 20.00    -0.040 C 
HETATM    9  C7  UNL     1     -33.466  13.734  -3.761  1.00 20.00     0.015 C 
HETATM   10  C8  UNL     1     -34.522  15.630  -2.549  1.00 20.00     0.015 C 
HETATM   11  C9  UNL     1     -36.605  14.678  -4.470  1.00 20.00     0.017 C 
ENDBRANCH   2   4
TORSDOF 1
ENDMDL
MODEL 7
REMARK VINA RESULT:      -4.3      2.424      3.668
REMARK  1 active torsions:
REMARK  status: ('A' for Active; 'I' for Inactive)
REMARK    1  A    between atoms: C6_6  and  C10_10 
ROOT
HETATM    1  C1  UNL     1     -37.108  14.601  -4.040  1.00 20.00     0.059 C 
HETATM    2  C10 UNL     1     -35.732  14.906  -4.393  1.00 20.00     0.133 C 
HETATM    3  N11 UNL     1     -38.191  14.328  -3.723  1.00 20.00    -0.197 NA
ENDROOT
BRANCH   2   4
HETATM    4  C6  UNL     1     -35.875  15.919  -5.551  1.00 20.00    -0.025 C 
HETATM    5  C4  UNL     1     -36.679  15.262  -6.694  1.00 20.00     0.011 C 
HETATM    6  C2  UNL     1     -35.660  14.513  -7.552  1.00 20.00     0.002 C 
HETATM    7  C3  UNL     1     -34.274  14.996  -7.119  1.00 20.00     0.010 C 
HETATM    8  C5  UNL     1     -34.511  16.250  -6.252  1.00 20.00    -0.040 C 
HETATM    9  C7  UNL     1     -33.342  16.467  -5.280  1.00 20.00     0.015 C 
HETATM   10  C8  UNL     1     -34.587  17.488  -7.174  1.00 20.00     0.015 C 
HETATM   11  C9  UNL     1     -36.615  17.148  -5.004  1.00 20.00     0.017 C 
ENDBRANCH   2   4
TORSDOF 1
ENDMDL
MODEL 8
REMARK VINA RESULT:      -4.3      2.295      3.699
REMARK  1 active torsions:
REMARK  status: ('A' for Active; 'I' for Inactive)
REMARK    1  A    between atoms: C6_6  and  C10_10 
ROOT
HETATM    1  C1  UNL     1     -33.687  17.795  -5.847  1.00 20.00     0.059 C 
HETATM    2  C10 UNL     1     -33.284  16.745  -4.928  1.00 20.00     0.133 C 
HETATM    3  N11 UNL     1     -33.969  18.659  -6.569  1.00 20.00    -0.197 NA
ENDROOT
BRANCH   2   4
HETATM    4  C6  UNL     1     -34.408  15.693  -5.070  1.00 20.00    -0.025 C 
HETATM    5  C4  UNL     1     -35.767  16.374  -4.802  1.00 20.00     0.011 C 
HETATM    6  C2  UNL     1     -35.980  16.312  -3.289  1.00 20.00     0.002 C 
HETATM    7  C3  UNL     1     -34.945  15.331  -2.735  1.00 20.00     0.010 C 
HETATM    8  C5  UNL     1     -34.363  14.589  -3.957  1.00 20.00    -0.040 C 
HETATM    9  C7  UNL     1     -32.954  14.062  -3.651  1.00 20.00     0.015 C 
HETATM   10  C8  UNL     1     -35.258  13.370  -4.274  1.00 20.00     0.015 C 
HETATM   11  C9  UNL     1     -34.350  15.144  -6.503  1.00 20.00     0.017 C 
ENDBRANCH   2   4
TORSDOF 1
ENDMDL
MODEL 9
REMARK VINA RESULT:      -4.3      2.100      3.685
REMARK  1 active torsions:
REMARK  status: ('A' for Active; 'I' for Inactive)
REMARK    1  A    between atoms: C6_6  and  C10_10 
ROOT
HETATM    1  C1  UNL     1     -34.345  16.390  -1.691  1.00 20.00     0.059 C 
HETATM    2  C10 UNL     1     -33.827  16.117  -3.021  1.00 20.00     0.133 C 
HETATM    3  N11 UNL     1     -34.714  16.610  -0.613  1.00 20.00    -0.197 NA
ENDROOT
BRANCH   2   4
HETATM    4  C6  UNL     1     -35.102  16.024  -3.890  1.00 20.00    -0.025 C 
HETATM    5  C4  UNL     1     -35.930  14.804  -3.435  1.00 20.00     0.011 C 
HETATM    6  C2  UNL     1     -35.382  13.608  -4.214  1.00 20.00     0.002 C 
HETATM    7  C3  UNL     1     -34.498  14.169  -5.328  1.00 20.00     0.010 C 
HETATM    8  C5  UNL     1     -34.800  15.681  -5.391  1.00 20.00    -0.040 C 
HETATM    9  C7  UNL     1     -33.609  16.449  -5.983  1.00 20.00     0.015 C 
HETATM   10  C8  UNL     1     -36.012  15.911  -6.322  1.00 20.00     0.015 C 
HETATM   11  C9  UNL     1     -35.895  17.324  -3.690  1.00 20.00     0.017 C 
ENDBRANCH   2   4
TORSDOF 1
ENDMDL
