MODEL 1
REMARK VINA RESULT:      -4.1      0.000      0.000
REMARK  2 active torsions:
REMARK  status: ('A' for Active; 'I' for Inactive)
REMARK    1  A    between atoms: C1_1  and  C5_5 
REMARK    2  A    between atoms: C1_1  and  C6_6 
ROOT
HETATM    1  C1  UNL     1     -34.481  13.903  -4.945  1.00 20.00     0.182 C 
HETATM    2  O7  UNL     1     -34.835  12.722  -4.899  1.00 20.00    -0.293 OA
ENDROOT
BRANCH   1   3
HETATM    3  C5  UNL     1     -33.423  14.397  -3.985  1.00 20.00     0.335 C 
HETATM    4  F8  UNL     1     -32.704  13.354  -3.486  1.00 20.00    -0.225 F 
HETATM    5 CL9  UNL     1     -34.243  15.218  -2.646  1.00 20.00    -0.081 Cl
ENDBRANCH   1   3
BRANCH   1   6
HETATM    6  C6  UNL     1     -35.065  14.884  -5.983  1.00 20.00     0.014 C 
HETATM    7  C2  UNL     1     -35.264  14.197  -7.340  1.00 20.00     0.023 C 
HETATM    8  C3  UNL     1     -34.095  16.063  -6.175  1.00 20.00     0.023 C 
HETATM    9  C4  UNL     1     -36.402  15.424  -5.458  1.00 20.00     0.023 C 
ENDBRANCH   1   6
TORSDOF 2
ENDMDL
MODEL 2
REMARK VINA RESULT:      -3.8      2.802      3.577
REMARK  2 active torsions:
REMARK  status: ('A' for Active; 'I' for Inactive)
REMARK    1  A    between atoms: C1_1  and  C5_5 
REMARK    2  A    between atoms: C1_1  and  C6_6 
ROOT
HETATM    1  C1  UNL     1     -33.847  15.702  -5.072  1.00 20.00     0.182 C 
HETATM    2  O7  UNL     1     -32.863  16.435  -4.934  1.00 20.00    -0.293 OA
ENDROOT
BRANCH   1   3
HETATM    3  C5  UNL     1     -34.568  15.672  -6.401  1.00 20.00     0.335 C 
HETATM    4  F8  UNL     1     -33.997  14.760  -7.234  1.00 20.00    -0.225 F 
HETATM    5 CL9  UNL     1     -34.431  17.280  -7.131  1.00 20.00    -0.081 Cl
ENDBRANCH   1   3
BRANCH   1   6
HETATM    6  C6  UNL     1     -34.340  14.788  -3.932  1.00 20.00     0.014 C 
HETATM    7  C2  UNL     1     -35.715  14.190  -4.259  1.00 20.00     0.023 C 
HETATM    8  C3  UNL     1     -34.466  15.610  -2.636  1.00 20.00     0.023 C 
HETATM    9  C4  UNL     1     -33.312  13.670  -3.710  1.00 20.00     0.023 C 
ENDBRANCH   1   6
TORSDOF 2
ENDMDL
MODEL 3
REMARK VINA RESULT:      -3.8      2.593      3.444
REMARK  2 active torsions:
REMARK  status: ('A' for Active; 'I' for Inactive)
REMARK    1  A    between atoms: C1_1  and  C5_5 
REMARK    2  A    between atoms: C1_1  and  C6_6 
ROOT
HETATM    1  C1  UNL     1     -33.571  15.584  -3.859  1.00 20.00     0.182 C 
HETATM    2  O7  UNL     1     -32.647  15.967  -4.582  1.00 20.00    -0.293 OA
ENDROOT
BRANCH   1   3
HETATM    3  C5  UNL     1     -33.822  14.102  -3.701  1.00 20.00     0.335 C 
HETATM    4  F8  UNL     1     -32.647  13.430  -3.561  1.00 20.00    -0.225 F 
HETATM    5 CL9  UNL     1     -34.639  13.529  -5.164  1.00 20.00    -0.081 Cl
ENDBRANCH   1   3
BRANCH   1   6
HETATM    6  C6  UNL     1     -34.457  16.580  -3.083  1.00 20.00     0.014 C 
HETATM    7  C2  UNL     1     -34.533  16.210  -1.596  1.00 20.00     0.023 C 
HETATM    8  C3  UNL     1     -35.883  16.554  -3.662  1.00 20.00     0.023 C 
HETATM    9  C4  UNL     1     -33.882  17.993  -3.251  1.00 20.00     0.023 C 
ENDBRANCH   1   6
TORSDOF 2
ENDMDL
MODEL 4
REMARK VINA RESULT:      -3.8      2.808      3.589
REMARK  2 active torsions:
REMARK  status: ('A' for Active; 'I' for Inactive)
REMARK    1  A    between atoms: C1_1  and  C5_5 
REMARK    2  A    between atoms: C1_1  and  C6_6 
ROOT
HETATM    1  C1  UNL     1     -33.829  15.717  -5.068  1.00 20.00     0.182 C 
HETATM    2  O7  UNL     1     -32.856  16.465  -4.938  1.00 20.00    -0.293 OA
ENDROOT
BRANCH   1   3
HETATM    3  C5  UNL     1     -34.562  15.677  -6.389  1.00 20.00     0.335 C 
HETATM    4  F8  UNL     1     -34.000  14.758  -7.221  1.00 20.00    -0.225 F 
HETATM    5 CL9  UNL     1     -34.429  17.279  -7.134  1.00 20.00    -0.081 Cl
ENDBRANCH   1   3
BRANCH   1   6
HETATM    6  C6  UNL     1     -34.298  14.794  -3.924  1.00 20.00     0.014 C 
HETATM    7  C2  UNL     1     -33.311  13.639  -3.707  1.00 20.00     0.023 C 
HETATM    8  C3  UNL     1     -35.671  14.195  -4.282  1.00 20.00     0.023 C 
HETATM    9  C4  UNL     1     -34.440  15.623  -2.641  1.00 20.00     0.023 C 
ENDBRANCH   1   6
TORSDOF 2
ENDMDL
MODEL 5
REMARK VINA RESULT:      -3.7      2.568      3.219
REMARK  2 active torsions:
REMARK  status: ('A' for Active; 'I' for Inactive)
REMARK    1  A    between atoms: C1_1  and  C5_5 
REMARK    2  A    between atoms: C1_1  and  C6_6 
ROOT
HETATM    1  C1  UNL     1     -34.920  15.594  -2.947  1.00 20.00     0.182 C 
HETATM    2  O7  UNL     1     -36.154  15.646  -2.951  1.00 20.00    -0.293 OA
ENDROOT
BRANCH   1   3
HETATM    3  C5  UNL     1     -34.151  16.314  -1.863  1.00 20.00     0.335 C 
HETATM    4  F8  UNL     1     -34.788  16.196  -0.666  1.00 20.00    -0.225 F 
HETATM    5 CL9  UNL     1     -34.069  18.029  -2.300  1.00 20.00    -0.081 Cl
ENDBRANCH   1   3
BRANCH   1   6
HETATM    6  C6  UNL     1     -34.142  14.784  -4.004  1.00 20.00     0.014 C 
HETATM    7  C2  UNL     1     -32.665  14.642  -3.615  1.00 20.00     0.023 C 
HETATM    8  C3  UNL     1     -34.218  15.508  -5.361  1.00 20.00     0.023 C 
HETATM    9  C4  UNL     1     -34.790  13.400  -4.146  1.00 20.00     0.023 C 
ENDBRANCH   1   6
TORSDOF 2
ENDMDL
MODEL 6
REMARK VINA RESULT:      -3.7      2.526      3.476
REMARK  2 active torsions:
REMARK  status: ('A' for Active; 'I' for Inactive)
REMARK    1  A    between atoms: C1_1  and  C5_5 
REMARK    2  A    between atoms: C1_1  and  C6_6 
ROOT
HETATM    1  C1  UNL     1     -34.852  14.081  -4.710  1.00 20.00     0.182 C 
HETATM    2  O7  UNL     1     -34.968  12.857  -4.595  1.00 20.00    -0.293 OA
ENDROOT
BRANCH   1   3
HETATM    3  C5  UNL     1     -35.763  14.825  -5.660  1.00 20.00     0.335 C 
HETATM    4  F8  UNL     1     -37.068  14.608  -5.341  1.00 20.00    -0.225 F 
HETATM    5 CL9  UNL     1     -35.463  14.212  -7.294  1.00 20.00    -0.081 Cl
ENDBRANCH   1   3
BRANCH   1   6
HETATM    6  C6  UNL     1     -33.823  14.877  -3.882  1.00 20.00     0.014 C 
HETATM    7  C2  UNL     1     -32.670  13.976  -3.419  1.00 20.00     0.023 C 
HETATM    8  C3  UNL     1     -34.512  15.460  -2.635  1.00 20.00     0.023 C 
HETATM    9  C4  UNL     1     -33.285  16.034  -4.735  1.00 20.00     0.023 C 
ENDBRANCH   1   6
TORSDOF 2
ENDMDL
MODEL 7
REMARK VINA RESULT:      -3.6      2.201      2.662
REMARK  2 active torsions:
REMARK  status: ('A' for Active; 'I' for Inactive)
REMARK    1  A    between atoms: C1_1  and  C5_5 
REMARK    2  A    between atoms: C1_1  and  C6_6 
ROOT
HETATM    1  C1  UNL     1     -33.803  15.423  -3.877  1.00 20.00     0.182 C 
HETATM    2  O7  UNL     1     -32.661  15.016  -3.645  1.00 20.00    -0.293 OA
ENDROOT
BRANCH   1   3
HETATM    3  C5  UNL     1     -34.317  16.645  -3.151  1.00 20.00     0.335 C 
HETATM    4  F8  UNL     1     -33.397  17.648  -3.192  1.00 20.00    -0.225 F 
HETATM    5 CL9  UNL     1     -34.600  16.197  -1.461  1.00 20.00    -0.081 Cl
ENDBRANCH   1   3
BRANCH   1   6
HETATM    6  C6  UNL     1     -34.710  14.734  -4.918  1.00 20.00     0.014 C 
HETATM    7  C2  UNL     1     -34.337  15.160  -6.343  1.00 20.00     0.023 C 
HETATM    8  C3  UNL     1     -36.175  15.132  -4.661  1.00 20.00     0.023 C 
HETATM    9  C4  UNL     1     -34.578  13.213  -4.764  1.00 20.00     0.023 C 
ENDBRANCH   1   6
TORSDOF 2
ENDMDL
MODEL 8
REMARK VINA RESULT:      -3.6     11.985     13.006
REMARK  2 active torsions:
REMARK  status: ('A' for Active; 'I' for Inactive)
REMARK    1  A    between atoms: C1_1  and  C5_5 
REMARK    2  A    between atoms: C1_1  and  C6_6 
ROOT
HETATM    1  C1  UNL     1     -33.484   6.153   4.490  1.00 20.00     0.182 C 
HETATM    2  O7  UNL     1     -33.000   6.915   5.332  1.00 20.00    -0.293 OA
ENDROOT
BRANCH   1   3
HETATM    3  C5  UNL     1     -32.866   6.085   3.112  1.00 20.00     0.335 C 
HETATM    4  F8  UNL     1     -31.739   5.321   3.130  1.00 20.00    -0.225 F 
HETATM    5 CL9  UNL     1     -32.434   7.732   2.626  1.00 20.00    -0.081 Cl
ENDBRANCH   1   3
BRANCH   1   6
HETATM    6  C6  UNL     1     -34.684   5.241   4.818  1.00 20.00     0.014 C 
HETATM    7  C2  UNL     1     -34.360   3.772   4.518  1.00 20.00     0.023 C 
HETATM    8  C3  UNL     1     -35.891   5.656   3.957  1.00 20.00     0.023 C 
HETATM    9  C4  UNL     1     -35.051   5.415   6.298  1.00 20.00     0.023 C 
ENDBRANCH   1   6
TORSDOF 2
ENDMDL
MODEL 9
REMARK VINA RESULT:      -3.6     11.989     13.046
REMARK  2 active torsions:
REMARK  status: ('A' for Active; 'I' for Inactive)
REMARK    1  A    between atoms: C1_1  and  C5_5 
REMARK    2  A    between atoms: C1_1  and  C6_6 
ROOT
HETATM    1  C1  UNL     1     -33.497   6.155   4.498  1.00 20.00     0.182 C 
HETATM    2  O7  UNL     1     -33.008   6.912   5.342  1.00 20.00    -0.293 OA
ENDROOT
BRANCH   1   3
HETATM    3  C5  UNL     1     -32.880   6.084   3.120  1.00 20.00     0.335 C 
HETATM    4  F8  UNL     1     -31.749   5.328   3.140  1.00 20.00    -0.225 F 
HETATM    5 CL9  UNL     1     -32.458   7.732   2.627  1.00 20.00    -0.081 Cl
ENDBRANCH   1   3
BRANCH   1   6
HETATM    6  C6  UNL     1     -34.703   5.251   4.825  1.00 20.00     0.014 C 
HETATM    7  C2  UNL     1     -35.091   5.360   6.306  1.00 20.00     0.023 C 
HETATM    8  C3  UNL     1     -34.338   3.785   4.528  1.00 20.00     0.023 C 
HETATM    9  C4  UNL     1     -35.885   5.656   3.934  1.00 20.00     0.023 C 
ENDBRANCH   1   6
TORSDOF 2
ENDMDL
