MODEL 1
REMARK VINA RESULT:      -4.0      0.000      0.000
REMARK  1 active torsions:
REMARK  status: ('A' for Active; 'I' for Inactive)
REMARK    1  A    between atoms: C1_1  and  C5_5 
ROOT
HETATM    1  C1  UNL     1     -34.037  15.244  -3.616  1.00 20.00     0.141 A 
HETATM    2  C2  UNL     1     -34.400  14.788  -5.712  1.00 20.00     0.187 A 
HETATM    3  N6  UNL     1     -34.048  15.760  -4.901  1.00 20.00    -0.211 NA
HETATM    4  N7  UNL     1     -34.347  13.967  -3.391  1.00 20.00    -0.193 NA
HETATM    5  S8  UNL     1     -34.694  13.311  -4.891  1.00 20.00     0.046 SA
HETATM    6 CL9  UNL     1     -34.554  14.929  -7.403  1.00 20.00    -0.053 Cl
ENDROOT
BRANCH   1   7
HETATM    7  C5  UNL     1     -33.661  16.159  -2.437  1.00 20.00     0.058 A 
HETATM    8  C3  UNL     1     -34.718  16.481  -1.407  1.00 20.00     0.013 A 
HETATM    9  C4  UNL     1     -34.274  17.537  -2.368  1.00 20.00     0.013 A 
ENDBRANCH   1   7
TORSDOF 1
ENDMDL
MODEL 2
REMARK VINA RESULT:      -3.8     13.373     14.291
REMARK  1 active torsions:
REMARK  status: ('A' for Active; 'I' for Inactive)
REMARK    1  A    between atoms: C1_1  and  C5_5 
ROOT
HETATM    1  C1  UNL     1     -42.336   3.826  -2.819  1.00 20.00     0.141 A 
HETATM    2  C2  UNL     1     -41.749   5.699  -1.879  1.00 20.00     0.187 A 
HETATM    3  N6  UNL     1     -41.489   4.410  -1.892  1.00 20.00    -0.211 NA
HETATM    4  N7  UNL     1     -43.208   4.564  -3.507  1.00 20.00    -0.193 NA
HETATM    5  S8  UNL     1     -42.989   6.138  -2.980  1.00 20.00     0.046 SA
HETATM    6 CL9  UNL     1     -40.961   6.848  -0.898  1.00 20.00    -0.053 Cl
ENDROOT
BRANCH   1   7
HETATM    7  C5  UNL     1     -42.266   2.308  -3.055  1.00 20.00     0.058 A 
HETATM    8  C3  UNL     1     -41.205   1.769  -3.987  1.00 20.00     0.013 A 
HETATM    9  C4  UNL     1     -42.638   1.769  -4.417  1.00 20.00     0.013 A 
ENDBRANCH   1   7
TORSDOF 1
ENDMDL
MODEL 3
REMARK VINA RESULT:      -3.8     11.345     11.946
REMARK  1 active torsions:
REMARK  status: ('A' for Active; 'I' for Inactive)
REMARK    1  A    between atoms: C1_1  and  C5_5 
ROOT
HETATM    1  C1  UNL     1     -32.908   6.836   3.325  1.00 20.00     0.141 A 
HETATM    2  C2  UNL     1     -34.027   5.981   4.985  1.00 20.00     0.187 A 
HETATM    3  N6  UNL     1     -33.096   6.864   4.697  1.00 20.00    -0.211 NA
HETATM    4  N7  UNL     1     -33.617   6.010   2.556  1.00 20.00    -0.193 NA
HETATM    5  S8  UNL     1     -34.624   5.169   3.596  1.00 20.00     0.046 SA
HETATM    6 CL9  UNL     1     -34.612   5.648   6.550  1.00 20.00    -0.053 Cl
ENDROOT
BRANCH   1   7
HETATM    7  C5  UNL     1     -31.867   7.770   2.686  1.00 20.00     0.058 A 
HETATM    8  C3  UNL     1     -32.328   9.103   2.143  1.00 20.00     0.013 A 
HETATM    9  C4  UNL     1     -31.930   8.014   1.197  1.00 20.00     0.013 A 
ENDBRANCH   1   7
TORSDOF 1
ENDMDL
MODEL 4
REMARK VINA RESULT:      -3.8      2.039      2.610
REMARK  1 active torsions:
REMARK  status: ('A' for Active; 'I' for Inactive)
REMARK    1  A    between atoms: C1_1  and  C5_5 
ROOT
HETATM    1  C1  UNL     1     -34.181  16.900  -2.757  1.00 20.00     0.141 A 
HETATM    2  C2  UNL     1     -33.940  15.066  -3.904  1.00 20.00     0.187 A 
HETATM    3  N6  UNL     1     -34.360  15.527  -2.746  1.00 20.00    -0.211 NA
HETATM    4  N7  UNL     1     -33.665  17.513  -3.822  1.00 20.00    -0.193 NA
HETATM    5  S8  UNL     1     -33.357  16.304  -4.939  1.00 20.00     0.046 SA
HETATM    6 CL9  UNL     1     -33.957  13.428  -4.373  1.00 20.00    -0.053 Cl
ENDROOT
BRANCH   1   7
HETATM    7  C5  UNL     1     -34.584  17.723  -1.522  1.00 20.00     0.058 A 
HETATM    8  C3  UNL     1     -33.569  17.919  -0.420  1.00 20.00     0.013 A 
HETATM    9  C4  UNL     1     -34.739  17.014  -0.198  1.00 20.00     0.013 A 
ENDBRANCH   1   7
TORSDOF 1
ENDMDL
MODEL 5
REMARK VINA RESULT:      -3.8      3.267      4.359
REMARK  1 active torsions:
REMARK  status: ('A' for Active; 'I' for Inactive)
REMARK    1  A    between atoms: C1_1  and  C5_5 
ROOT
HETATM    1  C1  UNL     1     -34.079  15.660  -3.658  1.00 20.00     0.141 A 
HETATM    2  C2  UNL     1     -34.420  16.655  -1.753  1.00 20.00     0.187 A 
HETATM    3  N6  UNL     1     -34.493  15.485  -2.349  1.00 20.00    -0.211 NA
HETATM    4  N7  UNL     1     -33.698  16.859  -4.099  1.00 20.00    -0.193 NA
HETATM    5  S8  UNL     1     -33.857  17.896  -2.796  1.00 20.00     0.046 SA
HETATM    6 CL9  UNL     1     -34.823  16.954  -0.125  1.00 20.00    -0.053 Cl
ENDROOT
BRANCH   1   7
HETATM    7  C5  UNL     1     -34.059  14.453  -4.612  1.00 20.00     0.058 A 
HETATM    8  C3  UNL     1     -35.256  14.217  -5.504  1.00 20.00     0.013 A 
HETATM    9  C4  UNL     1     -35.003  13.305  -4.345  1.00 20.00     0.013 A 
ENDBRANCH   1   7
TORSDOF 1
ENDMDL
MODEL 6
REMARK VINA RESULT:      -3.7      2.140      2.214
REMARK  1 active torsions:
REMARK  status: ('A' for Active; 'I' for Inactive)
REMARK    1  A    between atoms: C1_1  and  C5_5 
ROOT
HETATM    1  C1  UNL     1     -34.846  15.524  -2.810  1.00 20.00     0.141 A 
HETATM    2  C2  UNL     1     -36.627  14.797  -3.828  1.00 20.00     0.187 A 
HETATM    3  N6  UNL     1     -36.192  15.756  -3.041  1.00 20.00    -0.211 NA
HETATM    4  N7  UNL     1     -34.231  14.475  -3.357  1.00 20.00    -0.193 NA
HETATM    5  S8  UNL     1     -35.400  13.674  -4.247  1.00 20.00     0.046 SA
HETATM    6 CL9  UNL     1     -38.226  14.647  -4.399  1.00 20.00    -0.053 Cl
ENDROOT
BRANCH   1   7
HETATM    7  C5  UNL     1     -34.056  16.491  -1.912  1.00 20.00     0.058 A 
HETATM    8  C3  UNL     1     -34.593  16.800  -0.534  1.00 20.00     0.013 A 
HETATM    9  C4  UNL     1     -34.653  17.844  -1.604  1.00 20.00     0.013 A 
ENDBRANCH   1   7
TORSDOF 1
ENDMDL
MODEL 7
REMARK VINA RESULT:      -3.7      3.786      4.680
REMARK  1 active torsions:
REMARK  status: ('A' for Active; 'I' for Inactive)
REMARK    1  A    between atoms: C1_1  and  C5_5 
ROOT
HETATM    1  C1  UNL     1     -34.381  16.106  -2.628  1.00 20.00     0.141 A 
HETATM    2  C2  UNL     1     -34.281  17.386  -0.871  1.00 20.00     0.187 A 
HETATM    3  N6  UNL     1     -34.604  16.173  -1.263  1.00 20.00    -0.211 NA
HETATM    4  N7  UNL     1     -33.916  17.161  -3.296  1.00 20.00    -0.193 NA
HETATM    5  S8  UNL     1     -33.727  18.374  -2.159  1.00 20.00     0.046 SA
HETATM    6 CL9  UNL     1     -34.379  17.958   0.731  1.00 20.00    -0.053 Cl
ENDROOT
BRANCH   1   7
HETATM    7  C5  UNL     1     -34.675  14.795  -3.377  1.00 20.00     0.058 A 
HETATM    8  C3  UNL     1     -33.522  13.878  -3.710  1.00 20.00     0.013 A 
HETATM    9  C4  UNL     1     -34.193  14.651  -4.801  1.00 20.00     0.013 A 
ENDBRANCH   1   7
TORSDOF 1
ENDMDL
MODEL 8
REMARK VINA RESULT:      -3.6      2.047      2.243
REMARK  1 active torsions:
REMARK  status: ('A' for Active; 'I' for Inactive)
REMARK    1  A    between atoms: C1_1  and  C5_5 
ROOT
HETATM    1  C1  UNL     1     -35.104  16.074  -2.607  1.00 20.00     0.141 A 
HETATM    2  C2  UNL     1     -35.072  14.335  -3.914  1.00 20.00     0.187 A 
HETATM    3  N6  UNL     1     -34.311  15.068  -3.131  1.00 20.00    -0.211 NA
HETATM    4  N7  UNL     1     -36.396  16.161  -2.925  1.00 20.00    -0.193 NA
HETATM    5  S8  UNL     1     -36.694  14.892  -3.974  1.00 20.00     0.046 SA
HETATM    6 CL9  UNL     1     -34.551  12.969  -4.789  1.00 20.00    -0.053 Cl
ENDROOT
BRANCH   1   7
HETATM    7  C5  UNL     1     -34.483  17.103  -1.646  1.00 20.00     0.058 A 
HETATM    8  C3  UNL     1     -34.728  16.947  -0.163  1.00 20.00     0.013 A 
HETATM    9  C4  UNL     1     -35.399  18.054  -0.914  1.00 20.00     0.013 A 
ENDBRANCH   1   7
TORSDOF 1
ENDMDL
MODEL 9
REMARK VINA RESULT:      -3.5      2.920      3.142
REMARK  1 active torsions:
REMARK  status: ('A' for Active; 'I' for Inactive)
REMARK    1  A    between atoms: C1_1  and  C5_5 
ROOT
HETATM    1  C1  UNL     1     -35.919  15.268  -3.718  1.00 20.00     0.141 A 
HETATM    2  C2  UNL     1     -37.942  14.915  -4.441  1.00 20.00     0.187 A 
HETATM    3  N6  UNL     1     -37.159  14.739  -3.399  1.00 20.00    -0.211 NA
HETATM    4  N7  UNL     1     -35.703  15.829  -4.908  1.00 20.00    -0.193 NA
HETATM    5  S8  UNL     1     -37.149  15.707  -5.740  1.00 20.00     0.046 SA
HETATM    6 CL9  UNL     1     -39.573  14.433  -4.534  1.00 20.00    -0.053 Cl
ENDROOT
BRANCH   1   7
HETATM    7  C5  UNL     1     -34.783  15.205  -2.684  1.00 20.00     0.058 A 
HETATM    8  C3  UNL     1     -34.713  16.275  -1.619  1.00 20.00     0.013 A 
HETATM    9  C4  UNL     1     -33.707  16.264  -2.726  1.00 20.00     0.013 A 
ENDBRANCH   1   7
TORSDOF 1
ENDMDL
