MODEL 1
REMARK VINA RESULT:      -3.4      0.000      0.000
REMARK  3 active torsions:
REMARK  status: ('A' for Active; 'I' for Inactive)
REMARK    1  A    between atoms: C4_4  and  N8_8 
REMARK    2  A    between atoms: C6_6  and  C7_7 
REMARK    3  A    between atoms: C6_6  and  N8_8 
ROOT
HETATM    1  C1  UNL     1     -35.467  14.124  -4.133  1.00 20.00     0.047 C 
HETATM    2  C2  UNL     1     -34.824  13.380  -5.296  1.00 20.00     0.076 C 
HETATM    3  C3  UNL     1     -35.747  15.850  -5.832  1.00 20.00     0.109 C 
HETATM    4  C4  UNL     1     -35.301  15.621  -4.389  1.00 20.00     0.232 C 
HETATM    5  S9  UNL     1     -35.212  14.380  -6.761  1.00 20.00    -0.167 SA
ENDROOT
BRANCH   4   6
HETATM    6  N8  UNL     1     -33.914  16.046  -4.195  1.00 20.00     0.090 N 
HETATM    7  C5  UNL     1     -33.727  17.426  -4.651  1.00 20.00     0.310 C 
BRANCH   6   8
HETATM    8  C6  UNL     1     -33.529  15.922  -2.787  1.00 20.00     0.287 C 
BRANCH   8   9
HETATM    9  C7  UNL     1     -33.886  17.155  -1.973  1.00 20.00     0.144 C 
HETATM   10 CL10 UNL     1     -34.701  16.714  -0.453  1.00 20.00    -0.129 Cl
ENDBRANCH   8   9
ENDBRANCH   6   8
ENDBRANCH   4   6
TORSDOF 3
ENDMDL
MODEL 2
REMARK VINA RESULT:      -3.3     11.977     12.748
REMARK  3 active torsions:
REMARK  status: ('A' for Active; 'I' for Inactive)
REMARK    1  A    between atoms: C4_4  and  N8_8 
REMARK    2  A    between atoms: C6_6  and  C7_7 
REMARK    3  A    between atoms: C6_6  and  N8_8 
ROOT
HETATM    1  C1  UNL     1     -34.129   6.481   5.884  1.00 20.00     0.047 C 
HETATM    2  C2  UNL     1     -34.016   5.034   6.344  1.00 20.00     0.076 C 
HETATM    3  C3  UNL     1     -35.239   5.436   3.982  1.00 20.00     0.109 C 
HETATM    4  C4  UNL     1     -34.191   6.482   4.357  1.00 20.00     0.232 C 
HETATM    5  S9  UNL     1     -35.073   4.098   5.203  1.00 20.00    -0.167 SA
ENDROOT
BRANCH   4   6
HETATM    6  N8  UNL     1     -32.891   6.155   3.770  1.00 20.00     0.090 N 
HETATM    7  C5  UNL     1     -33.060   5.466   2.488  1.00 20.00     0.310 C 
BRANCH   6   8
HETATM    8  C6  UNL     1     -32.086   7.366   3.591  1.00 20.00     0.287 C 
BRANCH   8   9
HETATM    9  C7  UNL     1     -31.986   7.790   2.134  1.00 20.00     0.144 C 
HETATM   10 CL10 UNL     1     -32.518   9.475   1.912  1.00 20.00    -0.129 Cl
ENDBRANCH   8   9
ENDBRANCH   6   8
ENDBRANCH   4   6
TORSDOF 3
ENDMDL
MODEL 3
REMARK VINA RESULT:      -3.3      1.250      2.205
REMARK  3 active torsions:
REMARK  status: ('A' for Active; 'I' for Inactive)
REMARK    1  A    between atoms: C4_4  and  N8_8 
REMARK    2  A    between atoms: C6_6  and  C7_7 
REMARK    3  A    between atoms: C6_6  and  N8_8 
ROOT
HETATM    1  C1  UNL     1     -33.620  16.275  -5.840  1.00 20.00     0.047 C 
HETATM    2  C2  UNL     1     -34.538  16.332  -7.053  1.00 20.00     0.076 C 
HETATM    3  C3  UNL     1     -34.697  14.107  -5.548  1.00 20.00     0.109 C 
HETATM    4  C4  UNL     1     -34.278  15.370  -4.798  1.00 20.00     0.232 C 
HETATM    5  S9  UNL     1     -35.217  14.655  -7.203  1.00 20.00    -0.167 SA
ENDROOT
BRANCH   4   6
HETATM    6  N8  UNL     1     -35.435  16.021  -4.181  1.00 20.00     0.090 N 
HETATM    7  C5  UNL     1     -36.291  15.033  -3.518  1.00 20.00     0.310 C 
BRANCH   6   8
HETATM    8  C6  UNL     1     -35.003  17.041  -3.223  1.00 20.00     0.287 C 
BRANCH   8   9
HETATM    9  C7  UNL     1     -34.014  16.502  -2.203  1.00 20.00     0.144 C 
HETATM   10 CL10 UNL     1     -34.656  16.629  -0.547  1.00 20.00    -0.129 Cl
ENDBRANCH   8   9
ENDBRANCH   6   8
ENDBRANCH   4   6
TORSDOF 3
ENDMDL
MODEL 4
REMARK VINA RESULT:      -3.3      2.455      3.168
REMARK  3 active torsions:
REMARK  status: ('A' for Active; 'I' for Inactive)
REMARK    1  A    between atoms: C4_4  and  N8_8 
REMARK    2  A    between atoms: C6_6  and  C7_7 
REMARK    3  A    between atoms: C6_6  and  N8_8 
ROOT
HETATM    1  C1  UNL     1     -34.427  15.095  -7.064  1.00 20.00     0.047 C 
HETATM    2  C2  UNL     1     -34.367  16.593  -6.801  1.00 20.00     0.076 C 
HETATM    3  C3  UNL     1     -36.807  15.467  -6.690  1.00 20.00     0.109 C 
HETATM    4  C4  UNL     1     -35.647  14.541  -6.329  1.00 20.00     0.232 C 
HETATM    5  S9  UNL     1     -36.099  17.138  -6.807  1.00 20.00    -0.167 SA
ENDROOT
BRANCH   4   6
HETATM    6  N8  UNL     1     -35.431  14.512  -4.882  1.00 20.00     0.090 N 
HETATM    7  C5  UNL     1     -36.711  14.494  -4.168  1.00 20.00     0.310 C 
BRANCH   6   8
HETATM    8  C6  UNL     1     -34.624  13.350  -4.503  1.00 20.00     0.287 C 
BRANCH   8   9
HETATM    9  C7  UNL     1     -33.359  13.738  -3.754  1.00 20.00     0.144 C 
HETATM   10 CL10 UNL     1     -33.273  15.497  -3.494  1.00 20.00    -0.129 Cl
ENDBRANCH   8   9
ENDBRANCH   6   8
ENDBRANCH   4   6
TORSDOF 3
ENDMDL
MODEL 5
REMARK VINA RESULT:      -3.3      1.317      2.317
REMARK  3 active torsions:
REMARK  status: ('A' for Active; 'I' for Inactive)
REMARK    1  A    between atoms: C4_4  and  N8_8 
REMARK    2  A    between atoms: C6_6  and  C7_7 
REMARK    3  A    between atoms: C6_6  and  N8_8 
ROOT
HETATM    1  C1  UNL     1     -34.338  16.531  -6.232  1.00 20.00     0.047 C 
HETATM    2  C2  UNL     1     -35.821  16.873  -6.264  1.00 20.00     0.076 C 
HETATM    3  C3  UNL     1     -35.202  14.264  -6.470  1.00 20.00     0.109 C 
HETATM    4  C4  UNL     1     -34.200  15.109  -5.687  1.00 20.00     0.232 C 
HETATM    5  S9  UNL     1     -36.646  15.333  -6.757  1.00 20.00    -0.167 SA
ENDROOT
BRANCH   4   6
HETATM    6  N8  UNL     1     -34.480  15.058  -4.252  1.00 20.00     0.090 N 
HETATM    7  C5  UNL     1     -34.665  13.673  -3.809  1.00 20.00     0.310 C 
BRANCH   6   8
HETATM    8  C6  UNL     1     -33.399  15.692  -3.492  1.00 20.00     0.287 C 
BRANCH   8   9
HETATM    9  C7  UNL     1     -33.882  16.872  -2.665  1.00 20.00     0.144 C 
HETATM   10 CL10 UNL     1     -34.638  16.332  -1.146  1.00 20.00    -0.129 Cl
ENDBRANCH   8   9
ENDBRANCH   6   8
ENDBRANCH   4   6
TORSDOF 3
ENDMDL
MODEL 6
REMARK VINA RESULT:      -3.3      2.679      3.750
REMARK  3 active torsions:
REMARK  status: ('A' for Active; 'I' for Inactive)
REMARK    1  A    between atoms: C4_4  and  N8_8 
REMARK    2  A    between atoms: C6_6  and  C7_7 
REMARK    3  A    between atoms: C6_6  and  N8_8 
ROOT
HETATM    1  C1  UNL     1     -34.739  16.374  -1.648  1.00 20.00     0.047 C 
HETATM    2  C2  UNL     1     -36.008  17.109  -2.055  1.00 20.00     0.076 C 
HETATM    3  C3  UNL     1     -33.707  18.058  -3.076  1.00 20.00     0.109 C 
HETATM    4  C4  UNL     1     -33.711  16.563  -2.763  1.00 20.00     0.232 C 
HETATM    5  S9  UNL     1     -35.428  18.616  -2.885  1.00 20.00    -0.167 SA
ENDROOT
BRANCH   4   6
HETATM    6  N8  UNL     1     -34.060  15.780  -3.949  1.00 20.00     0.090 N 
HETATM    7  C5  UNL     1     -33.418  16.335  -5.143  1.00 20.00     0.310 C 
BRANCH   6   8
HETATM    8  C6  UNL     1     -33.675  14.378  -3.773  1.00 20.00     0.287 C 
BRANCH   8   9
HETATM    9  C7  UNL     1     -34.780  13.414  -4.176  1.00 20.00     0.144 C 
HETATM   10 CL10 UNL     1     -36.375  14.205  -4.139  1.00 20.00    -0.129 Cl
ENDBRANCH   8   9
ENDBRANCH   6   8
ENDBRANCH   4   6
TORSDOF 3
ENDMDL
MODEL 7
REMARK VINA RESULT:      -3.2      3.164      4.325
REMARK  3 active torsions:
REMARK  status: ('A' for Active; 'I' for Inactive)
REMARK    1  A    between atoms: C4_4  and  N8_8 
REMARK    2  A    between atoms: C6_6  and  C7_7 
REMARK    3  A    between atoms: C6_6  and  N8_8 
ROOT
HETATM    1  C1  UNL     1     -33.708  16.587  -2.266  1.00 20.00     0.047 C 
HETATM    2  C2  UNL     1     -34.408  16.837  -0.937  1.00 20.00     0.076 C 
HETATM    3  C3  UNL     1     -35.823  17.413  -3.151  1.00 20.00     0.109 C 
HETATM    4  C4  UNL     1     -34.783  16.307  -3.314  1.00 20.00     0.232 C 
HETATM    5  S9  UNL     1     -35.909  17.762  -1.368  1.00 20.00    -0.167 SA
ENDROOT
BRANCH   4   6
HETATM    6  N8  UNL     1     -35.387  14.987  -3.121  1.00 20.00     0.090 N 
HETATM    7  C5  UNL     1     -36.737  14.947  -3.690  1.00 20.00     0.310 C 
BRANCH   6   8
HETATM    8  C6  UNL     1     -34.553  13.945  -3.722  1.00 20.00     0.287 C 
BRANCH   8   9
HETATM    9  C7  UNL     1     -35.062  13.504  -5.085  1.00 20.00     0.144 C 
HETATM   10 CL10 UNL     1     -34.429  14.548  -6.381  1.00 20.00    -0.129 Cl
ENDBRANCH   8   9
ENDBRANCH   6   8
ENDBRANCH   4   6
TORSDOF 3
ENDMDL
MODEL 8
REMARK VINA RESULT:      -3.2      2.956      4.163
REMARK  3 active torsions:
REMARK  status: ('A' for Active; 'I' for Inactive)
REMARK    1  A    between atoms: C4_4  and  N8_8 
REMARK    2  A    between atoms: C6_6  and  C7_7 
REMARK    3  A    between atoms: C6_6  and  N8_8 
ROOT
HETATM    1  C1  UNL     1     -36.194  16.479  -3.784  1.00 20.00     0.047 C 
HETATM    2  C2  UNL     1     -35.291  17.654  -4.129  1.00 20.00     0.076 C 
HETATM    3  C3  UNL     1     -34.400  15.998  -2.206  1.00 20.00     0.109 C 
HETATM    4  C4  UNL     1     -35.311  15.353  -3.248  1.00 20.00     0.232 C 
HETATM    5  S9  UNL     1     -34.021  17.663  -2.831  1.00 20.00    -0.167 SA
ENDROOT
BRANCH   4   6
HETATM    6  N8  UNL     1     -34.527  14.734  -4.318  1.00 20.00     0.090 N 
HETATM    7  C5  UNL     1     -33.459  13.899  -3.761  1.00 20.00     0.310 C 
BRANCH   6   8
HETATM    8  C6  UNL     1     -35.388  13.937  -5.194  1.00 20.00     0.287 C 
BRANCH   8   9
HETATM    9  C7  UNL     1     -35.220  14.295  -6.662  1.00 20.00     0.144 C 
HETATM   10 CL10 UNL     1     -34.073  15.641  -6.873  1.00 20.00    -0.129 Cl
ENDBRANCH   8   9
ENDBRANCH   6   8
ENDBRANCH   4   6
TORSDOF 3
ENDMDL
MODEL 9
REMARK VINA RESULT:      -3.1      2.311      2.899
REMARK  3 active torsions:
REMARK  status: ('A' for Active; 'I' for Inactive)
REMARK    1  A    between atoms: C4_4  and  N8_8 
REMARK    2  A    between atoms: C6_6  and  C7_7 
REMARK    3  A    between atoms: C6_6  and  N8_8 
ROOT
HETATM    1  C1  UNL     1     -34.445  15.287  -2.823  1.00 20.00     0.047 C 
HETATM    2  C2  UNL     1     -33.559  14.569  -3.831  1.00 20.00     0.076 C 
HETATM    3  C3  UNL     1     -36.208  14.189  -4.100  1.00 20.00     0.109 C 
HETATM    4  C4  UNL     1     -35.803  15.526  -3.483  1.00 20.00     0.232 C 
HETATM    5  S9  UNL     1     -34.669  13.425  -4.699  1.00 20.00    -0.167 SA
ENDROOT
BRANCH   4   6
HETATM    6  N8  UNL     1     -35.723  16.571  -4.504  1.00 20.00     0.090 N 
HETATM    7  C5  UNL     1     -36.891  16.522  -5.387  1.00 20.00     0.310 C 
BRANCH   6   8
HETATM    8  C6  UNL     1     -35.613  17.893  -3.883  1.00 20.00     0.287 C 
BRANCH   8   9
HETATM    9  C7  UNL     1     -34.498  18.732  -4.487  1.00 20.00     0.144 C 
HETATM   10 CL10 UNL     1     -33.457  17.755  -5.550  1.00 20.00    -0.129 Cl
ENDBRANCH   8   9
ENDBRANCH   6   8
ENDBRANCH   4   6
TORSDOF 3
ENDMDL
