MODEL 1
REMARK VINA RESULT:      -4.6      0.000      0.000
REMARK  3 active torsions:
REMARK  status: ('A' for Active; 'I' for Inactive)
REMARK    1  A    between atoms: C10_10  and  C12_12 
REMARK    2  A    between atoms: C11_11  and  C12_12 
REMARK    3  A    between atoms: C12_12  and  N13_13 
ROOT
HETATM    1  C1  UNL     1     -33.292  18.637  -1.308  1.00 20.00     0.130 C 
HETATM    2  C2  UNL     1     -33.675  18.806  -2.761  1.00 20.00     0.106 C 
HETATM    3  C3  UNL     1     -34.198  17.760  -0.477  1.00 20.00     0.106 C 
HETATM    4  C8  UNL     1     -33.947  17.457  -3.404  1.00 20.00     0.242 C 
HETATM    5  C9  UNL     1     -34.457  16.439  -1.178  1.00 20.00     0.242 C 
HETATM    6  N13 UNL     1     -34.963  16.700  -2.578  1.00 20.00    -0.065 N 
HETATM    7  O14 UNL     1     -32.358  19.263  -0.808  1.00 20.00    -0.298 OA
HETATM    8  H34 UNL     1     -35.804  17.289  -2.501  1.00 20.00     0.280 HD
ENDROOT
BRANCH   6   9
HETATM    9  C12 UNL     1     -35.394  15.430  -3.259  1.00 20.00     0.196 C 
BRANCH   9  10
HETATM   10  C10 UNL     1     -34.245  14.930  -4.120  1.00 20.00     0.017 A 
HETATM   11  C4  UNL     1     -33.558  13.634  -3.788  1.00 20.00     0.007 A 
HETATM   12  C5  UNL     1     -34.432  13.732  -5.007  1.00 20.00     0.007 A 
ENDBRANCH   9  10
BRANCH   9  13
HETATM   13  C11 UNL     1     -36.643  15.721  -4.075  1.00 20.00     0.017 A 
HETATM   14  C6  UNL     1     -37.918  14.972  -3.803  1.00 20.00     0.007 A 
HETATM   15  C7  UNL     1     -37.811  16.428  -3.446  1.00 20.00     0.007 A 
ENDBRANCH   9  13
ENDBRANCH   6   9
TORSDOF 3
ENDMDL
MODEL 2
REMARK VINA RESULT:      -4.6      1.970      2.939
REMARK  3 active torsions:
REMARK  status: ('A' for Active; 'I' for Inactive)
REMARK    1  A    between atoms: C10_10  and  C12_12 
REMARK    2  A    between atoms: C11_11  and  C12_12 
REMARK    3  A    between atoms: C12_12  and  N13_13 
ROOT
HETATM    1  C1  UNL     1     -35.840  18.047  -0.230  1.00 20.00     0.130 C 
HETATM    2  C2  UNL     1     -34.533  17.294  -0.325  1.00 20.00     0.106 C 
HETATM    3  C3  UNL     1     -36.371  18.625  -1.520  1.00 20.00     0.106 C 
HETATM    4  C8  UNL     1     -34.577  16.280  -1.454  1.00 20.00     0.242 C 
HETATM    5  C9  UNL     1     -36.369  17.578  -2.619  1.00 20.00     0.242 C 
HETATM    6  N13 UNL     1     -34.991  16.970  -2.735  1.00 20.00    -0.065 N 
HETATM    7  O14 UNL     1     -36.384  18.266   0.851  1.00 20.00    -0.298 OA
HETATM    8  H34 UNL     1     -34.325  17.737  -2.906  1.00 20.00     0.280 HD
ENDROOT
BRANCH   6   9
HETATM    9  C12 UNL     1     -34.888  16.048  -3.919  1.00 20.00     0.196 C 
BRANCH   9  10
HETATM   10  C10 UNL     1     -34.727  14.625  -3.409  1.00 20.00     0.017 A 
HETATM   11  C4  UNL     1     -35.245  13.467  -4.218  1.00 20.00     0.007 A 
HETATM   12  C5  UNL     1     -33.764  13.686  -4.080  1.00 20.00     0.007 A 
ENDBRANCH   9  10
BRANCH   9  13
HETATM   13  C11 UNL     1     -33.713  16.491  -4.775  1.00 20.00     0.017 A 
HETATM   14  C6  UNL     1     -33.936  16.945  -6.191  1.00 20.00     0.007 A 
HETATM   15  C7  UNL     1     -33.543  17.941  -5.136  1.00 20.00     0.007 A 
ENDBRANCH   9  13
ENDBRANCH   6   9
TORSDOF 3
ENDMDL
MODEL 3
REMARK VINA RESULT:      -4.4      2.581      5.011
REMARK  3 active torsions:
REMARK  status: ('A' for Active; 'I' for Inactive)
REMARK    1  A    between atoms: C10_10  and  C12_12 
REMARK    2  A    between atoms: C11_11  and  C12_12 
REMARK    3  A    between atoms: C12_12  and  N13_13 
ROOT
HETATM    1  C1  UNL     1     -34.718  13.459  -4.523  1.00 20.00     0.130 C 
HETATM    2  C2  UNL     1     -33.376  13.564  -3.834  1.00 20.00     0.106 C 
HETATM    3  C3  UNL     1     -35.876  14.138  -3.833  1.00 20.00     0.106 C 
HETATM    4  C8  UNL     1     -33.078  15.003  -3.455  1.00 20.00     0.242 C 
HETATM    5  C9  UNL     1     -35.515  15.563  -3.454  1.00 20.00     0.242 C 
HETATM    6  N13 UNL     1     -34.232  15.564  -2.654  1.00 20.00    -0.065 N 
HETATM    7  O14 UNL     1     -34.876  12.771  -5.531  1.00 20.00    -0.298 OA
HETATM    8  H34 UNL     1     -34.373  14.951  -1.839  1.00 20.00     0.280 HD
ENDROOT
BRANCH   6   9
HETATM    9  C12 UNL     1     -33.918  16.930  -2.110  1.00 20.00     0.196 C 
BRANCH   9  10
HETATM   10  C10 UNL     1     -34.574  17.068  -0.746  1.00 20.00     0.017 A 
HETATM   11  C4  UNL     1     -33.983  17.986   0.289  1.00 20.00     0.007 A 
HETATM   12  C5  UNL     1     -35.285  18.339  -0.375  1.00 20.00     0.007 A 
ENDBRANCH   9  10
BRANCH   9  13
HETATM   13  C11 UNL     1     -34.419  17.969  -3.100  1.00 20.00     0.017 A 
HETATM   14  C6  UNL     1     -33.674  19.263  -3.282  1.00 20.00     0.007 A 
HETATM   15  C7  UNL     1     -33.663  18.229  -4.373  1.00 20.00     0.007 A 
ENDBRANCH   9  13
ENDBRANCH   6   9
TORSDOF 3
ENDMDL
MODEL 4
REMARK VINA RESULT:      -4.4      2.638      4.631
REMARK  3 active torsions:
REMARK  status: ('A' for Active; 'I' for Inactive)
REMARK    1  A    between atoms: C10_10  and  C12_12 
REMARK    2  A    between atoms: C11_11  and  C12_12 
REMARK    3  A    between atoms: C12_12  and  N13_13 
ROOT
HETATM    1  C1  UNL     1     -34.870  13.722  -4.376  1.00 20.00     0.130 C 
HETATM    2  C2  UNL     1     -36.218  14.403  -4.337  1.00 20.00     0.106 C 
HETATM    3  C3  UNL     1     -33.663  14.626  -4.285  1.00 20.00     0.106 C 
HETATM    4  C8  UNL     1     -36.295  15.379  -3.176  1.00 20.00     0.242 C 
HETATM    5  C9  UNL     1     -33.804  15.595  -3.125  1.00 20.00     0.242 C 
HETATM    6  N13 UNL     1     -35.120  16.330  -3.237  1.00 20.00    -0.065 N 
HETATM    7  O14 UNL     1     -34.761  12.513  -4.575  1.00 20.00    -0.298 OA
HETATM    8  H34 UNL     1     -35.142  16.793  -4.157  1.00 20.00     0.280 HD
ENDROOT
BRANCH   6   9
HETATM    9  C12 UNL     1     -35.237  17.421  -2.209  1.00 20.00     0.196 C 
BRANCH   9  10
HETATM   10  C10 UNL     1     -34.671  16.907  -0.895  1.00 20.00     0.017 A 
HETATM   11  C4  UNL     1     -33.757  17.774  -0.073  1.00 20.00     0.007 A 
HETATM   12  C5  UNL     1     -35.150  17.481   0.409  1.00 20.00     0.007 A 
ENDBRANCH   9  10
BRANCH   9  13
HETATM   13  C11 UNL     1     -36.699  17.819  -2.092  1.00 20.00     0.017 A 
HETATM   14  C6  UNL     1     -37.080  19.263  -1.919  1.00 20.00     0.007 A 
HETATM   15  C7  UNL     1     -37.375  18.557  -3.213  1.00 20.00     0.007 A 
ENDBRANCH   9  13
ENDBRANCH   6   9
TORSDOF 3
ENDMDL
MODEL 5
REMARK VINA RESULT:      -4.4      2.814      4.695
REMARK  3 active torsions:
REMARK  status: ('A' for Active; 'I' for Inactive)
REMARK    1  A    between atoms: C10_10  and  C12_12 
REMARK    2  A    between atoms: C11_11  and  C12_12 
REMARK    3  A    between atoms: C12_12  and  N13_13 
ROOT
HETATM    1  C1  UNL     1     -39.192  16.006  -3.733  1.00 20.00     0.130 C 
HETATM    2  C2  UNL     1     -38.309  14.787  -3.597  1.00 20.00     0.106 C 
HETATM    3  C3  UNL     1     -38.792  17.214  -2.920  1.00 20.00     0.106 C 
HETATM    4  C8  UNL     1     -36.847  15.161  -3.770  1.00 20.00     0.242 C 
HETATM    5  C9  UNL     1     -37.319  17.526  -3.110  1.00 20.00     0.242 C 
HETATM    6  N13 UNL     1     -36.499  16.289  -2.824  1.00 20.00    -0.065 N 
HETATM    7  O14 UNL     1     -40.234  15.980  -4.387  1.00 20.00    -0.298 OA
HETATM    8  H34 UNL     1     -36.727  15.978  -1.870  1.00 20.00     0.280 HD
ENDROOT
BRANCH   6   9
HETATM    9  C12 UNL     1     -35.025  16.585  -2.834  1.00 20.00     0.196 C 
BRANCH   9  10
HETATM   10  C10 UNL     1     -34.353  15.659  -3.836  1.00 20.00     0.017 A 
HETATM   11  C4  UNL     1     -33.280  16.182  -4.750  1.00 20.00     0.007 A 
HETATM   12  C5  UNL     1     -32.925  15.238  -3.636  1.00 20.00     0.007 A 
ENDBRANCH   9  10
BRANCH   9  13
HETATM   13  C11 UNL     1     -34.486  16.399  -1.425  1.00 20.00     0.017 A 
HETATM   14  C6  UNL     1     -33.652  17.474  -0.784  1.00 20.00     0.007 A 
HETATM   15  C7  UNL     1     -35.046  17.207  -0.288  1.00 20.00     0.007 A 
ENDBRANCH   9  13
ENDBRANCH   6   9
TORSDOF 3
ENDMDL
MODEL 6
REMARK VINA RESULT:      -4.2      2.763      4.913
REMARK  3 active torsions:
REMARK  status: ('A' for Active; 'I' for Inactive)
REMARK    1  A    between atoms: C10_10  and  C12_12 
REMARK    2  A    between atoms: C11_11  and  C12_12 
REMARK    3  A    between atoms: C12_12  and  N13_13 
ROOT
HETATM    1  C1  UNL     1     -39.104  16.515  -4.870  1.00 20.00     0.130 C 
HETATM    2  C2  UNL     1     -37.960  17.498  -4.968  1.00 20.00     0.106 C 
HETATM    3  C3  UNL     1     -38.724  15.055  -4.787  1.00 20.00     0.106 C 
HETATM    4  C8  UNL     1     -36.918  17.217  -3.899  1.00 20.00     0.242 C 
HETATM    5  C9  UNL     1     -37.663  14.836  -3.724  1.00 20.00     0.242 C 
HETATM    6  N13 UNL     1     -36.498  15.766  -3.973  1.00 20.00    -0.065 N 
HETATM    7  O14 UNL     1     -40.277  16.875  -4.960  1.00 20.00    -0.298 OA
HETATM    8  H34 UNL     1     -36.157  15.588  -4.928  1.00 20.00     0.280 HD
ENDROOT
BRANCH   6   9
HETATM    9  C12 UNL     1     -35.348  15.474  -3.050  1.00 20.00     0.196 C 
BRANCH   9  10
HETATM   10  C10 UNL     1     -35.077  16.713  -2.210  1.00 20.00     0.017 A 
HETATM   11  C4  UNL     1     -34.716  16.579  -0.757  1.00 20.00     0.007 A 
HETATM   12  C5  UNL     1     -33.680  17.024  -1.751  1.00 20.00     0.007 A 
ENDBRANCH   9  10
BRANCH   9  13
HETATM   13  C11 UNL     1     -34.146  15.071  -3.889  1.00 20.00     0.017 A 
HETATM   14  C6  UNL     1     -33.558  13.694  -3.758  1.00 20.00     0.007 A 
HETATM   15  C7  UNL     1     -34.302  14.078  -5.006  1.00 20.00     0.007 A 
ENDBRANCH   9  13
ENDBRANCH   6   9
TORSDOF 3
ENDMDL
MODEL 7
REMARK VINA RESULT:      -4.1      0.944      2.977
REMARK  3 active torsions:
REMARK  status: ('A' for Active; 'I' for Inactive)
REMARK    1  A    between atoms: C10_10  and  C12_12 
REMARK    2  A    between atoms: C11_11  and  C12_12 
REMARK    3  A    between atoms: C12_12  and  N13_13 
ROOT
HETATM    1  C1  UNL     1     -34.159  18.370  -1.093  1.00 20.00     0.130 C 
HETATM    2  C2  UNL     1     -34.301  16.911  -0.725  1.00 20.00     0.106 C 
HETATM    3  C3  UNL     1     -33.740  18.661  -2.515  1.00 20.00     0.106 C 
HETATM    4  C8  UNL     1     -35.145  16.178  -1.753  1.00 20.00     0.242 C 
HETATM    5  C9  UNL     1     -34.598  17.884  -3.497  1.00 20.00     0.242 C 
HETATM    6  N13 UNL     1     -34.578  16.417  -3.134  1.00 20.00    -0.065 N 
HETATM    7  O14 UNL     1     -34.273  19.263  -0.255  1.00 20.00    -0.298 OA
HETATM    8  H34 UNL     1     -33.595  16.111  -3.126  1.00 20.00     0.280 HD
ENDROOT
BRANCH   6   9
HETATM    9  C12 UNL     1     -35.274  15.579  -4.171  1.00 20.00     0.196 C 
BRANCH   9  10
HETATM   10  C10 UNL     1     -36.761  15.895  -4.128  1.00 20.00     0.017 A 
HETATM   11  C4  UNL     1     -37.615  15.689  -5.348  1.00 20.00     0.007 A 
HETATM   12  C5  UNL     1     -37.771  14.782  -4.160  1.00 20.00     0.007 A 
ENDBRANCH   9  10
BRANCH   9  13
HETATM   13  C11 UNL     1     -34.986  14.115  -3.881  1.00 20.00     0.017 A 
HETATM   14  C6  UNL     1     -34.425  13.226  -4.956  1.00 20.00     0.007 A 
HETATM   15  C7  UNL     1     -33.567  13.627  -3.789  1.00 20.00     0.007 A 
ENDBRANCH   9  13
ENDBRANCH   6   9
TORSDOF 3
ENDMDL
MODEL 8
REMARK VINA RESULT:      -3.9      3.086      4.315
REMARK  3 active torsions:
REMARK  status: ('A' for Active; 'I' for Inactive)
REMARK    1  A    between atoms: C10_10  and  C12_12 
REMARK    2  A    between atoms: C11_11  and  C12_12 
REMARK    3  A    between atoms: C12_12  and  N13_13 
ROOT
HETATM    1  C1  UNL     1     -33.675  13.864  -3.834  1.00 20.00     0.130 C 
HETATM    2  C2  UNL     1     -33.221  15.251  -3.443  1.00 20.00     0.106 C 
HETATM    3  C3  UNL     1     -35.139  13.712  -4.171  1.00 20.00     0.106 C 
HETATM    4  C8  UNL     1     -33.707  16.279  -4.450  1.00 20.00     0.242 C 
HETATM    5  C9  UNL     1     -35.577  14.778  -5.159  1.00 20.00     0.242 C 
HETATM    6  N13 UNL     1     -35.203  16.143  -4.628  1.00 20.00    -0.065 N 
HETATM    7  O14 UNL     1     -32.918  12.896  -3.778  1.00 20.00    -0.298 OA
HETATM    8  H34 UNL     1     -35.639  16.247  -3.701  1.00 20.00     0.280 HD
ENDROOT
BRANCH   6   9
HETATM    9  C12 UNL     1     -35.761  17.244  -5.486  1.00 20.00     0.196 C 
BRANCH   9  10
HETATM   10  C10 UNL     1     -34.682  17.693  -6.458  1.00 20.00     0.017 A 
HETATM   11  C4  UNL     1     -34.786  17.348  -7.918  1.00 20.00     0.007 A 
HETATM   12  C5  UNL     1     -34.972  18.770  -7.466  1.00 20.00     0.007 A 
ENDBRANCH   9  10
BRANCH   9  13
HETATM   13  C11 UNL     1     -36.227  18.372  -4.579  1.00 20.00     0.017 A 
HETATM   14  C6  UNL     1     -37.696  18.619  -4.370  1.00 20.00     0.007 A 
HETATM   15  C7  UNL     1     -36.859  18.063  -3.251  1.00 20.00     0.007 A 
ENDBRANCH   9  13
ENDBRANCH   6   9
TORSDOF 3
ENDMDL
MODEL 9
REMARK VINA RESULT:      -3.9      2.678      4.387
REMARK  3 active torsions:
REMARK  status: ('A' for Active; 'I' for Inactive)
REMARK    1  A    between atoms: C10_10  and  C12_12 
REMARK    2  A    between atoms: C11_11  and  C12_12 
REMARK    3  A    between atoms: C12_12  and  N13_13 
ROOT
HETATM    1  C1  UNL     1     -33.513  13.711  -3.888  1.00 20.00     0.130 C 
HETATM    2  C2  UNL     1     -34.623  13.309  -4.832  1.00 20.00     0.106 C 
HETATM    3  C3  UNL     1     -33.399  15.186  -3.583  1.00 20.00     0.106 C 
HETATM    4  C8  UNL     1     -35.942  13.929  -4.406  1.00 20.00     0.242 C 
HETATM    5  C9  UNL     1     -34.748  15.758  -3.188  1.00 20.00     0.242 C 
HETATM    6  N13 UNL     1     -35.770  15.423  -4.251  1.00 20.00    -0.065 N 
HETATM    7  O14 UNL     1     -32.686  12.898  -3.477  1.00 20.00    -0.298 OA
HETATM    8  H34 UNL     1     -35.420  15.792  -5.146  1.00 20.00     0.280 HD
ENDROOT
BRANCH   6   9
HETATM    9  C12 UNL     1     -37.083  16.109  -3.994  1.00 20.00     0.196 C 
BRANCH   9  10
HETATM   10  C10 UNL     1     -38.151  15.045  -3.792  1.00 20.00     0.017 A 
HETATM   11  C4  UNL     1     -39.437  15.386  -3.092  1.00 20.00     0.007 A 
HETATM   12  C5  UNL     1     -39.436  15.107  -4.569  1.00 20.00     0.007 A 
ENDBRANCH   9  10
BRANCH   9  13
HETATM   13  C11 UNL     1     -37.391  17.019  -5.172  1.00 20.00     0.017 A 
HETATM   14  C6  UNL     1     -37.579  18.495  -4.960  1.00 20.00     0.007 A 
HETATM   15  C7  UNL     1     -36.355  17.988  -5.670  1.00 20.00     0.007 A 
ENDBRANCH   9  13
ENDBRANCH   6   9
TORSDOF 3
ENDMDL
