MODEL 1
REMARK VINA RESULT:      -3.6      0.000      0.000
REMARK  1 active torsions:
REMARK  status: ('A' for Active; 'I' for Inactive)
REMARK    1  A    between atoms: C2_2  and  C4_4 
ROOT
HETATM    1  C1  UNL     1     -34.186   5.757   6.119  1.00 20.00     0.095 A 
HETATM    2  C3  UNL     1     -35.038   4.750   5.397  1.00 20.00     0.122 A 
HETATM    3  C4  UNL     1     -33.953   6.673   4.080  1.00 20.00     0.255 A 
HETATM    4  N5  UNL     1     -33.609   6.742   5.505  1.00 20.00    -0.280 NA
HETATM    5  S7  UNL     1     -34.996   5.262   3.680  1.00 20.00    -0.128 SA
ENDROOT
BRANCH   3   6
HETATM    6  C2  UNL     1     -32.672   6.543   3.332  1.00 20.00     0.253 C 
HETATM    7  O6  UNL     1     -32.027   5.498   3.334  1.00 20.00    -0.277 OA
HETATM    8 CL8  UNL     1     -32.245   8.010   2.503  1.00 20.00    -0.041 Cl
ENDBRANCH   3   6
TORSDOF 1
ENDMDL
MODEL 2
REMARK VINA RESULT:      -3.5     11.960     12.739
REMARK  1 active torsions:
REMARK  status: ('A' for Active; 'I' for Inactive)
REMARK    1  A    between atoms: C2_2  and  C4_4 
ROOT
HETATM    1  C1  UNL     1     -33.585  16.638  -5.283  1.00 20.00     0.095 A 
HETATM    2  C3  UNL     1     -33.680  17.114  -3.860  1.00 20.00     0.122 A 
HETATM    3  C4  UNL     1     -34.886  14.954  -4.559  1.00 20.00     0.255 A 
HETATM    4  N5  UNL     1     -34.165  15.553  -5.689  1.00 20.00    -0.280 NA
HETATM    5  S7  UNL     1     -34.687  15.885  -3.031  1.00 20.00    -0.128 SA
ENDROOT
BRANCH   3   6
HETATM    6  C2  UNL     1     -34.321  13.590  -4.360  1.00 20.00     0.253 C 
HETATM    7  O6  UNL     1     -34.897  12.587  -4.770  1.00 20.00    -0.277 OA
HETATM    8 CL8  UNL     1     -32.806  13.628  -3.508  1.00 20.00    -0.041 Cl
ENDBRANCH   3   6
TORSDOF 1
ENDMDL
MODEL 3
REMARK VINA RESULT:      -3.5     11.696     12.399
REMARK  1 active torsions:
REMARK  status: ('A' for Active; 'I' for Inactive)
REMARK    1  A    between atoms: C2_2  and  C4_4 
ROOT
HETATM    1  C1  UNL     1     -35.751  14.736  -6.372  1.00 20.00     0.095 A 
HETATM    2  C3  UNL     1     -36.826  15.414  -5.569  1.00 20.00     0.122 A 
HETATM    3  C4  UNL     1     -35.368  13.605  -4.468  1.00 20.00     0.255 A 
HETATM    4  N5  UNL     1     -34.981  13.824  -5.868  1.00 20.00    -0.280 NA
HETATM    5  S7  UNL     1     -36.712  14.678  -3.939  1.00 20.00    -0.128 SA
ENDROOT
BRANCH   3   6
HETATM    6  C2  UNL     1     -34.168  13.903  -3.637  1.00 20.00     0.253 C 
HETATM    7  O6  UNL     1     -33.177  13.179  -3.652  1.00 20.00    -0.277 OA
HETATM    8 CL8  UNL     1     -34.368  15.349  -2.694  1.00 20.00    -0.041 Cl
ENDBRANCH   3   6
TORSDOF 1
ENDMDL
MODEL 4
REMARK VINA RESULT:      -3.5     12.325     12.585
REMARK  1 active torsions:
REMARK  status: ('A' for Active; 'I' for Inactive)
REMARK    1  A    between atoms: C2_2  and  C4_4 
ROOT
HETATM    1  C1  UNL     1     -34.754  16.108  -2.716  1.00 20.00     0.095 A 
HETATM    2  C3  UNL     1     -34.223  17.156  -3.654  1.00 20.00     0.122 A 
HETATM    3  C4  UNL     1     -33.669  14.680  -4.070  1.00 20.00     0.255 A 
HETATM    4  N5  UNL     1     -34.513  14.846  -2.881  1.00 20.00    -0.280 NA
HETATM    5  S7  UNL     1     -33.303  16.240  -4.890  1.00 20.00    -0.128 SA
ENDROOT
BRANCH   3   6
HETATM    6  C2  UNL     1     -34.423  13.812  -5.018  1.00 20.00     0.253 C 
HETATM    7  O6  UNL     1     -34.825  12.699  -4.692  1.00 20.00    -0.277 OA
HETATM    8 CL8  UNL     1     -34.636  14.567  -6.569  1.00 20.00    -0.041 Cl
ENDBRANCH   3   6
TORSDOF 1
ENDMDL
MODEL 5
REMARK VINA RESULT:      -3.5     12.263     12.731
REMARK  1 active torsions:
REMARK  status: ('A' for Active; 'I' for Inactive)
REMARK    1  A    between atoms: C2_2  and  C4_4 
ROOT
HETATM    1  C1  UNL     1     -38.178  15.090  -4.202  1.00 20.00     0.095 A 
HETATM    2  C3  UNL     1     -37.687  16.406  -4.739  1.00 20.00     0.122 A 
HETATM    3  C4  UNL     1     -35.997  14.697  -3.825  1.00 20.00     0.255 A 
HETATM    4  N5  UNL     1     -37.372  14.189  -3.737  1.00 20.00    -0.280 NA
HETATM    5  S7  UNL     1     -35.904  16.334  -4.568  1.00 20.00    -0.128 SA
ENDROOT
BRANCH   3   6
HETATM    6  C2  UNL     1     -35.240  13.743  -4.684  1.00 20.00     0.253 C 
HETATM    7  O6  UNL     1     -35.022  12.589  -4.328  1.00 20.00    -0.277 OA
HETATM    8 CL8  UNL     1     -34.737  14.469  -6.181  1.00 20.00    -0.041 Cl
ENDBRANCH   3   6
TORSDOF 1
ENDMDL
MODEL 6
REMARK VINA RESULT:      -3.4     12.581     13.375
REMARK  1 active torsions:
REMARK  status: ('A' for Active; 'I' for Inactive)
REMARK    1  A    between atoms: C2_2  and  C4_4 
ROOT
HETATM    1  C1  UNL     1     -34.421  15.204  -7.188  1.00 20.00     0.095 A 
HETATM    2  C3  UNL     1     -34.421  16.580  -6.583  1.00 20.00     0.122 A 
HETATM    3  C4  UNL     1     -35.662  14.669  -5.391  1.00 20.00     0.255 A 
HETATM    4  N5  UNL     1     -35.023  14.202  -6.627  1.00 20.00    -0.280 NA
HETATM    5  S7  UNL     1     -35.363  16.414  -5.067  1.00 20.00    -0.128 SA
ENDROOT
BRANCH   3   6
HETATM    6  C2  UNL     1     -35.076  13.873  -4.276  1.00 20.00     0.253 C 
HETATM    7  O6  UNL     1     -35.062  12.646  -4.298  1.00 20.00    -0.277 OA
HETATM    8 CL8  UNL     1     -34.453  14.885  -3.007  1.00 20.00    -0.041 Cl
ENDBRANCH   3   6
TORSDOF 1
ENDMDL
MODEL 7
REMARK VINA RESULT:      -3.3     11.955     12.485
REMARK  1 active torsions:
REMARK  status: ('A' for Active; 'I' for Inactive)
REMARK    1  A    between atoms: C2_2  and  C4_4 
ROOT
HETATM    1  C1  UNL     1     -34.301  13.372  -3.917  1.00 20.00     0.095 A 
HETATM    2  C3  UNL     1     -33.582  14.690  -3.988  1.00 20.00     0.122 A 
HETATM    3  C4  UNL     1     -36.027  14.534  -4.768  1.00 20.00     0.255 A 
HETATM    4  N5  UNL     1     -35.535  13.236  -4.289  1.00 20.00    -0.280 NA
HETATM    5  S7  UNL     1     -34.794  15.839  -4.638  1.00 20.00    -0.128 SA
ENDROOT
BRANCH   3   6
HETATM    6  C2  UNL     1     -37.192  14.896  -3.912  1.00 20.00     0.253 C 
HETATM    7  O6  UNL     1     -38.135  14.128  -3.748  1.00 20.00    -0.277 OA
HETATM    8 CL8  UNL     1     -37.027  16.481  -3.219  1.00 20.00    -0.041 Cl
ENDBRANCH   3   6
TORSDOF 1
ENDMDL
MODEL 8
REMARK VINA RESULT:      -3.3     12.159     12.883
REMARK  1 active torsions:
REMARK  status: ('A' for Active; 'I' for Inactive)
REMARK    1  A    between atoms: C2_2  and  C4_4 
ROOT
HETATM    1  C1  UNL     1     -34.753  17.178  -4.604  1.00 20.00     0.095 A 
HETATM    2  C3  UNL     1     -33.340  16.666  -4.633  1.00 20.00     0.122 A 
HETATM    3  C4  UNL     1     -35.151  15.328  -3.390  1.00 20.00     0.255 A 
HETATM    4  N5  UNL     1     -35.708  16.542  -4.000  1.00 20.00    -0.280 NA
HETATM    5  S7  UNL     1     -33.392  15.126  -3.717  1.00 20.00    -0.128 SA
ENDROOT
BRANCH   3   6
HETATM    6  C2  UNL     1     -35.880  14.174  -3.986  1.00 20.00     0.253 C 
HETATM    7  O6  UNL     1     -37.091  14.033  -3.845  1.00 20.00    -0.277 OA
HETATM    8 CL8  UNL     1     -34.818  13.111  -4.861  1.00 20.00    -0.041 Cl
ENDBRANCH   3   6
TORSDOF 1
ENDMDL
MODEL 9
REMARK VINA RESULT:      -3.2     12.534     12.939
REMARK  1 active torsions:
REMARK  status: ('A' for Active; 'I' for Inactive)
REMARK    1  A    between atoms: C2_2  and  C4_4 
ROOT
HETATM    1  C1  UNL     1     -34.727  14.729  -5.980  1.00 20.00     0.095 A 
HETATM    2  C3  UNL     1     -34.799  13.511  -5.101  1.00 20.00     0.122 A 
HETATM    3  C4  UNL     1     -33.361  15.516  -4.378  1.00 20.00     0.255 A 
HETATM    4  N5  UNL     1     -34.025  15.771  -5.662  1.00 20.00    -0.280 NA
HETATM    5  S7  UNL     1     -33.771  13.905  -3.686  1.00 20.00    -0.128 SA
ENDROOT
BRANCH   3   6
HETATM    6  C2  UNL     1     -33.827  16.570  -3.434  1.00 20.00     0.253 C 
HETATM    7  O6  UNL     1     -33.636  17.762  -3.653  1.00 20.00    -0.277 OA
HETATM    8 CL8  UNL     1     -34.637  15.897  -2.051  1.00 20.00    -0.041 Cl
ENDBRANCH   3   6
TORSDOF 1
ENDMDL
