MODEL 1
REMARK VINA RESULT:      -4.6      0.000      0.000
REMARK  2 active torsions:
REMARK  status: ('A' for Active; 'I' for Inactive)
REMARK    1  A    between atoms: C4_4  and  C5_5 
REMARK    2  A    between atoms: C5_5  and  C6_6 
ROOT
HETATM    1  C1  UNL     1     -34.831   4.324   4.729  1.00 20.00     0.033 C 
HETATM    2  C2  UNL     1     -35.196   4.595   6.173  1.00 20.00     0.168 C 
HETATM    3  C3  UNL     1     -33.852   6.342   5.415  1.00 20.00     0.172 C 
HETATM    4  C4  UNL     1     -34.546   5.719   4.216  1.00 20.00     0.012 C 
HETATM    5  O7  UNL     1     -34.445   5.748   6.581  1.00 20.00    -0.391 OA
ENDROOT
BRANCH   4   6
HETATM    6  C5  UNL     1     -33.722   5.759   2.944  1.00 20.00     0.017 C 
BRANCH   6   7
HETATM    7  C6  UNL     1     -32.330   6.305   3.204  1.00 20.00     0.085 C 
HETATM    8 BR8  UNL     1     -32.099   8.002   2.279  1.00 20.00    -0.096 Br
ENDBRANCH   6   7
ENDBRANCH   4   6
TORSDOF 2
ENDMDL
MODEL 2
REMARK VINA RESULT:      -4.2      1.080      1.530
REMARK  2 active torsions:
REMARK  status: ('A' for Active; 'I' for Inactive)
REMARK    1  A    between atoms: C4_4  and  C5_5 
REMARK    2  A    between atoms: C5_5  and  C6_6 
ROOT
HETATM    1  C1  UNL     1     -34.049   6.248   5.865  1.00 20.00     0.033 C 
HETATM    2  C2  UNL     1     -34.675   5.007   6.466  1.00 20.00     0.168 C 
HETATM    3  C3  UNL     1     -35.054   4.980   4.167  1.00 20.00     0.172 C 
HETATM    4  C4  UNL     1     -33.811   5.810   4.436  1.00 20.00     0.012 C 
HETATM    5  O7  UNL     1     -35.406   4.360   5.414  1.00 20.00    -0.391 OA
ENDROOT
BRANCH   4   6
HETATM    6  C5  UNL     1     -33.617   6.954   3.459  1.00 20.00     0.017 C 
BRANCH   6   7
HETATM    7  C6  UNL     1     -32.163   7.079   3.037  1.00 20.00     0.085 C 
HETATM    8 BR8  UNL     1     -31.982   8.473   1.690  1.00 20.00    -0.096 Br
ENDBRANCH   6   7
ENDBRANCH   4   6
TORSDOF 2
ENDMDL
MODEL 3
REMARK VINA RESULT:      -3.7     11.951     12.749
REMARK  2 active torsions:
REMARK  status: ('A' for Active; 'I' for Inactive)
REMARK    1  A    between atoms: C4_4  and  C5_5 
REMARK    2  A    between atoms: C5_5  and  C6_6 
ROOT
HETATM    1  C1  UNL     1     -34.414  13.878  -3.521  1.00 20.00     0.033 C 
HETATM    2  C2  UNL     1     -34.511  13.210  -4.876  1.00 20.00     0.168 C 
HETATM    3  C3  UNL     1     -34.015  15.464  -5.202  1.00 20.00     0.172 C 
HETATM    4  C4  UNL     1     -33.519  15.061  -3.824  1.00 20.00     0.012 C 
HETATM    5  O7  UNL     1     -34.418  14.252  -5.860  1.00 20.00    -0.391 OA
ENDROOT
BRANCH   4   6
HETATM    6  C5  UNL     1     -33.592  16.175  -2.799  1.00 20.00     0.017 C 
BRANCH   6   7
HETATM    7  C6  UNL     1     -34.884  16.111  -2.003  1.00 20.00     0.085 C 
HETATM    8 BR8  UNL     1     -34.693  17.114  -0.346  1.00 20.00    -0.096 Br
ENDBRANCH   6   7
ENDBRANCH   4   6
TORSDOF 2
ENDMDL
MODEL 4
REMARK VINA RESULT:      -3.7     11.732     12.363
REMARK  2 active torsions:
REMARK  status: ('A' for Active; 'I' for Inactive)
REMARK    1  A    between atoms: C4_4  and  C5_5 
REMARK    2  A    between atoms: C5_5  and  C6_6 
ROOT
HETATM    1  C1  UNL     1     -35.514  14.978  -4.018  1.00 20.00     0.033 C 
HETATM    2  C2  UNL     1     -35.822  13.547  -4.407  1.00 20.00     0.168 C 
HETATM    3  C3  UNL     1     -33.562  13.687  -3.856  1.00 20.00     0.172 C 
HETATM    4  C4  UNL     1     -34.299  14.801  -3.133  1.00 20.00     0.012 C 
HETATM    5  O7  UNL     1     -34.569  12.848  -4.444  1.00 20.00    -0.391 OA
ENDROOT
BRANCH   4   6
HETATM    6  C5  UNL     1     -33.475  16.060  -2.948  1.00 20.00     0.017 C 
BRANCH   6   7
HETATM    7  C6  UNL     1     -34.329  17.211  -2.445  1.00 20.00     0.085 C 
HETATM    8 BR8  UNL     1     -34.659  17.008  -0.537  1.00 20.00    -0.096 Br
ENDBRANCH   6   7
ENDBRANCH   4   6
TORSDOF 2
ENDMDL
MODEL 5
REMARK VINA RESULT:      -3.6     11.951     12.384
REMARK  2 active torsions:
REMARK  status: ('A' for Active; 'I' for Inactive)
REMARK    1  A    between atoms: C4_4  and  C5_5 
REMARK    2  A    between atoms: C5_5  and  C6_6 
ROOT
HETATM    1  C1  UNL     1     -33.758  14.000  -3.749  1.00 20.00     0.033 C 
HETATM    2  C2  UNL     1     -34.838  13.271  -4.520  1.00 20.00     0.168 C 
HETATM    3  C3  UNL     1     -35.817  15.069  -3.407  1.00 20.00     0.172 C 
HETATM    4  C4  UNL     1     -34.349  15.388  -3.630  1.00 20.00     0.012 C 
HETATM    5  O7  UNL     1     -36.089  13.868  -4.148  1.00 20.00    -0.391 OA
ENDROOT
BRANCH   4   6
HETATM    6  C5  UNL     1     -33.734  16.233  -2.532  1.00 20.00     0.017 C 
BRANCH   6   7
HETATM    7  C6  UNL     1     -34.672  16.365  -1.344  1.00 20.00     0.085 C 
HETATM    8 BR8  UNL     1     -34.096  17.833  -0.203  1.00 20.00    -0.096 Br
ENDBRANCH   6   7
ENDBRANCH   4   6
TORSDOF 2
ENDMDL
MODEL 6
REMARK VINA RESULT:      -3.4     12.124     12.733
REMARK  2 active torsions:
REMARK  status: ('A' for Active; 'I' for Inactive)
REMARK    1  A    between atoms: C4_4  and  C5_5 
REMARK    2  A    between atoms: C5_5  and  C6_6 
ROOT
HETATM    1  C1  UNL     1     -35.489  14.708  -3.873  1.00 20.00     0.033 C 
HETATM    2  C2  UNL     1     -35.299  13.280  -4.340  1.00 20.00     0.168 C 
HETATM    3  C3  UNL     1     -33.214  14.148  -3.770  1.00 20.00     0.172 C 
HETATM    4  C4  UNL     1     -34.275  14.906  -2.992  1.00 20.00     0.012 C 
HETATM    5  O7  UNL     1     -33.884  13.050  -4.407  1.00 20.00    -0.391 OA
ENDROOT
BRANCH   4   6
HETATM    6  C5  UNL     1     -33.924  16.359  -2.734  1.00 20.00     0.017 C 
BRANCH   6   7
HETATM    7  C6  UNL     1     -34.733  17.289  -3.620  1.00 20.00     0.085 C 
HETATM    8 BR8  UNL     1     -33.654  17.873  -5.131  1.00 20.00    -0.096 Br
ENDBRANCH   6   7
ENDBRANCH   4   6
TORSDOF 2
ENDMDL
MODEL 7
REMARK VINA RESULT:      -3.4     12.194     12.694
REMARK  2 active torsions:
REMARK  status: ('A' for Active; 'I' for Inactive)
REMARK    1  A    between atoms: C4_4  and  C5_5 
REMARK    2  A    between atoms: C5_5  and  C6_6 
ROOT
HETATM    1  C1  UNL     1     -33.378  15.418  -3.351  1.00 20.00     0.033 C 
HETATM    2  C2  UNL     1     -34.026  16.290  -2.296  1.00 20.00     0.168 C 
HETATM    3  C3  UNL     1     -35.692  15.033  -3.334  1.00 20.00     0.172 C 
HETATM    4  C4  UNL     1     -34.376  14.286  -3.469  1.00 20.00     0.012 C 
HETATM    5  O7  UNL     1     -35.445  16.132  -2.442  1.00 20.00    -0.391 OA
ENDROOT
BRANCH   4   6
HETATM    6  C5  UNL     1     -34.258  13.484  -4.750  1.00 20.00     0.017 C 
BRANCH   6   7
HETATM    7  C6  UNL     1     -35.271  13.942  -5.785  1.00 20.00     0.085 C 
HETATM    8 BR8  UNL     1     -34.425  15.157  -7.049  1.00 20.00    -0.096 Br
ENDBRANCH   6   7
ENDBRANCH   4   6
TORSDOF 2
ENDMDL
MODEL 8
REMARK VINA RESULT:      -3.4     12.631     13.720
REMARK  2 active torsions:
REMARK  status: ('A' for Active; 'I' for Inactive)
REMARK    1  A    between atoms: C4_4  and  C5_5 
REMARK    2  A    between atoms: C5_5  and  C6_6 
ROOT
HETATM    1  C1  UNL     1     -34.137  17.767  -3.608  1.00 20.00     0.033 C 
HETATM    2  C2  UNL     1     -33.494  17.584  -4.967  1.00 20.00     0.168 C 
HETATM    3  C3  UNL     1     -33.194  15.624  -3.743  1.00 20.00     0.172 C 
HETATM    4  C4  UNL     1     -34.424  16.336  -3.209  1.00 20.00     0.012 C 
HETATM    5  O7  UNL     1     -32.801  16.328  -4.932  1.00 20.00    -0.391 OA
ENDROOT
BRANCH   4   6
HETATM    6  C5  UNL     1     -34.648  16.138  -1.723  1.00 20.00     0.017 C 
BRANCH   6   7
HETATM    7  C6  UNL     1     -34.011  17.253  -0.913  1.00 20.00     0.085 C 
HETATM    8 BR8  UNL     1     -35.082  17.620   0.670  1.00 20.00    -0.096 Br
ENDBRANCH   6   7
ENDBRANCH   4   6
TORSDOF 2
ENDMDL
MODEL 9
REMARK VINA RESULT:      -3.2     12.511     13.610
REMARK  2 active torsions:
REMARK  status: ('A' for Active; 'I' for Inactive)
REMARK    1  A    between atoms: C4_4  and  C5_5 
REMARK    2  A    between atoms: C5_5  and  C6_6 
ROOT
HETATM    1  C1  UNL     1     -33.928  16.084  -5.413  1.00 20.00     0.033 C 
HETATM    2  C2  UNL     1     -34.274  15.682  -6.831  1.00 20.00     0.168 C 
HETATM    3  C3  UNL     1     -34.798  13.907  -5.417  1.00 20.00     0.172 C 
HETATM    4  C4  UNL     1     -34.847  15.191  -4.608  1.00 20.00     0.012 C 
HETATM    5  O7  UNL     1     -34.647  14.297  -6.791  1.00 20.00    -0.391 OA
ENDROOT
BRANCH   4   6
HETATM    6  C5  UNL     1     -34.434  15.017  -3.160  1.00 20.00     0.017 C 
BRANCH   6   7
HETATM    7  C6  UNL     1     -33.780  16.275  -2.616  1.00 20.00     0.085 C 
HETATM    8 BR8  UNL     1     -34.589  16.760  -0.912  1.00 20.00    -0.096 Br
ENDBRANCH   6   7
ENDBRANCH   4   6
TORSDOF 2
ENDMDL
