MODEL 1
REMARK VINA RESULT:      -4.8      0.000      0.000
REMARK  2 active torsions:
REMARK  status: ('A' for Active; 'I' for Inactive)
REMARK    1  A    between atoms: C2_2  and  C6_6 
REMARK       I    between atoms: C2_2  and  N7_7 
REMARK    2  A    between atoms: C5_5  and  C6_6 
ROOT
HETATM    1  C1  UNL     1     -32.193   7.582   2.460  1.00 20.00     0.166 C 
HETATM    2  C2  UNL     1     -33.386   5.910   3.232  1.00 20.00     0.244 C 
HETATM    3  N7  UNL     1     -32.175   6.512   2.945  1.00 20.00    -0.199 NA
HETATM    4  O8  UNL     1     -34.035   5.183   2.483  1.00 20.00    -0.271 OA
HETATM    5  S9  UNL     1     -32.177   9.032   1.802  1.00 20.00    -0.055 SA
ENDROOT
BRANCH   2   6
HETATM    6  C6  UNL     1     -33.868   6.245   4.635  1.00 20.00     0.109 C 
BRANCH   6   7
HETATM    7  C5  UNL     1     -34.982   5.381   5.117  1.00 20.00    -0.006 A 
HETATM    8  C3  UNL     1     -34.713   3.964   5.540  1.00 20.00     0.005 A 
HETATM    9  C4  UNL     1     -35.070   5.001   6.569  1.00 20.00     0.005 A 
ENDBRANCH   6   7
ENDBRANCH   2   6
TORSDOF 2
ENDMDL
MODEL 2
REMARK VINA RESULT:      -4.6      1.048      1.265
REMARK  2 active torsions:
REMARK  status: ('A' for Active; 'I' for Inactive)
REMARK    1  A    between atoms: C2_2  and  C6_6 
REMARK       I    between atoms: C2_2  and  N7_7 
REMARK    2  A    between atoms: C5_5  and  C6_6 
ROOT
HETATM    1  C1  UNL     1     -32.042   8.336   2.281  1.00 20.00     0.166 C 
HETATM    2  C2  UNL     1     -32.431   6.412   3.261  1.00 20.00     0.244 C 
HETATM    3  N7  UNL     1     -31.745   7.607   3.152  1.00 20.00    -0.199 NA
HETATM    4  O8  UNL     1     -32.131   5.346   2.729  1.00 20.00    -0.271 OA
HETATM    5  S9  UNL     1     -32.418   9.350   1.112  1.00 20.00    -0.055 SA
ENDROOT
BRANCH   2   6
HETATM    6  C6  UNL     1     -33.659   6.542   4.149  1.00 20.00     0.109 C 
BRANCH   6   7
HETATM    7  C5  UNL     1     -33.869   5.390   5.070  1.00 20.00    -0.006 A 
HETATM    8  C3  UNL     1     -34.733   5.543   6.290  1.00 20.00     0.005 A 
HETATM    9  C4  UNL     1     -35.206   4.706   5.134  1.00 20.00     0.005 A 
ENDBRANCH   6   7
ENDBRANCH   2   6
TORSDOF 2
ENDMDL
MODEL 3
REMARK VINA RESULT:      -4.2     11.976     12.386
REMARK  2 active torsions:
REMARK  status: ('A' for Active; 'I' for Inactive)
REMARK    1  A    between atoms: C2_2  and  C6_6 
REMARK       I    between atoms: C2_2  and  N7_7 
REMARK    2  A    between atoms: C5_5  and  C6_6 
ROOT
HETATM    1  C1  UNL     1     -35.054  14.514  -6.594  1.00 20.00     0.166 C 
HETATM    2  C2  UNL     1     -34.936  13.773  -4.532  1.00 20.00     0.244 C 
HETATM    3  N7  UNL     1     -34.358  14.297  -5.673  1.00 20.00    -0.199 NA
HETATM    4  O8  UNL     1     -35.079  12.581  -4.267  1.00 20.00    -0.271 OA
HETATM    5  S9  UNL     1     -35.967  14.822  -7.862  1.00 20.00    -0.055 SA
ENDROOT
BRANCH   2   6
HETATM    6  C6  UNL     1     -35.404  14.863  -3.581  1.00 20.00     0.109 C 
BRANCH   6   7
HETATM    7  C5  UNL     1     -34.330  15.405  -2.701  1.00 20.00    -0.006 A 
HETATM    8  C3  UNL     1     -33.972  16.864  -2.753  1.00 20.00     0.005 A 
HETATM    9  C4  UNL     1     -34.678  16.305  -1.549  1.00 20.00     0.005 A 
ENDBRANCH   6   7
ENDBRANCH   2   6
TORSDOF 2
ENDMDL
MODEL 4
REMARK VINA RESULT:      -4.2      1.742      2.023
REMARK  2 active torsions:
REMARK  status: ('A' for Active; 'I' for Inactive)
REMARK    1  A    between atoms: C2_2  and  C6_6 
REMARK       I    between atoms: C2_2  and  N7_7 
REMARK    2  A    between atoms: C5_5  and  C6_6 
ROOT
HETATM    1  C1  UNL     1     -33.235   6.086   3.021  1.00 20.00     0.166 C 
HETATM    2  C2  UNL     1     -35.209   5.276   3.537  1.00 20.00     0.244 C 
HETATM    3  N7  UNL     1     -34.106   5.362   2.708  1.00 20.00    -0.199 NA
HETATM    4  O8  UNL     1     -36.224   5.967   3.477  1.00 20.00    -0.271 OA
HETATM    5  S9  UNL     1     -32.035   7.056   3.414  1.00 20.00    -0.055 SA
ENDROOT
BRANCH   2   6
HETATM    6  C6  UNL     1     -35.044   4.189   4.588  1.00 20.00     0.109 C 
BRANCH   6   7
HETATM    7  C5  UNL     1     -35.052   4.693   5.990  1.00 20.00    -0.006 A 
HETATM    8  C3  UNL     1     -33.790   4.684   6.806  1.00 20.00     0.005 A 
HETATM    9  C4  UNL     1     -34.370   5.988   6.333  1.00 20.00     0.005 A 
ENDBRANCH   6   7
ENDBRANCH   2   6
TORSDOF 2
ENDMDL
MODEL 5
REMARK VINA RESULT:      -4.1     11.923     12.301
REMARK  2 active torsions:
REMARK  status: ('A' for Active; 'I' for Inactive)
REMARK    1  A    between atoms: C2_2  and  C6_6 
REMARK       I    between atoms: C2_2  and  N7_7 
REMARK    2  A    between atoms: C5_5  and  C6_6 
ROOT
HETATM    1  C1  UNL     1     -35.194  14.327  -5.692  1.00 20.00     0.166 C 
HETATM    2  C2  UNL     1     -36.427  14.543  -3.890  1.00 20.00     0.244 C 
HETATM    3  N7  UNL     1     -35.370  13.983  -4.583  1.00 20.00    -0.199 NA
HETATM    4  O8  UNL     1     -37.578  14.113  -3.843  1.00 20.00    -0.271 OA
HETATM    5  S9  UNL     1     -34.924  14.768  -7.198  1.00 20.00    -0.055 SA
ENDROOT
BRANCH   2   6
HETATM    6  C6  UNL     1     -36.016  15.806  -3.151  1.00 20.00     0.109 C 
BRANCH   6   7
HETATM    7  C5  UNL     1     -34.848  15.626  -2.243  1.00 20.00    -0.006 A 
HETATM    8  C3  UNL     1     -33.716  16.616  -2.259  1.00 20.00     0.005 A 
HETATM    9  C4  UNL     1     -34.645  16.554  -1.078  1.00 20.00     0.005 A 
ENDBRANCH   6   7
ENDBRANCH   2   6
TORSDOF 2
ENDMDL
MODEL 6
REMARK VINA RESULT:      -4.1     12.093     12.574
REMARK  2 active torsions:
REMARK  status: ('A' for Active; 'I' for Inactive)
REMARK    1  A    between atoms: C2_2  and  C6_6 
REMARK       I    between atoms: C2_2  and  N7_7 
REMARK    2  A    between atoms: C5_5  and  C6_6 
ROOT
HETATM    1  C1  UNL     1     -33.986  15.750  -5.790  1.00 20.00     0.166 C 
HETATM    2  C2  UNL     1     -33.235  15.393  -3.760  1.00 20.00     0.244 C 
HETATM    3  N7  UNL     1     -33.489  16.222  -4.836  1.00 20.00    -0.199 NA
HETATM    4  O8  UNL     1     -32.205  14.753  -3.558  1.00 20.00    -0.271 OA
HETATM    5  S9  UNL     1     -34.659  15.146  -7.101  1.00 20.00    -0.055 SA
ENDROOT
BRANCH   2   6
HETATM    6  C6  UNL     1     -34.408  15.341  -2.794  1.00 20.00     0.109 C 
BRANCH   6   7
HETATM    7  C5  UNL     1     -34.688  16.634  -2.107  1.00 20.00    -0.006 A 
HETATM    8  C3  UNL     1     -34.703  16.706  -0.606  1.00 20.00     0.005 A 
HETATM    9  C4  UNL     1     -33.589  17.356  -1.378  1.00 20.00     0.005 A 
ENDBRANCH   6   7
ENDBRANCH   2   6
TORSDOF 2
ENDMDL
MODEL 7
REMARK VINA RESULT:      -3.9      2.513      4.750
REMARK  2 active torsions:
REMARK  status: ('A' for Active; 'I' for Inactive)
REMARK    1  A    between atoms: C2_2  and  C6_6 
REMARK       I    between atoms: C2_2  and  N7_7 
REMARK    2  A    between atoms: C5_5  and  C6_6 
ROOT
HETATM    1  C1  UNL     1     -34.021   6.068   4.784  1.00 20.00     0.166 C 
HETATM    2  C2  UNL     1     -32.528   6.225   3.184  1.00 20.00     0.244 C 
HETATM    3  N7  UNL     1     -33.833   6.116   3.626  1.00 20.00    -0.199 NA
HETATM    4  O8  UNL     1     -31.766   5.297   2.921  1.00 20.00    -0.271 OA
HETATM    5  S9  UNL     1     -34.314   5.999   6.348  1.00 20.00    -0.055 SA
ENDROOT
BRANCH   2   6
HETATM    6  C6  UNL     1     -32.096   7.676   3.044  1.00 20.00     0.109 C 
BRANCH   6   7
HETATM    7  C5  UNL     1     -32.620   8.352   1.823  1.00 20.00    -0.006 A 
HETATM    8  C3  UNL     1     -32.396   9.824   1.617  1.00 20.00     0.005 A 
HETATM    9  C4  UNL     1     -31.674   8.826   0.756  1.00 20.00     0.005 A 
ENDBRANCH   6   7
ENDBRANCH   2   6
TORSDOF 2
ENDMDL
MODEL 8
REMARK VINA RESULT:      -3.8     11.738     12.209
REMARK  2 active torsions:
REMARK  status: ('A' for Active; 'I' for Inactive)
REMARK    1  A    between atoms: C2_2  and  C6_6 
REMARK       I    between atoms: C2_2  and  N7_7 
REMARK    2  A    between atoms: C5_5  and  C6_6 
ROOT
HETATM    1  C1  UNL     1     -36.735  14.587  -4.365  1.00 20.00     0.166 C 
HETATM    2  C2  UNL     1     -34.602  14.185  -4.041  1.00 20.00     0.244 C 
HETATM    3  N7  UNL     1     -35.715  14.272  -4.856  1.00 20.00    -0.199 NA
HETATM    4  O8  UNL     1     -34.220  13.189  -3.431  1.00 20.00    -0.271 OA
HETATM    5  S9  UNL     1     -38.134  15.011  -3.735  1.00 20.00    -0.055 SA
ENDROOT
BRANCH   2   6
HETATM    6  C6  UNL     1     -33.850  15.505  -3.964  1.00 20.00     0.109 C 
BRANCH   6   7
HETATM    7  C5  UNL     1     -33.595  15.979  -2.575  1.00 20.00    -0.006 A 
HETATM    8  C3  UNL     1     -33.924  17.392  -2.184  1.00 20.00     0.005 A 
HETATM    9  C4  UNL     1     -34.744  16.253  -1.646  1.00 20.00     0.005 A 
ENDBRANCH   6   7
ENDBRANCH   2   6
TORSDOF 2
ENDMDL
MODEL 9
REMARK VINA RESULT:      -3.8     11.463     12.765
REMARK  2 active torsions:
REMARK  status: ('A' for Active; 'I' for Inactive)
REMARK    1  A    between atoms: C2_2  and  C6_6 
REMARK       I    between atoms: C2_2  and  N7_7 
REMARK    2  A    between atoms: C5_5  and  C6_6 
ROOT
HETATM    1  C1  UNL     1     -34.937  15.859  -2.269  1.00 20.00     0.166 C 
HETATM    2  C2  UNL     1     -34.597  14.278  -3.752  1.00 20.00     0.244 C 
HETATM    3  N7  UNL     1     -35.431  15.103  -3.020  1.00 20.00    -0.199 NA
HETATM    4  O8  UNL     1     -34.203  13.161  -3.424  1.00 20.00    -0.271 OA
HETATM    5  S9  UNL     1     -34.304  16.897  -1.240  1.00 20.00    -0.055 SA
ENDROOT
BRANCH   2   6
HETATM    6  C6  UNL     1     -34.191  14.912  -5.074  1.00 20.00     0.109 C 
BRANCH   6   7
HETATM    7  C5  UNL     1     -34.819  14.282  -6.269  1.00 20.00    -0.006 A 
HETATM    8  C3  UNL     1     -36.059  14.877  -6.875  1.00 20.00     0.005 A 
HETATM    9  C4  UNL     1     -34.749  14.962  -7.608  1.00 20.00     0.005 A 
ENDBRANCH   6   7
ENDBRANCH   2   6
TORSDOF 2
ENDMDL
