MODEL 1
REMARK VINA RESULT:      -4.8      0.000      0.000
REMARK  1 active torsions:
REMARK  status: ('A' for Active; 'I' for Inactive)
REMARK    1  A    between atoms: C4_4  and  C9_9 
ROOT
HETATM    1  C1  UNL     1     -33.735  17.407  -4.103  1.00 20.00     0.006 C 
HETATM    2  C2  UNL     1     -33.613  16.747  -5.481  1.00 20.00     0.021 C 
HETATM    3  C3  UNL     1     -33.480  15.047  -3.238  1.00 20.00     0.010 C 
HETATM    4  C4  UNL     1     -34.101  16.423  -2.979  1.00 20.00    -0.014 C 
HETATM    5  C5  UNL     1     -33.979  14.413  -4.555  1.00 20.00     0.000 C 
HETATM    6  C6  UNL     1     -34.450  15.476  -5.572  1.00 20.00     0.086 C 
HETATM    7  C7  UNL     1     -35.094  13.397  -4.278  1.00 20.00     0.011 C 
HETATM    8 CL10 UNL     1     -34.378  14.823  -7.239  1.00 20.00    -0.125 Cl
ENDROOT
BRANCH   4   9
HETATM    9  C9  UNL     1     -33.678  16.975  -1.620  1.00 20.00     0.000 C 
HETATM   10  C8  UNL     1     -34.722  16.738  -0.580  1.00 20.00     0.005 C 
ENDBRANCH   4   9
TORSDOF 1
ENDMDL
MODEL 2
REMARK VINA RESULT:      -4.5      1.369      1.722
REMARK  1 active torsions:
REMARK  status: ('A' for Active; 'I' for Inactive)
REMARK    1  A    between atoms: C4_4  and  C9_9 
ROOT
HETATM    1  C1  UNL     1     -36.011  16.676  -2.831  1.00 20.00     0.006 C 
HETATM    2  C2  UNL     1     -35.941  16.309  -4.317  1.00 20.00     0.021 C 
HETATM    3  C3  UNL     1     -33.604  15.907  -2.794  1.00 20.00     0.010 C 
HETATM    4  C4  UNL     1     -34.898  16.035  -1.985  1.00 20.00    -0.014 C 
HETATM    5  C5  UNL     1     -33.775  15.015  -4.042  1.00 20.00     0.000 C 
HETATM    6  C6  UNL     1     -35.239  14.971  -4.534  1.00 20.00     0.086 C 
HETATM    7  C7  UNL     1     -33.253  13.599  -3.770  1.00 20.00     0.011 C 
HETATM    8 CL10 UNL     1     -35.306  14.528  -6.267  1.00 20.00    -0.125 Cl
ENDROOT
BRANCH   4   9
HETATM    9  C9  UNL     1     -34.673  16.829  -0.700  1.00 20.00     0.000 C 
HETATM   10  C8  UNL     1     -33.506  17.752  -0.821  1.00 20.00     0.005 C 
ENDBRANCH   4   9
TORSDOF 1
ENDMDL
MODEL 3
REMARK VINA RESULT:      -4.3      0.942      2.434
REMARK  1 active torsions:
REMARK  status: ('A' for Active; 'I' for Inactive)
REMARK    1  A    between atoms: C4_4  and  C9_9 
ROOT
HETATM    1  C1  UNL     1     -34.471  14.748  -3.058  1.00 20.00     0.006 C 
HETATM    2  C2  UNL     1     -34.697  14.525  -4.557  1.00 20.00     0.021 C 
HETATM    3  C3  UNL     1     -35.007  17.157  -3.600  1.00 20.00     0.010 C 
HETATM    4  C4  UNL     1     -34.214  16.218  -2.686  1.00 20.00    -0.014 C 
HETATM    5  C5  UNL     1     -34.612  17.006  -5.085  1.00 20.00     0.000 C 
HETATM    6  C6  UNL     1     -34.027  15.611  -5.395  1.00 20.00     0.086 C 
HETATM    7  C7  UNL     1     -33.630  18.109  -5.498  1.00 20.00     0.011 C 
HETATM    8 CL10 UNL     1     -34.206  15.227  -7.135  1.00 20.00    -0.125 Cl
ENDROOT
BRANCH   4   9
HETATM    9  C9  UNL     1     -34.544  16.467  -1.215  1.00 20.00     0.000 C 
HETATM   10  C8  UNL     1     -33.790  17.635  -0.672  1.00 20.00     0.005 C 
ENDBRANCH   4   9
TORSDOF 1
ENDMDL
MODEL 4
REMARK VINA RESULT:      -4.2      2.288      4.545
REMARK  1 active torsions:
REMARK  status: ('A' for Active; 'I' for Inactive)
REMARK    1  A    between atoms: C4_4  and  C9_9 
ROOT
HETATM    1  C1  UNL     1     -34.726  14.236  -4.739  1.00 20.00     0.006 C 
HETATM    2  C2  UNL     1     -34.449  14.572  -3.270  1.00 20.00     0.021 C 
HETATM    3  C3  UNL     1     -33.437  16.361  -5.198  1.00 20.00     0.010 C 
HETATM    4  C4  UNL     1     -34.554  15.435  -5.688  1.00 20.00    -0.014 C 
HETATM    5  C5  UNL     1     -33.729  16.947  -3.800  1.00 20.00     0.000 C 
HETATM    6  C6  UNL     1     -34.681  16.051  -2.978  1.00 20.00     0.086 C 
HETATM    7  C7  UNL     1     -34.289  18.370  -3.916  1.00 20.00     0.011 C 
HETATM    8 CL10 UNL     1     -34.477  16.360  -1.225  1.00 20.00    -0.125 Cl
ENDROOT
BRANCH   4   9
HETATM    9  C9  UNL     1     -34.294  14.959  -7.116  1.00 20.00     0.000 C 
HETATM   10  C8  UNL     1     -35.552  14.909  -7.918  1.00 20.00     0.005 C 
ENDBRANCH   4   9
TORSDOF 1
ENDMDL
MODEL 5
REMARK VINA RESULT:      -4.2      2.393      4.160
REMARK  1 active torsions:
REMARK  status: ('A' for Active; 'I' for Inactive)
REMARK    1  A    between atoms: C4_4  and  C9_9 
ROOT
HETATM    1  C1  UNL     1     -35.177  16.473  -5.766  1.00 20.00     0.006 C 
HETATM    2  C2  UNL     1     -35.380  16.578  -4.251  1.00 20.00     0.021 C 
HETATM    3  C3  UNL     1     -34.759  14.028  -5.278  1.00 20.00     0.010 C 
HETATM    4  C4  UNL     1     -34.421  15.205  -6.199  1.00 20.00    -0.014 C 
HETATM    5  C5  UNL     1     -34.360  14.296  -3.810  1.00 20.00     0.000 C 
HETATM    6  C6  UNL     1     -34.310  15.805  -3.484  1.00 20.00     0.086 C 
HETATM    7  C7  UNL     1     -33.020  13.627  -3.484  1.00 20.00     0.011 C 
HETATM    8 CL10 UNL     1     -34.515  16.074  -1.725  1.00 20.00    -0.125 Cl
ENDROOT
BRANCH   4   9
HETATM    9  C9  UNL     1     -34.722  14.870  -7.659  1.00 20.00     0.000 C 
HETATM   10  C8  UNL     1     -36.191  14.809  -7.918  1.00 20.00     0.005 C 
ENDBRANCH   4   9
TORSDOF 1
ENDMDL
MODEL 6
REMARK VINA RESULT:      -4.0     11.607     12.888
REMARK  1 active torsions:
REMARK  status: ('A' for Active; 'I' for Inactive)
REMARK    1  A    between atoms: C4_4  and  C9_9 
ROOT
HETATM    1  C1  UNL     1     -33.835   5.851   2.596  1.00 20.00     0.006 C 
HETATM    2  C2  UNL     1     -34.369   4.859   3.635  1.00 20.00     0.021 C 
HETATM    3  C3  UNL     1     -32.405   6.683   4.507  1.00 20.00     0.010 C 
HETATM    4  C4  UNL     1     -33.130   7.071   3.214  1.00 20.00    -0.014 C 
HETATM    5  C5  UNL     1     -33.370   6.142   5.584  1.00 20.00     0.000 C 
HETATM    6  C6  UNL     1     -34.654   5.541   4.970  1.00 20.00     0.086 C 
HETATM    7  C7  UNL     1     -33.717   7.238   6.599  1.00 20.00     0.011 C 
HETATM    8 CL10 UNL     1     -35.401   4.369   6.099  1.00 20.00    -0.125 Cl
ENDROOT
BRANCH   4   9
HETATM    9  C9  UNL     1     -32.171   7.705   2.210  1.00 20.00     0.000 C 
HETATM   10  C8  UNL     1     -32.553   9.114   1.898  1.00 20.00     0.005 C 
ENDBRANCH   4   9
TORSDOF 1
ENDMDL
MODEL 7
REMARK VINA RESULT:      -4.0      2.566      4.457
REMARK  1 active torsions:
REMARK  status: ('A' for Active; 'I' for Inactive)
REMARK    1  A    between atoms: C4_4  and  C9_9 
ROOT
HETATM    1  C1  UNL     1     -34.098  14.181  -4.380  1.00 20.00     0.006 C 
HETATM    2  C2  UNL     1     -33.752  14.991  -3.126  1.00 20.00     0.021 C 
HETATM    3  C3  UNL     1     -35.499  16.198  -4.979  1.00 20.00     0.010 C 
HETATM    4  C4  UNL     1     -35.362  14.677  -5.104  1.00 20.00    -0.014 C 
HETATM    5  C5  UNL     1     -35.625  16.660  -3.511  1.00 20.00     0.000 C 
HETATM    6  C6  UNL     1     -34.987  15.655  -2.526  1.00 20.00     0.086 C 
HETATM    7  C7  UNL     1     -37.093  16.915  -3.149  1.00 20.00     0.011 C 
HETATM    8 CL10 UNL     1     -34.549  16.472  -0.993  1.00 20.00    -0.125 Cl
ENDROOT
BRANCH   4   9
HETATM    9  C9  UNL     1     -35.352  14.240  -6.567  1.00 20.00     0.000 C 
HETATM   10  C8  UNL     1     -34.416  15.068  -7.383  1.00 20.00     0.005 C 
ENDBRANCH   4   9
TORSDOF 1
ENDMDL
MODEL 8
REMARK VINA RESULT:      -4.0      1.570      1.704
REMARK  1 active torsions:
REMARK  status: ('A' for Active; 'I' for Inactive)
REMARK    1  A    between atoms: C4_4  and  C9_9 
ROOT
HETATM    1  C1  UNL     1     -33.558  16.230  -4.597  1.00 20.00     0.006 C 
HETATM    2  C2  UNL     1     -34.109  15.448  -5.794  1.00 20.00     0.021 C 
HETATM    3  C3  UNL     1     -35.402  15.067  -3.319  1.00 20.00     0.010 C 
HETATM    4  C4  UNL     1     -34.544  16.332  -3.421  1.00 20.00    -0.014 C 
HETATM    5  C5  UNL     1     -36.253  14.829  -4.585  1.00 20.00     0.000 C 
HETATM    6  C6  UNL     1     -35.633  15.487  -5.838  1.00 20.00     0.086 C 
HETATM    7  C7  UNL     1     -37.690  15.319  -4.371  1.00 20.00     0.011 C 
HETATM    8 CL10 UNL     1     -36.215  14.677  -7.325  1.00 20.00    -0.125 Cl
ENDROOT
BRANCH   4   9
HETATM    9  C9  UNL     1     -33.800  16.604  -2.115  1.00 20.00     0.000 C 
HETATM   10  C8  UNL     1     -34.711  16.522  -0.935  1.00 20.00     0.005 C 
ENDBRANCH   4   9
TORSDOF 1
ENDMDL
MODEL 9
REMARK VINA RESULT:      -3.9      2.304      4.036
REMARK  1 active torsions:
REMARK  status: ('A' for Active; 'I' for Inactive)
REMARK    1  A    between atoms: C4_4  and  C9_9 
ROOT
HETATM    1  C1  UNL     1     -33.754  16.279  -5.747  1.00 20.00     0.006 C 
HETATM    2  C2  UNL     1     -33.713  17.650  -5.065  1.00 20.00     0.021 C 
HETATM    3  C3  UNL     1     -35.465  15.735  -3.969  1.00 20.00     0.010 C 
HETATM    4  C4  UNL     1     -34.361  15.172  -4.868  1.00 20.00    -0.014 C 
HETATM    5  C5  UNL     1     -34.943  16.823  -3.005  1.00 20.00     0.000 C 
HETATM    6  C6  UNL     1     -33.676  17.522  -3.545  1.00 20.00     0.086 C 
HETATM    7  C7  UNL     1     -34.685  16.233  -1.613  1.00 20.00     0.011 C 
HETATM    8 CL10 UNL     1     -33.491  19.143  -2.806  1.00 20.00    -0.125 Cl
ENDROOT
BRANCH   4   9
HETATM    9  C9  UNL     1     -34.880  14.022  -5.730  1.00 20.00     0.000 C 
HETATM   10  C8  UNL     1     -35.153  14.464  -7.130  1.00 20.00     0.005 C 
ENDBRANCH   4   9
TORSDOF 1
ENDMDL
