MODEL 1
REMARK VINA RESULT:      -5.3      0.000      0.000
REMARK  1 active torsions:
REMARK  status: ('A' for Active; 'I' for Inactive)
REMARK    1  A    between atoms: C6_6  and  C8_8 
ROOT
HETATM    1  C1  UNL     1     -31.906   8.165   1.971  1.00 20.00     0.012 C 
HETATM    2  C2  UNL     1     -32.227   7.322   2.762  1.00 20.00    -0.117 C 
HETATM    3  C8  UNL     1     -32.615   6.288   3.729  1.00 20.00     0.099 C 
ENDROOT
BRANCH   3   4
HETATM    4  C6  UNL     1     -34.073   6.452   4.162  1.00 20.00     0.015 C 
HETATM    5  C4  UNL     1     -34.216   6.342   5.685  1.00 20.00     0.007 C 
HETATM    6  C3  UNL     1     -34.562   4.880   5.981  1.00 20.00     0.002 C 
HETATM    7  C5  UNL     1     -34.739   4.192   4.629  1.00 20.00     0.020 C 
HETATM    8  C7  UNL     1     -34.958   5.321   3.627  1.00 20.00     0.087 C 
HETATM    9 CL9  UNL     1     -36.679   5.816   3.628  1.00 20.00    -0.125 Cl
ENDBRANCH   3   4
TORSDOF 1
ENDMDL
MODEL 2
REMARK VINA RESULT:      -4.6      1.978      3.806
REMARK  1 active torsions:
REMARK  status: ('A' for Active; 'I' for Inactive)
REMARK    1  A    between atoms: C6_6  and  C8_8 
ROOT
HETATM    1  C1  UNL     1     -35.220   4.220   6.008  1.00 20.00     0.012 C 
HETATM    2  C2  UNL     1     -34.512   5.182   5.889  1.00 20.00    -0.117 C 
HETATM    3  C8  UNL     1     -33.645   6.358   5.749  1.00 20.00     0.099 C 
ENDROOT
BRANCH   3   4
HETATM    4  C6  UNL     1     -33.745   6.957   4.344  1.00 20.00     0.015 C 
HETATM    5  C4  UNL     1     -34.628   6.093   3.436  1.00 20.00     0.007 C 
HETATM    6  C3  UNL     1     -33.684   5.150   2.685  1.00 20.00     0.002 C 
HETATM    7  C5  UNL     1     -32.264   5.559   3.071  1.00 20.00     0.020 C 
HETATM    8  C7  UNL     1     -32.389   6.972   3.632  1.00 20.00     0.087 C 
HETATM    9 CL9  UNL     1     -32.395   8.164   2.295  1.00 20.00    -0.125 Cl
ENDBRANCH   3   4
TORSDOF 1
ENDMDL
MODEL 3
REMARK VINA RESULT:      -4.5     11.635     12.393
REMARK  1 active torsions:
REMARK  status: ('A' for Active; 'I' for Inactive)
REMARK    1  A    between atoms: C6_6  and  C8_8 
ROOT
HETATM    1  C1  UNL     1     -33.275  18.134  -0.669  1.00 20.00     0.012 C 
HETATM    2  C2  UNL     1     -33.942  17.226  -1.082  1.00 20.00    -0.117 C 
HETATM    3  C8  UNL     1     -34.760  16.113  -1.580  1.00 20.00     0.099 C 
ENDROOT
BRANCH   3   4
HETATM    4  C6  UNL     1     -34.790  16.089  -3.110  1.00 20.00     0.015 C 
HETATM    5  C4  UNL     1     -35.635  14.920  -3.629  1.00 20.00     0.007 C 
HETATM    6  C3  UNL     1     -34.664  13.765  -3.888  1.00 20.00     0.002 C 
HETATM    7  C5  UNL     1     -33.260  14.313  -3.636  1.00 20.00     0.020 C 
HETATM    8  C7  UNL     1     -33.401  15.830  -3.704  1.00 20.00     0.087 C 
HETATM    9 CL9  UNL     1     -33.336  16.377  -5.409  1.00 20.00    -0.125 Cl
ENDBRANCH   3   4
TORSDOF 1
ENDMDL
MODEL 4
REMARK VINA RESULT:      -4.4     11.208     12.201
REMARK  1 active torsions:
REMARK  status: ('A' for Active; 'I' for Inactive)
REMARK    1  A    between atoms: C6_6  and  C8_8 
ROOT
HETATM    1  C1  UNL     1     -34.772  17.123  -0.129  1.00 20.00     0.012 C 
HETATM    2  C2  UNL     1     -34.452  16.638  -1.179  1.00 20.00    -0.117 C 
HETATM    3  C8  UNL     1     -34.055  16.049  -2.464  1.00 20.00     0.099 C 
ENDROOT
BRANCH   3   4
HETATM    4  C6  UNL     1     -35.067  15.000  -2.929  1.00 20.00     0.015 C 
HETATM    5  C4  UNL     1     -34.371  13.845  -3.660  1.00 20.00     0.007 C 
HETATM    6  C3  UNL     1     -34.427  14.184  -5.152  1.00 20.00     0.002 C 
HETATM    7  C5  UNL     1     -35.257  15.460  -5.279  1.00 20.00     0.020 C 
HETATM    8  C7  UNL     1     -36.036  15.565  -3.972  1.00 20.00     0.087 C 
HETATM    9 CL9  UNL     1     -37.518  14.562  -4.060  1.00 20.00    -0.125 Cl
ENDBRANCH   3   4
TORSDOF 1
ENDMDL
MODEL 5
REMARK VINA RESULT:      -4.2      8.547     10.060
REMARK  1 active torsions:
REMARK  status: ('A' for Active; 'I' for Inactive)
REMARK    1  A    between atoms: C6_6  and  C8_8 
ROOT
HETATM    1  C1  UNL     1     -42.101   2.020  -3.718  1.00 20.00     0.012 C 
HETATM    2  C2  UNL     1     -41.595   2.810  -2.970  1.00 20.00    -0.117 C 
HETATM    3  C8  UNL     1     -40.970   3.774  -2.056  1.00 20.00     0.099 C 
ENDROOT
BRANCH   3   4
HETATM    4  C6  UNL     1     -42.020   4.657  -1.378  1.00 20.00     0.015 C 
HETATM    5  C4  UNL     1     -42.101   6.034  -2.048  1.00 20.00     0.007 C 
HETATM    6  C3  UNL     1     -41.182   6.959  -1.247  1.00 20.00     0.002 C 
HETATM    7  C5  UNL     1     -40.677   6.146  -0.056  1.00 20.00     0.020 C 
HETATM    8  C7  UNL     1     -41.646   4.976   0.073  1.00 20.00     0.087 C 
HETATM    9 CL9  UNL     1     -43.095   5.478   0.998  1.00 20.00    -0.125 Cl
ENDBRANCH   3   4
TORSDOF 1
ENDMDL
MODEL 6
REMARK VINA RESULT:      -4.2     11.856     12.401
REMARK  1 active torsions:
REMARK  status: ('A' for Active; 'I' for Inactive)
REMARK    1  A    between atoms: C6_6  and  C8_8 
ROOT
HETATM    1  C1  UNL     1     -34.802  16.892  -0.892  1.00 20.00     0.012 C 
HETATM    2  C2  UNL     1     -34.261  16.321  -1.799  1.00 20.00    -0.117 C 
HETATM    3  C8  UNL     1     -33.595  15.620  -2.903  1.00 20.00     0.099 C 
ENDROOT
BRANCH   3   4
HETATM    4  C6  UNL     1     -34.413  15.714  -4.193  1.00 20.00     0.015 C 
HETATM    5  C4  UNL     1     -35.918  15.707  -3.897  1.00 20.00     0.007 C 
HETATM    6  C3  UNL     1     -36.375  14.251  -4.020  1.00 20.00     0.002 C 
HETATM    7  C5  UNL     1     -35.165  13.454  -4.504  1.00 20.00     0.020 C 
HETATM    8  C7  UNL     1     -34.209  14.489  -5.089  1.00 20.00     0.087 C 
HETATM    9 CL9  UNL     1     -34.670  14.863  -6.779  1.00 20.00    -0.125 Cl
ENDBRANCH   3   4
TORSDOF 1
ENDMDL
MODEL 7
REMARK VINA RESULT:      -4.2     11.661     12.829
REMARK  1 active torsions:
REMARK  status: ('A' for Active; 'I' for Inactive)
REMARK    1  A    between atoms: C6_6  and  C8_8 
ROOT
HETATM    1  C1  UNL     1     -34.622  16.896  -0.352  1.00 20.00     0.012 C 
HETATM    2  C2  UNL     1     -34.416  17.097  -1.517  1.00 20.00    -0.117 C 
HETATM    3  C8  UNL     1     -34.167  17.348  -2.942  1.00 20.00     0.099 C 
ENDROOT
BRANCH   3   4
HETATM    4  C6  UNL     1     -33.434  16.173  -3.592  1.00 20.00     0.015 C 
HETATM    5  C4  UNL     1     -33.216  16.417  -5.090  1.00 20.00     0.007 C 
HETATM    6  C3  UNL     1     -34.389  15.747  -5.811  1.00 20.00     0.002 C 
HETATM    7  C5  UNL     1     -35.202  15.022  -4.740  1.00 20.00     0.020 C 
HETATM    8  C7  UNL     1     -34.263  14.886  -3.545  1.00 20.00     0.087 C 
HETATM    9 CL9  UNL     1     -33.210  13.452  -3.753  1.00 20.00    -0.125 Cl
ENDBRANCH   3   4
TORSDOF 1
ENDMDL
MODEL 8
REMARK VINA RESULT:      -4.2     11.086     12.896
REMARK  1 active torsions:
REMARK  status: ('A' for Active; 'I' for Inactive)
REMARK    1  A    between atoms: C6_6  and  C8_8 
ROOT
HETATM    1  C1  UNL     1     -33.877  18.900  -5.653  1.00 20.00     0.012 C 
HETATM    2  C2  UNL     1     -33.625  17.736  -5.501  1.00 20.00    -0.117 C 
HETATM    3  C8  UNL     1     -33.316  16.312  -5.321  1.00 20.00     0.099 C 
ENDROOT
BRANCH   3   4
HETATM    4  C6  UNL     1     -33.355  15.919  -3.843  1.00 20.00     0.015 C 
HETATM    5  C4  UNL     1     -33.004  14.437  -3.656  1.00 20.00     0.007 C 
HETATM    6  C3  UNL     1     -34.334  13.679  -3.626  1.00 20.00     0.002 C 
HETATM    7  C5  UNL     1     -35.438  14.734  -3.671  1.00 20.00     0.020 C 
HETATM    8  C7  UNL     1     -34.765  16.039  -3.257  1.00 20.00     0.087 C 
HETATM    9 CL9  UNL     1     -34.694  16.153  -1.471  1.00 20.00    -0.125 Cl
ENDBRANCH   3   4
TORSDOF 1
ENDMDL
MODEL 9
REMARK VINA RESULT:      -4.0      8.894     10.317
REMARK  1 active torsions:
REMARK  status: ('A' for Active; 'I' for Inactive)
REMARK    1  A    between atoms: C6_6  and  C8_8 
ROOT
HETATM    1  C1  UNL     1     -41.559   2.049  -3.446  1.00 20.00     0.012 C 
HETATM    2  C2  UNL     1     -42.124   3.056  -3.121  1.00 20.00    -0.117 C 
HETATM    3  C8  UNL     1     -42.821   4.287  -2.726  1.00 20.00     0.099 C 
ENDROOT
BRANCH   3   4
HETATM    4  C6  UNL     1     -41.862   5.280  -2.066  1.00 20.00     0.015 C 
HETATM    5  C4  UNL     1     -40.951   4.579  -1.050  1.00 20.00     0.007 C 
HETATM    6  C3  UNL     1     -41.631   4.727   0.313  1.00 20.00     0.002 C 
HETATM    7  C5  UNL     1     -42.857   5.613   0.095  1.00 20.00     0.020 C 
HETATM    8  C7  UNL     1     -42.608   6.325  -1.231  1.00 20.00     0.087 C 
HETATM    9 CL9  UNL     1     -41.581   7.769  -0.968  1.00 20.00    -0.125 Cl
ENDBRANCH   3   4
TORSDOF 1
ENDMDL
