MODEL 1
REMARK VINA RESULT:      -4.6      0.000      0.000
REMARK  4 active torsions:
REMARK  status: ('A' for Active; 'I' for Inactive)
REMARK    1  A    between atoms: C2_2  and  C6_6 
REMARK    2  A    between atoms: C6_6  and  C7_7 
REMARK    3  A    between atoms: C7_7  and  C8_8 
REMARK    4  A    between atoms: C8_8  and  O9_9 
ROOT
HETATM    1  C4  UNL     1     -35.493   5.719   3.189  1.00 20.00     0.012 C 
HETATM    2  C7  UNL     1     -34.296   6.234   4.001  1.00 20.00     0.014 C 
ENDROOT
BRANCH   2   3
HETATM    3  C6  UNL     1     -33.020   6.096   3.133  1.00 20.00     0.039 C 
BRANCH   3   4
HETATM    4  C2  UNL     1     -32.136   7.322   3.098  1.00 20.00    -0.093 C 
HETATM    5  C1  UNL     1     -31.337   7.640   4.129  1.00 20.00     0.014 C 
HETATM    6  C3  UNL     1     -32.159   8.148   1.845  1.00 20.00     0.042 C 
ENDBRANCH   3   4
ENDBRANCH   2   3
BRANCH   2   7
HETATM    7  C8  UNL     1     -34.159   5.516   5.366  1.00 20.00     0.118 C 
HETATM    8  C5  UNL     1     -33.997   6.476   6.540  1.00 20.00     0.040 C 
BRANCH   7   9
HETATM    9  O9  UNL     1     -35.299   4.692   5.598  1.00 20.00    -0.396 OA
HETATM   10  H25 UNL     1     -35.439   4.678   6.556  1.00 20.00     0.210 HD
ENDBRANCH   7   9
ENDBRANCH   2   7
TORSDOF 4
ENDMDL
MODEL 2
REMARK VINA RESULT:      -4.4      1.200      1.945
REMARK  4 active torsions:
REMARK  status: ('A' for Active; 'I' for Inactive)
REMARK    1  A    between atoms: C2_2  and  C6_6 
REMARK    2  A    between atoms: C6_6  and  C7_7 
REMARK    3  A    between atoms: C7_7  and  C8_8 
REMARK    4  A    between atoms: C8_8  and  O9_9 
ROOT
HETATM    1  C4  UNL     1     -34.068   6.653   6.402  1.00 20.00     0.012 C 
HETATM    2  C7  UNL     1     -33.793   5.898   5.093  1.00 20.00     0.014 C 
ENDROOT
BRANCH   2   3
HETATM    3  C6  UNL     1     -33.810   6.920   3.928  1.00 20.00     0.039 C 
BRANCH   3   4
HETATM    4  C2  UNL     1     -32.594   6.884   3.030  1.00 20.00    -0.093 C 
HETATM    5  C1  UNL     1     -31.848   5.775   2.903  1.00 20.00     0.014 C 
HETATM    6  C3  UNL     1     -32.277   8.130   2.255  1.00 20.00     0.042 C 
ENDBRANCH   3   4
ENDBRANCH   2   3
BRANCH   2   7
HETATM    7  C8  UNL     1     -34.786   4.733   4.866  1.00 20.00     0.118 C 
HETATM    8  C5  UNL     1     -35.267   4.088   6.161  1.00 20.00     0.040 C 
BRANCH   7   9
HETATM    9  O9  UNL     1     -35.918   5.196   4.134  1.00 20.00    -0.396 OA
HETATM   10  H25 UNL     1     -36.207   6.016   4.563  1.00 20.00     0.210 HD
ENDBRANCH   7   9
ENDBRANCH   2   7
TORSDOF 4
ENDMDL
MODEL 3
REMARK VINA RESULT:      -4.3      1.935      3.859
REMARK  4 active torsions:
REMARK  status: ('A' for Active; 'I' for Inactive)
REMARK    1  A    between atoms: C2_2  and  C6_6 
REMARK    2  A    between atoms: C6_6  and  C7_7 
REMARK    3  A    between atoms: C7_7  and  C8_8 
REMARK    4  A    between atoms: C8_8  and  O9_9 
ROOT
HETATM    1  C4  UNL     1     -33.635   5.275   2.221  1.00 20.00     0.012 C 
HETATM    2  C7  UNL     1     -32.990   5.976   3.425  1.00 20.00     0.014 C 
ENDROOT
BRANCH   2   3
HETATM    3  C6  UNL     1     -34.113   6.634   4.266  1.00 20.00     0.039 C 
BRANCH   3   4
HETATM    4  C2  UNL     1     -34.201   6.156   5.698  1.00 20.00    -0.093 C 
HETATM    5  C1  UNL     1     -33.749   6.904   6.717  1.00 20.00     0.014 C 
HETATM    6  C3  UNL     1     -34.853   4.825   5.937  1.00 20.00     0.042 C 
ENDBRANCH   3   4
ENDBRANCH   2   3
BRANCH   2   7
HETATM    7  C8  UNL     1     -31.901   6.992   3.002  1.00 20.00     0.118 C 
HETATM    8  C5  UNL     1     -32.426   8.092   2.086  1.00 20.00     0.040 C 
BRANCH   7   9
HETATM    9  O9  UNL     1     -31.322   7.592   4.158  1.00 20.00    -0.396 OA
HETATM   10  H25 UNL     1     -31.776   7.209   4.924  1.00 20.00     0.210 HD
ENDBRANCH   7   9
ENDBRANCH   2   7
TORSDOF 4
ENDMDL
MODEL 4
REMARK VINA RESULT:      -4.2      1.105      1.243
REMARK  4 active torsions:
REMARK  status: ('A' for Active; 'I' for Inactive)
REMARK    1  A    between atoms: C2_2  and  C6_6 
REMARK    2  A    between atoms: C6_6  and  C7_7 
REMARK    3  A    between atoms: C7_7  and  C8_8 
REMARK    4  A    between atoms: C8_8  and  O9_9 
ROOT
HETATM    1  C4  UNL     1     -35.030   5.416   3.211  1.00 20.00     0.012 C 
HETATM    2  C7  UNL     1     -34.180   6.291   4.143  1.00 20.00     0.014 C 
ENDROOT
BRANCH   2   3
HETATM    3  C6  UNL     1     -32.688   6.094   3.773  1.00 20.00     0.039 C 
BRANCH   3   4
HETATM    4  C2  UNL     1     -31.950   7.361   3.402  1.00 20.00    -0.093 C 
HETATM    5  C1  UNL     1     -31.046   7.913   4.227  1.00 20.00     0.014 C 
HETATM    6  C3  UNL     1     -32.242   7.954   2.054  1.00 20.00     0.042 C 
ENDBRANCH   3   4
ENDBRANCH   2   3
BRANCH   2   7
HETATM    7  C8  UNL     1     -34.457   6.000   5.638  1.00 20.00     0.118 C 
HETATM    8  C5  UNL     1     -34.450   4.513   5.975  1.00 20.00     0.040 C 
BRANCH   7   9
HETATM    9  O9  UNL     1     -33.487   6.660   6.449  1.00 20.00    -0.396 OA
HETATM   10  H25 UNL     1     -33.397   6.132   7.256  1.00 20.00     0.210 HD
ENDBRANCH   7   9
ENDBRANCH   2   7
TORSDOF 4
ENDMDL
MODEL 5
REMARK VINA RESULT:      -4.2      1.960      3.889
REMARK  4 active torsions:
REMARK  status: ('A' for Active; 'I' for Inactive)
REMARK    1  A    between atoms: C2_2  and  C6_6 
REMARK    2  A    between atoms: C6_6  and  C7_7 
REMARK    3  A    between atoms: C7_7  and  C8_8 
REMARK    4  A    between atoms: C8_8  and  O9_9 
ROOT
HETATM    1  C4  UNL     1     -33.612   5.268   2.261  1.00 20.00     0.012 C 
HETATM    2  C7  UNL     1     -32.968   5.995   3.451  1.00 20.00     0.014 C 
ENDROOT
BRANCH   2   3
HETATM    3  C6  UNL     1     -34.094   6.658   4.284  1.00 20.00     0.039 C 
BRANCH   3   4
HETATM    4  C2  UNL     1     -34.192   6.183   5.717  1.00 20.00    -0.093 C 
HETATM    5  C1  UNL     1     -34.727   4.990   6.025  1.00 20.00     0.014 C 
HETATM    6  C3  UNL     1     -33.631   7.084   6.778  1.00 20.00     0.042 C 
ENDBRANCH   3   4
ENDBRANCH   2   3
BRANCH   2   7
HETATM    7  C8  UNL     1     -31.890   7.012   3.006  1.00 20.00     0.118 C 
HETATM    8  C5  UNL     1     -32.436   8.116   2.106  1.00 20.00     0.040 C 
BRANCH   7   9
HETATM    9  O9  UNL     1     -31.285   7.609   4.151  1.00 20.00    -0.396 OA
HETATM   10  H25 UNL     1     -30.680   6.948   4.519  1.00 20.00     0.210 HD
ENDBRANCH   7   9
ENDBRANCH   2   7
TORSDOF 4
ENDMDL
MODEL 6
REMARK VINA RESULT:      -4.1     10.932     11.950
REMARK  4 active torsions:
REMARK  status: ('A' for Active; 'I' for Inactive)
REMARK    1  A    between atoms: C2_2  and  C6_6 
REMARK    2  A    between atoms: C6_6  and  C7_7 
REMARK    3  A    between atoms: C7_7  and  C8_8 
REMARK    4  A    between atoms: C8_8  and  O9_9 
ROOT
HETATM    1  C4  UNL     1     -32.971  14.013  -3.550  1.00 20.00     0.012 C 
HETATM    2  C7  UNL     1     -34.265  14.793  -3.825  1.00 20.00     0.014 C 
ENDROOT
BRANCH   2   3
HETATM    3  C6  UNL     1     -34.848  15.265  -2.470  1.00 20.00     0.039 C 
BRANCH   3   4
HETATM    4  C2  UNL     1     -34.357  16.616  -1.999  1.00 20.00    -0.093 C 
HETATM    5  C1  UNL     1     -33.839  17.511  -2.856  1.00 20.00     0.014 C 
HETATM    6  C3  UNL     1     -34.508  16.929  -0.539  1.00 20.00     0.042 C 
ENDBRANCH   3   4
ENDBRANCH   2   3
BRANCH   2   7
HETATM    7  C8  UNL     1     -35.284  13.969  -4.648  1.00 20.00     0.118 C 
HETATM    8  C5  UNL     1     -35.083  14.090  -6.155  1.00 20.00     0.040 C 
BRANCH   7   9
HETATM    9  O9  UNL     1     -35.205  12.593  -4.282  1.00 20.00    -0.396 OA
HETATM   10  H25 UNL     1     -35.956  12.420  -3.694  1.00 20.00     0.210 HD
ENDBRANCH   7   9
ENDBRANCH   2   7
TORSDOF 4
ENDMDL
MODEL 7
REMARK VINA RESULT:      -4.0      2.047      3.902
REMARK  4 active torsions:
REMARK  status: ('A' for Active; 'I' for Inactive)
REMARK    1  A    between atoms: C2_2  and  C6_6 
REMARK    2  A    between atoms: C6_6  and  C7_7 
REMARK    3  A    between atoms: C7_7  and  C8_8 
REMARK    4  A    between atoms: C8_8  and  O9_9 
ROOT
HETATM    1  C4  UNL     1     -33.454   5.278   2.084  1.00 20.00     0.012 C 
HETATM    2  C7  UNL     1     -33.177   6.041   3.387  1.00 20.00     0.014 C 
ENDROOT
BRANCH   2   3
HETATM    3  C6  UNL     1     -34.504   6.149   4.181  1.00 20.00     0.039 C 
BRANCH   3   4
HETATM    4  C2  UNL     1     -34.421   5.708   5.626  1.00 20.00    -0.093 C 
HETATM    5  C1  UNL     1     -33.991   6.538   6.589  1.00 20.00     0.014 C 
HETATM    6  C3  UNL     1     -34.877   4.313   5.943  1.00 20.00     0.042 C 
ENDBRANCH   3   4
ENDBRANCH   2   3
BRANCH   2   7
HETATM    7  C8  UNL     1     -32.531   7.425   3.134  1.00 20.00     0.118 C 
HETATM    8  C5  UNL     1     -31.312   7.692   4.011  1.00 20.00     0.040 C 
BRANCH   7   9
HETATM    9  O9  UNL     1     -32.147   7.537   1.765  1.00 20.00    -0.396 OA
HETATM   10  H25 UNL     1     -31.267   7.138   1.692  1.00 20.00     0.210 HD
ENDBRANCH   7   9
ENDBRANCH   2   7
TORSDOF 4
ENDMDL
MODEL 8
REMARK VINA RESULT:      -4.0     10.842     11.848
REMARK  4 active torsions:
REMARK  status: ('A' for Active; 'I' for Inactive)
REMARK    1  A    between atoms: C2_2  and  C6_6 
REMARK    2  A    between atoms: C6_6  and  C7_7 
REMARK    3  A    between atoms: C7_7  and  C8_8 
REMARK    4  A    between atoms: C8_8  and  O9_9 
ROOT
HETATM    1  C4  UNL     1     -37.042  14.839  -3.745  1.00 20.00     0.012 C 
HETATM    2  C7  UNL     1     -35.548  14.879  -3.390  1.00 20.00     0.014 C 
ENDROOT
BRANCH   2   3
HETATM    3  C6  UNL     1     -35.037  16.328  -3.593  1.00 20.00     0.039 C 
BRANCH   3   4
HETATM    4  C2  UNL     1     -34.483  16.989  -2.351  1.00 20.00    -0.093 C 
HETATM    5  C1  UNL     1     -34.637  16.441  -1.136  1.00 20.00     0.014 C 
HETATM    6  C3  UNL     1     -33.717  18.267  -2.539  1.00 20.00     0.042 C 
ENDBRANCH   3   4
ENDBRANCH   2   3
BRANCH   2   7
HETATM    7  C8  UNL     1     -34.724  13.847  -4.197  1.00 20.00     0.118 C 
HETATM    8  C5  UNL     1     -33.283  13.718  -3.718  1.00 20.00     0.040 C 
BRANCH   7   9
HETATM    9  O9  UNL     1     -35.349  12.567  -4.128  1.00 20.00    -0.396 OA
HETATM   10  H25 UNL     1     -35.796  12.525  -3.270  1.00 20.00     0.210 HD
ENDBRANCH   7   9
ENDBRANCH   2   7
TORSDOF 4
ENDMDL
MODEL 9
REMARK VINA RESULT:      -4.0     10.681     12.188
REMARK  4 active torsions:
REMARK  status: ('A' for Active; 'I' for Inactive)
REMARK    1  A    between atoms: C2_2  and  C6_6 
REMARK    2  A    between atoms: C6_6  and  C7_7 
REMARK    3  A    between atoms: C7_7  and  C8_8 
REMARK    4  A    between atoms: C8_8  and  O9_9 
ROOT
HETATM    1  C4  UNL     1     -34.465  15.129  -6.559  1.00 20.00     0.012 C 
HETATM    2  C7  UNL     1     -34.870  14.766  -5.123  1.00 20.00     0.014 C 
ENDROOT
BRANCH   2   3
HETATM    3  C6  UNL     1     -34.395  15.901  -4.180  1.00 20.00     0.039 C 
BRANCH   3   4
HETATM    4  C2  UNL     1     -35.327  16.207  -3.030  1.00 20.00    -0.093 C 
HETATM    5  C1  UNL     1     -36.644  16.382  -3.221  1.00 20.00     0.014 C 
HETATM    6  C3  UNL     1     -34.723  16.268  -1.657  1.00 20.00     0.042 C 
ENDBRANCH   3   4
ENDBRANCH   2   3
BRANCH   2   7
HETATM    7  C8  UNL     1     -34.331  13.380  -4.692  1.00 20.00     0.118 C 
HETATM    8  C5  UNL     1     -33.186  13.463  -3.689  1.00 20.00     0.040 C 
BRANCH   7   9
HETATM    9  O9  UNL     1     -35.385  12.605  -4.124  1.00 20.00    -0.396 OA
HETATM   10  H25 UNL     1     -34.972  11.821  -3.735  1.00 20.00     0.210 HD
ENDBRANCH   7   9
ENDBRANCH   2   7
TORSDOF 4
ENDMDL
