MODEL 1
REMARK VINA RESULT:      -5.0      0.000      0.000
REMARK  2 active torsions:
REMARK  status: ('A' for Active; 'I' for Inactive)
REMARK    1  A    between atoms: C2_2  and  C8_8 
REMARK    2  A    between atoms: C6_6  and  C8_8 
ROOT
HETATM    1  C3  UNL     1     -35.702   5.128   4.168  1.00 20.00     0.002 C 
HETATM    2  C4  UNL     1     -34.721   6.010   3.390  1.00 20.00     0.006 C 
HETATM    3  C5  UNL     1     -34.895   4.479   5.295  1.00 20.00     0.020 C 
HETATM    4  C6  UNL     1     -33.348   5.746   4.015  1.00 20.00     0.007 C 
HETATM    5  C7  UNL     1     -33.667   5.371   5.467  1.00 20.00     0.086 C 
HETATM    6 CL9  UNL     1     -34.072   6.779   6.490  1.00 20.00    -0.125 Cl
ENDROOT
BRANCH   4   7
HETATM    7  C8  UNL     1     -32.362   6.888   3.816  1.00 20.00     0.032 C 
BRANCH   7   8
HETATM    8  C2  UNL     1     -32.236   7.256   2.369  1.00 20.00    -0.036 C 
HETATM    9  C1  UNL     1     -32.145   8.513   1.922  1.00 20.00     0.007 C 
ENDBRANCH   7   8
ENDBRANCH   4   7
TORSDOF 2
ENDMDL
MODEL 2
REMARK VINA RESULT:      -4.3     11.426     12.418
REMARK  2 active torsions:
REMARK  status: ('A' for Active; 'I' for Inactive)
REMARK    1  A    between atoms: C2_2  and  C8_8 
REMARK    2  A    between atoms: C6_6  and  C8_8 
ROOT
HETATM    1  C3  UNL     1     -34.477  13.305  -4.908  1.00 20.00     0.002 C 
HETATM    2  C4  UNL     1     -33.990  13.826  -3.552  1.00 20.00     0.006 C 
HETATM    3  C5  UNL     1     -35.334  14.419  -5.513  1.00 20.00     0.020 C 
HETATM    4  C6  UNL     1     -34.685  15.177  -3.359  1.00 20.00     0.007 C 
HETATM    5  C7  UNL     1     -34.901  15.691  -4.788  1.00 20.00     0.086 C 
HETATM    6 CL9  UNL     1     -33.417  16.346  -5.536  1.00 20.00    -0.125 Cl
ENDROOT
BRANCH   4   7
HETATM    7  C8  UNL     1     -33.943  16.110  -2.414  1.00 20.00     0.032 C 
BRANCH   7   8
HETATM    8  C2  UNL     1     -34.764  16.426  -1.200  1.00 20.00    -0.036 C 
HETATM    9  C1  UNL     1     -34.397  17.299  -0.256  1.00 20.00     0.007 C 
ENDBRANCH   7   8
ENDBRANCH   4   7
TORSDOF 2
ENDMDL
MODEL 3
REMARK VINA RESULT:      -4.1      1.601      2.163
REMARK  2 active torsions:
REMARK  status: ('A' for Active; 'I' for Inactive)
REMARK    1  A    between atoms: C2_2  and  C8_8 
REMARK    2  A    between atoms: C6_6  and  C8_8 
ROOT
HETATM    1  C3  UNL     1     -34.264   6.119   6.787  1.00 20.00     0.002 C 
HETATM    2  C4  UNL     1     -33.611   6.527   5.463  1.00 20.00     0.006 C 
HETATM    3  C5  UNL     1     -35.397   5.155   6.427  1.00 20.00     0.020 C 
HETATM    4  C6  UNL     1     -34.468   5.885   4.368  1.00 20.00     0.007 C 
HETATM    5  C7  UNL     1     -35.046   4.631   5.036  1.00 20.00     0.086 C 
HETATM    6 CL9  UNL     1     -33.870   3.292   5.166  1.00 20.00    -0.125 Cl
ENDROOT
BRANCH   4   7
HETATM    7  C8  UNL     1     -33.718   5.666   3.063  1.00 20.00     0.032 C 
BRANCH   7   8
HETATM    8  C2  UNL     1     -32.396   6.372   3.066  1.00 20.00    -0.036 C 
HETATM    9  C1  UNL     1     -32.171   7.540   2.454  1.00 20.00     0.007 C 
ENDBRANCH   7   8
ENDBRANCH   4   7
TORSDOF 2
ENDMDL
MODEL 4
REMARK VINA RESULT:      -4.1     11.705     12.256
REMARK  2 active torsions:
REMARK  status: ('A' for Active; 'I' for Inactive)
REMARK    1  A    between atoms: C2_2  and  C8_8 
REMARK    2  A    between atoms: C6_6  and  C8_8 
ROOT
HETATM    1  C3  UNL     1     -35.498  14.139  -4.261  1.00 20.00     0.002 C 
HETATM    2  C4  UNL     1     -35.495  15.095  -3.065  1.00 20.00     0.006 C 
HETATM    3  C5  UNL     1     -34.433  14.658  -5.229  1.00 20.00     0.020 C 
HETATM    4  C6  UNL     1     -34.514  16.212  -3.436  1.00 20.00     0.007 C 
HETATM    5  C7  UNL     1     -33.513  15.529  -4.376  1.00 20.00     0.086 C 
HETATM    6 CL9  UNL     1     -32.322  14.508  -3.522  1.00 20.00    -0.125 Cl
ENDROOT
BRANCH   4   7
HETATM    7  C8  UNL     1     -33.924  16.925  -2.229  1.00 20.00     0.032 C 
BRANCH   7   8
HETATM    8  C2  UNL     1     -34.627  16.534  -0.965  1.00 20.00    -0.036 C 
HETATM    9  C1  UNL     1     -34.759  17.338   0.097  1.00 20.00     0.007 C 
ENDBRANCH   7   8
ENDBRANCH   4   7
TORSDOF 2
ENDMDL
MODEL 5
REMARK VINA RESULT:      -4.1     11.710     12.470
REMARK  2 active torsions:
REMARK  status: ('A' for Active; 'I' for Inactive)
REMARK    1  A    between atoms: C2_2  and  C8_8 
REMARK    2  A    between atoms: C6_6  and  C8_8 
ROOT
HETATM    1  C3  UNL     1     -35.429  16.289  -2.418  1.00 20.00     0.002 C 
HETATM    2  C4  UNL     1     -35.714  15.115  -3.360  1.00 20.00     0.006 C 
HETATM    3  C5  UNL     1     -33.919  16.286  -2.174  1.00 20.00     0.020 C 
HETATM    4  C6  UNL     1     -34.374  14.391  -3.530  1.00 20.00     0.007 C 
HETATM    5  C7  UNL     1     -33.329  15.498  -3.341  1.00 20.00     0.086 C 
HETATM    6 CL9  UNL     1     -33.154  16.558  -4.769  1.00 20.00    -0.125 Cl
ENDROOT
BRANCH   4   7
HETATM    7  C8  UNL     1     -34.279  13.589  -4.819  1.00 20.00     0.032 C 
BRANCH   7   8
HETATM    8  C2  UNL     1     -35.308  14.030  -5.815  1.00 20.00    -0.036 C 
HETATM    9  C1  UNL     1     -35.017  14.479  -7.041  1.00 20.00     0.007 C 
ENDBRANCH   7   8
ENDBRANCH   4   7
TORSDOF 2
ENDMDL
MODEL 6
REMARK VINA RESULT:      -4.0     11.551     12.400
REMARK  2 active torsions:
REMARK  status: ('A' for Active; 'I' for Inactive)
REMARK    1  A    between atoms: C2_2  and  C8_8 
REMARK    2  A    between atoms: C6_6  and  C8_8 
ROOT
HETATM    1  C3  UNL     1     -34.552  14.332  -6.019  1.00 20.00     0.002 C 
HETATM    2  C4  UNL     1     -34.178  15.723  -5.499  1.00 20.00     0.006 C 
HETATM    3  C5  UNL     1     -34.672  13.432  -4.788  1.00 20.00     0.020 C 
HETATM    4  C6  UNL     1     -33.969  15.555  -3.991  1.00 20.00     0.007 C 
HETATM    5  C7  UNL     1     -34.891  14.387  -3.617  1.00 20.00     0.086 C 
HETATM    6 CL9  UNL     1     -36.614  14.850  -3.519  1.00 20.00    -0.125 Cl
ENDROOT
BRANCH   4   7
HETATM    7  C8  UNL     1     -34.162  16.842  -3.205  1.00 20.00     0.032 C 
BRANCH   7   8
HETATM    8  C2  UNL     1     -33.787  16.666  -1.765  1.00 20.00    -0.036 C 
HETATM    9  C1  UNL     1     -34.658  16.728  -0.752  1.00 20.00     0.007 C 
ENDBRANCH   7   8
ENDBRANCH   4   7
TORSDOF 2
ENDMDL
MODEL 7
REMARK VINA RESULT:      -4.0     11.628     13.087
REMARK  2 active torsions:
REMARK  status: ('A' for Active; 'I' for Inactive)
REMARK    1  A    between atoms: C2_2  and  C8_8 
REMARK    2  A    between atoms: C6_6  and  C8_8 
ROOT
HETATM    1  C3  UNL     1     -34.129  16.070  -6.728  1.00 20.00     0.002 C 
HETATM    2  C4  UNL     1     -33.727  16.063  -5.251  1.00 20.00     0.006 C 
HETATM    3  C5  UNL     1     -34.821  14.731  -6.991  1.00 20.00     0.020 C 
HETATM    4  C6  UNL     1     -34.085  14.666  -4.735  1.00 20.00     0.007 C 
HETATM    5  C7  UNL     1     -35.264  14.237  -5.616  1.00 20.00     0.086 C 
HETATM    6 CL9  UNL     1     -36.809  15.010  -5.158  1.00 20.00    -0.125 Cl
ENDROOT
BRANCH   4   7
HETATM    7  C8  UNL     1     -34.315  14.616  -3.232  1.00 20.00     0.032 C 
BRANCH   7   8
HETATM    8  C2  UNL     1     -34.064  15.950  -2.596  1.00 20.00    -0.036 C 
HETATM    9  C1  UNL     1     -34.647  16.360  -1.464  1.00 20.00     0.007 C 
ENDBRANCH   7   8
ENDBRANCH   4   7
TORSDOF 2
ENDMDL
MODEL 8
REMARK VINA RESULT:      -3.9     11.751     12.811
REMARK  2 active torsions:
REMARK  status: ('A' for Active; 'I' for Inactive)
REMARK    1  A    between atoms: C2_2  and  C8_8 
REMARK    2  A    between atoms: C6_6  and  C8_8 
ROOT
HETATM    1  C3  UNL     1     -35.519  16.174  -6.007  1.00 20.00     0.002 C 
HETATM    2  C4  UNL     1     -35.051  16.632  -4.622  1.00 20.00     0.006 C 
HETATM    3  C5  UNL     1     -34.668  14.954  -6.366  1.00 20.00     0.020 C 
HETATM    4  C6  UNL     1     -33.855  15.739  -4.278  1.00 20.00     0.007 C 
HETATM    5  C7  UNL     1     -34.138  14.434  -5.032  1.00 20.00     0.086 C 
HETATM    6 CL9  UNL     1     -35.371  13.412  -4.241  1.00 20.00    -0.125 Cl
ENDROOT
BRANCH   4   7
HETATM    7  C8  UNL     1     -33.605  15.611  -2.783  1.00 20.00     0.032 C 
BRANCH   7   8
HETATM    8  C2  UNL     1     -34.735  16.191  -1.988  1.00 20.00    -0.036 C 
HETATM    9  C1  UNL     1     -34.602  16.693  -0.756  1.00 20.00     0.007 C 
ENDBRANCH   7   8
ENDBRANCH   4   7
TORSDOF 2
ENDMDL
MODEL 9
REMARK VINA RESULT:      -3.9     11.454     12.715
REMARK  2 active torsions:
REMARK  status: ('A' for Active; 'I' for Inactive)
REMARK    1  A    between atoms: C2_2  and  C8_8 
REMARK    2  A    between atoms: C6_6  and  C8_8 
ROOT
HETATM    1  C3  UNL     1     -34.158  18.333   0.211  1.00 20.00     0.002 C 
HETATM    2  C4  UNL     1     -34.803  17.012  -0.220  1.00 20.00     0.006 C 
HETATM    3  C5  UNL     1     -33.213  18.739  -0.921  1.00 20.00     0.020 C 
HETATM    4  C6  UNL     1     -34.115  16.630  -1.534  1.00 20.00     0.007 C 
HETATM    5  C7  UNL     1     -33.712  17.977  -2.147  1.00 20.00     0.086 C 
HETATM    6 CL9  UNL     1     -35.078  18.851  -2.896  1.00 20.00    -0.125 Cl
ENDROOT
BRANCH   4   7
HETATM    7  C8  UNL     1     -34.954  15.715  -2.412  1.00 20.00     0.032 C 
BRANCH   7   8
HETATM    8  C2  UNL     1     -34.098  14.929  -3.359  1.00 20.00    -0.036 C 
HETATM    9  C1  UNL     1     -34.363  13.675  -3.742  1.00 20.00     0.007 C 
ENDBRANCH   7   8
ENDBRANCH   4   7
TORSDOF 2
ENDMDL
