MODEL 1
REMARK VINA RESULT:      -4.9      0.000      0.000
REMARK  2 active torsions:
REMARK  status: ('A' for Active; 'I' for Inactive)
REMARK    1  A    between atoms: C4_4  and  C7_7 
REMARK    2  A    between atoms: C7_7  and  C8_8 
ROOT
HETATM    1  C1  UNL     1     -35.667   4.851   4.439  1.00 20.00     0.002 C 
HETATM    2  C2  UNL     1     -34.801   5.777   3.579  1.00 20.00     0.006 C 
HETATM    3  C3  UNL     1     -34.769   4.355   5.574  1.00 20.00     0.020 C 
HETATM    4  C4  UNL     1     -33.391   5.687   4.174  1.00 20.00     0.004 C 
HETATM    5  C5  UNL     1     -33.633   5.371   5.654  1.00 20.00     0.086 C 
HETATM    6 CL9  UNL     1     -34.150   6.791   6.607  1.00 20.00    -0.125 Cl
ENDROOT
BRANCH   4   7
HETATM    7  C7  UNL     1     -32.533   6.907   3.878  1.00 20.00     0.005 C 
BRANCH   7   8
HETATM    8  C8  UNL     1     -32.220   7.021   2.387  1.00 20.00    -0.004 C 
HETATM    9  C6  UNL     1     -32.146   8.472   1.943  1.00 20.00     0.005 C 
ENDBRANCH   7   8
ENDBRANCH   4   7
TORSDOF 2
ENDMDL
MODEL 2
REMARK VINA RESULT:      -4.3     11.588     12.586
REMARK  2 active torsions:
REMARK  status: ('A' for Active; 'I' for Inactive)
REMARK    1  A    between atoms: C4_4  and  C7_7 
REMARK    2  A    between atoms: C7_7  and  C8_8 
ROOT
HETATM    1  C1  UNL     1     -34.443  13.261  -4.843  1.00 20.00     0.002 C 
HETATM    2  C2  UNL     1     -33.916  13.831  -3.522  1.00 20.00     0.006 C 
HETATM    3  C3  UNL     1     -35.361  14.331  -5.436  1.00 20.00     0.020 C 
HETATM    4  C4  UNL     1     -34.646  15.164  -3.331  1.00 20.00     0.004 C 
HETATM    5  C5  UNL     1     -34.940  15.634  -4.760  1.00 20.00     0.086 C 
HETATM    6 CL9  UNL     1     -33.512  16.318  -5.588  1.00 20.00    -0.125 Cl
ENDROOT
BRANCH   4   7
HETATM    7  C7  UNL     1     -33.895  16.142  -2.442  1.00 20.00     0.005 C 
BRANCH   7   8
HETATM    8  C8  UNL     1     -34.685  16.467  -1.175  1.00 20.00    -0.004 C 
HETATM    9  C6  UNL     1     -34.027  17.581  -0.379  1.00 20.00     0.005 C 
ENDBRANCH   7   8
ENDBRANCH   4   7
TORSDOF 2
ENDMDL
MODEL 3
REMARK VINA RESULT:      -4.2      1.627      2.128
REMARK  2 active torsions:
REMARK  status: ('A' for Active; 'I' for Inactive)
REMARK    1  A    between atoms: C4_4  and  C7_7 
REMARK    2  A    between atoms: C7_7  and  C8_8 
ROOT
HETATM    1  C1  UNL     1     -34.240   6.147   6.740  1.00 20.00     0.002 C 
HETATM    2  C2  UNL     1     -33.596   6.531   5.404  1.00 20.00     0.006 C 
HETATM    3  C3  UNL     1     -35.384   5.189   6.404  1.00 20.00     0.020 C 
HETATM    4  C4  UNL     1     -34.469   5.881   4.326  1.00 20.00     0.004 C 
HETATM    5  C5  UNL     1     -35.051   4.643   5.018  1.00 20.00     0.086 C 
HETATM    6 CL9  UNL     1     -33.886   3.295   5.155  1.00 20.00    -0.125 Cl
ENDROOT
BRANCH   4   7
HETATM    7  C7  UNL     1     -33.732   5.638   3.018  1.00 20.00     0.005 C 
BRANCH   7   8
HETATM    8  C8  UNL     1     -32.305   6.182   3.072  1.00 20.00    -0.004 C 
HETATM    9  C6  UNL     1     -32.217   7.572   2.465  1.00 20.00     0.005 C 
ENDBRANCH   7   8
ENDBRANCH   4   7
TORSDOF 2
ENDMDL
MODEL 4
REMARK VINA RESULT:      -4.0     11.954     12.700
REMARK  2 active torsions:
REMARK  status: ('A' for Active; 'I' for Inactive)
REMARK    1  A    between atoms: C4_4  and  C7_7 
REMARK    2  A    between atoms: C7_7  and  C8_8 
ROOT
HETATM    1  C1  UNL     1     -35.387  16.313  -2.350  1.00 20.00     0.002 C 
HETATM    2  C2  UNL     1     -35.704  15.165  -3.313  1.00 20.00     0.006 C 
HETATM    3  C3  UNL     1     -33.868  16.315  -2.170  1.00 20.00     0.020 C 
HETATM    4  C4  UNL     1     -34.368  14.457  -3.561  1.00 20.00     0.004 C 
HETATM    5  C5  UNL     1     -33.324  15.566  -3.384  1.00 20.00     0.086 C 
HETATM    6 CL9  UNL     1     -33.217  16.669  -4.786  1.00 20.00    -0.125 Cl
ENDROOT
BRANCH   4   7
HETATM    7  C7  UNL     1     -34.324  13.695  -4.876  1.00 20.00     0.005 C 
BRANCH   7   8
HETATM    8  C8  UNL     1     -35.437  14.146  -5.821  1.00 20.00    -0.004 C 
HETATM    9  C6  UNL     1     -34.882  14.583  -7.166  1.00 20.00     0.005 C 
ENDBRANCH   7   8
ENDBRANCH   4   7
TORSDOF 2
ENDMDL
MODEL 5
REMARK VINA RESULT:      -4.0     11.896     13.293
REMARK  2 active torsions:
REMARK  status: ('A' for Active; 'I' for Inactive)
REMARK    1  A    between atoms: C4_4  and  C7_7 
REMARK    2  A    between atoms: C7_7  and  C8_8 
ROOT
HETATM    1  C1  UNL     1     -34.150  15.981  -6.813  1.00 20.00     0.002 C 
HETATM    2  C2  UNL     1     -33.718  16.071  -5.346  1.00 20.00     0.006 C 
HETATM    3  C3  UNL     1     -34.861  14.635  -6.969  1.00 20.00     0.020 C 
HETATM    4  C4  UNL     1     -34.082  14.716  -4.728  1.00 20.00     0.004 C 
HETATM    5  C5  UNL     1     -35.282  14.242  -5.556  1.00 20.00     0.086 C 
HETATM    6 CL9  UNL     1     -36.809  15.063  -5.123  1.00 20.00    -0.125 Cl
ENDROOT
BRANCH   4   7
HETATM    7  C7  UNL     1     -34.283  14.775  -3.222  1.00 20.00     0.005 C 
BRANCH   7   8
HETATM    8  C8  UNL     1     -33.899  16.143  -2.660  1.00 20.00    -0.004 C 
HETATM    9  C6  UNL     1     -34.580  16.408  -1.328  1.00 20.00     0.005 C 
ENDBRANCH   7   8
ENDBRANCH   4   7
TORSDOF 2
ENDMDL
MODEL 6
REMARK VINA RESULT:      -3.9     11.765     12.604
REMARK  2 active torsions:
REMARK  status: ('A' for Active; 'I' for Inactive)
REMARK    1  A    between atoms: C4_4  and  C7_7 
REMARK    2  A    between atoms: C7_7  and  C8_8 
ROOT
HETATM    1  C1  UNL     1     -34.239  15.544  -5.675  1.00 20.00     0.002 C 
HETATM    2  C2  UNL     1     -34.202  16.352  -4.375  1.00 20.00     0.006 C 
HETATM    3  C3  UNL     1     -34.470  14.087  -5.269  1.00 20.00     0.020 C 
HETATM    4  C4  UNL     1     -34.286  15.318  -3.247  1.00 20.00     0.004 C 
HETATM    5  C5  UNL     1     -35.072  14.157  -3.868  1.00 20.00     0.086 C 
HETATM    6 CL9  UNL     1     -36.828  14.465  -3.972  1.00 20.00    -0.125 Cl
ENDROOT
BRANCH   4   7
HETATM    7  C7  UNL     1     -34.837  15.885  -1.948  1.00 20.00     0.005 C 
BRANCH   7   8
HETATM    8  C8  UNL     1     -33.929  16.978  -1.387  1.00 20.00    -0.004 C 
HETATM    9  C6  UNL     1     -34.439  17.493  -0.051  1.00 20.00     0.005 C 
ENDBRANCH   7   8
ENDBRANCH   4   7
TORSDOF 2
ENDMDL
MODEL 7
REMARK VINA RESULT:      -3.9     11.766     12.857
REMARK  2 active torsions:
REMARK  status: ('A' for Active; 'I' for Inactive)
REMARK    1  A    between atoms: C4_4  and  C7_7 
REMARK    2  A    between atoms: C7_7  and  C8_8 
ROOT
HETATM    1  C1  UNL     1     -34.084  18.084  -0.131  1.00 20.00     0.002 C 
HETATM    2  C2  UNL     1     -34.664  16.731  -0.553  1.00 20.00     0.006 C 
HETATM    3  C3  UNL     1     -33.282  18.599  -1.327  1.00 20.00     0.020 C 
HETATM    4  C4  UNL     1     -34.075  16.447  -1.939  1.00 20.00     0.004 C 
HETATM    5  C5  UNL     1     -33.834  17.841  -2.531  1.00 20.00     0.086 C 
HETATM    6 CL9  UNL     1     -35.326  18.628  -3.119  1.00 20.00    -0.125 Cl
ENDROOT
BRANCH   4   7
HETATM    7  C7  UNL     1     -34.922  15.499  -2.773  1.00 20.00     0.005 C 
BRANCH   7   8
HETATM    8  C8  UNL     1     -34.055  14.490  -3.525  1.00 20.00    -0.004 C 
HETATM    9  C6  UNL     1     -34.898  13.404  -4.171  1.00 20.00     0.005 C 
ENDBRANCH   7   8
ENDBRANCH   4   7
TORSDOF 2
ENDMDL
MODEL 8
REMARK VINA RESULT:      -3.8      9.674     10.733
REMARK  2 active torsions:
REMARK  status: ('A' for Active; 'I' for Inactive)
REMARK    1  A    between atoms: C4_4  and  C7_7 
REMARK    2  A    between atoms: C7_7  and  C8_8 
ROOT
HETATM    1  C1  UNL     1     -40.707   6.041  -0.031  1.00 20.00     0.002 C 
HETATM    2  C2  UNL     1     -41.171   6.843  -1.250  1.00 20.00     0.006 C 
HETATM    3  C3  UNL     1     -41.742   4.934   0.175  1.00 20.00     0.020 C 
HETATM    4  C4  UNL     1     -42.531   6.250  -1.636  1.00 20.00     0.004 C 
HETATM    5  C5  UNL     1     -42.444   4.792  -1.174  1.00 20.00     0.086 C 
HETATM    6 CL9  UNL     1     -41.473   3.760  -2.262  1.00 20.00    -0.125 Cl
ENDROOT
BRANCH   4   7
HETATM    7  C7  UNL     1     -42.894   6.473  -3.096  1.00 20.00     0.005 C 
BRANCH   7   8
HETATM    8  C8  UNL     1     -42.374   7.818  -3.602  1.00 20.00    -0.004 C 
HETATM    9  C6  UNL     1     -43.208   8.336  -4.761  1.00 20.00     0.005 C 
ENDBRANCH   7   8
ENDBRANCH   4   7
TORSDOF 2
ENDMDL
MODEL 9
REMARK VINA RESULT:      -3.8      1.182      3.792
REMARK  2 active torsions:
REMARK  status: ('A' for Active; 'I' for Inactive)
REMARK    1  A    between atoms: C4_4  and  C7_7 
REMARK    2  A    between atoms: C7_7  and  C8_8 
ROOT
HETATM    1  C1  UNL     1     -32.010   5.964   2.961  1.00 20.00     0.002 C 
HETATM    2  C2  UNL     1     -33.226   5.045   3.118  1.00 20.00     0.006 C 
HETATM    3  C3  UNL     1     -32.503   7.382   3.259  1.00 20.00     0.020 C 
HETATM    4  C4  UNL     1     -34.413   5.978   3.379  1.00 20.00     0.004 C 
HETATM    5  C5  UNL     1     -33.784   7.195   4.067  1.00 20.00     0.086 C 
HETATM    6 CL9  UNL     1     -33.388   6.910   5.786  1.00 20.00    -0.125 Cl
ENDROOT
BRANCH   4   7
HETATM    7  C7  UNL     1     -35.559   5.304   4.118  1.00 20.00     0.005 C 
BRANCH   7   8
HETATM    8  C8  UNL     1     -35.090   4.047   4.849  1.00 20.00    -0.004 C 
HETATM    9  C6  UNL     1     -35.082   4.250   6.354  1.00 20.00     0.005 C 
ENDBRANCH   7   8
ENDBRANCH   4   7
TORSDOF 2
ENDMDL
