MODEL 1
REMARK VINA RESULT:      -5.6      0.000      0.000
REMARK  2 active torsions:
REMARK  status: ('A' for Active; 'I' for Inactive)
REMARK    1  A    between atoms: C4_4  and  C8_8 
REMARK    2  A    between atoms: C8_8  and  C9_9 
ROOT
HETATM    1  C1  UNL     1     -35.172   4.117   5.159  1.00 20.00     0.002 C 
HETATM    2  C2  UNL     1     -34.679   4.832   3.898  1.00 20.00     0.006 C 
HETATM    3  C3  UNL     1     -34.670   4.939   6.345  1.00 20.00     0.020 C 
HETATM    4  C4  UNL     1     -33.736   5.934   4.391  1.00 20.00     0.004 C 
HETATM    5  C5  UNL     1     -34.341   6.300   5.746  1.00 20.00     0.086 C 
HETATM    6 CL10 UNL     1     -33.232   7.223   6.773  1.00 20.00    -0.125 Cl
ENDROOT
BRANCH   4   7
HETATM    7  C8  UNL     1     -33.636   7.100   3.421  1.00 20.00     0.010 C 
BRANCH   7   8
HETATM    8  C9  UNL     1     -32.232   7.283   2.819  1.00 20.00    -0.022 C 
HETATM    9  C6  UNL     1     -32.188   8.394   1.769  1.00 20.00     0.009 C 
HETATM   10  C7  UNL     1     -31.224   7.583   3.931  1.00 20.00     0.009 C 
ENDBRANCH   7   8
ENDBRANCH   4   7
TORSDOF 2
ENDMDL
MODEL 2
REMARK VINA RESULT:      -4.6     11.596     12.715
REMARK  2 active torsions:
REMARK  status: ('A' for Active; 'I' for Inactive)
REMARK    1  A    between atoms: C4_4  and  C8_8 
REMARK    2  A    between atoms: C8_8  and  C9_9 
ROOT
HETATM    1  C1  UNL     1     -34.037  17.821  -0.925  1.00 20.00     0.002 C 
HETATM    2  C2  UNL     1     -34.631  16.423  -1.117  1.00 20.00     0.006 C 
HETATM    3  C3  UNL     1     -33.548  18.275  -2.300  1.00 20.00     0.020 C 
HETATM    4  C4  UNL     1     -34.287  16.023  -2.556  1.00 20.00     0.004 C 
HETATM    5  C5  UNL     1     -34.286  17.370  -3.279  1.00 20.00     0.086 C 
HETATM    6 CL10 UNL     1     -33.483  17.308  -4.856  1.00 20.00    -0.125 Cl
ENDROOT
BRANCH   4   7
HETATM    7  C8  UNL     1     -35.263  15.011  -3.133  1.00 20.00     0.010 C 
BRANCH   7   8
HETATM    8  C9  UNL     1     -34.578  13.816  -3.819  1.00 20.00    -0.022 C 
HETATM    9  C6  UNL     1     -34.857  13.767  -5.322  1.00 20.00     0.009 C 
HETATM   10  C7  UNL     1     -33.068  13.872  -3.576  1.00 20.00     0.009 C 
ENDBRANCH   7   8
ENDBRANCH   4   7
TORSDOF 2
ENDMDL
MODEL 3
REMARK VINA RESULT:      -4.4     11.493     12.256
REMARK  2 active torsions:
REMARK  status: ('A' for Active; 'I' for Inactive)
REMARK    1  A    between atoms: C4_4  and  C8_8 
REMARK    2  A    between atoms: C8_8  and  C9_9 
ROOT
HETATM    1  C1  UNL     1     -33.707  13.432  -4.193  1.00 20.00     0.002 C 
HETATM    2  C2  UNL     1     -33.157  14.670  -3.478  1.00 20.00     0.006 C 
HETATM    3  C3  UNL     1     -35.228  13.575  -4.194  1.00 20.00     0.020 C 
HETATM    4  C4  UNL     1     -34.381  15.394  -2.908  1.00 20.00     0.004 C 
HETATM    5  C5  UNL     1     -35.467  15.056  -3.929  1.00 20.00     0.086 C 
HETATM    6 CL10 UNL     1     -37.104  15.364  -3.327  1.00 20.00    -0.125 Cl
ENDROOT
BRANCH   4   7
HETATM    7  C8  UNL     1     -34.148  16.885  -2.722  1.00 20.00     0.010 C 
BRANCH   7   8
HETATM    8  C9  UNL     1     -33.687  17.264  -1.304  1.00 20.00    -0.022 C 
HETATM    9  C6  UNL     1     -33.263  18.731  -1.201  1.00 20.00     0.009 C 
HETATM   10  C7  UNL     1     -34.807  16.979  -0.299  1.00 20.00     0.009 C 
ENDBRANCH   7   8
ENDBRANCH   4   7
TORSDOF 2
ENDMDL
MODEL 4
REMARK VINA RESULT:      -4.3     11.692     12.854
REMARK  2 active torsions:
REMARK  status: ('A' for Active; 'I' for Inactive)
REMARK    1  A    between atoms: C4_4  and  C8_8 
REMARK    2  A    between atoms: C8_8  and  C9_9 
ROOT
HETATM    1  C1  UNL     1     -34.700  13.282  -5.103  1.00 20.00     0.002 C 
HETATM    2  C2  UNL     1     -34.485  13.757  -3.664  1.00 20.00     0.006 C 
HETATM    3  C3  UNL     1     -34.625  14.528  -5.984  1.00 20.00     0.020 C 
HETATM    4  C4  UNL     1     -34.495  15.288  -3.729  1.00 20.00     0.004 C 
HETATM    5  C5  UNL     1     -33.915  15.560  -5.117  1.00 20.00     0.086 C 
HETATM    6 CL10 UNL     1     -34.211  17.213  -5.680  1.00 20.00    -0.125 Cl
ENDROOT
BRANCH   4   7
HETATM    7  C8  UNL     1     -33.713  15.929  -2.594  1.00 20.00     0.010 C 
BRANCH   7   8
HETATM    8  C9  UNL     1     -34.605  16.552  -1.506  1.00 20.00    -0.022 C 
HETATM    9  C6  UNL     1     -33.857  17.582  -0.657  1.00 20.00     0.009 C 
HETATM   10  C7  UNL     1     -35.831  17.205  -2.149  1.00 20.00     0.009 C 
ENDBRANCH   7   8
ENDBRANCH   4   7
TORSDOF 2
ENDMDL
MODEL 5
REMARK VINA RESULT:      -4.3      1.079      1.850
REMARK  2 active torsions:
REMARK  status: ('A' for Active; 'I' for Inactive)
REMARK    1  A    between atoms: C4_4  and  C8_8 
REMARK    2  A    between atoms: C8_8  and  C9_9 
ROOT
HETATM    1  C1  UNL     1     -34.576   5.066   3.225  1.00 20.00     0.002 C 
HETATM    2  C2  UNL     1     -33.395   5.789   2.572  1.00 20.00     0.006 C 
HETATM    3  C3  UNL     1     -34.588   5.496   4.691  1.00 20.00     0.020 C 
HETATM    4  C4  UNL     1     -32.635   6.458   3.721  1.00 20.00     0.004 C 
HETATM    5  C5  UNL     1     -33.753   6.769   4.716  1.00 20.00     0.086 C 
HETATM    6 CL10 UNL     1     -33.152   7.135   6.341  1.00 20.00    -0.125 Cl
ENDROOT
BRANCH   4   7
HETATM    7  C8  UNL     1     -31.846   7.678   3.272  1.00 20.00     0.010 C 
BRANCH   7   8
HETATM    8  C9  UNL     1     -32.442   8.376   2.037  1.00 20.00    -0.022 C 
HETATM    9  C6  UNL     1     -32.787   9.842   2.306  1.00 20.00     0.009 C 
HETATM   10  C7  UNL     1     -31.463   8.283   0.864  1.00 20.00     0.009 C 
ENDBRANCH   7   8
ENDBRANCH   4   7
TORSDOF 2
ENDMDL
MODEL 6
REMARK VINA RESULT:      -4.2     11.382     13.042
REMARK  2 active torsions:
REMARK  status: ('A' for Active; 'I' for Inactive)
REMARK    1  A    between atoms: C4_4  and  C8_8 
REMARK    2  A    between atoms: C8_8  and  C9_9 
ROOT
HETATM    1  C1  UNL     1     -33.633  18.676  -4.039  1.00 20.00     0.002 C 
HETATM    2  C2  UNL     1     -33.600  17.244  -4.578  1.00 20.00     0.006 C 
HETATM    3  C3  UNL     1     -34.046  18.575  -2.571  1.00 20.00     0.020 C 
HETATM    4  C4  UNL     1     -34.190  16.371  -3.466  1.00 20.00     0.004 C 
HETATM    5  C5  UNL     1     -33.771  17.123  -2.203  1.00 20.00     0.086 C 
HETATM    6 CL10 UNL     1     -34.678  16.623  -0.767  1.00 20.00    -0.125 Cl
ENDROOT
BRANCH   4   7
HETATM    7  C8  UNL     1     -33.698  14.933  -3.524  1.00 20.00     0.010 C 
BRANCH   7   8
HETATM    8  C9  UNL     1     -34.823  13.905  -3.736  1.00 20.00    -0.022 C 
HETATM    9  C6  UNL     1     -36.208  14.554  -3.766  1.00 20.00     0.009 C 
HETATM   10  C7  UNL     1     -34.585  13.135  -5.037  1.00 20.00     0.009 C 
ENDBRANCH   7   8
ENDBRANCH   4   7
TORSDOF 2
ENDMDL
MODEL 7
REMARK VINA RESULT:      -4.1     11.682     12.513
REMARK  2 active torsions:
REMARK  status: ('A' for Active; 'I' for Inactive)
REMARK    1  A    between atoms: C4_4  and  C8_8 
REMARK    2  A    between atoms: C8_8  and  C9_9 
ROOT
HETATM    1  C1  UNL     1     -35.898  14.850  -5.475  1.00 20.00     0.002 C 
HETATM    2  C2  UNL     1     -36.167  15.648  -4.196  1.00 20.00     0.006 C 
HETATM    3  C3  UNL     1     -34.485  14.285  -5.342  1.00 20.00     0.020 C 
HETATM    4  C4  UNL     1     -34.830  15.691  -3.449  1.00 20.00     0.004 C 
HETATM    5  C5  UNL     1     -34.188  14.364  -3.850  1.00 20.00     0.086 C 
HETATM    6 CL10 UNL     1     -32.449  14.308  -3.519  1.00 20.00    -0.125 Cl
ENDROOT
BRANCH   4   7
HETATM    7  C8  UNL     1     -35.001  15.869  -1.949  1.00 20.00     0.010 C 
BRANCH   7   8
HETATM    8  C9  UNL     1     -34.037  16.900  -1.336  1.00 20.00    -0.022 C 
HETATM    9  C6  UNL     1     -33.788  18.089  -2.265  1.00 20.00     0.009 C 
HETATM   10  C7  UNL     1     -34.587  17.396   0.003  1.00 20.00     0.009 C 
ENDBRANCH   7   8
ENDBRANCH   4   7
TORSDOF 2
ENDMDL
MODEL 8
REMARK VINA RESULT:      -4.0     12.121     13.407
REMARK  2 active torsions:
REMARK  status: ('A' for Active; 'I' for Inactive)
REMARK    1  A    between atoms: C4_4  and  C8_8 
REMARK    2  A    between atoms: C8_8  and  C9_9 
ROOT
HETATM    1  C1  UNL     1     -34.011  16.635  -6.547  1.00 20.00     0.002 C 
HETATM    2  C2  UNL     1     -33.494  16.934  -5.137  1.00 20.00     0.006 C 
HETATM    3  C3  UNL     1     -34.434  15.166  -6.547  1.00 20.00     0.020 C 
HETATM    4  C4  UNL     1     -33.443  15.581  -4.420  1.00 20.00     0.004 C 
HETATM    5  C5  UNL     1     -34.598  14.822  -5.073  1.00 20.00     0.086 C 
HETATM    6 CL10 UNL     1     -34.525  13.075  -4.790  1.00 20.00    -0.125 Cl
ENDROOT
BRANCH   4   7
HETATM    7  C8  UNL     1     -33.562  15.712  -2.910  1.00 20.00     0.010 C 
BRANCH   7   8
HETATM    8  C9  UNL     1     -34.210  17.032  -2.455  1.00 20.00    -0.022 C 
HETATM    9  C6  UNL     1     -35.731  16.925  -2.337  1.00 20.00     0.009 C 
HETATM   10  C7  UNL     1     -33.617  17.466  -1.112  1.00 20.00     0.009 C 
ENDBRANCH   7   8
ENDBRANCH   4   7
TORSDOF 2
ENDMDL
MODEL 9
REMARK VINA RESULT:      -4.0     11.617     14.443
REMARK  2 active torsions:
REMARK  status: ('A' for Active; 'I' for Inactive)
REMARK    1  A    between atoms: C4_4  and  C8_8 
REMARK    2  A    between atoms: C8_8  and  C9_9 
ROOT
HETATM    1  C1  UNL     1     -34.323  18.705  -6.369  1.00 20.00     0.002 C 
HETATM    2  C2  UNL     1     -33.530  18.159  -5.178  1.00 20.00     0.006 C 
HETATM    3  C3  UNL     1     -34.706  17.496  -7.221  1.00 20.00     0.020 C 
HETATM    4  C4  UNL     1     -33.301  16.675  -5.480  1.00 20.00     0.004 C 
HETATM    5  C5  UNL     1     -34.551  16.308  -6.281  1.00 20.00     0.086 C 
HETATM    6 CL10 UNL     1     -34.383  14.783  -7.166  1.00 20.00    -0.125 Cl
ENDROOT
BRANCH   4   7
HETATM    7  C8  UNL     1     -33.105  15.843  -4.223  1.00 20.00     0.010 C 
BRANCH   7   8
HETATM    8  C9  UNL     1     -34.413  15.259  -3.660  1.00 20.00    -0.022 C 
HETATM    9  C6  UNL     1     -34.390  13.731  -3.598  1.00 20.00     0.009 C 
HETATM   10  C7  UNL     1     -34.678  15.829  -2.264  1.00 20.00     0.009 C 
ENDBRANCH   7   8
ENDBRANCH   4   7
TORSDOF 2
ENDMDL
