MODEL 1
REMARK VINA RESULT:      -4.5      0.000      0.000
REMARK  2 active torsions:
REMARK  status: ('A' for Active; 'I' for Inactive)
REMARK    1  A    between atoms: C8_8  and  C9_9 
REMARK    2  A    between atoms: C9_9  and  N11_11 
ROOT
HETATM    1  C1  UNL     1     -36.605  14.386  -3.927  1.00 20.00     0.071 C 
HETATM    2  C4  UNL     1     -34.521  13.260  -4.791  1.00 20.00     0.028 A 
HETATM    3  C5  UNL     1     -34.671  14.553  -5.535  1.00 20.00     0.028 A 
HETATM    4  C8  UNL     1     -35.178  14.443  -4.115  1.00 20.00     0.075 A 
HETATM    5  N10 UNL     1     -37.755  14.341  -3.775  1.00 20.00    -0.196 NA
ENDROOT
BRANCH   4   6
HETATM    6  C9  UNL     1     -34.421  15.148  -3.042  1.00 20.00     0.296 C 
BRANCH   6   7
HETATM    7  N11 UNL     1     -35.229  16.225  -2.441  1.00 20.00     0.090 N 
HETATM    8  C6  UNL     1     -34.996  17.491  -3.150  1.00 20.00     0.272 C 
HETATM    9  C2  UNL     1     -33.747  18.103  -2.533  1.00 20.00     0.032 C 
HETATM   10  C3  UNL     1     -33.611  17.445  -1.167  1.00 20.00     0.032 C 
HETATM   11  C7  UNL     1     -34.786  16.485  -1.065  1.00 20.00     0.272 C 
ENDBRANCH   6   7
ENDBRANCH   4   6
TORSDOF 2
ENDMDL
MODEL 2
REMARK VINA RESULT:      -4.4      1.547      1.996
REMARK  2 active torsions:
REMARK  status: ('A' for Active; 'I' for Inactive)
REMARK    1  A    between atoms: C8_8  and  C9_9 
REMARK    2  A    between atoms: C9_9  and  N11_11 
ROOT
HETATM    1  C1  UNL     1     -34.706  13.708  -4.983  1.00 20.00     0.071 C 
HETATM    2  C4  UNL     1     -34.205  15.301  -6.872  1.00 20.00     0.028 A 
HETATM    3  C5  UNL     1     -35.548  15.674  -6.317  1.00 20.00     0.028 A 
HETATM    4  C8  UNL     1     -34.502  15.069  -5.407  1.00 20.00     0.075 A 
HETATM    5  N10 UNL     1     -34.870  12.612  -4.640  1.00 20.00    -0.196 NA
ENDROOT
BRANCH   4   6
HETATM    6  C9  UNL     1     -33.842  15.957  -4.408  1.00 20.00     0.296 C 
BRANCH   6   7
HETATM    7  N11 UNL     1     -34.816  16.871  -3.784  1.00 20.00     0.090 N 
HETATM    8  C6  UNL     1     -34.118  17.993  -3.140  1.00 20.00     0.272 C 
HETATM    9  C2  UNL     1     -33.710  17.507  -1.757  1.00 20.00     0.032 C 
HETATM   10  C3  UNL     1     -34.627  16.329  -1.460  1.00 20.00     0.032 C 
HETATM   11  C7  UNL     1     -35.518  16.194  -2.686  1.00 20.00     0.272 C 
ENDBRANCH   6   7
ENDBRANCH   4   6
TORSDOF 2
ENDMDL
MODEL 3
REMARK VINA RESULT:      -4.2      1.581      4.285
REMARK  2 active torsions:
REMARK  status: ('A' for Active; 'I' for Inactive)
REMARK    1  A    between atoms: C8_8  and  C9_9 
REMARK    2  A    between atoms: C9_9  and  N11_11 
ROOT
HETATM    1  C1  UNL     1     -35.563  18.141  -2.129  1.00 20.00     0.071 C 
HETATM    2  C4  UNL     1     -33.576  17.683  -0.647  1.00 20.00     0.028 A 
HETATM    3  C5  UNL     1     -34.807  17.329   0.134  1.00 20.00     0.028 A 
HETATM    4  C8  UNL     1     -34.804  17.179  -1.371  1.00 20.00     0.075 A 
HETATM    5  N10 UNL     1     -36.174  18.914  -2.741  1.00 20.00    -0.196 NA
ENDROOT
BRANCH   4   6
HETATM    6  C9  UNL     1     -34.769  15.802  -1.939  1.00 20.00     0.296 C 
BRANCH   6   7
HETATM    7  N11 UNL     1     -34.556  15.834  -3.398  1.00 20.00     0.090 N 
HETATM    8  C6  UNL     1     -35.484  14.911  -4.067  1.00 20.00     0.272 C 
HETATM    9  C2  UNL     1     -34.832  13.537  -4.016  1.00 20.00     0.032 C 
HETATM   10  C3  UNL     1     -33.350  13.804  -3.795  1.00 20.00     0.032 C 
HETATM   11  C7  UNL     1     -33.220  15.318  -3.727  1.00 20.00     0.272 C 
ENDBRANCH   6   7
ENDBRANCH   4   6
TORSDOF 2
ENDMDL
MODEL 4
REMARK VINA RESULT:      -4.0      1.800      4.809
REMARK  2 active torsions:
REMARK  status: ('A' for Active; 'I' for Inactive)
REMARK    1  A    between atoms: C8_8  and  C9_9 
REMARK    2  A    between atoms: C9_9  and  N11_11 
ROOT
HETATM    1  C1  UNL     1     -33.436  18.501  -0.950  1.00 20.00     0.071 C 
HETATM    2  C4  UNL     1     -35.109  17.514   0.658  1.00 20.00     0.028 A 
HETATM    3  C5  UNL     1     -35.882  18.112  -0.480  1.00 20.00     0.028 A 
HETATM    4  C8  UNL     1     -34.498  17.554  -0.725  1.00 20.00     0.075 A 
HETATM    5  N10 UNL     1     -32.581  19.263  -1.132  1.00 20.00    -0.196 NA
ENDROOT
BRANCH   4   6
HETATM    6  C9  UNL     1     -34.381  16.273  -1.477  1.00 20.00     0.296 C 
BRANCH   6   7
HETATM    7  N11 UNL     1     -34.556  16.488  -2.925  1.00 20.00     0.090 N 
HETATM    8  C6  UNL     1     -35.706  15.718  -3.418  1.00 20.00     0.272 C 
HETATM    9  C2  UNL     1     -35.190  14.314  -3.704  1.00 20.00     0.032 C 
HETATM   10  C3  UNL     1     -33.684  14.466  -3.865  1.00 20.00     0.032 C 
HETATM   11  C7  UNL     1     -33.405  15.948  -3.662  1.00 20.00     0.272 C 
ENDBRANCH   6   7
ENDBRANCH   4   6
TORSDOF 2
ENDMDL
MODEL 5
REMARK VINA RESULT:      -4.0      1.593      2.327
REMARK  2 active torsions:
REMARK  status: ('A' for Active; 'I' for Inactive)
REMARK    1  A    between atoms: C8_8  and  C9_9 
REMARK    2  A    between atoms: C9_9  and  N11_11 
ROOT
HETATM    1  C1  UNL     1     -34.331  15.433  -5.442  1.00 20.00     0.071 C 
HETATM    2  C4  UNL     1     -35.069  13.271  -4.376  1.00 20.00     0.028 A 
HETATM    3  C5  UNL     1     -33.753  13.644  -3.763  1.00 20.00     0.028 A 
HETATM    4  C8  UNL     1     -34.693  14.729  -4.238  1.00 20.00     0.075 A 
HETATM    5  N10 UNL     1     -34.040  16.002  -6.410  1.00 20.00    -0.196 NA
ENDROOT
BRANCH   4   6
HETATM    6  C9  UNL     1     -35.402  15.543  -3.211  1.00 20.00     0.296 C 
BRANCH   6   7
HETATM    7  N11 UNL     1     -34.718  16.830  -2.987  1.00 20.00     0.090 N 
HETATM    8  C6  UNL     1     -33.802  16.725  -1.843  1.00 20.00     0.272 C 
HETATM    9  C2  UNL     1     -34.641  16.970  -0.597  1.00 20.00     0.032 C 
HETATM   10  C3  UNL     1     -35.876  17.714  -1.087  1.00 20.00     0.032 C 
HETATM   11  C7  UNL     1     -35.688  17.859  -2.590  1.00 20.00     0.272 C 
ENDBRANCH   6   7
ENDBRANCH   4   6
TORSDOF 2
ENDMDL
MODEL 6
REMARK VINA RESULT:      -4.0      2.560      3.916
REMARK  2 active torsions:
REMARK  status: ('A' for Active; 'I' for Inactive)
REMARK    1  A    between atoms: C8_8  and  C9_9 
REMARK    2  A    between atoms: C9_9  and  N11_11 
ROOT
HETATM    1  C1  UNL     1     -34.859  13.954  -4.013  1.00 20.00     0.071 C 
HETATM    2  C4  UNL     1     -35.015  15.801  -2.304  1.00 20.00     0.028 A 
HETATM    3  C5  UNL     1     -33.601  15.773  -2.803  1.00 20.00     0.028 A 
HETATM    4  C8  UNL     1     -34.729  15.359  -3.722  1.00 20.00     0.075 A 
HETATM    5  N10 UNL     1     -34.964  12.823  -4.249  1.00 20.00    -0.196 NA
ENDROOT
BRANCH   4   6
HETATM    6  C9  UNL     1     -35.102  16.278  -4.833  1.00 20.00     0.296 C 
BRANCH   6   7
HETATM    7  N11 UNL     1     -33.972  16.480  -5.759  1.00 20.00     0.090 N 
HETATM    8  C6  UNL     1     -33.703  17.915  -5.926  1.00 20.00     0.272 C 
HETATM    9  C2  UNL     1     -34.657  18.407  -7.005  1.00 20.00     0.032 C 
HETATM   10  C3  UNL     1     -35.065  17.160  -7.778  1.00 20.00     0.032 C 
HETATM   11  C7  UNL     1     -34.329  16.011  -7.105  1.00 20.00     0.272 C 
ENDBRANCH   6   7
ENDBRANCH   4   6
TORSDOF 2
ENDMDL
MODEL 7
REMARK VINA RESULT:      -3.9      1.531      2.405
REMARK  2 active torsions:
REMARK  status: ('A' for Active; 'I' for Inactive)
REMARK    1  A    between atoms: C8_8  and  C9_9 
REMARK    2  A    between atoms: C9_9  and  N11_11 
ROOT
HETATM    1  C1  UNL     1     -35.611  13.760  -4.169  1.00 20.00     0.071 C 
HETATM    2  C4  UNL     1     -37.237  15.373  -5.225  1.00 20.00     0.028 A 
HETATM    3  C5  UNL     1     -37.934  14.734  -4.061  1.00 20.00     0.028 A 
HETATM    4  C8  UNL     1     -36.435  14.933  -4.020  1.00 20.00     0.075 A 
HETATM    5  N10 UNL     1     -34.947  12.817  -4.288  1.00 20.00    -0.196 NA
ENDROOT
BRANCH   4   6
HETATM    6  C9  UNL     1     -35.891  15.985  -3.117  1.00 20.00     0.296 C 
BRANCH   6   7
HETATM    7  N11 UNL     1     -34.416  15.979  -3.121  1.00 20.00     0.090 N 
HETATM    8  C6  UNL     1     -33.902  16.540  -1.864  1.00 20.00     0.272 C 
HETATM    9  C2  UNL     1     -33.883  18.051  -2.045  1.00 20.00     0.032 C 
HETATM   10  C3  UNL     1     -33.885  18.275  -3.551  1.00 20.00     0.032 C 
HETATM   11  C7  UNL     1     -33.908  16.882  -4.163  1.00 20.00     0.272 C 
ENDBRANCH   6   7
ENDBRANCH   4   6
TORSDOF 2
ENDMDL
MODEL 8
REMARK VINA RESULT:      -3.8      1.311      4.258
REMARK  2 active torsions:
REMARK  status: ('A' for Active; 'I' for Inactive)
REMARK    1  A    between atoms: C8_8  and  C9_9 
REMARK    2  A    between atoms: C9_9  and  N11_11 
ROOT
HETATM    1  C1  UNL     1     -35.917  18.080  -2.328  1.00 20.00     0.071 C 
HETATM    2  C4  UNL     1     -33.672  17.602  -1.286  1.00 20.00     0.028 A 
HETATM    3  C5  UNL     1     -34.637  16.585  -0.753  1.00 20.00     0.028 A 
HETATM    4  C8  UNL     1     -34.834  17.149  -2.142  1.00 20.00     0.075 A 
HETATM    5  N10 UNL     1     -36.790  18.829  -2.479  1.00 20.00    -0.196 NA
ENDROOT
BRANCH   4   6
HETATM    6  C9  UNL     1     -34.545  16.265  -3.306  1.00 20.00     0.296 C 
BRANCH   6   7
HETATM    7  N11 UNL     1     -35.269  14.985  -3.194  1.00 20.00     0.090 N 
HETATM    8  C6  UNL     1     -34.369  13.864  -3.495  1.00 20.00     0.272 C 
HETATM    9  C2  UNL     1     -34.364  13.713  -5.009  1.00 20.00     0.032 C 
HETATM   10  C3  UNL     1     -35.641  14.392  -5.484  1.00 20.00     0.032 C 
HETATM   11  C7  UNL     1     -36.317  14.903  -4.220  1.00 20.00     0.272 C 
ENDBRANCH   6   7
ENDBRANCH   4   6
TORSDOF 2
ENDMDL
MODEL 9
REMARK VINA RESULT:      -3.8      2.036      4.104
REMARK  2 active torsions:
REMARK  status: ('A' for Active; 'I' for Inactive)
REMARK    1  A    between atoms: C8_8  and  C9_9 
REMARK    2  A    between atoms: C9_9  and  N11_11 
ROOT
HETATM    1  C1  UNL     1     -34.108  14.307  -3.475  1.00 20.00     0.071 C 
HETATM    2  C4  UNL     1     -34.749  16.029  -1.749  1.00 20.00     0.028 A 
HETATM    3  C5  UNL     1     -33.716  16.652  -2.640  1.00 20.00     0.028 A 
HETATM    4  C8  UNL     1     -34.657  15.610  -3.199  1.00 20.00     0.075 A 
HETATM    5  N10 UNL     1     -33.666  13.257  -3.697  1.00 20.00    -0.196 NA
ENDROOT
BRANCH   4   6
HETATM    6  C9  UNL     1     -35.730  16.060  -4.130  1.00 20.00     0.296 C 
BRANCH   6   7
HETATM    7  N11 UNL     1     -36.464  14.910  -4.691  1.00 20.00     0.090 N 
HETATM    8  C6  UNL     1     -36.818  15.170  -6.093  1.00 20.00     0.272 C 
HETATM    9  C2  UNL     1     -38.114  15.967  -6.068  1.00 20.00     0.032 C 
HETATM   10  C3  UNL     1     -38.728  15.690  -4.702  1.00 20.00     0.032 C 
HETATM   11  C7  UNL     1     -37.755  14.749  -4.008  1.00 20.00     0.272 C 
ENDBRANCH   6   7
ENDBRANCH   4   6
TORSDOF 2
ENDMDL
