MODEL 1
REMARK VINA RESULT:      -4.3      0.000      0.000
REMARK  4 active torsions:
REMARK  status: ('A' for Active; 'I' for Inactive)
REMARK    1  A    between atoms: C5_5  and  C6_6 
REMARK    2  A    between atoms: C5_5  and  C7_7 
REMARK    3  A    between atoms: C6_6  and  C8_8 
REMARK    4  A    between atoms: C7_7  and  C9_9 
ROOT
HETATM    1  C5  UNL     1     -33.044   6.344   2.905  1.00 20.00     0.002 C 
ENDROOT
BRANCH   1   2
HETATM    2  C6  UNL     1     -32.159   7.597   2.816  1.00 20.00     0.020 C 
BRANCH   2   3
HETATM    3  C8  UNL     1     -32.476   8.547   1.652  1.00 20.00     0.078 C 
HETATM    4  C1  UNL     1     -31.411   8.558   0.563  1.00 20.00     0.026 C 
HETATM    5 CL10 UNL     1     -32.738  10.212   2.249  1.00 20.00    -0.125 Cl
ENDBRANCH   2   3
ENDBRANCH   1   2
BRANCH   1   6
HETATM    6  C7  UNL     1     -32.952   5.710   4.300  1.00 20.00     0.008 C 
BRANCH   6   7
HETATM    7  C9  UNL     1     -34.308   5.436   5.007  1.00 20.00    -0.051 C 
HETATM    8  C2  UNL     1     -35.493   5.744   4.077  1.00 20.00     0.014 C 
HETATM    9  C3  UNL     1     -34.402   3.977   5.483  1.00 20.00     0.014 C 
HETATM   10  C4  UNL     1     -34.400   6.358   6.239  1.00 20.00     0.014 C 
ENDBRANCH   6   7
ENDBRANCH   1   6
TORSDOF 4
ENDMDL
MODEL 2
REMARK VINA RESULT:      -4.3      0.048      1.357
REMARK  4 active torsions:
REMARK  status: ('A' for Active; 'I' for Inactive)
REMARK    1  A    between atoms: C5_5  and  C6_6 
REMARK    2  A    between atoms: C5_5  and  C7_7 
REMARK    3  A    between atoms: C6_6  and  C8_8 
REMARK    4  A    between atoms: C7_7  and  C9_9 
ROOT
HETATM    1  C5  UNL     1     -33.068   6.351   2.887  1.00 20.00     0.002 C 
ENDROOT
BRANCH   1   2
HETATM    2  C6  UNL     1     -32.185   7.605   2.810  1.00 20.00     0.020 C 
BRANCH   2   3
HETATM    3  C8  UNL     1     -32.488   8.556   1.643  1.00 20.00     0.078 C 
HETATM    4  C1  UNL     1     -31.422   8.549   0.555  1.00 20.00     0.026 C 
HETATM    5 CL10 UNL     1     -32.729  10.227   2.234  1.00 20.00    -0.125 Cl
ENDBRANCH   2   3
ENDBRANCH   1   2
BRANCH   1   6
HETATM    6  C7  UNL     1     -32.937   5.675   4.259  1.00 20.00     0.008 C 
BRANCH   6   7
HETATM    7  C9  UNL     1     -34.266   5.454   5.032  1.00 20.00    -0.051 C 
HETATM    8  C2  UNL     1     -34.422   3.986   5.462  1.00 20.00     0.014 C 
HETATM    9  C3  UNL     1     -34.344   6.356   6.275  1.00 20.00     0.014 C 
HETATM   10  C4  UNL     1     -35.433   5.816   4.092  1.00 20.00     0.014 C 
ENDBRANCH   6   7
ENDBRANCH   1   6
TORSDOF 4
ENDMDL
MODEL 3
REMARK VINA RESULT:      -4.1     10.602     11.654
REMARK  4 active torsions:
REMARK  status: ('A' for Active; 'I' for Inactive)
REMARK    1  A    between atoms: C5_5  and  C6_6 
REMARK    2  A    between atoms: C5_5  and  C7_7 
REMARK    3  A    between atoms: C6_6  and  C8_8 
REMARK    4  A    between atoms: C7_7  and  C9_9 
ROOT
HETATM    1  C5  UNL     1     -34.028  16.585  -1.857  1.00 20.00     0.002 C 
ENDROOT
BRANCH   1   2
HETATM    2  C6  UNL     1     -34.633  16.895  -0.479  1.00 20.00     0.020 C 
BRANCH   2   3
HETATM    3  C8  UNL     1     -34.180  18.217   0.157  1.00 20.00     0.078 C 
HETATM    4  C1  UNL     1     -32.733  18.581  -0.151  1.00 20.00     0.026 C 
HETATM    5 CL10 UNL     1     -34.424  18.182   1.929  1.00 20.00    -0.125 Cl
ENDBRANCH   2   3
ENDBRANCH   1   2
BRANCH   1   6
HETATM    6  C7  UNL     1     -34.856  15.518  -2.588  1.00 20.00     0.008 C 
BRANCH   6   7
HETATM    7  C9  UNL     1     -34.169  14.851  -3.811  1.00 20.00    -0.051 C 
HETATM    8  C2  UNL     1     -32.653  14.714  -3.591  1.00 20.00     0.014 C 
HETATM    9  C3  UNL     1     -34.767  13.464  -4.097  1.00 20.00     0.014 C 
HETATM   10  C4  UNL     1     -34.406  15.749  -5.042  1.00 20.00     0.014 C 
ENDBRANCH   6   7
ENDBRANCH   1   6
TORSDOF 4
ENDMDL
MODEL 4
REMARK VINA RESULT:      -4.1     10.647     11.659
REMARK  4 active torsions:
REMARK  status: ('A' for Active; 'I' for Inactive)
REMARK    1  A    between atoms: C5_5  and  C6_6 
REMARK    2  A    between atoms: C5_5  and  C7_7 
REMARK    3  A    between atoms: C6_6  and  C8_8 
REMARK    4  A    between atoms: C7_7  and  C9_9 
ROOT
HETATM    1  C5  UNL     1     -34.037  16.562  -1.914  1.00 20.00     0.002 C 
ENDROOT
BRANCH   1   2
HETATM    2  C6  UNL     1     -34.639  16.847  -0.530  1.00 20.00     0.020 C 
BRANCH   2   3
HETATM    3  C8  UNL     1     -34.203  18.169   0.119  1.00 20.00     0.078 C 
HETATM    4  C1  UNL     1     -32.747  18.530  -0.144  1.00 20.00     0.026 C 
HETATM    5 CL10 UNL     1     -34.501  18.135   1.883  1.00 20.00    -0.125 Cl
ENDBRANCH   2   3
ENDBRANCH   1   2
BRANCH   1   6
HETATM    6  C7  UNL     1     -34.791  15.422  -2.613  1.00 20.00     0.008 C 
BRANCH   6   7
HETATM    7  C9  UNL     1     -34.108  14.838  -3.879  1.00 20.00    -0.051 C 
HETATM    8  C2  UNL     1     -34.670  13.448  -4.223  1.00 20.00     0.014 C 
HETATM    9  C3  UNL     1     -34.287  15.770  -5.089  1.00 20.00     0.014 C 
HETATM   10  C4  UNL     1     -32.601  14.698  -3.589  1.00 20.00     0.014 C 
ENDBRANCH   6   7
ENDBRANCH   1   6
TORSDOF 4
ENDMDL
MODEL 5
REMARK VINA RESULT:      -4.1     11.002     12.091
REMARK  4 active torsions:
REMARK  status: ('A' for Active; 'I' for Inactive)
REMARK    1  A    between atoms: C5_5  and  C6_6 
REMARK    2  A    between atoms: C5_5  and  C7_7 
REMARK    3  A    between atoms: C6_6  and  C8_8 
REMARK    4  A    between atoms: C7_7  and  C9_9 
ROOT
HETATM    1  C5  UNL     1     -35.437  14.055  -3.969  1.00 20.00     0.002 C 
ENDROOT
BRANCH   1   2
HETATM    2  C6  UNL     1     -34.790  13.593  -5.283  1.00 20.00     0.020 C 
BRANCH   2   3
HETATM    3  C8  UNL     1     -35.175  14.405  -6.528  1.00 20.00     0.078 C 
HETATM    4  C1  UNL     1     -34.193  15.521  -6.860  1.00 20.00     0.026 C 
HETATM    5 CL10 UNL     1     -36.820  15.088  -6.355  1.00 20.00    -0.125 Cl
ENDBRANCH   2   3
ENDBRANCH   1   2
BRANCH   1   6
HETATM    6  C7  UNL     1     -34.409  14.761  -3.074  1.00 20.00     0.008 C 
BRANCH   6   7
HETATM    7  C9  UNL     1     -34.740  16.230  -2.695  1.00 20.00    -0.051 C 
HETATM    8  C2  UNL     1     -34.593  16.463  -1.182  1.00 20.00     0.014 C 
HETATM    9  C3  UNL     1     -33.833  17.217  -3.450  1.00 20.00     0.014 C 
HETATM   10  C4  UNL     1     -36.202  16.510  -3.093  1.00 20.00     0.014 C 
ENDBRANCH   6   7
ENDBRANCH   1   6
TORSDOF 4
ENDMDL
MODEL 6
REMARK VINA RESULT:      -3.9     10.914     11.817
REMARK  4 active torsions:
REMARK  status: ('A' for Active; 'I' for Inactive)
REMARK    1  A    between atoms: C5_5  and  C6_6 
REMARK    2  A    between atoms: C5_5  and  C7_7 
REMARK    3  A    between atoms: C6_6  and  C8_8 
REMARK    4  A    between atoms: C7_7  and  C9_9 
ROOT
HETATM    1  C5  UNL     1     -34.901  16.518  -2.561  1.00 20.00     0.002 C 
ENDROOT
BRANCH   1   2
HETATM    2  C6  UNL     1     -34.637  16.520  -1.047  1.00 20.00     0.020 C 
BRANCH   2   3
HETATM    3  C8  UNL     1     -33.674  17.606  -0.547  1.00 20.00     0.078 C 
HETATM    4  C1  UNL     1     -34.153  18.318   0.712  1.00 20.00     0.026 C 
HETATM    5 CL10 UNL     1     -33.358  18.811  -1.831  1.00 20.00    -0.125 Cl
ENDBRANCH   2   3
ENDBRANCH   1   2
BRANCH   1   6
HETATM    6  C7  UNL     1     -35.062  15.084  -3.084  1.00 20.00     0.008 C 
BRANCH   6   7
HETATM    7  C9  UNL     1     -34.086  14.665  -4.218  1.00 20.00    -0.051 C 
HETATM    8  C2  UNL     1     -34.401  13.250  -4.729  1.00 20.00     0.014 C 
HETATM    9  C3  UNL     1     -34.144  15.654  -5.394  1.00 20.00     0.014 C 
HETATM   10  C4  UNL     1     -32.655  14.671  -3.645  1.00 20.00     0.014 C 
ENDBRANCH   6   7
ENDBRANCH   1   6
TORSDOF 4
ENDMDL
MODEL 7
REMARK VINA RESULT:      -3.9     11.040     11.822
REMARK  4 active torsions:
REMARK  status: ('A' for Active; 'I' for Inactive)
REMARK    1  A    between atoms: C5_5  and  C6_6 
REMARK    2  A    between atoms: C5_5  and  C7_7 
REMARK    3  A    between atoms: C6_6  and  C8_8 
REMARK    4  A    between atoms: C7_7  and  C9_9 
ROOT
HETATM    1  C5  UNL     1     -33.829  16.242  -2.552  1.00 20.00     0.002 C 
ENDROOT
BRANCH   1   2
HETATM    2  C6  UNL     1     -34.733  15.910  -3.748  1.00 20.00     0.020 C 
BRANCH   2   3
HETATM    3  C8  UNL     1     -34.243  14.766  -4.648  1.00 20.00     0.078 C 
HETATM    4  C1  UNL     1     -34.392  15.051  -6.137  1.00 20.00     0.026 C 
HETATM    5 CL10 UNL     1     -35.084  13.240  -4.244  1.00 20.00    -0.125 Cl
ENDBRANCH   2   3
ENDBRANCH   1   2
BRANCH   1   6
HETATM    6  C7  UNL     1     -34.646  16.316  -1.255  1.00 20.00     0.008 C 
BRANCH   6   7
HETATM    7  C9  UNL     1     -34.626  17.685  -0.521  1.00 20.00    -0.051 C 
HETATM    8  C2  UNL     1     -35.468  18.731  -1.270  1.00 20.00     0.014 C 
HETATM    9  C3  UNL     1     -35.146  17.553   0.920  1.00 20.00     0.014 C 
HETATM   10  C4  UNL     1     -33.166  18.179  -0.469  1.00 20.00     0.014 C 
ENDBRANCH   6   7
ENDBRANCH   1   6
TORSDOF 4
ENDMDL
MODEL 8
REMARK VINA RESULT:      -3.9      2.662      4.953
REMARK  4 active torsions:
REMARK  status: ('A' for Active; 'I' for Inactive)
REMARK    1  A    between atoms: C5_5  and  C6_6 
REMARK    2  A    between atoms: C5_5  and  C7_7 
REMARK    3  A    between atoms: C6_6  and  C8_8 
REMARK    4  A    between atoms: C7_7  and  C9_9 
ROOT
HETATM    1  C5  UNL     1     -34.367   5.492   3.364  1.00 20.00     0.002 C 
ENDROOT
BRANCH   1   2
HETATM    2  C6  UNL     1     -35.510   5.328   4.378  1.00 20.00     0.020 C 
BRANCH   2   3
HETATM    3  C8  UNL     1     -35.077   4.984   5.810  1.00 20.00     0.078 C 
HETATM    4  C1  UNL     1     -34.302   6.099   6.501  1.00 20.00     0.026 C 
HETATM    5 CL10 UNL     1     -34.109   3.480   5.834  1.00 20.00    -0.125 Cl
ENDBRANCH   2   3
ENDBRANCH   1   2
BRANCH   1   6
HETATM    6  C7  UNL     1     -33.861   6.942   3.344  1.00 20.00     0.008 C 
BRANCH   6   7
HETATM    7  C9  UNL     1     -32.336   7.121   3.108  1.00 20.00    -0.051 C 
HETATM    8  C2  UNL     1     -32.062   7.997   1.875  1.00 20.00     0.014 C 
HETATM    9  C3  UNL     1     -31.653   7.745   4.336  1.00 20.00     0.014 C 
HETATM   10  C4  UNL     1     -31.723   5.728   2.864  1.00 20.00     0.014 C 
ENDBRANCH   6   7
ENDBRANCH   1   6
TORSDOF 4
ENDMDL
MODEL 9
REMARK VINA RESULT:      -3.9     11.099     12.242
REMARK  4 active torsions:
REMARK  status: ('A' for Active; 'I' for Inactive)
REMARK    1  A    between atoms: C5_5  and  C6_6 
REMARK    2  A    between atoms: C5_5  and  C7_7 
REMARK    3  A    between atoms: C6_6  and  C8_8 
REMARK    4  A    between atoms: C7_7  and  C9_9 
ROOT
HETATM    1  C5  UNL     1     -33.350  15.424  -3.447  1.00 20.00     0.002 C 
ENDROOT
BRANCH   1   2
HETATM    2  C6  UNL     1     -33.630  16.579  -2.474  1.00 20.00     0.020 C 
BRANCH   2   3
HETATM    3  C8  UNL     1     -34.979  16.514  -1.745  1.00 20.00     0.078 C 
HETATM    4  C1  UNL     1     -36.057  17.390  -2.371  1.00 20.00     0.026 C 
HETATM    5 CL10 UNL     1     -34.787  16.945  -0.019  1.00 20.00    -0.125 Cl
ENDBRANCH   2   3
ENDBRANCH   1   2
BRANCH   1   6
HETATM    6  C7  UNL     1     -33.741  15.812  -4.880  1.00 20.00     0.008 C 
BRANCH   6   7
HETATM    7  C9  UNL     1     -34.739  14.856  -5.589  1.00 20.00    -0.051 C 
HETATM    8  C2  UNL     1     -36.195  15.280  -5.331  1.00 20.00     0.014 C 
HETATM    9  C3  UNL     1     -34.485  14.810  -7.104  1.00 20.00     0.014 C 
HETATM   10  C4  UNL     1     -34.534  13.439  -5.016  1.00 20.00     0.014 C 
ENDBRANCH   6   7
ENDBRANCH   1   6
TORSDOF 4
ENDMDL
