MODEL 1
REMARK VINA RESULT:      -5.7      0.000      0.000
REMARK  1 active torsions:
REMARK  status: ('A' for Active; 'I' for Inactive)
REMARK    1  A    between atoms: C6_6  and  C8_8 
ROOT
HETATM    1  C1  UNL     1     -32.092   8.635   1.750  1.00 20.00     0.012 C 
HETATM    2  C2  UNL     1     -32.176   7.653   2.437  1.00 20.00    -0.117 C 
HETATM    3  C8  UNL     1     -32.271   6.452   3.273  1.00 20.00     0.098 C 
ENDROOT
BRANCH   3   4
HETATM    4  C6  UNL     1     -33.642   6.344   3.926  1.00 20.00     0.011 C 
HETATM    5  C4  UNL     1     -34.587   5.426   3.149  1.00 20.00     0.007 C 
HETATM    6  C3  UNL     1     -35.622   5.043   4.194  1.00 20.00     0.002 C 
HETATM    7  C5  UNL     1     -34.782   4.774   5.438  1.00 20.00     0.016 C 
HETATM    8  C7  UNL     1     -33.588   5.725   5.332  1.00 20.00     0.062 C 
HETATM    9 BR9  UNL     1     -33.715   7.126   6.685  1.00 20.00    -0.091 Br
ENDBRANCH   3   4
TORSDOF 1
ENDMDL
MODEL 2
REMARK VINA RESULT:      -4.3     11.334     12.477
REMARK  1 active torsions:
REMARK  status: ('A' for Active; 'I' for Inactive)
REMARK    1  A    between atoms: C6_6  and  C8_8 
ROOT
HETATM    1  C1  UNL     1     -33.388  17.906  -0.973  1.00 20.00     0.012 C 
HETATM    2  C2  UNL     1     -34.027  16.990  -1.414  1.00 20.00    -0.117 C 
HETATM    3  C8  UNL     1     -34.812  15.871  -1.947  1.00 20.00     0.098 C 
ENDROOT
BRANCH   3   4
HETATM    4  C6  UNL     1     -34.203  15.336  -3.235  1.00 20.00     0.011 C 
HETATM    5  C4  UNL     1     -34.496  13.849  -3.444  1.00 20.00     0.007 C 
HETATM    6  C3  UNL     1     -34.298  13.673  -4.941  1.00 20.00     0.002 C 
HETATM    7  C5  UNL     1     -34.972  14.907  -5.531  1.00 20.00     0.016 C 
HETATM    8  C7  UNL     1     -34.772  16.011  -4.492  1.00 20.00     0.062 C 
HETATM    9 BR9  UNL     1     -33.517  17.351  -5.158  1.00 20.00    -0.091 Br
ENDBRANCH   3   4
TORSDOF 1
ENDMDL
MODEL 3
REMARK VINA RESULT:      -4.2     11.511     12.367
REMARK  1 active torsions:
REMARK  status: ('A' for Active; 'I' for Inactive)
REMARK    1  A    between atoms: C6_6  and  C8_8 
ROOT
HETATM    1  C1  UNL     1     -34.425  16.639  -1.009  1.00 20.00     0.012 C 
HETATM    2  C2  UNL     1     -34.085  16.753  -2.155  1.00 20.00    -0.117 C 
HETATM    3  C8  UNL     1     -33.667  16.901  -3.554  1.00 20.00     0.098 C 
ENDROOT
BRANCH   3   4
HETATM    4  C6  UNL     1     -33.976  15.644  -4.355  1.00 20.00     0.011 C 
HETATM    5  C4  UNL     1     -33.276  14.407  -3.793  1.00 20.00     0.007 C 
HETATM    6  C3  UNL     1     -34.106  13.263  -4.354  1.00 20.00     0.002 C 
HETATM    7  C5  UNL     1     -35.540  13.753  -4.182  1.00 20.00     0.016 C 
HETATM    8  C7  UNL     1     -35.467  15.273  -4.337  1.00 20.00     0.062 C 
HETATM    9 BR9  UNL     1     -36.316  15.827  -6.006  1.00 20.00    -0.091 Br
ENDBRANCH   3   4
TORSDOF 1
ENDMDL
MODEL 4
REMARK VINA RESULT:      -4.2     11.113     12.594
REMARK  1 active torsions:
REMARK  status: ('A' for Active; 'I' for Inactive)
REMARK    1  A    between atoms: C6_6  and  C8_8 
ROOT
HETATM    1  C1  UNL     1     -35.222  13.131  -4.540  1.00 20.00     0.012 C 
HETATM    2  C2  UNL     1     -34.243  13.681  -4.114  1.00 20.00    -0.117 C 
HETATM    3  C8  UNL     1     -33.044  14.346  -3.593  1.00 20.00     0.098 C 
ENDROOT
BRANCH   3   4
HETATM    4  C6  UNL     1     -33.231  15.856  -3.541  1.00 20.00     0.011 C 
HETATM    5  C4  UNL     1     -33.198  16.496  -4.929  1.00 20.00     0.007 C 
HETATM    6  C3  UNL     1     -33.913  17.819  -4.710  1.00 20.00     0.002 C 
HETATM    7  C5  UNL     1     -35.094  17.437  -3.824  1.00 20.00     0.016 C 
HETATM    8  C7  UNL     1     -34.595  16.271  -2.968  1.00 20.00     0.062 C 
HETATM    9 BR9  UNL     1     -34.397  16.830  -1.108  1.00 20.00    -0.091 Br
ENDBRANCH   3   4
TORSDOF 1
ENDMDL
MODEL 5
REMARK VINA RESULT:      -4.2     11.613     12.801
REMARK  1 active torsions:
REMARK  status: ('A' for Active; 'I' for Inactive)
REMARK    1  A    between atoms: C6_6  and  C8_8 
ROOT
HETATM    1  C1  UNL     1     -33.040  18.297  -0.548  1.00 20.00     0.012 C 
HETATM    2  C2  UNL     1     -33.799  17.424  -0.872  1.00 20.00    -0.117 C 
HETATM    3  C8  UNL     1     -34.727  16.357  -1.261  1.00 20.00     0.098 C 
ENDROOT
BRANCH   3   4
HETATM    4  C6  UNL     1     -34.801  16.216  -2.775  1.00 20.00     0.011 C 
HETATM    5  C4  UNL     1     -35.052  17.553  -3.473  1.00 20.00     0.007 C 
HETATM    6  C3  UNL     1     -34.562  17.293  -4.888  1.00 20.00     0.002 C 
HETATM    7  C5  UNL     1     -33.268  16.516  -4.674  1.00 20.00     0.016 C 
HETATM    8  C7  UNL     1     -33.489  15.709  -3.394  1.00 20.00     0.062 C 
HETATM    9 BR9  UNL     1     -33.636  13.806  -3.807  1.00 20.00    -0.091 Br
ENDBRANCH   3   4
TORSDOF 1
ENDMDL
MODEL 6
REMARK VINA RESULT:      -4.2     11.820     12.841
REMARK  1 active torsions:
REMARK  status: ('A' for Active; 'I' for Inactive)
REMARK    1  A    between atoms: C6_6  and  C8_8 
ROOT
HETATM    1  C1  UNL     1     -34.787  16.644  -0.909  1.00 20.00     0.012 C 
HETATM    2  C2  UNL     1     -34.195  16.269  -1.884  1.00 20.00    -0.117 C 
HETATM    3  C8  UNL     1     -33.466  15.811  -3.071  1.00 20.00     0.098 C 
ENDROOT
BRANCH   3   4
HETATM    4  C6  UNL     1     -34.332  15.902  -4.319  1.00 20.00     0.011 C 
HETATM    5  C4  UNL     1     -33.519  16.231  -5.571  1.00 20.00     0.007 C 
HETATM    6  C3  UNL     1     -34.421  15.752  -6.697  1.00 20.00     0.002 C 
HETATM    7  C5  UNL     1     -34.945  14.416  -6.181  1.00 20.00     0.016 C 
HETATM    8  C7  UNL     1     -35.029  14.576  -4.662  1.00 20.00     0.062 C 
HETATM    9 BR9  UNL     1     -36.894  14.631  -4.087  1.00 20.00    -0.091 Br
ENDBRANCH   3   4
TORSDOF 1
ENDMDL
MODEL 7
REMARK VINA RESULT:      -4.2     10.946     12.217
REMARK  1 active torsions:
REMARK  status: ('A' for Active; 'I' for Inactive)
REMARK    1  A    between atoms: C6_6  and  C8_8 
ROOT
HETATM    1  C1  UNL     1     -36.535  15.840  -6.535  1.00 20.00     0.012 C 
HETATM    2  C2  UNL     1     -36.681  15.420  -5.420  1.00 20.00    -0.117 C 
HETATM    3  C8  UNL     1     -36.868  14.908  -4.058  1.00 20.00     0.098 C 
ENDROOT
BRANCH   3   4
HETATM    4  C6  UNL     1     -35.535  14.549  -3.417  1.00 20.00     0.011 C 
HETATM    5  C4  UNL     1     -34.760  13.509  -4.226  1.00 20.00     0.007 C 
HETATM    6  C3  UNL     1     -33.330  13.704  -3.748  1.00 20.00     0.002 C 
HETATM    7  C5  UNL     1     -33.184  15.221  -3.687  1.00 20.00     0.016 C 
HETATM    8  C7  UNL     1     -34.575  15.745  -3.324  1.00 20.00     0.062 C 
HETATM    9 BR9  UNL     1     -34.575  16.465  -1.509  1.00 20.00    -0.091 Br
ENDBRANCH   3   4
TORSDOF 1
ENDMDL
MODEL 8
REMARK VINA RESULT:      -4.0     11.504     12.454
REMARK  1 active torsions:
REMARK  status: ('A' for Active; 'I' for Inactive)
REMARK    1  A    between atoms: C6_6  and  C8_8 
ROOT
HETATM    1  C1  UNL     1     -34.430  15.147  -7.123  1.00 20.00     0.012 C 
HETATM    2  C2  UNL     1     -34.635  14.403  -6.203  1.00 20.00    -0.117 C 
HETATM    3  C8  UNL     1     -34.882  13.488  -5.083  1.00 20.00     0.098 C 
ENDROOT
BRANCH   3   4
HETATM    4  C6  UNL     1     -35.366  14.243  -3.853  1.00 20.00     0.011 C 
HETATM    5  C4  UNL     1     -34.218  14.893  -3.079  1.00 20.00     0.007 C 
HETATM    6  C3  UNL     1     -34.921  15.977  -2.279  1.00 20.00     0.002 C 
HETATM    7  C5  UNL     1     -35.902  16.574  -3.282  1.00 20.00     0.016 C 
HETATM    8  C7  UNL     1     -36.299  15.414  -4.197  1.00 20.00     0.062 C 
HETATM    9 BR9  UNL     1     -38.157  14.905  -3.879  1.00 20.00    -0.091 Br
ENDBRANCH   3   4
TORSDOF 1
ENDMDL
MODEL 9
REMARK VINA RESULT:      -4.0     10.857     12.837
REMARK  1 active torsions:
REMARK  status: ('A' for Active; 'I' for Inactive)
REMARK    1  A    between atoms: C6_6  and  C8_8 
ROOT
HETATM    1  C1  UNL     1     -33.674  18.962  -5.431  1.00 20.00     0.012 C 
HETATM    2  C2  UNL     1     -33.655  17.795  -5.714  1.00 20.00    -0.117 C 
HETATM    3  C8  UNL     1     -33.627  16.372  -6.067  1.00 20.00     0.098 C 
ENDROOT
BRANCH   3   4
HETATM    4  C6  UNL     1     -34.426  15.543  -5.072  1.00 20.00     0.011 C 
HETATM    5  C4  UNL     1     -34.886  14.208  -5.661  1.00 20.00     0.007 C 
HETATM    6  C3  UNL     1     -35.153  13.366  -4.424  1.00 20.00     0.002 C 
HETATM    7  C5  UNL     1     -33.973  13.693  -3.515  1.00 20.00     0.016 C 
HETATM    8  C7  UNL     1     -33.611  15.145  -3.832  1.00 20.00     0.062 C 
HETATM    9 BR9  UNL     1     -34.071  16.303  -2.328  1.00 20.00    -0.091 Br
ENDBRANCH   3   4
TORSDOF 1
ENDMDL
