MODEL 1
REMARK VINA RESULT:      -4.9      0.000      0.000
REMARK  2 active torsions:
REMARK  status: ('A' for Active; 'I' for Inactive)
REMARK    1  A    between atoms: C4_4  and  C8_8 
REMARK    2  A    between atoms: C8_8  and  C9_9 
ROOT
HETATM    1  C1  UNL     1     -35.487   4.297   5.117  1.00 20.00     0.002 C 
HETATM    2  C2  UNL     1     -35.279   5.304   3.981  1.00 20.00     0.006 C 
HETATM    3  C3  UNL     1     -34.179   4.272   5.912  1.00 20.00     0.020 C 
HETATM    4  C4  UNL     1     -33.812   5.735   4.079  1.00 20.00     0.004 C 
HETATM    5  C5  UNL     1     -33.481   5.584   5.569  1.00 20.00     0.086 C 
HETATM    6 CL10 UNL     1     -34.134   6.908   6.576  1.00 20.00    -0.125 Cl
ENDROOT
BRANCH   4   7
HETATM    7  C8  UNL     1     -33.541   7.099   3.463  1.00 20.00     0.010 C 
BRANCH   7   8
HETATM    8  C9  UNL     1     -32.112   7.254   2.913  1.00 20.00    -0.022 C 
HETATM    9  C6  UNL     1     -32.043   8.232   1.741  1.00 20.00     0.009 C 
HETATM   10  C7  UNL     1     -31.172   7.716   4.029  1.00 20.00     0.009 C 
ENDBRANCH   7   8
ENDBRANCH   4   7
TORSDOF 2
ENDMDL
MODEL 2
REMARK VINA RESULT:      -4.4     11.737     12.485
REMARK  2 active torsions:
REMARK  status: ('A' for Active; 'I' for Inactive)
REMARK    1  A    between atoms: C4_4  and  C8_8 
REMARK    2  A    between atoms: C8_8  and  C9_9 
ROOT
HETATM    1  C1  UNL     1     -33.699  13.629  -4.186  1.00 20.00     0.002 C 
HETATM    2  C2  UNL     1     -33.102  14.860  -3.495  1.00 20.00     0.006 C 
HETATM    3  C3  UNL     1     -35.211  13.704  -3.964  1.00 20.00     0.020 C 
HETATM    4  C4  UNL     1     -34.277  15.541  -2.786  1.00 20.00     0.004 C 
HETATM    5  C5  UNL     1     -35.493  15.168  -3.643  1.00 20.00     0.086 C 
HETATM    6 CL10 UNL     1     -35.610  16.117  -5.153  1.00 20.00    -0.125 Cl
ENDROOT
BRANCH   4   7
HETATM    7  C8  UNL     1     -34.055  17.025  -2.539  1.00 20.00     0.010 C 
BRANCH   7   8
HETATM    8  C9  UNL     1     -33.640  17.355  -1.094  1.00 20.00    -0.022 C 
HETATM    9  C6  UNL     1     -33.182  18.805  -0.936  1.00 20.00     0.009 C 
HETATM   10  C7  UNL     1     -34.804  17.073  -0.141  1.00 20.00     0.009 C 
ENDBRANCH   7   8
ENDBRANCH   4   7
TORSDOF 2
ENDMDL
MODEL 3
REMARK VINA RESULT:      -4.4     11.626     12.695
REMARK  2 active torsions:
REMARK  status: ('A' for Active; 'I' for Inactive)
REMARK    1  A    between atoms: C4_4  and  C8_8 
REMARK    2  A    between atoms: C8_8  and  C9_9 
ROOT
HETATM    1  C1  UNL     1     -34.121  17.946  -0.251  1.00 20.00     0.002 C 
HETATM    2  C2  UNL     1     -34.678  16.593  -0.708  1.00 20.00     0.006 C 
HETATM    3  C3  UNL     1     -33.379  18.532  -1.454  1.00 20.00     0.020 C 
HETATM    4  C4  UNL     1     -34.131  16.383  -2.123  1.00 20.00     0.004 C 
HETATM    5  C5  UNL     1     -33.953  17.806  -2.666  1.00 20.00     0.086 C 
HETATM    6 CL10 UNL     1     -35.489  18.569  -3.169  1.00 20.00    -0.125 Cl
ENDROOT
BRANCH   4   7
HETATM    7  C8  UNL     1     -34.980  15.442  -2.964  1.00 20.00     0.010 C 
BRANCH   7   8
HETATM    8  C9  UNL     1     -34.269  14.125  -3.324  1.00 20.00    -0.022 C 
HETATM    9  C6  UNL     1     -34.949  13.394  -4.482  1.00 20.00     0.009 C 
HETATM   10  C7  UNL     1     -32.806  14.403  -3.676  1.00 20.00     0.009 C 
ENDBRANCH   7   8
ENDBRANCH   4   7
TORSDOF 2
ENDMDL
MODEL 4
REMARK VINA RESULT:      -4.2     11.889     13.073
REMARK  2 active torsions:
REMARK  status: ('A' for Active; 'I' for Inactive)
REMARK    1  A    between atoms: C4_4  and  C8_8 
REMARK    2  A    between atoms: C8_8  and  C9_9 
ROOT
HETATM    1  C1  UNL     1     -34.643  16.853  -5.241  1.00 20.00     0.002 C 
HETATM    2  C2  UNL     1     -35.292  17.012  -3.861  1.00 20.00     0.006 C 
HETATM    3  C3  UNL     1     -33.224  16.340  -4.991  1.00 20.00     0.020 C 
HETATM    4  C4  UNL     1     -34.182  16.706  -2.850  1.00 20.00     0.004 C 
HETATM    5  C5  UNL     1     -33.263  15.729  -3.593  1.00 20.00     0.086 C 
HETATM    6 CL10 UNL     1     -33.912  14.066  -3.668  1.00 20.00    -0.125 Cl
ENDROOT
BRANCH   4   7
HETATM    7  C8  UNL     1     -34.707  16.244  -1.500  1.00 20.00     0.010 C 
BRANCH   7   8
HETATM    8  C9  UNL     1     -34.316  17.172  -0.335  1.00 20.00    -0.022 C 
HETATM    9  C6  UNL     1     -33.292  18.227  -0.751  1.00 20.00     0.009 C 
HETATM   10  C7  UNL     1     -35.565  17.856   0.227  1.00 20.00     0.009 C 
ENDBRANCH   7   8
ENDBRANCH   4   7
TORSDOF 2
ENDMDL
MODEL 5
REMARK VINA RESULT:      -4.2     11.765     12.752
REMARK  2 active torsions:
REMARK  status: ('A' for Active; 'I' for Inactive)
REMARK    1  A    between atoms: C4_4  and  C8_8 
REMARK    2  A    between atoms: C8_8  and  C9_9 
ROOT
HETATM    1  C1  UNL     1     -35.799  15.041  -5.561  1.00 20.00     0.002 C 
HETATM    2  C2  UNL     1     -36.120  15.361  -4.097  1.00 20.00     0.006 C 
HETATM    3  C3  UNL     1     -34.306  15.325  -5.744  1.00 20.00     0.020 C 
HETATM    4  C4  UNL     1     -34.828  15.941  -3.512  1.00 20.00     0.004 C 
HETATM    5  C5  UNL     1     -33.718  15.280  -4.338  1.00 20.00     0.086 C 
HETATM    6 CL10 UNL     1     -33.395  13.587  -3.862  1.00 20.00    -0.125 Cl
ENDROOT
BRANCH   4   7
HETATM    7  C8  UNL     1     -34.727  15.789  -2.002  1.00 20.00     0.010 C 
BRANCH   7   8
HETATM    8  C9  UNL     1     -34.023  16.970  -1.309  1.00 20.00    -0.022 C 
HETATM    9  C6  UNL     1     -33.964  18.214  -2.196  1.00 20.00     0.009 C 
HETATM   10  C7  UNL     1     -34.737  17.303   0.003  1.00 20.00     0.009 C 
ENDBRANCH   7   8
ENDBRANCH   4   7
TORSDOF 2
ENDMDL
MODEL 6
REMARK VINA RESULT:      -3.9     11.664     13.449
REMARK  2 active torsions:
REMARK  status: ('A' for Active; 'I' for Inactive)
REMARK    1  A    between atoms: C4_4  and  C8_8 
REMARK    2  A    between atoms: C8_8  and  C9_9 
ROOT
HETATM    1  C1  UNL     1     -33.418  13.725  -3.787  1.00 20.00     0.002 C 
HETATM    2  C2  UNL     1     -33.584  15.230  -3.549  1.00 20.00     0.006 C 
HETATM    3  C3  UNL     1     -34.676  13.267  -4.528  1.00 20.00     0.020 C 
HETATM    4  C4  UNL     1     -34.992  15.570  -4.048  1.00 20.00     0.004 C 
HETATM    5  C5  UNL     1     -35.256  14.534  -5.148  1.00 20.00     0.086 C 
HETATM    6 CL10 UNL     1     -34.418  14.905  -6.683  1.00 20.00    -0.125 Cl
ENDROOT
BRANCH   4   7
HETATM    7  C8  UNL     1     -35.157  17.029  -4.442  1.00 20.00     0.010 C 
BRANCH   7   8
HETATM    8  C9  UNL     1     -33.826  17.797  -4.534  1.00 20.00    -0.022 C 
HETATM    9  C6  UNL     1     -33.605  18.416  -5.914  1.00 20.00     0.009 C 
HETATM   10  C7  UNL     1     -33.782  18.890  -3.463  1.00 20.00     0.009 C 
ENDBRANCH   7   8
ENDBRANCH   4   7
TORSDOF 2
ENDMDL
MODEL 7
REMARK VINA RESULT:      -3.9     11.328     13.469
REMARK  2 active torsions:
REMARK  status: ('A' for Active; 'I' for Inactive)
REMARK    1  A    between atoms: C4_4  and  C8_8 
REMARK    2  A    between atoms: C8_8  and  C9_9 
ROOT
HETATM    1  C1  UNL     1     -34.791  13.358  -4.237  1.00 20.00     0.002 C 
HETATM    2  C2  UNL     1     -35.376  14.537  -5.022  1.00 20.00     0.006 C 
HETATM    3  C3  UNL     1     -33.404  13.802  -3.766  1.00 20.00     0.020 C 
HETATM    4  C4  UNL     1     -34.256  15.580  -5.087  1.00 20.00     0.004 C 
HETATM    5  C5  UNL     1     -33.437  15.326  -3.815  1.00 20.00     0.086 C 
HETATM    6 CL10 UNL     1     -34.209  15.971  -2.337  1.00 20.00    -0.125 Cl
ENDROOT
BRANCH   4   7
HETATM    7  C8  UNL     1     -34.764  17.000  -5.289  1.00 20.00     0.010 C 
BRANCH   7   8
HETATM    8  C9  UNL     1     -33.666  17.994  -5.711  1.00 20.00    -0.022 C 
HETATM    9  C6  UNL     1     -33.970  18.662  -7.051  1.00 20.00     0.009 C 
HETATM   10  C7  UNL     1     -33.487  19.061  -4.629  1.00 20.00     0.009 C 
ENDBRANCH   7   8
ENDBRANCH   4   7
TORSDOF 2
ENDMDL
MODEL 8
REMARK VINA RESULT:      -3.9     11.826     13.582
REMARK  2 active torsions:
REMARK  status: ('A' for Active; 'I' for Inactive)
REMARK    1  A    between atoms: C4_4  and  C8_8 
REMARK    2  A    between atoms: C8_8  and  C9_9 
ROOT
HETATM    1  C1  UNL     1     -33.911  16.701  -2.403  1.00 20.00     0.002 C 
HETATM    2  C2  UNL     1     -33.571  17.042  -3.859  1.00 20.00     0.006 C 
HETATM    3  C3  UNL     1     -34.901  15.536  -2.456  1.00 20.00     0.020 C 
HETATM    4  C4  UNL     1     -34.475  16.145  -4.710  1.00 20.00     0.004 C 
HETATM    5  C5  UNL     1     -34.704  14.909  -3.832  1.00 20.00     0.086 C 
HETATM    6 CL10 UNL     1     -33.307  13.794  -3.803  1.00 20.00    -0.125 Cl
ENDROOT
BRANCH   4   7
HETATM    7  C8  UNL     1     -33.929  15.889  -6.106  1.00 20.00     0.010 C 
BRANCH   7   8
HETATM    8  C9  UNL     1     -35.011  15.890  -7.202  1.00 20.00    -0.022 C 
HETATM    9  C6  UNL     1     -35.413  14.477  -7.624  1.00 20.00     0.009 C 
HETATM   10  C7  UNL     1     -36.244  16.656  -6.715  1.00 20.00     0.009 C 
ENDBRANCH   7   8
ENDBRANCH   4   7
TORSDOF 2
ENDMDL
MODEL 9
REMARK VINA RESULT:      -3.9     11.281     12.911
REMARK  2 active torsions:
REMARK  status: ('A' for Active; 'I' for Inactive)
REMARK    1  A    between atoms: C4_4  and  C8_8 
REMARK    2  A    between atoms: C8_8  and  C9_9 
ROOT
HETATM    1  C1  UNL     1     -33.579  13.666  -3.830  1.00 20.00     0.002 C 
HETATM    2  C2  UNL     1     -34.993  13.978  -4.332  1.00 20.00     0.006 C 
HETATM    3  C3  UNL     1     -32.891  15.016  -3.620  1.00 20.00     0.020 C 
HETATM    4  C4  UNL     1     -35.035  15.498  -4.517  1.00 20.00     0.004 C 
HETATM    5  C5  UNL     1     -34.027  16.025  -3.488  1.00 20.00     0.086 C 
HETATM    6 CL10 UNL     1     -34.658  16.022  -1.815  1.00 20.00    -0.125 Cl
ENDROOT
BRANCH   4   7
HETATM    7  C8  UNL     1     -36.439  16.078  -4.443  1.00 20.00     0.010 C 
BRANCH   7   8
HETATM    8  C9  UNL     1     -37.547  15.046  -4.722  1.00 20.00    -0.022 C 
HETATM    9  C6  UNL     1     -38.589  14.994  -3.604  1.00 20.00     0.009 C 
HETATM   10  C7  UNL     1     -38.232  15.365  -6.053  1.00 20.00     0.009 C 
ENDBRANCH   7   8
ENDBRANCH   4   7
TORSDOF 2
ENDMDL
