MODEL 1
REMARK VINA RESULT:      -5.6      0.000      0.000
REMARK  3 active torsions:
REMARK  status: ('A' for Active; 'I' for Inactive)
REMARK    1  A    between atoms: C4_4  and  C7_7 
REMARK    2  A    between atoms: C7_7  and  C9_9 
REMARK    3  A    between atoms: C8_8  and  C9_9 
ROOT
HETATM    1  C1  UNL     1     -34.490   5.754   6.398  1.00 20.00     0.002 C 
HETATM    2  C2  UNL     1     -33.652   6.579   5.416  1.00 20.00     0.006 C 
HETATM    3  C3  UNL     1     -34.869   4.469   5.661  1.00 20.00     0.020 C 
HETATM    4  C4  UNL     1     -33.499   5.703   4.170  1.00 20.00     0.004 C 
HETATM    5  C5  UNL     1     -34.749   4.814   4.180  1.00 20.00     0.086 C 
HETATM    6 CL10 UNL     1     -36.229   5.661   3.634  1.00 20.00    -0.125 Cl
ENDROOT
BRANCH   4   7
HETATM    7  C7  UNL     1     -33.259   6.479   2.912  1.00 20.00     0.006 C 
BRANCH   7   8
HETATM    8  C9  UNL     1     -32.097   7.458   3.070  1.00 20.00     0.000 C 
BRANCH   8   9
HETATM    9  C8  UNL     1     -31.804   8.189   1.759  1.00 20.00    -0.005 C 
HETATM   10  C6  UNL     1     -32.520   9.530   1.699  1.00 20.00     0.005 C 
ENDBRANCH   8   9
ENDBRANCH   7   8
ENDBRANCH   4   7
TORSDOF 3
ENDMDL
MODEL 2
REMARK VINA RESULT:      -4.5     11.247     12.008
REMARK  3 active torsions:
REMARK  status: ('A' for Active; 'I' for Inactive)
REMARK    1  A    between atoms: C4_4  and  C7_7 
REMARK    2  A    between atoms: C7_7  and  C9_9 
REMARK    3  A    between atoms: C8_8  and  C9_9 
ROOT
HETATM    1  C1  UNL     1     -35.105  13.595  -4.564  1.00 20.00     0.002 C 
HETATM    2  C2  UNL     1     -35.842  14.638  -3.719  1.00 20.00     0.006 C 
HETATM    3  C3  UNL     1     -33.655  13.596  -4.076  1.00 20.00     0.020 C 
HETATM    4  C4  UNL     1     -34.813  15.148  -2.706  1.00 20.00     0.004 C 
HETATM    5  C5  UNL     1     -33.464  14.957  -3.412  1.00 20.00     0.086 C 
HETATM    6 CL10 UNL     1     -33.132  16.197  -4.659  1.00 20.00    -0.125 Cl
ENDROOT
BRANCH   4   7
HETATM    7  C7  UNL     1     -35.096  16.529  -2.201  1.00 20.00     0.006 C 
BRANCH   7   8
HETATM    8  C9  UNL     1     -34.577  16.722  -0.777  1.00 20.00     0.000 C 
BRANCH   8   9
HETATM    9  C8  UNL     1     -33.510  17.817  -0.718  1.00 20.00    -0.005 C 
HETATM   10  C6  UNL     1     -33.535  18.686  -1.966  1.00 20.00     0.005 C 
ENDBRANCH   8   9
ENDBRANCH   7   8
ENDBRANCH   4   7
TORSDOF 3
ENDMDL
MODEL 3
REMARK VINA RESULT:      -4.4     11.169     12.194
REMARK  3 active torsions:
REMARK  status: ('A' for Active; 'I' for Inactive)
REMARK    1  A    between atoms: C4_4  and  C7_7 
REMARK    2  A    between atoms: C7_7  and  C9_9 
REMARK    3  A    between atoms: C8_8  and  C9_9 
ROOT
HETATM    1  C1  UNL     1     -34.388  15.316  -6.007  1.00 20.00     0.002 C 
HETATM    2  C2  UNL     1     -34.508  16.198  -4.760  1.00 20.00     0.006 C 
HETATM    3  C3  UNL     1     -34.885  13.928  -5.598  1.00 20.00     0.020 C 
HETATM    4  C4  UNL     1     -35.154  15.312  -3.691  1.00 20.00     0.004 C 
HETATM    5  C5  UNL     1     -34.736  13.888  -4.079  1.00 20.00     0.086 C 
HETATM    6 CL10 UNL     1     -33.043  13.501  -3.648  1.00 20.00    -0.125 Cl
ENDROOT
BRANCH   4   7
HETATM    7  C7  UNL     1     -34.833  15.727  -2.288  1.00 20.00     0.006 C 
BRANCH   7   8
HETATM    8  C9  UNL     1     -33.696  16.746  -2.252  1.00 20.00     0.000 C 
BRANCH   8   9
HETATM    9  C8  UNL     1     -33.689  17.525  -0.936  1.00 20.00    -0.005 C 
HETATM   10  C6  UNL     1     -34.865  17.137  -0.054  1.00 20.00     0.005 C 
ENDBRANCH   8   9
ENDBRANCH   7   8
ENDBRANCH   4   7
TORSDOF 3
ENDMDL
MODEL 4
REMARK VINA RESULT:      -4.3     11.422     12.671
REMARK  3 active torsions:
REMARK  status: ('A' for Active; 'I' for Inactive)
REMARK    1  A    between atoms: C4_4  and  C7_7 
REMARK    2  A    between atoms: C7_7  and  C9_9 
REMARK    3  A    between atoms: C8_8  and  C9_9 
ROOT
HETATM    1  C1  UNL     1     -33.946  15.876  -6.308  1.00 20.00     0.002 C 
HETATM    2  C2  UNL     1     -33.463  16.694  -5.106  1.00 20.00     0.006 C 
HETATM    3  C3  UNL     1     -35.045  14.951  -5.781  1.00 20.00     0.020 C 
HETATM    4  C4  UNL     1     -34.362  16.278  -3.938  1.00 20.00     0.004 C 
HETATM    5  C5  UNL     1     -34.784  14.844  -4.282  1.00 20.00     0.086 C 
HETATM    6 CL10 UNL     1     -33.503  13.632  -3.976  1.00 20.00    -0.125 Cl
ENDROOT
BRANCH   4   7
HETATM    7  C7  UNL     1     -33.731  16.469  -2.593  1.00 20.00     0.006 C 
BRANCH   7   8
HETATM    8  C9  UNL     1     -34.737  16.244  -1.466  1.00 20.00     0.000 C 
BRANCH   8   9
HETATM    9  C8  UNL     1     -34.505  17.221  -0.312  1.00 20.00    -0.005 C 
HETATM   10  C6  UNL     1     -33.315  18.128  -0.582  1.00 20.00     0.005 C 
ENDBRANCH   8   9
ENDBRANCH   7   8
ENDBRANCH   4   7
TORSDOF 3
ENDMDL
MODEL 5
REMARK VINA RESULT:      -4.3      1.627      2.073
REMARK  3 active torsions:
REMARK  status: ('A' for Active; 'I' for Inactive)
REMARK    1  A    between atoms: C4_4  and  C7_7 
REMARK    2  A    between atoms: C7_7  and  C9_9 
REMARK    3  A    between atoms: C8_8  and  C9_9 
ROOT
HETATM    1  C1  UNL     1     -34.424   3.811   5.912  1.00 20.00     0.002 C 
HETATM    2  C2  UNL     1     -34.059   4.336   4.521  1.00 20.00     0.006 C 
HETATM    3  C3  UNL     1     -35.202   4.933   6.603  1.00 20.00     0.020 C 
HETATM    4  C4  UNL     1     -34.716   5.716   4.417  1.00 20.00     0.004 C 
HETATM    5  C5  UNL     1     -34.789   6.206   5.869  1.00 20.00     0.086 C 
HETATM    6 CL10 UNL     1     -33.221   6.789   6.505  1.00 20.00    -0.125 Cl
ENDROOT
BRANCH   4   7
HETATM    7  C7  UNL     1     -34.036   6.637   3.451  1.00 20.00     0.006 C 
BRANCH   7   8
HETATM    8  C9  UNL     1     -32.587   6.221   3.206  1.00 20.00     0.000 C 
BRANCH   8   9
HETATM    9  C8  UNL     1     -31.668   7.440   3.108  1.00 20.00    -0.005 C 
HETATM   10  C6  UNL     1     -32.038   8.321   1.925  1.00 20.00     0.005 C 
ENDBRANCH   8   9
ENDBRANCH   7   8
ENDBRANCH   4   7
TORSDOF 3
ENDMDL
MODEL 6
REMARK VINA RESULT:      -4.3     11.429     12.494
REMARK  3 active torsions:
REMARK  status: ('A' for Active; 'I' for Inactive)
REMARK    1  A    between atoms: C4_4  and  C7_7 
REMARK    2  A    between atoms: C7_7  and  C9_9 
REMARK    3  A    between atoms: C8_8  and  C9_9 
ROOT
HETATM    1  C1  UNL     1     -34.850  13.592  -5.250  1.00 20.00     0.002 C 
HETATM    2  C2  UNL     1     -34.358  14.054  -3.875  1.00 20.00     0.006 C 
HETATM    3  C3  UNL     1     -34.484  14.706  -6.232  1.00 20.00     0.020 C 
HETATM    4  C4  UNL     1     -33.641  15.384  -4.121  1.00 20.00     0.004 C 
HETATM    5  C5  UNL     1     -34.327  15.955  -5.369  1.00 20.00     0.086 C 
HETATM    6 CL10 UNL     1     -35.936  16.666  -5.035  1.00 20.00    -0.125 Cl
ENDROOT
BRANCH   4   7
HETATM    7  C7  UNL     1     -33.611  16.284  -2.924  1.00 20.00     0.006 C 
BRANCH   7   8
HETATM    8  C9  UNL     1     -34.661  15.878  -1.891  1.00 20.00     0.000 C 
BRANCH   8   9
HETATM    9  C8  UNL     1     -34.874  16.980  -0.853  1.00 20.00    -0.005 C 
HETATM   10  C6  UNL     1     -33.599  17.773  -0.613  1.00 20.00     0.005 C 
ENDBRANCH   8   9
ENDBRANCH   7   8
ENDBRANCH   4   7
TORSDOF 3
ENDMDL
MODEL 7
REMARK VINA RESULT:      -4.2      9.429     10.838
REMARK  3 active torsions:
REMARK  status: ('A' for Active; 'I' for Inactive)
REMARK    1  A    between atoms: C4_4  and  C7_7 
REMARK    2  A    between atoms: C7_7  and  C9_9 
REMARK    3  A    between atoms: C8_8  and  C9_9 
ROOT
HETATM    1  C1  UNL     1     -41.336   7.066  -1.255  1.00 20.00     0.002 C 
HETATM    2  C2  UNL     1     -41.917   6.037  -2.230  1.00 20.00     0.006 C 
HETATM    3  C3  UNL     1     -40.618   6.266  -0.166  1.00 20.00     0.020 C 
HETATM    4  C4  UNL     1     -41.440   4.674  -1.720  1.00 20.00     0.004 C 
HETATM    5  C5  UNL     1     -41.256   4.880  -0.211  1.00 20.00     0.086 C 
HETATM    6 CL10 UNL     1     -42.797   4.894   0.699  1.00 20.00    -0.125 Cl
ENDROOT
BRANCH   4   7
HETATM    7  C7  UNL     1     -42.328   3.536  -2.120  1.00 20.00     0.006 C 
BRANCH   7   8
HETATM    8  C9  UNL     1     -41.647   2.625  -3.140  1.00 20.00     0.000 C 
BRANCH   8   9
HETATM    9  C8  UNL     1     -42.463   1.355  -3.382  1.00 20.00    -0.005 C 
HETATM   10  C6  UNL     1     -41.613   0.257  -4.003  1.00 20.00     0.005 C 
ENDBRANCH   8   9
ENDBRANCH   7   8
ENDBRANCH   4   7
TORSDOF 3
ENDMDL
MODEL 8
REMARK VINA RESULT:      -4.1     10.795     12.188
REMARK  3 active torsions:
REMARK  status: ('A' for Active; 'I' for Inactive)
REMARK    1  A    between atoms: C4_4  and  C7_7 
REMARK    2  A    between atoms: C7_7  and  C9_9 
REMARK    3  A    between atoms: C8_8  and  C9_9 
ROOT
HETATM    1  C1  UNL     1     -33.421  13.522  -3.822  1.00 20.00     0.002 C 
HETATM    2  C2  UNL     1     -33.137  15.018  -3.651  1.00 20.00     0.006 C 
HETATM    3  C3  UNL     1     -34.540  13.416  -4.860  1.00 20.00     0.020 C 
HETATM    4  C4  UNL     1     -34.042  15.726  -4.663  1.00 20.00     0.004 C 
HETATM    5  C5  UNL     1     -35.233  14.775  -4.832  1.00 20.00     0.086 C 
HETATM    6 CL10 UNL     1     -36.391  14.835  -3.469  1.00 20.00    -0.125 Cl
ENDROOT
BRANCH   4   7
HETATM    7  C7  UNL     1     -34.380  17.136  -4.287  1.00 20.00     0.006 C 
BRANCH   7   8
HETATM    8  C9  UNL     1     -33.767  17.519  -2.941  1.00 20.00     0.000 C 
BRANCH   8   9
HETATM    9  C8  UNL     1     -34.844  17.679  -1.866  1.00 20.00    -0.005 C 
HETATM   10  C6  UNL     1     -34.643  16.693  -0.727  1.00 20.00     0.005 C 
ENDBRANCH   8   9
ENDBRANCH   7   8
ENDBRANCH   4   7
TORSDOF 3
ENDMDL
MODEL 9
REMARK VINA RESULT:      -4.0     11.486     12.933
REMARK  3 active torsions:
REMARK  status: ('A' for Active; 'I' for Inactive)
REMARK    1  A    between atoms: C4_4  and  C7_7 
REMARK    2  A    between atoms: C7_7  and  C9_9 
REMARK    3  A    between atoms: C8_8  and  C9_9 
ROOT
HETATM    1  C1  UNL     1     -35.891  16.749  -2.608  1.00 20.00     0.002 C 
HETATM    2  C2  UNL     1     -35.353  17.097  -3.999  1.00 20.00     0.006 C 
HETATM    3  C3  UNL     1     -34.709  16.176  -1.824  1.00 20.00     0.020 C 
HETATM    4  C4  UNL     1     -33.852  16.795  -3.947  1.00 20.00     0.004 C 
HETATM    5  C5  UNL     1     -33.728  15.692  -2.888  1.00 20.00     0.086 C 
HETATM    6 CL10 UNL     1     -34.225  14.078  -3.479  1.00 20.00    -0.125 Cl
ENDROOT
BRANCH   4   7
HETATM    7  C7  UNL     1     -33.251  16.487  -5.284  1.00 20.00     0.006 C 
BRANCH   7   8
HETATM    8  C9  UNL     1     -34.320  16.406  -6.373  1.00 20.00     0.000 C 
BRANCH   8   9
HETATM    9  C8  UNL     1     -34.331  15.028  -7.038  1.00 20.00    -0.005 C 
HETATM   10  C6  UNL     1     -35.748  14.569  -7.342  1.00 20.00     0.005 C 
ENDBRANCH   8   9
ENDBRANCH   7   8
ENDBRANCH   4   7
TORSDOF 3
ENDMDL
