MODEL 1
REMARK VINA RESULT:      -4.7      0.000      0.000
REMARK  3 active torsions:
REMARK  status: ('A' for Active; 'I' for Inactive)
REMARK    1  A    between atoms: C4_4  and  C5_5 
REMARK    2  A    between atoms: C5_5  and  C6_6 
REMARK    3  A    between atoms: C6_6  and  C7_7 
ROOT
HETATM    1  C2  UNL     1     -34.593   5.381   2.852  1.00 20.00     0.011 C 
HETATM    2  C6  UNL     1     -33.735   5.592   4.107  1.00 20.00    -0.001 C 
ENDROOT
BRANCH   2   3
HETATM    3  C5  UNL     1     -32.800   6.815   3.960  1.00 20.00     0.005 C 
BRANCH   3   4
HETATM    4  C4  UNL     1     -32.079   6.946   2.612  1.00 20.00    -0.004 C 
HETATM    5  C1  UNL     1     -32.094   8.357   2.045  1.00 20.00     0.005 C 
ENDBRANCH   3   4
ENDBRANCH   2   3
BRANCH   2   6
HETATM    6  C7  UNL     1     -34.624   5.653   5.379  1.00 20.00     0.082 C 
HETATM    7  C3  UNL     1     -34.886   4.285   6.003  1.00 20.00     0.027 C 
HETATM    8 CL8  UNL     1     -33.948   6.742   6.630  1.00 20.00    -0.125 Cl
ENDBRANCH   2   6
TORSDOF 3
ENDMDL
MODEL 2
REMARK VINA RESULT:      -4.4      1.722      2.044
REMARK  3 active torsions:
REMARK  status: ('A' for Active; 'I' for Inactive)
REMARK    1  A    between atoms: C4_4  and  C5_5 
REMARK    2  A    between atoms: C5_5  and  C6_6 
REMARK    3  A    between atoms: C6_6  and  C7_7 
ROOT
HETATM    1  C2  UNL     1     -33.645   6.531   5.850  1.00 20.00     0.011 C 
HETATM    2  C6  UNL     1     -33.866   6.357   4.341  1.00 20.00    -0.001 C 
ENDROOT
BRANCH   2   3
HETATM    3  C5  UNL     1     -32.525   6.224   3.580  1.00 20.00     0.005 C 
BRANCH   3   4
HETATM    4  C4  UNL     1     -31.753   7.530   3.355  1.00 20.00    -0.004 C 
HETATM    5  C1  UNL     1     -32.080   8.214   2.037  1.00 20.00     0.005 C 
ENDBRANCH   3   4
ENDBRANCH   2   3
BRANCH   2   6
HETATM    6  C7  UNL     1     -34.846   5.186   4.059  1.00 20.00     0.082 C 
HETATM    7  C3  UNL     1     -35.098   4.299   5.275  1.00 20.00     0.027 C 
HETATM    8 CL8  UNL     1     -36.420   5.756   3.420  1.00 20.00    -0.125 Cl
ENDBRANCH   2   6
TORSDOF 3
ENDMDL
MODEL 3
REMARK VINA RESULT:      -4.3      1.642      2.266
REMARK  3 active torsions:
REMARK  status: ('A' for Active; 'I' for Inactive)
REMARK    1  A    between atoms: C4_4  and  C5_5 
REMARK    2  A    between atoms: C5_5  and  C6_6 
REMARK    3  A    between atoms: C6_6  and  C7_7 
ROOT
HETATM    1  C2  UNL     1     -33.800   6.414   5.950  1.00 20.00     0.011 C 
HETATM    2  C6  UNL     1     -33.850   6.515   4.419  1.00 20.00    -0.001 C 
ENDROOT
BRANCH   2   3
HETATM    3  C5  UNL     1     -32.445   6.353   3.791  1.00 20.00     0.005 C 
BRANCH   3   4
HETATM    4  C4  UNL     1     -31.729   7.656   3.411  1.00 20.00    -0.004 C 
HETATM    5  C1  UNL     1     -32.102   8.178   2.032  1.00 20.00     0.005 C 
ENDBRANCH   3   4
ENDBRANCH   2   3
BRANCH   2   6
HETATM    6  C7  UNL     1     -34.897   5.529   3.836  1.00 20.00     0.082 C 
HETATM    7  C3  UNL     1     -34.545   5.024   2.440  1.00 20.00     0.027 C 
HETATM    8 CL8  UNL     1     -35.176   4.121   4.909  1.00 20.00    -0.125 Cl
ENDBRANCH   2   6
TORSDOF 3
ENDMDL
MODEL 4
REMARK VINA RESULT:      -4.1      1.428      3.991
REMARK  3 active torsions:
REMARK  status: ('A' for Active; 'I' for Inactive)
REMARK    1  A    between atoms: C4_4  and  C5_5 
REMARK    2  A    between atoms: C5_5  and  C6_6 
REMARK    3  A    between atoms: C6_6  and  C7_7 
ROOT
HETATM    1  C2  UNL     1     -33.996   5.441   2.605  1.00 20.00     0.011 C 
HETATM    2  C6  UNL     1     -33.541   6.605   3.496  1.00 20.00    -0.001 C 
ENDROOT
BRANCH   2   3
HETATM    3  C5  UNL     1     -33.645   6.248   4.998  1.00 20.00     0.005 C 
BRANCH   3   4
HETATM    4  C4  UNL     1     -34.900   5.470   5.414  1.00 20.00    -0.004 C 
HETATM    5  C1  UNL     1     -34.604   4.087   5.972  1.00 20.00     0.005 C 
ENDBRANCH   3   4
ENDBRANCH   2   3
BRANCH   2   6
HETATM    6  C7  UNL     1     -32.128   7.096   3.081  1.00 20.00     0.082 C 
HETATM    7  C3  UNL     1     -32.146   8.095   1.928  1.00 20.00     0.027 C 
HETATM    8 CL8  UNL     1     -31.226   7.812   4.455  1.00 20.00    -0.125 Cl
ENDBRANCH   2   6
TORSDOF 3
ENDMDL
MODEL 5
REMARK VINA RESULT:      -3.8     11.902     12.601
REMARK  3 active torsions:
REMARK  status: ('A' for Active; 'I' for Inactive)
REMARK    1  A    between atoms: C4_4  and  C5_5 
REMARK    2  A    between atoms: C5_5  and  C6_6 
REMARK    3  A    between atoms: C6_6  and  C7_7 
ROOT
HETATM    1  C2  UNL     1     -33.319  16.526  -4.750  1.00 20.00     0.011 C 
HETATM    2  C6  UNL     1     -33.535  15.239  -3.941  1.00 20.00    -0.001 C 
ENDROOT
BRANCH   2   3
HETATM    3  C5  UNL     1     -34.348  15.506  -2.652  1.00 20.00     0.005 C 
BRANCH   3   4
HETATM    4  C4  UNL     1     -33.910  16.724  -1.827  1.00 20.00    -0.004 C 
HETATM    5  C1  UNL     1     -34.655  16.869  -0.510  1.00 20.00     0.005 C 
ENDBRANCH   3   4
ENDBRANCH   2   3
BRANCH   2   6
HETATM    6  C7  UNL     1     -34.151  14.126  -4.831  1.00 20.00     0.082 C 
HETATM    7  C3  UNL     1     -35.427  13.522  -4.252  1.00 20.00     0.027 C 
HETATM    8 CL8  UNL     1     -34.482  14.694  -6.498  1.00 20.00    -0.125 Cl
ENDBRANCH   2   6
TORSDOF 3
ENDMDL
MODEL 6
REMARK VINA RESULT:      -3.8      1.132      3.693
REMARK  3 active torsions:
REMARK  status: ('A' for Active; 'I' for Inactive)
REMARK    1  A    between atoms: C4_4  and  C5_5 
REMARK    2  A    between atoms: C5_5  and  C6_6 
REMARK    3  A    between atoms: C6_6  and  C7_7 
ROOT
HETATM    1  C2  UNL     1     -34.067   5.151   2.164  1.00 20.00     0.011 C 
HETATM    2  C6  UNL     1     -34.387   5.927   3.449  1.00 20.00    -0.001 C 
ENDROOT
BRANCH   2   3
HETATM    3  C5  UNL     1     -35.480   5.221   4.284  1.00 20.00     0.005 C 
BRANCH   3   4
HETATM    4  C4  UNL     1     -35.009   4.033   5.133  1.00 20.00    -0.004 C 
HETATM    5  C1  UNL     1     -35.162   4.252   6.630  1.00 20.00     0.005 C 
ENDBRANCH   3   4
ENDBRANCH   2   3
BRANCH   2   6
HETATM    6  C7  UNL     1     -33.091   6.213   4.256  1.00 20.00     0.082 C 
HETATM    7  C3  UNL     1     -32.060   7.027   3.480  1.00 20.00     0.027 C 
HETATM    8 CL8  UNL     1     -33.427   7.035   5.812  1.00 20.00    -0.125 Cl
ENDBRANCH   2   6
TORSDOF 3
ENDMDL
MODEL 7
REMARK VINA RESULT:      -3.7     11.900     13.063
REMARK  3 active torsions:
REMARK  status: ('A' for Active; 'I' for Inactive)
REMARK    1  A    between atoms: C4_4  and  C5_5 
REMARK    2  A    between atoms: C5_5  and  C6_6 
REMARK    3  A    between atoms: C6_6  and  C7_7 
ROOT
HETATM    1  C2  UNL     1     -33.643  17.358  -4.873  1.00 20.00     0.011 C 
HETATM    2  C6  UNL     1     -33.446  15.867  -4.567  1.00 20.00    -0.001 C 
ENDROOT
BRANCH   2   3
HETATM    3  C5  UNL     1     -33.435  15.594  -3.044  1.00 20.00     0.005 C 
BRANCH   3   4
HETATM    4  C4  UNL     1     -34.750  15.873  -2.306  1.00 20.00    -0.004 C 
HETATM    5  C1  UNL     1     -34.567  16.609  -0.988  1.00 20.00     0.005 C 
ENDBRANCH   3   4
ENDBRANCH   2   3
BRANCH   2   6
HETATM    6  C7  UNL     1     -34.485  15.006  -5.334  1.00 20.00     0.082 C 
HETATM    7  C3  UNL     1     -34.345  15.093  -6.851  1.00 20.00     0.027 C 
HETATM    8 CL8  UNL     1     -34.435  13.283  -4.845  1.00 20.00    -0.125 Cl
ENDBRANCH   2   6
TORSDOF 3
ENDMDL
MODEL 8
REMARK VINA RESULT:      -3.7     11.603     12.894
REMARK  3 active torsions:
REMARK  status: ('A' for Active; 'I' for Inactive)
REMARK    1  A    between atoms: C4_4  and  C5_5 
REMARK    2  A    between atoms: C5_5  and  C6_6 
REMARK    3  A    between atoms: C6_6  and  C7_7 
ROOT
HETATM    1  C2  UNL     1     -33.830  13.742  -3.775  1.00 20.00     0.011 C 
HETATM    2  C6  UNL     1     -34.473  15.131  -3.658  1.00 20.00    -0.001 C 
ENDROOT
BRANCH   2   3
HETATM    3  C5  UNL     1     -33.808  15.975  -2.547  1.00 20.00     0.005 C 
BRANCH   3   4
HETATM    4  C4  UNL     1     -34.721  16.392  -1.387  1.00 20.00    -0.004 C 
HETATM    5  C1  UNL     1     -34.103  17.431  -0.465  1.00 20.00     0.005 C 
ENDBRANCH   3   4
ENDBRANCH   2   3
BRANCH   2   6
HETATM    6  C7  UNL     1     -34.497  15.845  -5.037  1.00 20.00     0.082 C 
HETATM    7  C3  UNL     1     -33.357  16.841  -5.224  1.00 20.00     0.027 C 
HETATM    8 CL8  UNL     1     -34.484  14.686  -6.403  1.00 20.00    -0.125 Cl
ENDBRANCH   2   6
TORSDOF 3
ENDMDL
MODEL 9
REMARK VINA RESULT:      -3.6     11.505     12.977
REMARK  3 active torsions:
REMARK  status: ('A' for Active; 'I' for Inactive)
REMARK    1  A    between atoms: C4_4  and  C5_5 
REMARK    2  A    between atoms: C5_5  and  C6_6 
REMARK    3  A    between atoms: C6_6  and  C7_7 
ROOT
HETATM    1  C2  UNL     1     -34.667  16.056  -1.902  1.00 20.00     0.011 C 
HETATM    2  C6  UNL     1     -33.655  16.265  -3.037  1.00 20.00    -0.001 C 
ENDROOT
BRANCH   2   3
HETATM    3  C5  UNL     1     -33.155  14.918  -3.611  1.00 20.00     0.005 C 
BRANCH   3   4
HETATM    4  C4  UNL     1     -34.169  13.767  -3.591  1.00 20.00    -0.004 C 
HETATM    5  C1  UNL     1     -34.710  13.405  -4.964  1.00 20.00     0.005 C 
ENDBRANCH   3   4
ENDBRANCH   2   3
BRANCH   2   6
HETATM    6  C7  UNL     1     -34.233  17.214  -4.122  1.00 20.00     0.082 C 
HETATM    7  C3  UNL     1     -33.514  17.111  -5.464  1.00 20.00     0.027 C 
HETATM    8 CL8  UNL     1     -35.988  16.961  -4.382  1.00 20.00    -0.125 Cl
ENDBRANCH   2   6
TORSDOF 3
ENDMDL
