MODEL 1
REMARK VINA RESULT:      -5.4      0.000      0.000
REMARK  0 active torsions:
REMARK  status: ('A' for Active; 'I' for Inactive)
ROOT
HETATM    1  C1  UNL     1     -34.857  15.581  -2.116  1.00 20.00     0.019 A 
HETATM    2  C2  UNL     1     -34.695  15.230  -3.459  1.00 20.00    -0.033 A 
HETATM    3  C3  UNL     1     -34.426  16.821  -1.660  1.00 20.00    -0.021 A 
HETATM    4  C4  UNL     1     -34.113  16.173  -4.311  1.00 20.00     0.042 A 
HETATM    5  C5  UNL     1     -33.849  17.679  -2.576  1.00 20.00     0.132 A 
HETATM    6  C6  UNL     1     -35.202  13.904  -3.956  1.00 20.00     0.040 C 
HETATM    7  C7  UNL     1     -33.875  15.865  -5.766  1.00 20.00     0.060 C 
HETATM    8  C8  UNL     1     -34.648  13.524  -5.329  1.00 20.00     0.005 C 
HETATM    9  C9  UNL     1     -34.728  14.709  -6.284  1.00 20.00     0.006 C 
HETATM   10  C10 UNL     1     -34.601  17.178  -0.224  1.00 20.00     0.051 C 
HETATM   11  N11 UNL     1     -33.680  17.387  -3.885  1.00 20.00    -0.240 NA
HETATM   12 CL12 UNL     1     -33.273  19.240  -2.139  1.00 20.00    -0.062 Cl
ENDROOT
TORSDOF 0
ENDMDL
MODEL 2
REMARK VINA RESULT:      -5.2      1.938      4.253
REMARK  0 active torsions:
REMARK  status: ('A' for Active; 'I' for Inactive)
ROOT
HETATM    1  C1  UNL     1     -34.715  15.068  -2.778  1.00 20.00     0.019 A 
HETATM    2  C2  UNL     1     -34.405  16.349  -2.311  1.00 20.00    -0.033 A 
HETATM    3  C3  UNL     1     -34.603  14.771  -4.130  1.00 20.00    -0.021 A 
HETATM    4  C4  UNL     1     -33.965  17.292  -3.245  1.00 20.00     0.042 A 
HETATM    5  C5  UNL     1     -34.174  15.775  -4.978  1.00 20.00     0.132 A 
HETATM    6  C6  UNL     1     -34.486  16.653  -0.840  1.00 20.00     0.040 C 
HETATM    7  C7  UNL     1     -33.639  18.703  -2.830  1.00 20.00     0.060 C 
HETATM    8  C8  UNL     1     -34.465  18.150  -0.532  1.00 20.00     0.005 C 
HETATM    9  C9  UNL     1     -33.371  18.844  -1.334  1.00 20.00     0.006 C 
HETATM   10  C10 UNL     1     -34.943  13.403  -4.613  1.00 20.00     0.051 C 
HETATM   11  N11 UNL     1     -33.855  17.023  -4.571  1.00 20.00    -0.240 NA
HETATM   12 CL12 UNL     1     -33.996  15.536  -6.671  1.00 20.00    -0.062 Cl
ENDROOT
TORSDOF 0
ENDMDL
MODEL 3
REMARK VINA RESULT:      -5.0      1.418      2.339
REMARK  0 active torsions:
REMARK  status: ('A' for Active; 'I' for Inactive)
ROOT
HETATM    1  C1  UNL     1     -33.659  17.548  -3.708  1.00 20.00     0.019 A 
HETATM    2  C2  UNL     1     -34.063  16.317  -4.234  1.00 20.00    -0.033 A 
HETATM    3  C3  UNL     1     -33.859  17.832  -2.363  1.00 20.00    -0.021 A 
HETATM    4  C4  UNL     1     -34.643  15.395  -3.358  1.00 20.00     0.042 A 
HETATM    5  C5  UNL     1     -34.455  16.862  -1.580  1.00 20.00     0.132 A 
HETATM    6  C6  UNL     1     -33.806  15.997  -5.681  1.00 20.00     0.040 C 
HETATM    7  C7  UNL     1     -35.133  14.058  -3.848  1.00 20.00     0.060 C 
HETATM    8  C8  UNL     1     -34.602  14.792  -6.182  1.00 20.00     0.005 C 
HETATM    9  C9  UNL     1     -34.519  13.644  -5.183  1.00 20.00     0.006 C 
HETATM   10  C10 UNL     1     -33.428  19.151  -1.819  1.00 20.00     0.051 C 
HETATM   11  N11 UNL     1     -34.853  15.656  -2.042  1.00 20.00    -0.240 NA
HETATM   12 CL12 UNL     1     -34.759  17.092   0.097  1.00 20.00    -0.062 Cl
ENDROOT
TORSDOF 0
ENDMDL
MODEL 4
REMARK VINA RESULT:      -4.9      2.273      4.836
REMARK  0 active torsions:
REMARK  status: ('A' for Active; 'I' for Inactive)
ROOT
HETATM    1  C1  UNL     1     -33.828  17.095  -4.542  1.00 20.00     0.019 A 
HETATM    2  C2  UNL     1     -33.919  17.387  -3.178  1.00 20.00    -0.033 A 
HETATM    3  C3  UNL     1     -34.188  15.838  -5.012  1.00 20.00    -0.021 A 
HETATM    4  C4  UNL     1     -34.399  16.386  -2.329  1.00 20.00     0.042 A 
HETATM    5  C5  UNL     1     -34.637  14.909  -4.093  1.00 20.00     0.132 A 
HETATM    6  C6  UNL     1     -33.569  18.763  -2.679  1.00 20.00     0.040 C 
HETATM    7  C7  UNL     1     -34.499  16.608  -0.842  1.00 20.00     0.060 C 
HETATM    8  C8  UNL     1     -33.378  18.824  -1.164  1.00 20.00     0.005 C 
HETATM    9  C9  UNL     1     -34.506  18.085  -0.454  1.00 20.00     0.006 C 
HETATM   10  C10 UNL     1     -34.081  15.540  -6.468  1.00 20.00     0.051 C 
HETATM   11  N11 UNL     1     -34.750  15.150  -2.768  1.00 20.00    -0.240 NA
HETATM   12 CL12 UNL     1     -35.110  13.320  -4.547  1.00 20.00    -0.062 Cl
ENDROOT
TORSDOF 0
ENDMDL
MODEL 5
REMARK VINA RESULT:      -4.8      3.422      4.056
REMARK  0 active torsions:
REMARK  status: ('A' for Active; 'I' for Inactive)
ROOT
HETATM    1  C1  UNL     1     -36.390  16.612  -3.033  1.00 20.00     0.019 A 
HETATM    2  C2  UNL     1     -35.390  15.685  -3.343  1.00 20.00    -0.033 A 
HETATM    3  C3  UNL     1     -37.724  16.305  -3.267  1.00 20.00    -0.021 A 
HETATM    4  C4  UNL     1     -35.787  14.452  -3.867  1.00 20.00     0.042 A 
HETATM    5  C5  UNL     1     -38.017  15.064  -3.803  1.00 20.00     0.132 A 
HETATM    6  C6  UNL     1     -33.951  16.006  -3.047  1.00 20.00     0.040 C 
HETATM    7  C7  UNL     1     -34.773  13.409  -4.256  1.00 20.00     0.060 C 
HETATM    8  C8  UNL     1     -32.968  15.070  -3.751  1.00 20.00     0.005 C 
HETATM    9  C9  UNL     1     -33.411  13.620  -3.599  1.00 20.00     0.006 C 
HETATM   10  C10 UNL     1     -38.779  17.305  -2.936  1.00 20.00     0.051 C 
HETATM   11  N11 UNL     1     -37.085  14.135  -4.109  1.00 20.00    -0.240 NA
HETATM   12 CL12 UNL     1     -39.627  14.564  -4.141  1.00 20.00    -0.062 Cl
ENDROOT
TORSDOF 0
ENDMDL
MODEL 6
REMARK VINA RESULT:      -4.7      1.827      2.136
REMARK  0 active torsions:
REMARK  status: ('A' for Active; 'I' for Inactive)
ROOT
HETATM    1  C1  UNL     1     -33.656  16.347  -2.075  1.00 20.00     0.019 A 
HETATM    2  C2  UNL     1     -34.293  15.484  -2.971  1.00 20.00    -0.033 A 
HETATM    3  C3  UNL     1     -34.368  17.374  -1.469  1.00 20.00    -0.021 A 
HETATM    4  C4  UNL     1     -35.656  15.683  -3.209  1.00 20.00     0.042 A 
HETATM    5  C5  UNL     1     -35.709  17.500  -1.779  1.00 20.00     0.132 A 
HETATM    6  C6  UNL     1     -33.528  14.346  -3.591  1.00 20.00     0.040 C 
HETATM    7  C7  UNL     1     -36.410  14.817  -4.183  1.00 20.00     0.060 C 
HETATM    8  C8  UNL     1     -34.242  13.724  -4.791  1.00 20.00     0.005 C 
HETATM    9  C9  UNL     1     -35.714  13.490  -4.474  1.00 20.00     0.006 C 
HETATM   10  C10 UNL     1     -33.674  18.290  -0.519  1.00 20.00     0.051 C 
HETATM   11  N11 UNL     1     -36.368  16.685  -2.632  1.00 20.00    -0.240 NA
HETATM   12 CL12 UNL     1     -36.699  18.731  -1.099  1.00 20.00    -0.062 Cl
ENDROOT
TORSDOF 0
ENDMDL
MODEL 7
REMARK VINA RESULT:      -4.7      2.433      4.666
REMARK  0 active torsions:
REMARK  status: ('A' for Active; 'I' for Inactive)
ROOT
HETATM    1  C1  UNL     1     -33.646  18.803  -4.498  1.00 20.00     0.019 A 
HETATM    2  C2  UNL     1     -33.815  18.065  -3.323  1.00 20.00    -0.033 A 
HETATM    3  C3  UNL     1     -33.812  18.195  -5.736  1.00 20.00    -0.021 A 
HETATM    4  C4  UNL     1     -34.172  16.719  -3.447  1.00 20.00     0.042 A 
HETATM    5  C5  UNL     1     -34.150  16.855  -5.756  1.00 20.00     0.132 A 
HETATM    6  C6  UNL     1     -33.677  18.739  -1.985  1.00 20.00     0.040 C 
HETATM    7  C7  UNL     1     -34.343  15.845  -2.233  1.00 20.00     0.060 C 
HETATM    8  C8  UNL     1     -33.538  17.753  -0.826  1.00 20.00     0.005 C 
HETATM    9  C9  UNL     1     -34.569  16.637  -0.947  1.00 20.00     0.006 C 
HETATM   10  C10 UNL     1     -33.624  18.994  -6.980  1.00 20.00     0.051 C 
HETATM   11  N11 UNL     1     -34.332  16.104  -4.647  1.00 20.00    -0.240 NA
HETATM   12 CL12 UNL     1     -34.381  15.986  -7.221  1.00 20.00    -0.062 Cl
ENDROOT
TORSDOF 0
ENDMDL
MODEL 8
REMARK VINA RESULT:      -4.6      1.944      4.274
REMARK  0 active torsions:
REMARK  status: ('A' for Active; 'I' for Inactive)
ROOT
HETATM    1  C1  UNL     1     -34.456  16.222  -4.280  1.00 20.00     0.019 A 
HETATM    2  C2  UNL     1     -34.279  16.845  -3.041  1.00 20.00    -0.033 A 
HETATM    3  C3  UNL     1     -34.209  16.920  -5.455  1.00 20.00    -0.021 A 
HETATM    4  C4  UNL     1     -33.830  18.168  -3.037  1.00 20.00     0.042 A 
HETATM    5  C5  UNL     1     -33.782  18.230  -5.349  1.00 20.00     0.132 A 
HETATM    6  C6  UNL     1     -34.507  16.071  -1.771  1.00 20.00     0.040 C 
HETATM    7  C7  UNL     1     -33.641  18.923  -1.747  1.00 20.00     0.060 C 
HETATM    8  C8  UNL     1     -34.619  16.962  -0.534  1.00 20.00     0.005 C 
HETATM    9  C9  UNL     1     -33.512  18.010  -0.530  1.00 20.00     0.006 C 
HETATM   10  C10 UNL     1     -34.408  16.244  -6.768  1.00 20.00     0.051 C 
HETATM   11  N11 UNL     1     -33.588  18.870  -4.175  1.00 20.00    -0.240 NA
HETATM   12 CL12 UNL     1     -33.444  19.202  -6.727  1.00 20.00    -0.062 Cl
ENDROOT
TORSDOF 0
ENDMDL
MODEL 9
REMARK VINA RESULT:      -4.6      2.525      4.573
REMARK  0 active torsions:
REMARK  status: ('A' for Active; 'I' for Inactive)
ROOT
HETATM    1  C1  UNL     1     -34.541  14.971  -2.907  1.00 20.00     0.019 A 
HETATM    2  C2  UNL     1     -35.020  16.135  -2.299  1.00 20.00    -0.033 A 
HETATM    3  C3  UNL     1     -35.021  14.584  -4.152  1.00 20.00    -0.021 A 
HETATM    4  C4  UNL     1     -35.968  16.890  -2.997  1.00 20.00     0.042 A 
HETATM    5  C5  UNL     1     -35.969  15.388  -4.756  1.00 20.00     0.132 A 
HETATM    6  C6  UNL     1     -34.465  16.572  -0.971  1.00 20.00     0.040 C 
HETATM    7  C7  UNL     1     -36.557  18.141  -2.401  1.00 20.00     0.060 C 
HETATM    8  C8  UNL     1     -35.318  17.639  -0.284  1.00 20.00     0.005 C 
HETATM    9  C9  UNL     1     -35.710  18.728  -1.275  1.00 20.00     0.006 C 
HETATM   10  C10 UNL     1     -34.504  13.337  -4.784  1.00 20.00     0.051 C 
HETATM   11  N11 UNL     1     -36.454  16.526  -4.211  1.00 20.00    -0.240 NA
HETATM   12 CL12 UNL     1     -36.643  15.019  -6.294  1.00 20.00    -0.062 Cl
ENDROOT
TORSDOF 0
ENDMDL
