MODEL 1
REMARK VINA RESULT:      -4.5      0.000      0.000
REMARK  4 active torsions:
REMARK  status: ('A' for Active; 'I' for Inactive)
REMARK    1  A    between atoms: C6_6  and  C7_7 
REMARK    2  A    between atoms: C7_7  and  C9_9 
REMARK    3  A    between atoms: C8_8  and  C9_9 
REMARK    4  A    between atoms: C8_8  and  N11_11 
ROOT
HETATM    1  C1  UNL     1     -36.742  14.369  -4.019  1.00 20.00     0.095 C 
HETATM    2  C8  UNL     1     -35.317  14.348  -4.392  1.00 20.00     0.331 C 
HETATM    3  N10 UNL     1     -37.865  14.380  -3.727  1.00 20.00    -0.195 NA
ENDROOT
BRANCH   2   4
HETATM    4  C9  UNL     1     -34.389  14.797  -3.227  1.00 20.00     0.029 C 
HETATM    5  C3  UNL     1     -33.003  15.253  -3.707  1.00 20.00     0.013 C 
BRANCH   4   6
HETATM    6  C7  UNL     1     -35.079  15.883  -2.365  1.00 20.00     0.007 C 
BRANCH   6   7
HETATM    7  C6  UNL     1     -34.105  16.688  -1.503  1.00 20.00    -0.004 C 
HETATM    8  C2  UNL     1     -34.740  17.092  -0.180  1.00 20.00     0.005 C 
ENDBRANCH   6   7
ENDBRANCH   4   6
ENDBRANCH   2   4
BRANCH   2   9
HETATM    9  N11 UNL     1     -35.107  15.184  -5.576  1.00 20.00     0.098 N 
HETATM   10  C4  UNL     1     -36.084  16.271  -5.611  1.00 20.00     0.311 C 
HETATM   11  C5  UNL     1     -35.195  14.377  -6.792  1.00 20.00     0.311 C 
ENDBRANCH   2   9
TORSDOF 4
ENDMDL
MODEL 2
REMARK VINA RESULT:      -4.4      1.566      2.199
REMARK  4 active torsions:
REMARK  status: ('A' for Active; 'I' for Inactive)
REMARK    1  A    between atoms: C6_6  and  C7_7 
REMARK    2  A    between atoms: C7_7  and  C9_9 
REMARK    3  A    between atoms: C8_8  and  C9_9 
REMARK    4  A    between atoms: C8_8  and  N11_11 
ROOT
HETATM    1  C1  UNL     1     -34.649  13.801  -4.784  1.00 20.00     0.095 C 
HETATM    2  C8  UNL     1     -34.506  15.267  -4.798  1.00 20.00     0.331 C 
HETATM    3  N10 UNL     1     -34.756  12.645  -4.774  1.00 20.00    -0.195 NA
ENDROOT
BRANCH   2   4
HETATM    4  C9  UNL     1     -35.205  15.945  -3.586  1.00 20.00     0.029 C 
HETATM    5  C3  UNL     1     -36.675  15.525  -3.430  1.00 20.00     0.013 C 
BRANCH   4   6
HETATM    6  C7  UNL     1     -34.402  15.703  -2.285  1.00 20.00     0.007 C 
BRANCH   6   7
HETATM    7  C6  UNL     1     -34.042  16.992  -1.541  1.00 20.00    -0.004 C 
HETATM    8  C2  UNL     1     -34.746  17.069  -0.194  1.00 20.00     0.005 C 
ENDBRANCH   6   7
ENDBRANCH   4   6
ENDBRANCH   2   4
BRANCH   2   9
HETATM    9  N11 UNL     1     -35.021  15.799  -6.062  1.00 20.00     0.098 N 
HETATM   10  C4  UNL     1     -34.378  15.135  -7.193  1.00 20.00     0.311 C 
HETATM   11  C5  UNL     1     -34.812  17.245  -6.129  1.00 20.00     0.311 C 
ENDBRANCH   2   9
TORSDOF 4
ENDMDL
MODEL 3
REMARK VINA RESULT:      -4.3      1.766      2.797
REMARK  4 active torsions:
REMARK  status: ('A' for Active; 'I' for Inactive)
REMARK    1  A    between atoms: C6_6  and  C7_7 
REMARK    2  A    between atoms: C7_7  and  C9_9 
REMARK    3  A    between atoms: C8_8  and  C9_9 
REMARK    4  A    between atoms: C8_8  and  N11_11 
ROOT
HETATM    1  C1  UNL     1     -34.223  15.876  -5.133  1.00 20.00     0.095 C 
HETATM    2  C8  UNL     1     -34.652  15.579  -3.754  1.00 20.00     0.331 C 
HETATM    3  N10 UNL     1     -33.891  16.110  -6.219  1.00 20.00    -0.195 NA
ENDROOT
BRANCH   2   4
HETATM    4  C9  UNL     1     -33.937  16.475  -2.703  1.00 20.00     0.029 C 
HETATM    5  C3  UNL     1     -33.816  17.941  -3.147  1.00 20.00     0.013 C 
BRANCH   4   6
HETATM    6  C7  UNL     1     -34.625  16.353  -1.321  1.00 20.00     0.007 C 
BRANCH   6   7
HETATM    7  C6  UNL     1     -34.208  17.445  -0.333  1.00 20.00    -0.004 C 
HETATM    8  C2  UNL     1     -35.191  17.549   0.824  1.00 20.00     0.005 C 
ENDBRANCH   6   7
ENDBRANCH   4   6
ENDBRANCH   2   4
BRANCH   2   9
HETATM    9  N11 UNL     1     -34.431  14.160  -3.466  1.00 20.00     0.098 N 
HETATM   10  C4  UNL     1     -33.014  13.828  -3.601  1.00 20.00     0.311 C 
HETATM   11  C5  UNL     1     -35.240  13.328  -4.354  1.00 20.00     0.311 C 
ENDBRANCH   2   9
TORSDOF 4
ENDMDL
MODEL 4
REMARK VINA RESULT:      -4.3      1.154      1.880
REMARK  4 active torsions:
REMARK  status: ('A' for Active; 'I' for Inactive)
REMARK    1  A    between atoms: C6_6  and  C7_7 
REMARK    2  A    between atoms: C7_7  and  C9_9 
REMARK    3  A    between atoms: C8_8  and  C9_9 
REMARK    4  A    between atoms: C8_8  and  N11_11 
ROOT
HETATM    1  C1  UNL     1     -36.621  14.735  -3.795  1.00 20.00     0.095 C 
HETATM    2  C8  UNL     1     -35.254  15.285  -3.832  1.00 20.00     0.331 C 
HETATM    3  N10 UNL     1     -37.695  14.298  -3.765  1.00 20.00    -0.195 NA
ENDROOT
BRANCH   2   4
HETATM    4  C9  UNL     1     -35.100  16.559  -2.954  1.00 20.00     0.029 C 
HETATM    5  C3  UNL     1     -36.334  17.473  -3.004  1.00 20.00     0.013 C 
BRANCH   4   6
HETATM    6  C7  UNL     1     -34.730  16.181  -1.500  1.00 20.00     0.007 C 
BRANCH   6   7
HETATM    7  C6  UNL     1     -34.135  17.342  -0.700  1.00 20.00    -0.004 C 
HETATM    8  C2  UNL     1     -34.884  17.555   0.607  1.00 20.00     0.005 C 
ENDBRANCH   6   7
ENDBRANCH   4   6
ENDBRANCH   2   4
BRANCH   2   9
HETATM    9  N11 UNL     1     -34.872  15.558  -5.220  1.00 20.00     0.098 N 
HETATM   10  C4  UNL     1     -34.810  14.314  -5.985  1.00 20.00     0.311 C 
HETATM   11  C5  UNL     1     -33.587  16.254  -5.267  1.00 20.00     0.311 C 
ENDBRANCH   2   9
TORSDOF 4
ENDMDL
MODEL 5
REMARK VINA RESULT:      -4.3      1.466      2.069
REMARK  4 active torsions:
REMARK  status: ('A' for Active; 'I' for Inactive)
REMARK    1  A    between atoms: C6_6  and  C7_7 
REMARK    2  A    between atoms: C7_7  and  C9_9 
REMARK    3  A    between atoms: C8_8  and  C9_9 
REMARK    4  A    between atoms: C8_8  and  N11_11 
ROOT
HETATM    1  C1  UNL     1     -34.759  13.809  -4.933  1.00 20.00     0.095 C 
HETATM    2  C8  UNL     1     -34.641  15.201  -5.402  1.00 20.00     0.331 C 
HETATM    3  N10 UNL     1     -34.852  12.711  -4.568  1.00 20.00    -0.195 NA
ENDROOT
BRANCH   2   4
HETATM    4  C9  UNL     1     -33.469  15.962  -4.720  1.00 20.00     0.029 C 
HETATM    5  C3  UNL     1     -33.544  17.483  -4.922  1.00 20.00     0.013 C 
BRANCH   4   6
HETATM    6  C7  UNL     1     -33.374  15.590  -3.220  1.00 20.00     0.007 C 
BRANCH   6   7
HETATM    7  C6  UNL     1     -33.672  16.761  -2.281  1.00 20.00    -0.004 C 
HETATM    8  C2  UNL     1     -34.736  16.393  -1.258  1.00 20.00     0.005 C 
ENDBRANCH   6   7
ENDBRANCH   4   6
ENDBRANCH   2   4
BRANCH   2   9
HETATM    9  N11 UNL     1     -35.910  15.900  -5.189  1.00 20.00     0.098 N 
HETATM   10  C4  UNL     1     -36.745  15.161  -4.243  1.00 20.00     0.311 C 
HETATM   11  C5  UNL     1     -36.612  16.082  -6.458  1.00 20.00     0.311 C 
ENDBRANCH   2   9
TORSDOF 4
ENDMDL
MODEL 6
REMARK VINA RESULT:      -4.2      1.276      2.412
REMARK  4 active torsions:
REMARK  status: ('A' for Active; 'I' for Inactive)
REMARK    1  A    between atoms: C6_6  and  C7_7 
REMARK    2  A    between atoms: C7_7  and  C9_9 
REMARK    3  A    between atoms: C8_8  and  C9_9 
REMARK    4  A    between atoms: C8_8  and  N11_11 
ROOT
HETATM    1  C1  UNL     1     -34.699  15.421  -5.910  1.00 20.00     0.095 C 
HETATM    2  C8  UNL     1     -35.505  15.504  -4.679  1.00 20.00     0.331 C 
HETATM    3  N10 UNL     1     -34.065  15.361  -6.881  1.00 20.00    -0.195 NA
ENDROOT
BRANCH   2   4
HETATM    4  C9  UNL     1     -34.785  14.874  -3.453  1.00 20.00     0.029 C 
HETATM    5  C3  UNL     1     -33.901  13.674  -3.828  1.00 20.00     0.013 C 
BRANCH   4   6
HETATM    6  C7  UNL     1     -33.986  15.948  -2.675  1.00 20.00     0.007 C 
BRANCH   6   7
HETATM    7  C6  UNL     1     -34.657  16.381  -1.370  1.00 20.00    -0.004 C 
HETATM    8  C2  UNL     1     -33.883  17.504  -0.696  1.00 20.00     0.005 C 
ENDBRANCH   6   7
ENDBRANCH   4   6
ENDBRANCH   2   4
BRANCH   2   9
HETATM    9  N11 UNL     1     -36.807  14.870  -4.901  1.00 20.00     0.098 N 
HETATM   10  C4  UNL     1     -37.530  15.556  -5.970  1.00 20.00     0.311 C 
HETATM   11  C5  UNL     1     -37.591  14.873  -3.667  1.00 20.00     0.311 C 
ENDBRANCH   2   9
TORSDOF 4
ENDMDL
MODEL 7
REMARK VINA RESULT:      -4.1      1.724      2.475
REMARK  4 active torsions:
REMARK  status: ('A' for Active; 'I' for Inactive)
REMARK    1  A    between atoms: C6_6  and  C7_7 
REMARK    2  A    between atoms: C7_7  and  C9_9 
REMARK    3  A    between atoms: C8_8  and  C9_9 
REMARK    4  A    between atoms: C8_8  and  N11_11 
ROOT
HETATM    1  C1  UNL     1     -33.952  17.377  -5.117  1.00 20.00     0.095 C 
HETATM    2  C8  UNL     1     -34.678  16.095  -5.071  1.00 20.00     0.331 C 
HETATM    3  N10 UNL     1     -33.385  18.388  -5.153  1.00 20.00    -0.195 NA
ENDROOT
BRANCH   2   4
HETATM    4  C9  UNL     1     -34.327  15.255  -3.810  1.00 20.00     0.029 C 
HETATM    5  C3  UNL     1     -32.813  15.099  -3.598  1.00 20.00     0.013 C 
BRANCH   4   6
HETATM    6  C7  UNL     1     -35.021  15.837  -2.555  1.00 20.00     0.007 C 
BRANCH   6   7
HETATM    7  C6  UNL     1     -34.073  16.611  -1.636  1.00 20.00    -0.004 C 
HETATM    8  C2  UNL     1     -34.746  16.963  -0.317  1.00 20.00     0.005 C 
ENDBRANCH   6   7
ENDBRANCH   4   6
ENDBRANCH   2   4
BRANCH   2   9
HETATM    9  N11 UNL     1     -34.410  15.335  -6.294  1.00 20.00     0.098 N 
HETATM   10  C4  UNL     1     -34.794  16.113  -7.471  1.00 20.00     0.311 C 
HETATM   11  C5  UNL     1     -35.122  14.059  -6.268  1.00 20.00     0.311 C 
ENDBRANCH   2   9
TORSDOF 4
ENDMDL
MODEL 8
REMARK VINA RESULT:      -4.1      2.114      4.581
REMARK  4 active torsions:
REMARK  status: ('A' for Active; 'I' for Inactive)
REMARK    1  A    between atoms: C6_6  and  C7_7 
REMARK    2  A    between atoms: C7_7  and  C9_9 
REMARK    3  A    between atoms: C8_8  and  C9_9 
REMARK    4  A    between atoms: C8_8  and  N11_11 
ROOT
HETATM    1  C1  UNL     1     -33.614  16.975  -4.090  1.00 20.00     0.095 C 
HETATM    2  C8  UNL     1     -33.837  16.434  -2.737  1.00 20.00     0.331 C 
HETATM    3  N10 UNL     1     -33.432  17.401  -5.154  1.00 20.00    -0.195 NA
ENDROOT
BRANCH   2   4
HETATM    4  C9  UNL     1     -34.769  15.189  -2.741  1.00 20.00     0.029 C 
HETATM    5  C3  UNL     1     -36.195  15.509  -3.216  1.00 20.00     0.013 C 
BRANCH   4   6
HETATM    6  C7  UNL     1     -34.140  14.037  -3.561  1.00 20.00     0.007 C 
BRANCH   6   7
HETATM    7  C6  UNL     1     -35.105  13.407  -4.568  1.00 20.00    -0.004 C 
HETATM    8  C2  UNL     1     -34.841  13.914  -5.978  1.00 20.00     0.005 C 
ENDBRANCH   6   7
ENDBRANCH   4   6
ENDBRANCH   2   4
BRANCH   2   9
HETATM    9  N11 UNL     1     -34.375  17.485  -1.871  1.00 20.00     0.098 N 
HETATM   10  C4  UNL     1     -33.513  18.665  -1.907  1.00 20.00     0.311 C 
HETATM   11  C5  UNL     1     -34.515  16.995  -0.501  1.00 20.00     0.311 C 
ENDBRANCH   2   9
TORSDOF 4
ENDMDL
MODEL 9
REMARK VINA RESULT:      -4.0      1.644      3.746
REMARK  4 active torsions:
REMARK  status: ('A' for Active; 'I' for Inactive)
REMARK    1  A    between atoms: C6_6  and  C7_7 
REMARK    2  A    between atoms: C7_7  and  C9_9 
REMARK    3  A    between atoms: C8_8  and  C9_9 
REMARK    4  A    between atoms: C8_8  and  N11_11 
ROOT
HETATM    1  C1  UNL     1     -37.007  14.856  -3.868  1.00 20.00     0.095 C 
HETATM    2  C8  UNL     1     -35.704  15.527  -4.015  1.00 20.00     0.331 C 
HETATM    3  N10 UNL     1     -38.036  14.332  -3.754  1.00 20.00    -0.195 NA
ENDROOT
BRANCH   2   4
HETATM    4  C9  UNL     1     -34.637  14.615  -4.687  1.00 20.00     0.029 C 
HETATM    5  C3  UNL     1     -34.875  13.120  -4.421  1.00 20.00     0.013 C 
BRANCH   4   6
HETATM    6  C7  UNL     1     -34.535  14.916  -6.202  1.00 20.00     0.007 C 
BRANCH   6   7
HETATM    7  C6  UNL     1     -34.180  16.371  -6.512  1.00 20.00    -0.004 C 
HETATM    8  C2  UNL     1     -34.861  16.848  -7.787  1.00 20.00     0.005 C 
ENDBRANCH   6   7
ENDBRANCH   4   6
ENDBRANCH   2   4
BRANCH   2   9
HETATM    9  N11 UNL     1     -35.240  15.994  -2.707  1.00 20.00     0.098 N 
HETATM   10  C4  UNL     1     -35.926  17.230  -2.336  1.00 20.00     0.311 C 
HETATM   11  C5  UNL     1     -33.792  16.195  -2.721  1.00 20.00     0.311 C 
ENDBRANCH   2   9
TORSDOF 4
ENDMDL
