MODEL 1
REMARK VINA RESULT:      -4.6      0.000      0.000
REMARK  3 active torsions:
REMARK  status: ('A' for Active; 'I' for Inactive)
REMARK    1  A    between atoms: C4_4  and  C10_10 
REMARK    2  A    between atoms: C5_5  and  C11_11 
REMARK    3  A    between atoms: C6_6  and  C12_12 
ROOT
HETATM    1  C7  UNL     1     -33.491  16.757  -4.105  1.00 20.00     0.009 C 
HETATM    2  C8  UNL     1     -34.019  16.363  -5.484  1.00 20.00     0.010 C 
HETATM    3  C9  UNL     1     -34.844  14.887  -3.060  1.00 20.00     0.017 C 
HETATM    4  C10 UNL     1     -34.466  16.376  -2.984  1.00 20.00     0.008 C 
HETATM    5  C11 UNL     1     -34.379  14.870  -5.539  1.00 20.00     0.015 C 
HETATM    6  C12 UNL     1     -35.401  14.485  -4.439  1.00 20.00     0.015 C 
ENDROOT
BRANCH   4   7
HETATM    7  C4  UNL     1     -33.888  16.699  -1.640  1.00 20.00    -0.032 C 
HETATM    8  C1  UNL     1     -34.618  16.883  -0.535  1.00 20.00     0.007 C 
ENDBRANCH   4   7
BRANCH   6   9
HETATM    9  C6  UNL     1     -36.773  15.073  -4.643  1.00 20.00    -0.031 C 
HETATM   10  C3  UNL     1     -37.796  14.894  -3.801  1.00 20.00     0.007 C 
ENDBRANCH   6   9
BRANCH   5  11
HETATM   11  C5  UNL     1     -34.820  14.465  -6.914  1.00 20.00    -0.031 C 
HETATM   12  C2  UNL     1     -35.033  15.325  -7.916  1.00 20.00     0.007 C 
ENDBRANCH   5  11
TORSDOF 3
ENDMDL
MODEL 2
REMARK VINA RESULT:      -4.6      1.335      2.450
REMARK  3 active torsions:
REMARK  status: ('A' for Active; 'I' for Inactive)
REMARK    1  A    between atoms: C4_4  and  C10_10 
REMARK    2  A    between atoms: C5_5  and  C11_11 
REMARK    3  A    between atoms: C6_6  and  C12_12 
ROOT
HETATM    1  C7  UNL     1     -34.336  14.482  -3.150  1.00 20.00     0.009 C 
HETATM    2  C8  UNL     1     -34.096  14.144  -4.621  1.00 20.00     0.010 C 
HETATM    3  C9  UNL     1     -35.320  16.716  -3.829  1.00 20.00     0.017 C 
HETATM    4  C10 UNL     1     -34.331  15.995  -2.897  1.00 20.00     0.008 C 
HETATM    5  C11 UNL     1     -35.102  14.867  -5.531  1.00 20.00     0.015 C 
HETATM    6  C12 UNL     1     -35.071  16.401  -5.317  1.00 20.00     0.015 C 
ENDROOT
BRANCH   4   7
HETATM    7  C4  UNL     1     -34.649  16.299  -1.465  1.00 20.00    -0.032 C 
HETATM    8  C1  UNL     1     -34.084  17.289  -0.766  1.00 20.00     0.007 C 
ENDBRANCH   4   7
BRANCH   6   9
HETATM    9  C6  UNL     1     -33.801  17.062  -5.788  1.00 20.00    -0.031 C 
HETATM   10  C3  UNL     1     -33.580  18.379  -5.737  1.00 20.00     0.007 C 
ENDBRANCH   6   9
BRANCH   5  11
HETATM   11  C5  UNL     1     -34.920  14.473  -6.967  1.00 20.00    -0.031 C 
HETATM   12  C2  UNL     1     -35.841  14.662  -7.918  1.00 20.00     0.007 C 
ENDBRANCH   5  11
TORSDOF 3
ENDMDL
MODEL 3
REMARK VINA RESULT:      -4.6      1.119      4.818
REMARK  3 active torsions:
REMARK  status: ('A' for Active; 'I' for Inactive)
REMARK    1  A    between atoms: C4_4  and  C10_10 
REMARK    2  A    between atoms: C5_5  and  C11_11 
REMARK    3  A    between atoms: C6_6  and  C12_12 
ROOT
HETATM    1  C7  UNL     1     -35.022  14.493  -3.956  1.00 20.00     0.009 C 
HETATM    2  C8  UNL     1     -35.064  15.369  -2.704  1.00 20.00     0.010 C 
HETATM    3  C9  UNL     1     -33.563  16.215  -5.107  1.00 20.00     0.017 C 
HETATM    4  C10 UNL     1     -34.806  15.317  -5.232  1.00 20.00     0.008 C 
HETATM    5  C11 UNL     1     -33.808  16.248  -2.597  1.00 20.00     0.015 C 
HETATM    6  C12 UNL     1     -33.607  17.121  -3.861  1.00 20.00     0.015 C 
ENDROOT
BRANCH   4   7
HETATM    7  C4  UNL     1     -34.688  14.427  -6.430  1.00 20.00    -0.032 C 
HETATM    8  C1  UNL     1     -34.912  14.828  -7.686  1.00 20.00     0.007 C 
ENDBRANCH   4   7
BRANCH   6   9
HETATM    9  C6  UNL     1     -34.643  18.201  -4.034  1.00 20.00    -0.031 C 
HETATM   10  C3  UNL     1     -34.673  19.052  -5.064  1.00 20.00     0.007 C 
ENDBRANCH   6   9
BRANCH   5  11
HETATM   11  C5  UNL     1     -33.809  17.049  -1.328  1.00 20.00    -0.031 C 
HETATM   12  C2  UNL     1     -34.738  16.937  -0.373  1.00 20.00     0.007 C 
ENDBRANCH   5  11
TORSDOF 3
ENDMDL
MODEL 4
REMARK VINA RESULT:      -4.4      1.453      2.509
REMARK  3 active torsions:
REMARK  status: ('A' for Active; 'I' for Inactive)
REMARK    1  A    between atoms: C4_4  and  C10_10 
REMARK    2  A    between atoms: C5_5  and  C11_11 
REMARK    3  A    between atoms: C6_6  and  C12_12 
ROOT
HETATM    1  C7  UNL     1     -36.071  17.402  -2.258  1.00 20.00     0.009 C 
HETATM    2  C8  UNL     1     -36.305  16.784  -3.637  1.00 20.00     0.010 C 
HETATM    3  C9  UNL     1     -33.730  16.432  -2.228  1.00 20.00     0.017 C 
HETATM    4  C10 UNL     1     -35.039  16.614  -1.441  1.00 20.00     0.008 C 
HETATM    5  C11 UNL     1     -34.985  16.622  -4.408  1.00 20.00     0.015 C 
HETATM    6  C12 UNL     1     -33.952  15.787  -3.610  1.00 20.00     0.015 C 
ENDROOT
BRANCH   4   7
HETATM    7  C4  UNL     1     -34.770  17.287  -0.130  1.00 20.00    -0.032 C 
HETATM    8  C1  UNL     1     -33.730  18.097   0.096  1.00 20.00     0.007 C 
ENDBRANCH   4   7
BRANCH   6   9
HETATM    9  C6  UNL     1     -34.323  14.334  -3.457  1.00 20.00    -0.031 C 
HETATM   10  C3  UNL     1     -33.683  13.331  -4.065  1.00 20.00     0.007 C 
ENDBRANCH   6   9
BRANCH   5  11
HETATM   11  C5  UNL     1     -35.222  16.092  -5.791  1.00 20.00    -0.031 C 
HETATM   12  C2  UNL     1     -34.302  16.090  -6.761  1.00 20.00     0.007 C 
ENDBRANCH   5  11
TORSDOF 3
ENDMDL
MODEL 5
REMARK VINA RESULT:      -4.4      1.253      4.551
REMARK  3 active torsions:
REMARK  status: ('A' for Active; 'I' for Inactive)
REMARK    1  A    between atoms: C4_4  and  C10_10 
REMARK    2  A    between atoms: C5_5  and  C11_11 
REMARK    3  A    between atoms: C6_6  and  C12_12 
ROOT
HETATM    1  C7  UNL     1     -34.019  17.211  -5.933  1.00 20.00     0.009 C 
HETATM    2  C8  UNL     1     -33.505  17.448  -4.512  1.00 20.00     0.010 C 
HETATM    3  C9  UNL     1     -35.109  15.054  -5.172  1.00 20.00     0.017 C 
HETATM    4  C10 UNL     1     -34.216  15.720  -6.234  1.00 20.00     0.008 C 
HETATM    5  C11 UNL     1     -34.418  16.782  -3.471  1.00 20.00     0.015 C 
HETATM    6  C12 UNL     1     -34.586  15.265  -3.738  1.00 20.00     0.015 C 
ENDROOT
BRANCH   4   7
HETATM    7  C4  UNL     1     -34.796  15.523  -7.601  1.00 20.00    -0.032 C 
HETATM    8  C1  UNL     1     -35.698  14.583  -7.903  1.00 20.00     0.007 C 
ENDBRANCH   4   7
BRANCH   6   9
HETATM    9  C6  UNL     1     -33.333  14.459  -3.512  1.00 20.00    -0.031 C 
HETATM   10  C3  UNL     1     -33.233  13.148  -3.753  1.00 20.00     0.007 C 
ENDBRANCH   6   9
BRANCH   5  11
HETATM   11  C5  UNL     1     -33.961  17.082  -2.073  1.00 20.00    -0.031 C 
HETATM   12  C2  UNL     1     -34.590  16.658  -0.972  1.00 20.00     0.007 C 
ENDBRANCH   5  11
TORSDOF 3
ENDMDL
MODEL 6
REMARK VINA RESULT:      -4.3      1.399      4.359
REMARK  3 active torsions:
REMARK  status: ('A' for Active; 'I' for Inactive)
REMARK    1  A    between atoms: C4_4  and  C10_10 
REMARK    2  A    between atoms: C5_5  and  C11_11 
REMARK    3  A    between atoms: C6_6  and  C12_12 
ROOT
HETATM    1  C7  UNL     1     -33.848  17.599  -4.936  1.00 20.00     0.009 C 
HETATM    2  C8  UNL     1     -33.618  17.166  -3.487  1.00 20.00     0.010 C 
HETATM    3  C9  UNL     1     -35.670  15.852  -5.161  1.00 20.00     0.017 C 
HETATM    4  C10 UNL     1     -34.407  16.458  -5.796  1.00 20.00     0.008 C 
HETATM    5  C11 UNL     1     -34.895  16.573  -2.872  1.00 20.00     0.015 C 
HETATM    6  C12 UNL     1     -35.441  15.389  -3.709  1.00 20.00     0.015 C 
ENDROOT
BRANCH   4   7
HETATM    7  C4  UNL     1     -34.700  16.933  -7.187  1.00 20.00    -0.032 C 
HETATM    8  C1  UNL     1     -34.382  18.148  -7.646  1.00 20.00     0.007 C 
ENDBRANCH   4   7
BRANCH   6   9
HETATM    9  C6  UNL     1     -34.567  14.162  -3.681  1.00 20.00    -0.031 C 
HETATM   10  C3  UNL     1     -34.677  13.145  -4.541  1.00 20.00     0.007 C 
ENDBRANCH   6   9
BRANCH   5  11
HETATM   11  C5  UNL     1     -34.692  16.223  -1.427  1.00 20.00    -0.031 C 
HETATM   12  C2  UNL     1     -34.619  17.124  -0.441  1.00 20.00     0.007 C 
ENDBRANCH   5  11
TORSDOF 3
ENDMDL
MODEL 7
REMARK VINA RESULT:      -4.1      1.654      4.559
REMARK  3 active torsions:
REMARK  status: ('A' for Active; 'I' for Inactive)
REMARK    1  A    between atoms: C4_4  and  C10_10 
REMARK    2  A    between atoms: C5_5  and  C11_11 
REMARK    3  A    between atoms: C6_6  and  C12_12 
ROOT
HETATM    1  C7  UNL     1     -35.996  17.630  -4.514  1.00 20.00     0.009 C 
HETATM    2  C8  UNL     1     -35.115  17.668  -3.265  1.00 20.00     0.010 C 
HETATM    3  C9  UNL     1     -36.159  15.110  -4.315  1.00 20.00     0.017 C 
HETATM    4  C10 UNL     1     -35.885  16.294  -5.258  1.00 20.00     0.008 C 
HETATM    5  C11 UNL     1     -35.414  16.482  -2.335  1.00 20.00     0.015 C 
HETATM    6  C12 UNL     1     -35.258  15.125  -3.065  1.00 20.00     0.015 C 
ENDROOT
BRANCH   4   7
HETATM    7  C4  UNL     1     -36.820  16.255  -6.429  1.00 20.00    -0.032 C 
HETATM    8  C1  UNL     1     -37.784  15.343  -6.586  1.00 20.00     0.007 C 
ENDBRANCH   4   7
BRANCH   6   9
HETATM    9  C6  UNL     1     -33.838  14.787  -3.438  1.00 20.00    -0.031 C 
HETATM   10  C3  UNL     1     -33.437  13.577  -3.840  1.00 20.00     0.007 C 
ENDBRANCH   6   9
BRANCH   5  11
HETATM   11  C5  UNL     1     -34.607  16.562  -1.072  1.00 20.00    -0.031 C 
HETATM   12  C2  UNL     1     -33.748  17.548  -0.793  1.00 20.00     0.007 C 
ENDBRANCH   5  11
TORSDOF 3
ENDMDL
MODEL 8
REMARK VINA RESULT:      -4.1      1.562      3.100
REMARK  3 active torsions:
REMARK  status: ('A' for Active; 'I' for Inactive)
REMARK    1  A    between atoms: C4_4  and  C10_10 
REMARK    2  A    between atoms: C5_5  and  C11_11 
REMARK    3  A    between atoms: C6_6  and  C12_12 
ROOT
HETATM    1  C7  UNL     1     -34.007  16.709  -1.742  1.00 20.00     0.009 C 
HETATM    2  C8  UNL     1     -34.334  15.440  -2.528  1.00 20.00     0.010 C 
HETATM    3  C9  UNL     1     -34.926  18.114  -3.640  1.00 20.00     0.017 C 
HETATM    4  C10 UNL     1     -33.755  17.910  -2.663  1.00 20.00     0.008 C 
HETATM    5  C11 UNL     1     -35.511  15.665  -3.489  1.00 20.00     0.015 C 
HETATM    6  C12 UNL     1     -35.246  16.846  -4.456  1.00 20.00     0.015 C 
ENDROOT
BRANCH   4   7
HETATM    7  C4  UNL     1     -33.520  19.156  -1.864  1.00 20.00    -0.032 C 
HETATM    8  C1  UNL     1     -32.792  19.200  -0.744  1.00 20.00     0.007 C 
ENDBRANCH   4   7
BRANCH   6   9
HETATM    9  C6  UNL     1     -34.158  16.582  -5.465  1.00 20.00    -0.031 C 
HETATM   10  C3  UNL     1     -34.355  16.546  -6.786  1.00 20.00     0.007 C 
ENDBRANCH   6   9
BRANCH   5  11
HETATM   11  C5  UNL     1     -35.884  14.399  -4.202  1.00 20.00    -0.031 C 
HETATM   12  C2  UNL     1     -35.114  13.306  -4.241  1.00 20.00     0.007 C 
ENDBRANCH   5  11
TORSDOF 3
ENDMDL
MODEL 9
REMARK VINA RESULT:      -4.0      2.024      4.337
REMARK  3 active torsions:
REMARK  status: ('A' for Active; 'I' for Inactive)
REMARK    1  A    between atoms: C4_4  and  C10_10 
REMARK    2  A    between atoms: C5_5  and  C11_11 
REMARK    3  A    between atoms: C6_6  and  C12_12 
ROOT
HETATM    1  C7  UNL     1     -33.800  16.418  -4.582  1.00 20.00     0.009 C 
HETATM    2  C8  UNL     1     -34.191  17.781  -4.010  1.00 20.00     0.010 C 
HETATM    3  C9  UNL     1     -34.946  15.278  -2.630  1.00 20.00     0.017 C 
HETATM    4  C10 UNL     1     -33.671  15.350  -3.488  1.00 20.00     0.008 C 
HETATM    5  C11 UNL     1     -35.472  17.686  -3.166  1.00 20.00     0.015 C 
HETATM    6  C12 UNL     1     -35.334  16.643  -2.029  1.00 20.00     0.015 C 
ENDROOT
BRANCH   4   7
HETATM    7  C4  UNL     1     -33.368  14.009  -4.085  1.00 20.00    -0.032 C 
HETATM    8  C1  UNL     1     -34.296  13.182  -4.576  1.00 20.00     0.007 C 
ENDBRANCH   4   7
BRANCH   6   9
HETATM    9  C6  UNL     1     -34.361  17.037  -0.948  1.00 20.00    -0.031 C 
HETATM   10  C3  UNL     1     -34.698  17.215   0.333  1.00 20.00     0.007 C 
ENDBRANCH   6   9
BRANCH   5  11
HETATM   11  C5  UNL     1     -35.901  19.036  -2.672  1.00 20.00    -0.031 C 
HETATM   12  C2  UNL     1     -37.037  19.262  -2.003  1.00 20.00     0.007 C 
ENDBRANCH   5  11
TORSDOF 3
ENDMDL
