MODEL 1
REMARK VINA RESULT:      -3.7      0.000      0.000
REMARK  2 active torsions:
REMARK  status: ('A' for Active; 'I' for Inactive)
REMARK    1  A    between atoms: C1_1  and  C7_7 
REMARK    2  A    between atoms: C7_7  and  N8_8 
ROOT
HETATM    1  C2  UNL     1     -34.096  17.409  -2.235  1.00 20.00     0.040 C 
HETATM    2  C3  UNL     1     -34.030  15.898  -2.488  1.00 20.00     0.273 C 
HETATM    3  C4  UNL     1     -33.883  16.006  -4.943  1.00 20.00     0.283 C 
HETATM    4  C5  UNL     1     -35.143  18.128  -3.077  1.00 20.00     0.075 C 
HETATM    5  C6  UNL     1     -33.424  17.438  -5.211  1.00 20.00     0.104 C 
HETATM    6  N8  UNL     1     -33.311  15.478  -3.697  1.00 20.00     0.095 N 
HETATM    7  S10 UNL     1     -34.576  18.740  -4.691  1.00 20.00    -0.167 SA
ENDROOT
BRANCH   6   8
HETATM    8  C7  UNL     1     -33.264  14.012  -3.748  1.00 20.00     0.341 C 
BRANCH   8   9
HETATM    9  C1  UNL     1     -34.339  13.533  -4.681  1.00 20.00     0.261 C 
HETATM   10  O9  UNL     1     -35.096  12.608  -4.400  1.00 20.00    -0.305 OA
ENDBRANCH   8   9
ENDBRANCH   6   8
TORSDOF 2
ENDMDL
MODEL 2
REMARK VINA RESULT:      -3.7      2.807      4.017
REMARK  2 active torsions:
REMARK  status: ('A' for Active; 'I' for Inactive)
REMARK    1  A    between atoms: C1_1  and  C7_7 
REMARK    2  A    between atoms: C7_7  and  N8_8 
ROOT
HETATM    1  C2  UNL     1     -33.549  16.243  -5.498  1.00 20.00     0.040 C 
HETATM    2  C3  UNL     1     -33.738  17.055  -4.211  1.00 20.00     0.273 C 
HETATM    3  C4  UNL     1     -34.568  15.213  -2.805  1.00 20.00     0.283 C 
HETATM    4  C5  UNL     1     -34.768  15.414  -5.886  1.00 20.00     0.075 C 
HETATM    5  C6  UNL     1     -34.114  13.961  -3.553  1.00 20.00     0.104 C 
HETATM    6  N8  UNL     1     -33.604  16.311  -2.953  1.00 20.00     0.095 N 
HETATM    7  S10 UNL     1     -34.831  13.732  -5.204  1.00 20.00    -0.167 SA
ENDROOT
BRANCH   6   8
HETATM    8  C7  UNL     1     -33.725  17.242  -1.825  1.00 20.00     0.341 C 
BRANCH   8   9
HETATM    9  C1  UNL     1     -34.682  16.657  -0.827  1.00 20.00     0.261 C 
HETATM   10  O9  UNL     1     -34.809  17.105   0.310  1.00 20.00    -0.305 OA
ENDBRANCH   8   9
ENDBRANCH   6   8
TORSDOF 2
ENDMDL
MODEL 3
REMARK VINA RESULT:      -3.7      2.101      2.539
REMARK  2 active torsions:
REMARK  status: ('A' for Active; 'I' for Inactive)
REMARK    1  A    between atoms: C1_1  and  C7_7 
REMARK    2  A    between atoms: C7_7  and  N8_8 
ROOT
HETATM    1  C2  UNL     1     -33.875  16.601  -1.825  1.00 20.00     0.040 C 
HETATM    2  C3  UNL     1     -34.416  15.494  -2.737  1.00 20.00     0.273 C 
HETATM    3  C4  UNL     1     -36.647  16.467  -3.106  1.00 20.00     0.283 C 
HETATM    4  C5  UNL     1     -34.804  16.955  -0.670  1.00 20.00     0.075 C 
HETATM    5  C6  UNL     1     -36.462  17.937  -2.736  1.00 20.00     0.104 C 
HETATM    6  N8  UNL     1     -35.434  15.903  -3.713  1.00 20.00     0.095 N 
HETATM    7  S10 UNL     1     -36.021  18.260  -1.006  1.00 20.00    -0.167 SA
ENDROOT
BRANCH   6   8
HETATM    8  C7  UNL     1     -35.782  14.756  -4.559  1.00 20.00     0.341 C 
BRANCH   8   9
HETATM    9  C1  UNL     1     -34.974  13.572  -4.111  1.00 20.00     0.261 C 
HETATM   10  O9  UNL     1     -34.833  12.567  -4.802  1.00 20.00    -0.305 OA
ENDBRANCH   8   9
ENDBRANCH   6   8
TORSDOF 2
ENDMDL
MODEL 4
REMARK VINA RESULT:      -3.7      1.341      1.431
REMARK  2 active torsions:
REMARK  status: ('A' for Active; 'I' for Inactive)
REMARK    1  A    between atoms: C1_1  and  C7_7 
REMARK    2  A    between atoms: C7_7  and  N8_8 
ROOT
HETATM    1  C2  UNL     1     -34.466  16.523  -1.435  1.00 20.00     0.040 C 
HETATM    2  C3  UNL     1     -34.676  15.541  -2.594  1.00 20.00     0.273 C 
HETATM    3  C4  UNL     1     -34.588  17.196  -4.415  1.00 20.00     0.283 C 
HETATM    4  C5  UNL     1     -35.395  17.730  -1.476  1.00 20.00     0.075 C 
HETATM    5  C6  UNL     1     -33.892  18.395  -3.775  1.00 20.00     0.104 C 
HETATM    6  N8  UNL     1     -34.081  15.925  -3.880  1.00 20.00     0.095 N 
HETATM    7  S10 UNL     1     -34.779  19.171  -2.395  1.00 20.00    -0.167 SA
ENDROOT
BRANCH   6   8
HETATM    8  C7  UNL     1     -34.296  14.849  -4.854  1.00 20.00     0.341 C 
BRANCH   8   9
HETATM    9  C1  UNL     1     -35.074  13.751  -4.185  1.00 20.00     0.261 C 
HETATM   10  O9  UNL     1     -34.973  12.573  -4.516  1.00 20.00    -0.305 OA
ENDBRANCH   8   9
ENDBRANCH   6   8
TORSDOF 2
ENDMDL
MODEL 5
REMARK VINA RESULT:      -3.6      1.128      2.014
REMARK  2 active torsions:
REMARK  status: ('A' for Active; 'I' for Inactive)
REMARK    1  A    between atoms: C1_1  and  C7_7 
REMARK    2  A    between atoms: C7_7  and  N8_8 
ROOT
HETATM    1  C2  UNL     1     -33.829  17.927  -4.772  1.00 20.00     0.040 C 
HETATM    2  C3  UNL     1     -33.273  16.510  -4.586  1.00 20.00     0.273 C 
HETATM    3  C4  UNL     1     -34.381  16.026  -2.442  1.00 20.00     0.283 C 
HETATM    4  C5  UNL     1     -33.654  18.821  -3.551  1.00 20.00     0.075 C 
HETATM    5  C6  UNL     1     -35.518  17.044  -2.389  1.00 20.00     0.104 C 
HETATM    6  N8  UNL     1     -34.112  15.584  -3.816  1.00 20.00     0.095 N 
HETATM    7  S10 UNL     1     -35.009  18.785  -2.343  1.00 20.00    -0.167 SA
ENDROOT
BRANCH   6   8
HETATM    8  C7  UNL     1     -33.484  14.257  -3.804  1.00 20.00     0.341 C 
BRANCH   8   9
HETATM    9  C1  UNL     1     -34.250  13.360  -4.734  1.00 20.00     0.261 C 
HETATM   10  O9  UNL     1     -35.143  12.612  -4.345  1.00 20.00    -0.305 OA
ENDBRANCH   8   9
ENDBRANCH   6   8
TORSDOF 2
ENDMDL
MODEL 6
REMARK VINA RESULT:      -3.6      1.839      2.543
REMARK  2 active torsions:
REMARK  status: ('A' for Active; 'I' for Inactive)
REMARK    1  A    between atoms: C1_1  and  C7_7 
REMARK    2  A    between atoms: C7_7  and  N8_8 
ROOT
HETATM    1  C2  UNL     1     -35.552  18.141  -3.819  1.00 20.00     0.040 C 
HETATM    2  C3  UNL     1     -35.773  16.728  -4.372  1.00 20.00     0.273 C 
HETATM    3  C4  UNL     1     -34.706  15.505  -2.522  1.00 20.00     0.283 C 
HETATM    4  C5  UNL     1     -34.116  18.415  -3.390  1.00 20.00     0.075 C 
HETATM    5  C6  UNL     1     -34.701  16.519  -1.379  1.00 20.00     0.104 C 
HETATM    6  N8  UNL     1     -35.892  15.657  -3.375  1.00 20.00     0.095 N 
HETATM    7  S10 UNL     1     -33.715  18.015  -1.665  1.00 20.00    -0.167 SA
ENDROOT
BRANCH   6   8
HETATM    8  C7  UNL     1     -36.185  14.391  -4.058  1.00 20.00     0.341 C 
BRANCH   8   9
HETATM    9  C1  UNL     1     -34.949  13.538  -4.029  1.00 20.00     0.261 C 
HETATM   10  O9  UNL     1     -34.770  12.605  -4.808  1.00 20.00    -0.305 OA
ENDBRANCH   8   9
ENDBRANCH   6   8
TORSDOF 2
ENDMDL
MODEL 7
REMARK VINA RESULT:      -3.5      1.828      1.946
REMARK  2 active torsions:
REMARK  status: ('A' for Active; 'I' for Inactive)
REMARK    1  A    between atoms: C1_1  and  C7_7 
REMARK    2  A    between atoms: C7_7  and  N8_8 
ROOT
HETATM    1  C2  UNL     1     -33.696  16.677  -2.334  1.00 20.00     0.040 C 
HETATM    2  C3  UNL     1     -34.775  15.633  -2.644  1.00 20.00     0.273 C 
HETATM    3  C4  UNL     1     -35.104  16.225  -5.010  1.00 20.00     0.283 C 
HETATM    4  C5  UNL     1     -34.065  18.090  -2.771  1.00 20.00     0.075 C 
HETATM    5  C6  UNL     1     -33.834  16.996  -5.365  1.00 20.00     0.104 C 
HETATM    6  N8  UNL     1     -34.837  15.162  -4.033  1.00 20.00     0.095 N 
HETATM    7  S10 UNL     1     -33.581  18.548  -4.460  1.00 20.00    -0.167 SA
ENDROOT
BRANCH   6   8
HETATM    8  C7  UNL     1     -35.855  14.111  -4.142  1.00 20.00     0.341 C 
BRANCH   8   9
HETATM    9  C1  UNL     1     -37.209  14.761  -4.158  1.00 20.00     0.261 C 
HETATM   10  O9  UNL     1     -38.203  14.232  -3.666  1.00 20.00    -0.305 OA
ENDBRANCH   8   9
ENDBRANCH   6   8
TORSDOF 2
ENDMDL
MODEL 8
REMARK VINA RESULT:      -3.4      2.600      3.420
REMARK  2 active torsions:
REMARK  status: ('A' for Active; 'I' for Inactive)
REMARK    1  A    between atoms: C1_1  and  C7_7 
REMARK    2  A    between atoms: C7_7  and  N8_8 
ROOT
HETATM    1  C2  UNL     1     -34.204  13.706  -3.960  1.00 20.00     0.040 C 
HETATM    2  C3  UNL     1     -34.936  13.693  -5.307  1.00 20.00     0.273 C 
HETATM    3  C4  UNL     1     -34.583  16.064  -5.869  1.00 20.00     0.283 C 
HETATM    4  C5  UNL     1     -34.643  14.832  -3.032  1.00 20.00     0.075 C 
HETATM    5  C6  UNL     1     -33.414  16.473  -4.976  1.00 20.00     0.104 C 
HETATM    6  N8  UNL     1     -34.471  14.665  -6.304  1.00 20.00     0.095 N 
HETATM    7  S10 UNL     1     -33.727  16.392  -3.191  1.00 20.00    -0.167 SA
ENDROOT
BRANCH   6   8
HETATM    8  C7  UNL     1     -35.210  14.466  -7.556  1.00 20.00     0.341 C 
BRANCH   8   9
HETATM    9  C1  UNL     1     -36.452  15.309  -7.514  1.00 20.00     0.261 C 
HETATM   10  O9  UNL     1     -37.576  14.839  -7.664  1.00 20.00    -0.305 OA
ENDBRANCH   8   9
ENDBRANCH   6   8
TORSDOF 2
ENDMDL
MODEL 9
REMARK VINA RESULT:      -3.4      2.856      4.012
REMARK  2 active torsions:
REMARK  status: ('A' for Active; 'I' for Inactive)
REMARK    1  A    between atoms: C1_1  and  C7_7 
REMARK    2  A    between atoms: C7_7  and  N8_8 
ROOT
HETATM    1  C2  UNL     1     -34.893  13.533  -4.339  1.00 20.00     0.040 C 
HETATM    2  C3  UNL     1     -34.096  14.478  -3.432  1.00 20.00     0.273 C 
HETATM    3  C4  UNL     1     -35.182  16.570  -4.139  1.00 20.00     0.283 C 
HETATM    4  C5  UNL     1     -34.933  13.971  -5.798  1.00 20.00     0.075 C 
HETATM    5  C6  UNL     1     -36.487  16.098  -4.776  1.00 20.00     0.104 C 
HETATM    6  N8  UNL     1     -34.782  15.708  -3.019  1.00 20.00     0.095 N 
HETATM    7  S10 UNL     1     -36.306  15.067  -6.258  1.00 20.00    -0.167 SA
ENDROOT
BRANCH   6   8
HETATM    8  C7  UNL     1     -33.924  16.454  -2.091  1.00 20.00     0.341 C 
BRANCH   8   9
HETATM    9  C1  UNL     1     -34.659  16.619  -0.792  1.00 20.00     0.261 C 
HETATM   10  O9  UNL     1     -34.300  17.410   0.076  1.00 20.00    -0.305 OA
ENDBRANCH   8   9
ENDBRANCH   6   8
TORSDOF 2
ENDMDL
