MODEL 1
REMARK VINA RESULT:      -3.9      0.000      0.000
REMARK  3 active torsions:
REMARK  status: ('A' for Active; 'I' for Inactive)
REMARK    1  A    between atoms: C1_1  and  C7_7 
REMARK    2  A    between atoms: C5_5  and  N8_8 
REMARK    3  A    between atoms: C7_7  and  N8_8 
ROOT
HETATM    1  C2  UNL     1     -34.710  16.304  -1.347  1.00 20.00     0.047 C 
HETATM    2  C3  UNL     1     -34.888  17.511  -0.439  1.00 20.00     0.076 C 
HETATM    3  C4  UNL     1     -33.912  18.011  -2.895  1.00 20.00     0.109 C 
HETATM    4  C5  UNL     1     -33.566  16.651  -2.297  1.00 20.00     0.233 C 
HETATM    5  S10 UNL     1     -34.623  18.951  -1.512  1.00 20.00    -0.167 SA
ENDROOT
BRANCH   4   6
HETATM    6  N8  UNL     1     -33.394  15.646  -3.339  1.00 20.00     0.096 N 
HETATM    7  C6  UNL     1     -33.273  16.281  -4.654  1.00 20.00     0.310 C 
BRANCH   6   8
HETATM    8  C7  UNL     1     -34.510  14.699  -3.334  1.00 20.00     0.341 C 
BRANCH   8   9
HETATM    9  C1  UNL     1     -34.192  13.585  -4.291  1.00 20.00     0.261 C 
HETATM   10  O9  UNL     1     -34.955  12.642  -4.485  1.00 20.00    -0.305 OA
ENDBRANCH   8   9
ENDBRANCH   6   8
ENDBRANCH   4   6
TORSDOF 3
ENDMDL
MODEL 2
REMARK VINA RESULT:      -3.7      1.660      1.840
REMARK  3 active torsions:
REMARK  status: ('A' for Active; 'I' for Inactive)
REMARK    1  A    between atoms: C1_1  and  C7_7 
REMARK    2  A    between atoms: C5_5  and  N8_8 
REMARK    3  A    between atoms: C7_7  and  N8_8 
ROOT
HETATM    1  C2  UNL     1     -34.550  16.648  -0.871  1.00 20.00     0.047 C 
HETATM    2  C3  UNL     1     -33.784  17.904  -0.485  1.00 20.00     0.076 C 
HETATM    3  C4  UNL     1     -34.115  17.483  -3.120  1.00 20.00     0.109 C 
HETATM    4  C5  UNL     1     -34.029  16.236  -2.246  1.00 20.00     0.233 C 
HETATM    5  S10 UNL     1     -33.614  18.845  -2.028  1.00 20.00    -0.167 SA
ENDROOT
BRANCH   4   6
HETATM    6  N8  UNL     1     -34.796  15.136  -2.817  1.00 20.00     0.096 N 
HETATM    7  C6  UNL     1     -33.966  14.351  -3.735  1.00 20.00     0.310 C 
BRANCH   6   8
HETATM    8  C7  UNL     1     -35.983  15.638  -3.510  1.00 20.00     0.341 C 
BRANCH   8   9
HETATM    9  C1  UNL     1     -36.757  14.464  -4.038  1.00 20.00     0.261 C 
HETATM   10  O9  UNL     1     -37.927  14.251  -3.730  1.00 20.00    -0.305 OA
ENDBRANCH   8   9
ENDBRANCH   6   8
ENDBRANCH   4   6
TORSDOF 3
ENDMDL
MODEL 3
REMARK VINA RESULT:      -3.7      1.770      2.500
REMARK  3 active torsions:
REMARK  status: ('A' for Active; 'I' for Inactive)
REMARK    1  A    between atoms: C1_1  and  C7_7 
REMARK    2  A    between atoms: C5_5  and  N8_8 
REMARK    3  A    between atoms: C7_7  and  N8_8 
ROOT
HETATM    1  C2  UNL     1     -33.754  16.621  -3.926  1.00 20.00     0.047 C 
HETATM    2  C3  UNL     1     -33.800  18.072  -3.474  1.00 20.00     0.076 C 
HETATM    3  C4  UNL     1     -34.507  16.237  -1.639  1.00 20.00     0.109 C 
HETATM    4  C5  UNL     1     -34.798  15.881  -3.094  1.00 20.00     0.233 C 
HETATM    5  S10 UNL     1     -34.061  17.998  -1.678  1.00 20.00    -0.167 SA
ENDROOT
BRANCH   4   6
HETATM    6  N8  UNL     1     -34.749  14.440  -3.304  1.00 20.00     0.096 N 
HETATM    7  C6  UNL     1     -33.443  14.041  -3.834  1.00 20.00     0.310 C 
BRANCH   6   8
HETATM    8  C7  UNL     1     -35.815  14.012  -4.211  1.00 20.00     0.341 C 
BRANCH   8   9
HETATM    9  C1  UNL     1     -37.071  14.755  -3.852  1.00 20.00     0.261 C 
HETATM   10  O9  UNL     1     -38.159  14.198  -3.737  1.00 20.00    -0.305 OA
ENDBRANCH   8   9
ENDBRANCH   6   8
ENDBRANCH   4   6
TORSDOF 3
ENDMDL
MODEL 4
REMARK VINA RESULT:      -3.6      1.272      2.074
REMARK  3 active torsions:
REMARK  status: ('A' for Active; 'I' for Inactive)
REMARK    1  A    between atoms: C1_1  and  C7_7 
REMARK    2  A    between atoms: C5_5  and  N8_8 
REMARK    3  A    between atoms: C7_7  and  N8_8 
ROOT
HETATM    1  C2  UNL     1     -33.926  17.548  -3.387  1.00 20.00     0.047 C 
HETATM    2  C3  UNL     1     -33.607  18.601  -2.339  1.00 20.00     0.076 C 
HETATM    3  C4  UNL     1     -34.659  16.301  -1.424  1.00 20.00     0.109 C 
HETATM    4  C5  UNL     1     -35.083  16.724  -2.827  1.00 20.00     0.233 C 
HETATM    5  S10 UNL     1     -33.807  17.756  -0.744  1.00 20.00    -0.167 SA
ENDROOT
BRANCH   4   6
HETATM    6  N8  UNL     1     -35.387  15.566  -3.658  1.00 20.00     0.096 N 
HETATM    7  C6  UNL     1     -36.781  15.153  -3.478  1.00 20.00     0.310 C 
BRANCH   6   8
HETATM    8  C7  UNL     1     -34.486  14.456  -3.347  1.00 20.00     0.341 C 
BRANCH   8   9
HETATM    9  C1  UNL     1     -34.258  13.662  -4.602  1.00 20.00     0.261 C 
HETATM   10  O9  UNL     1     -34.766  12.560  -4.789  1.00 20.00    -0.305 OA
ENDBRANCH   8   9
ENDBRANCH   6   8
ENDBRANCH   4   6
TORSDOF 3
ENDMDL
MODEL 5
REMARK VINA RESULT:      -3.5      0.965      1.591
REMARK  3 active torsions:
REMARK  status: ('A' for Active; 'I' for Inactive)
REMARK    1  A    between atoms: C1_1  and  C7_7 
REMARK    2  A    between atoms: C5_5  and  N8_8 
REMARK    3  A    between atoms: C7_7  and  N8_8 
ROOT
HETATM    1  C2  UNL     1     -33.843  17.551  -3.117  1.00 20.00     0.047 C 
HETATM    2  C3  UNL     1     -34.228  18.860  -2.446  1.00 20.00     0.076 C 
HETATM    3  C4  UNL     1     -34.522  16.638  -0.960  1.00 20.00     0.109 C 
HETATM    4  C5  UNL     1     -34.702  16.469  -2.466  1.00 20.00     0.233 C 
HETATM    5  S10 UNL     1     -34.491  18.436  -0.700  1.00 20.00    -0.167 SA
ENDROOT
BRANCH   4   6
HETATM    6  N8  UNL     1     -34.320  15.131  -2.897  1.00 20.00     0.096 N 
HETATM    7  C6  UNL     1     -33.040  15.163  -3.607  1.00 20.00     0.310 C 
BRANCH   6   8
HETATM    8  C7  UNL     1     -35.357  14.545  -3.748  1.00 20.00     0.341 C 
BRANCH   8   9
HETATM    9  C1  UNL     1     -34.692  13.676  -4.778  1.00 20.00     0.261 C 
HETATM   10  O9  UNL     1     -34.858  12.460  -4.824  1.00 20.00    -0.305 OA
ENDBRANCH   8   9
ENDBRANCH   6   8
ENDBRANCH   4   6
TORSDOF 3
ENDMDL
MODEL 6
REMARK VINA RESULT:      -3.5      3.187      4.406
REMARK  3 active torsions:
REMARK  status: ('A' for Active; 'I' for Inactive)
REMARK    1  A    between atoms: C1_1  and  C7_7 
REMARK    2  A    between atoms: C5_5  and  N8_8 
REMARK    3  A    between atoms: C7_7  and  N8_8 
ROOT
HETATM    1  C2  UNL     1     -34.399  15.312  -6.857  1.00 20.00     0.047 C 
HETATM    2  C3  UNL     1     -35.288  14.673  -7.912  1.00 20.00     0.076 C 
HETATM    3  C4  UNL     1     -36.548  15.713  -5.776  1.00 20.00     0.109 C 
HETATM    4  C5  UNL     1     -35.143  15.171  -5.531  1.00 20.00     0.233 C 
HETATM    5  S10 UNL     1     -36.981  15.127  -7.441  1.00 20.00    -0.167 SA
ENDROOT
BRANCH   4   6
HETATM    6  N8  UNL     1     -34.481  15.891  -4.450  1.00 20.00     0.096 N 
HETATM    7  C6  UNL     1     -33.202  16.442  -4.905  1.00 20.00     0.310 C 
BRANCH   6   8
HETATM    8  C7  UNL     1     -34.273  15.015  -3.296  1.00 20.00     0.341 C 
BRANCH   8   9
HETATM    9  C1  UNL     1     -34.068  13.612  -3.794  1.00 20.00     0.261 C 
HETATM   10  O9  UNL     1     -32.979  13.048  -3.750  1.00 20.00    -0.305 OA
ENDBRANCH   8   9
ENDBRANCH   6   8
ENDBRANCH   4   6
TORSDOF 3
ENDMDL
MODEL 7
REMARK VINA RESULT:      -3.4      3.175      4.112
REMARK  3 active torsions:
REMARK  status: ('A' for Active; 'I' for Inactive)
REMARK    1  A    between atoms: C1_1  and  C7_7 
REMARK    2  A    between atoms: C5_5  and  N8_8 
REMARK    3  A    between atoms: C7_7  and  N8_8 
ROOT
HETATM    1  C2  UNL     1     -34.932  13.524  -4.332  1.00 20.00     0.047 C 
HETATM    2  C3  UNL     1     -33.494  13.615  -3.848  1.00 20.00     0.076 C 
HETATM    3  C4  UNL     1     -34.629  15.927  -4.622  1.00 20.00     0.109 C 
HETATM    4  C5  UNL     1     -35.119  14.667  -5.328  1.00 20.00     0.233 C 
HETATM    5  S10 UNL     1     -33.156  15.392  -3.701  1.00 20.00    -0.167 SA
ENDROOT
BRANCH   4   6
HETATM    6  N8  UNL     1     -36.507  14.805  -5.752  1.00 20.00     0.096 N 
HETATM    7  C6  UNL     1     -36.584  15.058  -7.192  1.00 20.00     0.310 C 
BRANCH   6   8
HETATM    8  C7  UNL     1     -37.168  15.882  -5.012  1.00 20.00     0.341 C 
BRANCH   8   9
HETATM    9  C1  UNL     1     -38.335  15.299  -4.267  1.00 20.00     0.261 C 
HETATM   10  O9  UNL     1     -38.298  14.189  -3.743  1.00 20.00    -0.305 OA
ENDBRANCH   8   9
ENDBRANCH   6   8
ENDBRANCH   4   6
TORSDOF 3
ENDMDL
MODEL 8
REMARK VINA RESULT:      -3.4      3.228      4.457
REMARK  3 active torsions:
REMARK  status: ('A' for Active; 'I' for Inactive)
REMARK    1  A    between atoms: C1_1  and  C7_7 
REMARK    2  A    between atoms: C5_5  and  N8_8 
REMARK    3  A    between atoms: C7_7  and  N8_8 
ROOT
HETATM    1  C2  UNL     1     -34.465  14.128  -3.532  1.00 20.00     0.047 C 
HETATM    2  C3  UNL     1     -34.498  13.238  -4.764  1.00 20.00     0.076 C 
HETATM    3  C4  UNL     1     -35.639  15.659  -5.023  1.00 20.00     0.109 C 
HETATM    4  C5  UNL     1     -35.688  15.037  -3.630  1.00 20.00     0.233 C 
HETATM    5  S10 UNL     1     -35.080  14.312  -6.107  1.00 20.00    -0.167 SA
ENDROOT
BRANCH   4   6
HETATM    6  N8  UNL     1     -35.694  16.063  -2.595  1.00 20.00     0.096 N 
HETATM    7  C6  UNL     1     -35.973  17.379  -3.174  1.00 20.00     0.310 C 
BRANCH   6   8
HETATM    8  C7  UNL     1     -34.417  16.085  -1.880  1.00 20.00     0.341 C 
BRANCH   8   9
HETATM    9  C1  UNL     1     -34.472  17.170  -0.842  1.00 20.00     0.261 C 
HETATM   10  O9  UNL     1     -34.932  16.988   0.282  1.00 20.00    -0.305 OA
ENDBRANCH   8   9
ENDBRANCH   6   8
ENDBRANCH   4   6
TORSDOF 3
ENDMDL
MODEL 9
REMARK VINA RESULT:      -3.4      1.484      1.929
REMARK  3 active torsions:
REMARK  status: ('A' for Active; 'I' for Inactive)
REMARK    1  A    between atoms: C1_1  and  C7_7 
REMARK    2  A    between atoms: C5_5  and  N8_8 
REMARK    3  A    between atoms: C7_7  and  N8_8 
ROOT
HETATM    1  C2  UNL     1     -34.741  16.119  -1.647  1.00 20.00     0.047 C 
HETATM    2  C3  UNL     1     -34.379  17.139  -0.579  1.00 20.00     0.076 C 
HETATM    3  C4  UNL     1     -33.789  17.820  -3.113  1.00 20.00     0.109 C 
HETATM    4  C5  UNL     1     -33.750  16.329  -2.790  1.00 20.00     0.233 C 
HETATM    5  S10 UNL     1     -33.914  18.636  -1.495  1.00 20.00    -0.167 SA
ENDROOT
BRANCH   4   6
HETATM    6  N8  UNL     1     -34.083  15.527  -3.961  1.00 20.00     0.096 N 
HETATM    7  C6  UNL     1     -33.585  14.158  -3.806  1.00 20.00     0.310 C 
BRANCH   6   8
HETATM    8  C7  UNL     1     -33.534  16.131  -5.176  1.00 20.00     0.341 C 
BRANCH   8   9
HETATM    9  C1  UNL     1     -34.451  15.810  -6.322  1.00 20.00     0.261 C 
HETATM   10  O9  UNL     1     -34.140  15.030  -7.218  1.00 20.00    -0.305 OA
ENDBRANCH   8   9
ENDBRANCH   6   8
ENDBRANCH   4   6
TORSDOF 3
ENDMDL
