MODEL 1
REMARK VINA RESULT:      -4.4      0.000      0.000
REMARK  3 active torsions:
REMARK  status: ('A' for Active; 'I' for Inactive)
REMARK    1  A    between atoms: C1_1  and  C3_3 
REMARK    2  A    between atoms: C1_1  and  C4_4 
REMARK    3  A    between atoms: C3_3  and  C5_5 
ROOT
HETATM    1  C1  UNL     1     -34.921   4.727   5.041  1.00 20.00     0.140 C 
HETATM    2  O6  UNL     1     -35.150   3.551   4.760  1.00 20.00    -0.297 OA
ENDROOT
BRANCH   1   3
HETATM    3  C3  UNL     1     -34.789   5.800   3.969  1.00 20.00     0.079 C 
BRANCH   3   4
HETATM    4  C5  UNL     1     -33.678   5.532   2.956  1.00 20.00     0.003 C 
HETATM    5  C2  UNL     1     -32.452   6.405   3.190  1.00 20.00     0.005 C 
ENDBRANCH   3   4
ENDBRANCH   1   3
BRANCH   1   6
HETATM    6  C4  UNL     1     -34.713   5.207   6.461  1.00 20.00     0.192 C 
HETATM    7 CL7  UNL     1     -33.892   6.775   6.482  1.00 20.00    -0.123 Cl
ENDBRANCH   1   6
TORSDOF 3
ENDMDL
MODEL 2
REMARK VINA RESULT:      -4.1      2.019      2.431
REMARK  3 active torsions:
REMARK  status: ('A' for Active; 'I' for Inactive)
REMARK    1  A    between atoms: C1_1  and  C3_3 
REMARK    2  A    between atoms: C1_1  and  C4_4 
REMARK    3  A    between atoms: C3_3  and  C5_5 
ROOT
HETATM    1  C1  UNL     1     -33.951   5.970   4.475  1.00 20.00     0.140 C 
HETATM    2  O6  UNL     1     -33.659   6.637   5.467  1.00 20.00    -0.297 OA
ENDROOT
BRANCH   1   3
HETATM    3  C3  UNL     1     -33.206   6.122   3.156  1.00 20.00     0.079 C 
BRANCH   3   4
HETATM    4  C5  UNL     1     -32.026   7.089   3.217  1.00 20.00     0.003 C 
HETATM    5  C2  UNL     1     -32.066   8.131   2.108  1.00 20.00     0.005 C 
ENDBRANCH   3   4
ENDBRANCH   1   3
BRANCH   1   6
HETATM    6  C4  UNL     1     -35.091   4.974   4.460  1.00 20.00     0.192 C 
HETATM    7 CL7  UNL     1     -35.123   4.031   5.958  1.00 20.00    -0.123 Cl
ENDBRANCH   1   6
TORSDOF 3
ENDMDL
MODEL 3
REMARK VINA RESULT:      -4.0      2.235      2.334
REMARK  3 active torsions:
REMARK  status: ('A' for Active; 'I' for Inactive)
REMARK    1  A    between atoms: C1_1  and  C3_3 
REMARK    2  A    between atoms: C1_1  and  C4_4 
REMARK    3  A    between atoms: C3_3  and  C5_5 
ROOT
HETATM    1  C1  UNL     1     -34.017   6.226   5.713  1.00 20.00     0.140 C 
HETATM    2  O6  UNL     1     -33.477   7.030   6.471  1.00 20.00    -0.297 OA
ENDROOT
BRANCH   1   3
HETATM    3  C3  UNL     1     -34.015   6.417   4.203  1.00 20.00     0.079 C 
BRANCH   3   4
HETATM    4  C5  UNL     1     -32.642   6.244   3.557  1.00 20.00     0.003 C 
HETATM    5  C2  UNL     1     -32.228   7.452   2.729  1.00 20.00     0.005 C 
ENDBRANCH   3   4
ENDBRANCH   1   3
BRANCH   1   6
HETATM    6  C4  UNL     1     -34.761   5.003   6.206  1.00 20.00     0.192 C 
HETATM    7 CL7  UNL     1     -35.169   3.930   4.860  1.00 20.00    -0.123 Cl
ENDBRANCH   1   6
TORSDOF 3
ENDMDL
MODEL 4
REMARK VINA RESULT:      -4.0      2.362      3.537
REMARK  3 active torsions:
REMARK  status: ('A' for Active; 'I' for Inactive)
REMARK    1  A    between atoms: C1_1  and  C3_3 
REMARK    2  A    between atoms: C1_1  and  C4_4 
REMARK    3  A    between atoms: C3_3  and  C5_5 
ROOT
HETATM    1  C1  UNL     1     -33.349   6.102   3.405  1.00 20.00     0.140 C 
HETATM    2  O6  UNL     1     -33.748   5.449   2.443  1.00 20.00    -0.297 OA
ENDROOT
BRANCH   1   3
HETATM    3  C3  UNL     1     -34.132   6.176   4.709  1.00 20.00     0.079 C 
BRANCH   3   4
HETATM    4  C5  UNL     1     -35.210   5.103   4.846  1.00 20.00     0.003 C 
HETATM    5  C2  UNL     1     -34.891   4.090   5.937  1.00 20.00     0.005 C 
ENDBRANCH   3   4
ENDBRANCH   1   3
BRANCH   1   6
HETATM    6  C4  UNL     1     -32.074   6.918   3.374  1.00 20.00     0.192 C 
HETATM    7 CL7  UNL     1     -32.144   8.148   2.104  1.00 20.00    -0.123 Cl
ENDBRANCH   1   6
TORSDOF 3
ENDMDL
MODEL 5
REMARK VINA RESULT:      -4.0      1.808      3.017
REMARK  3 active torsions:
REMARK  status: ('A' for Active; 'I' for Inactive)
REMARK    1  A    between atoms: C1_1  and  C3_3 
REMARK    2  A    between atoms: C1_1  and  C4_4 
REMARK    3  A    between atoms: C3_3  and  C5_5 
ROOT
HETATM    1  C1  UNL     1     -34.983   5.223   3.852  1.00 20.00     0.140 C 
HETATM    2  O6  UNL     1     -36.077   5.755   3.671  1.00 20.00    -0.297 OA
ENDROOT
BRANCH   1   3
HETATM    3  C3  UNL     1     -34.660   4.461   5.129  1.00 20.00     0.079 C 
BRANCH   3   4
HETATM    4  C5  UNL     1     -34.846   5.280   6.405  1.00 20.00     0.003 C 
HETATM    5  C2  UNL     1     -33.977   6.529   6.429  1.00 20.00     0.005 C 
ENDBRANCH   3   4
ENDBRANCH   1   3
BRANCH   1   6
HETATM    6  C4  UNL     1     -33.852   5.308   2.849  1.00 20.00     0.192 C 
HETATM    7 CL7  UNL     1     -32.818   6.706   3.182  1.00 20.00    -0.123 Cl
ENDBRANCH   1   6
TORSDOF 3
ENDMDL
MODEL 6
REMARK VINA RESULT:      -3.9      2.400      3.489
REMARK  3 active torsions:
REMARK  status: ('A' for Active; 'I' for Inactive)
REMARK    1  A    between atoms: C1_1  and  C3_3 
REMARK    2  A    between atoms: C1_1  and  C4_4 
REMARK    3  A    between atoms: C3_3  and  C5_5 
ROOT
HETATM    1  C1  UNL     1     -33.343   6.272   4.044  1.00 20.00     0.140 C 
HETATM    2  O6  UNL     1     -33.390   6.827   5.141  1.00 20.00    -0.297 OA
ENDROOT
BRANCH   1   3
HETATM    3  C3  UNL     1     -34.476   5.388   3.540  1.00 20.00     0.079 C 
BRANCH   3   4
HETATM    4  C5  UNL     1     -35.457   4.957   4.629  1.00 20.00     0.003 C 
HETATM    5  C2  UNL     1     -34.852   3.948   5.594  1.00 20.00     0.005 C 
ENDBRANCH   3   4
ENDBRANCH   1   3
BRANCH   1   6
HETATM    6  C4  UNL     1     -32.153   6.384   3.116  1.00 20.00     0.192 C 
HETATM    7 CL7  UNL     1     -32.130   7.957   2.306  1.00 20.00    -0.123 Cl
ENDBRANCH   1   6
TORSDOF 3
ENDMDL
MODEL 7
REMARK VINA RESULT:      -3.7      2.084      2.883
REMARK  3 active torsions:
REMARK  status: ('A' for Active; 'I' for Inactive)
REMARK    1  A    between atoms: C1_1  and  C3_3 
REMARK    2  A    between atoms: C1_1  and  C4_4 
REMARK    3  A    between atoms: C3_3  and  C5_5 
ROOT
HETATM    1  C1  UNL     1     -35.006   4.564   5.046  1.00 20.00     0.140 C 
HETATM    2  O6  UNL     1     -35.036   3.334   5.044  1.00 20.00    -0.297 OA
ENDROOT
BRANCH   1   3
HETATM    3  C3  UNL     1     -34.620   5.357   6.286  1.00 20.00     0.079 C 
BRANCH   3   4
HETATM    4  C5  UNL     1     -33.656   6.509   6.011  1.00 20.00     0.003 C 
HETATM    5  C2  UNL     1     -33.624   7.528   7.143  1.00 20.00     0.005 C 
ENDBRANCH   3   4
ENDBRANCH   1   3
BRANCH   1   6
HETATM    6  C4  UNL     1     -35.381   5.397   3.839  1.00 20.00     0.192 C 
HETATM    7 CL7  UNL     1     -34.066   5.419   2.655  1.00 20.00    -0.123 Cl
ENDBRANCH   1   6
TORSDOF 3
ENDMDL
MODEL 8
REMARK VINA RESULT:      -3.7      3.262      4.481
REMARK  3 active torsions:
REMARK  status: ('A' for Active; 'I' for Inactive)
REMARK    1  A    between atoms: C1_1  and  C3_3 
REMARK    2  A    between atoms: C1_1  and  C4_4 
REMARK    3  A    between atoms: C3_3  and  C5_5 
ROOT
HETATM    1  C1  UNL     1     -32.028   7.422   2.965  1.00 20.00     0.140 C 
HETATM    2  O6  UNL     1     -31.327   7.732   3.927  1.00 20.00    -0.297 OA
ENDROOT
BRANCH   1   3
HETATM    3  C3  UNL     1     -33.003   6.253   3.023  1.00 20.00     0.079 C 
BRANCH   3   4
HETATM    4  C5  UNL     1     -33.953   6.297   4.217  1.00 20.00     0.003 C 
HETATM    5  C2  UNL     1     -34.990   5.182   4.180  1.00 20.00     0.005 C 
ENDBRANCH   3   4
ENDBRANCH   1   3
BRANCH   1   6
HETATM    6  C4  UNL     1     -31.963   8.140   1.635  1.00 20.00     0.192 C 
HETATM    7 CL7  UNL     1     -32.586   9.790   1.778  1.00 20.00    -0.123 Cl
ENDBRANCH   1   6
TORSDOF 3
ENDMDL
MODEL 9
REMARK VINA RESULT:      -3.5      2.754      3.550
REMARK  3 active torsions:
REMARK  status: ('A' for Active; 'I' for Inactive)
REMARK    1  A    between atoms: C1_1  and  C3_3 
REMARK    2  A    between atoms: C1_1  and  C4_4 
REMARK    3  A    between atoms: C3_3  and  C5_5 
ROOT
HETATM    1  C1  UNL     1     -32.565   6.514   3.289  1.00 20.00     0.140 C 
HETATM    2  O6  UNL     1     -32.087   5.472   2.844  1.00 20.00    -0.297 OA
ENDROOT
BRANCH   1   3
HETATM    3  C3  UNL     1     -31.925   7.871   3.026  1.00 20.00     0.079 C 
BRANCH   3   4
HETATM    4  C5  UNL     1     -31.961   8.301   1.562  1.00 20.00     0.003 C 
HETATM    5  C2  UNL     1     -32.415   9.744   1.388  1.00 20.00     0.005 C 
ENDBRANCH   3   4
ENDBRANCH   1   3
BRANCH   1   6
HETATM    6  C4  UNL     1     -33.802   6.545   4.161  1.00 20.00     0.192 C 
HETATM    7 CL7  UNL     1     -34.980   5.336   3.626  1.00 20.00    -0.123 Cl
ENDBRANCH   1   6
TORSDOF 3
ENDMDL
