MODEL 1
REMARK VINA RESULT:      -5.0      0.000      0.000
REMARK  0 active torsions:
REMARK  status: ('A' for Active; 'I' for Inactive)
ROOT
HETATM    1  C1  UNL     1     -33.611   6.070   3.004  1.00 20.00     0.055 A 
HETATM    2  C2  UNL     1     -34.189   5.592   4.154  1.00 20.00    -0.029 A 
HETATM    3  C3  UNL     1     -33.794   6.118   5.373  1.00 20.00     0.063 A 
HETATM    4  C4  UNL     1     -32.650   7.051   3.168  1.00 20.00     0.148 A 
HETATM    5  C5  UNL     1     -35.266   4.575   4.327  1.00 20.00     0.041 C 
HETATM    6  C6  UNL     1     -34.573   5.512   6.502  1.00 20.00     0.062 C 
HETATM    7  C7  UNL     1     -35.125   4.249   5.824  1.00 20.00     0.011 C 
HETATM    8  N8  UNL     1     -32.865   7.076   5.509  1.00 20.00    -0.153 NA
HETATM    9  N9  UNL     1     -32.276   7.547   4.377  1.00 20.00    -0.138 NA
HETATM   10 CL10 UNL     1     -31.840   7.740   1.824  1.00 20.00    -0.060 Cl
ENDROOT
TORSDOF 0
ENDMDL
MODEL 2
REMARK VINA RESULT:      -4.9      1.555      2.028
REMARK  0 active torsions:
REMARK  status: ('A' for Active; 'I' for Inactive)
ROOT
HETATM    1  C1  UNL     1     -32.930   7.065   4.385  1.00 20.00     0.055 A 
HETATM    2  C2  UNL     1     -33.726   6.142   5.018  1.00 20.00    -0.029 A 
HETATM    3  C3  UNL     1     -34.361   5.170   4.262  1.00 20.00     0.063 A 
HETATM    4  C4  UNL     1     -32.840   6.948   3.010  1.00 20.00     0.148 A 
HETATM    5  C5  UNL     1     -34.008   5.966   6.472  1.00 20.00     0.041 C 
HETATM    6  C6  UNL     1     -35.135   4.227   5.133  1.00 20.00     0.062 C 
HETATM    7  C7  UNL     1     -35.246   5.053   6.424  1.00 20.00     0.011 C 
HETATM    8  N8  UNL     1     -34.252   5.070   2.929  1.00 20.00    -0.153 NA
HETATM    9  N9  UNL     1     -33.477   5.987   2.289  1.00 20.00    -0.138 NA
HETATM   10 CL10 UNL     1     -31.887   8.031   2.083  1.00 20.00    -0.060 Cl
ENDROOT
TORSDOF 0
ENDMDL
MODEL 3
REMARK VINA RESULT:      -4.7     10.596     11.347
REMARK  0 active torsions:
REMARK  status: ('A' for Active; 'I' for Inactive)
ROOT
HETATM    1  C1  UNL     1     -41.358   3.887  -1.917  1.00 20.00     0.055 A 
HETATM    2  C2  UNL     1     -41.530   5.215  -1.614  1.00 20.00    -0.029 A 
HETATM    3  C3  UNL     1     -42.474   5.948  -2.313  1.00 20.00     0.063 A 
HETATM    4  C4  UNL     1     -42.155   3.387  -2.931  1.00 20.00     0.148 A 
HETATM    5  C5  UNL     1     -40.866   6.046  -0.568  1.00 20.00     0.041 C 
HETATM    6  C6  UNL     1     -42.553   7.356  -1.804  1.00 20.00     0.062 C 
HETATM    7  C7  UNL     1     -41.217   7.464  -1.051  1.00 20.00     0.011 C 
HETATM    8  N8  UNL     1     -43.243   5.440  -3.288  1.00 20.00    -0.153 NA
HETATM    9  N9  UNL     1     -43.073   4.129  -3.606  1.00 20.00    -0.138 NA
HETATM   10 CL10 UNL     1     -42.051   1.748  -3.421  1.00 20.00    -0.060 Cl
ENDROOT
TORSDOF 0
ENDMDL
MODEL 4
REMARK VINA RESULT:      -4.6     12.174     12.960
REMARK  0 active torsions:
REMARK  status: ('A' for Active; 'I' for Inactive)
ROOT
HETATM    1  C1  UNL     1     -34.622  15.004  -2.941  1.00 20.00     0.055 A 
HETATM    2  C2  UNL     1     -34.348  16.186  -2.298  1.00 20.00    -0.029 A 
HETATM    3  C3  UNL     1     -33.790  17.229  -3.019  1.00 20.00     0.063 A 
HETATM    4  C4  UNL     1     -34.297  14.953  -4.285  1.00 20.00     0.148 A 
HETATM    5  C5  UNL     1     -34.602  16.581  -0.882  1.00 20.00     0.041 C 
HETATM    6  C6  UNL     1     -33.616  18.447  -2.161  1.00 20.00     0.062 C 
HETATM    7  C7  UNL     1     -33.706  17.826  -0.759  1.00 20.00     0.011 C 
HETATM    8  N8  UNL     1     -33.491  17.161  -4.324  1.00 20.00    -0.153 NA
HETATM    9  N9  UNL     1     -33.746  15.990  -4.969  1.00 20.00    -0.138 NA
HETATM   10 CL10 UNL     1     -34.579  13.543  -5.217  1.00 20.00    -0.060 Cl
ENDROOT
TORSDOF 0
ENDMDL
MODEL 5
REMARK VINA RESULT:      -4.5     12.209     13.298
REMARK  0 active torsions:
REMARK  status: ('A' for Active; 'I' for Inactive)
ROOT
HETATM    1  C1  UNL     1     -34.696  15.048  -3.034  1.00 20.00     0.055 A 
HETATM    2  C2  UNL     1     -34.598  14.910  -4.397  1.00 20.00    -0.029 A 
HETATM    3  C3  UNL     1     -34.133  15.976  -5.149  1.00 20.00     0.063 A 
HETATM    4  C4  UNL     1     -34.325  16.278  -2.519  1.00 20.00     0.148 A 
HETATM    5  C5  UNL     1     -34.879  13.723  -5.256  1.00 20.00     0.041 C 
HETATM    6  C6  UNL     1     -34.045  15.616  -6.602  1.00 20.00     0.062 C 
HETATM    7  C7  UNL     1     -34.954  14.378  -6.646  1.00 20.00     0.011 C 
HETATM    8  N8  UNL     1     -33.770  17.157  -4.628  1.00 20.00    -0.153 NA
HETATM    9  N9  UNL     1     -33.876  17.311  -3.281  1.00 20.00    -0.138 NA
HETATM   10 CL10 UNL     1     -34.398  16.599  -0.838  1.00 20.00    -0.060 Cl
ENDROOT
TORSDOF 0
ENDMDL
MODEL 6
REMARK VINA RESULT:      -4.3     10.704     11.329
REMARK  0 active torsions:
REMARK  status: ('A' for Active; 'I' for Inactive)
ROOT
HETATM    1  C1  UNL     1     -42.058   7.697  -2.237  1.00 20.00     0.055 A 
HETATM    2  C2  UNL     1     -41.724   6.446  -1.781  1.00 20.00    -0.029 A 
HETATM    3  C3  UNL     1     -42.230   5.335  -2.434  1.00 20.00     0.063 A 
HETATM    4  C4  UNL     1     -42.904   7.740  -3.330  1.00 20.00     0.148 A 
HETATM    5  C5  UNL     1     -40.819   6.051  -0.663  1.00 20.00     0.041 C 
HETATM    6  C6  UNL     1     -41.711   4.066  -1.826  1.00 20.00     0.062 C 
HETATM    7  C7  UNL     1     -41.223   4.580  -0.463  1.00 20.00     0.011 C 
HETATM    8  N8  UNL     1     -43.043   5.399  -3.499  1.00 20.00    -0.153 NA
HETATM    9  N9  UNL     1     -43.392   6.633  -3.951  1.00 20.00    -0.138 NA
HETATM   10 CL10 UNL     1     -43.411   9.230  -4.008  1.00 20.00    -0.060 Cl
ENDROOT
TORSDOF 0
ENDMDL
MODEL 7
REMARK VINA RESULT:      -4.3     10.256     10.970
REMARK  0 active torsions:
REMARK  status: ('A' for Active; 'I' for Inactive)
ROOT
HETATM    1  C1  UNL     1     -42.709   4.634  -2.896  1.00 20.00     0.055 A 
HETATM    2  C2  UNL     1     -42.571   5.875  -2.324  1.00 20.00    -0.029 A 
HETATM    3  C3  UNL     1     -41.521   6.099  -1.449  1.00 20.00     0.063 A 
HETATM    4  C4  UNL     1     -41.770   3.687  -2.527  1.00 20.00     0.148 A 
HETATM    5  C5  UNL     1     -43.378   7.113  -2.529  1.00 20.00     0.041 C 
HETATM    6  C6  UNL     1     -41.506   7.522  -0.975  1.00 20.00     0.062 C 
HETATM    7  C7  UNL     1     -42.940   7.954  -1.318  1.00 20.00     0.011 C 
HETATM    8  N8  UNL     1     -40.616   5.168  -1.112  1.00 20.00    -0.153 NA
HETATM    9  N9  UNL     1     -40.751   3.931  -1.661  1.00 20.00    -0.138 NA
HETATM   10 CL10 UNL     1     -41.817   2.093  -3.155  1.00 20.00    -0.060 Cl
ENDROOT
TORSDOF 0
ENDMDL
MODEL 8
REMARK VINA RESULT:      -4.2     12.225     13.221
REMARK  0 active torsions:
REMARK  status: ('A' for Active; 'I' for Inactive)
ROOT
HETATM    1  C1  UNL     1     -33.653  16.069  -2.747  1.00 20.00     0.055 A 
HETATM    2  C2  UNL     1     -33.959  15.150  -3.720  1.00 20.00    -0.029 A 
HETATM    3  C3  UNL     1     -34.357  15.600  -4.968  1.00 20.00     0.063 A 
HETATM    4  C4  UNL     1     -33.785  17.399  -3.104  1.00 20.00     0.148 A 
HETATM    5  C5  UNL     1     -33.890  13.660  -3.678  1.00 20.00     0.041 C 
HETATM    6  C6  UNL     1     -34.593  14.454  -5.907  1.00 20.00     0.062 C 
HETATM    7  C7  UNL     1     -34.734  13.292  -4.911  1.00 20.00     0.011 C 
HETATM    8  N8  UNL     1     -34.471  16.896  -5.295  1.00 20.00    -0.153 NA
HETATM    9  N9  UNL     1     -34.183  17.815  -4.335  1.00 20.00    -0.138 NA
HETATM   10 CL10 UNL     1     -33.442  18.659  -1.993  1.00 20.00    -0.060 Cl
ENDROOT
TORSDOF 0
ENDMDL
MODEL 9
REMARK VINA RESULT:      -4.2     12.255     13.300
REMARK  0 active torsions:
REMARK  status: ('A' for Active; 'I' for Inactive)
ROOT
HETATM    1  C1  UNL     1     -34.500  15.894  -1.887  1.00 20.00     0.055 A 
HETATM    2  C2  UNL     1     -34.164  15.868  -3.219  1.00 20.00    -0.029 A 
HETATM    3  C3  UNL     1     -33.759  17.041  -3.833  1.00 20.00     0.063 A 
HETATM    4  C4  UNL     1     -34.415  17.125  -1.263  1.00 20.00     0.148 A 
HETATM    5  C5  UNL     1     -34.113  14.716  -4.165  1.00 20.00     0.041 C 
HETATM    6  C6  UNL     1     -33.383  16.801  -5.264  1.00 20.00     0.062 C 
HETATM    7  C7  UNL     1     -34.067  15.449  -5.518  1.00 20.00     0.011 C 
HETATM    8  N8  UNL     1     -33.675  18.224  -3.205  1.00 20.00    -0.153 NA
HETATM    9  N9  UNL     1     -34.018  18.265  -1.890  1.00 20.00    -0.138 NA
HETATM   10 CL10 UNL     1     -34.806  17.314   0.395  1.00 20.00    -0.060 Cl
ENDROOT
TORSDOF 0
ENDMDL
