MODEL 1
REMARK VINA RESULT:      -6.1      0.000      0.000
REMARK  4 active torsions:
REMARK  status: ('A' for Active; 'I' for Inactive)
REMARK    1  A    between atoms: C2_2  and  C11_11 
REMARK    2  A    between atoms: C9_9  and  C10_10 
REMARK    3  A    between atoms: C10_10  and  C11_11 
REMARK    4  A    between atoms: C11_11  and  O12_12 
ROOT
HETATM    1  C11 UNL     1     -32.166   6.692   3.339  1.00 20.00     0.147 C 
ENDROOT
BRANCH   1   2
HETATM    2  C2  UNL     1     -33.248   6.148   4.225  1.00 20.00    -0.055 C 
HETATM    3  C1  UNL     1     -33.354   6.504   5.517  1.00 20.00    -0.021 C 
HETATM    4  C3  UNL     1     -34.399   5.957   6.446  1.00 20.00     0.027 C 
HETATM    5  C5  UNL     1     -35.118   4.728   5.890  1.00 20.00     0.004 C 
HETATM    6  C6  UNL     1     -35.465   4.916   4.418  1.00 20.00     0.005 C 
HETATM    7  C4  UNL     1     -34.209   5.179   3.582  1.00 20.00     0.036 C 
ENDBRANCH   1   2
BRANCH   1   8
HETATM    8  C10 UNL     1     -32.737   7.359   2.096  1.00 20.00     0.041 C 
BRANCH   8   9
HETATM    9  C9  UNL     1     -31.933   8.574   1.661  1.00 20.00    -0.012 A 
HETATM   10  C7  UNL     1     -32.232   9.252   0.352  1.00 20.00     0.005 A 
HETATM   11  C8  UNL     1     -32.569   9.936   1.646  1.00 20.00     0.005 A 
ENDBRANCH   8   9
ENDBRANCH   1   8
BRANCH   1  12
HETATM   12  O12 UNL     1     -31.499   7.668   4.123  1.00 20.00    -0.391 OA
HETATM   13  H30 UNL     1     -31.948   8.515   3.962  1.00 20.00     0.210 HD
ENDBRANCH   1  12
TORSDOF 4
ENDMDL
MODEL 2
REMARK VINA RESULT:      -5.4      0.911      1.086
REMARK  4 active torsions:
REMARK  status: ('A' for Active; 'I' for Inactive)
REMARK    1  A    between atoms: C2_2  and  C11_11 
REMARK    2  A    between atoms: C9_9  and  C10_10 
REMARK    3  A    between atoms: C10_10  and  C11_11 
REMARK    4  A    between atoms: C11_11  and  O12_12 
ROOT
HETATM    1  C11 UNL     1     -32.686   6.339   2.840  1.00 20.00     0.147 C 
ENDROOT
BRANCH   1   2
HETATM    2  C2  UNL     1     -33.532   5.957   4.019  1.00 20.00    -0.055 C 
HETATM    3  C1  UNL     1     -33.429   6.589   5.201  1.00 20.00    -0.021 C 
HETATM    4  C3  UNL     1     -34.229   6.216   6.415  1.00 20.00     0.027 C 
HETATM    5  C5  UNL     1     -34.923   4.860   6.287  1.00 20.00     0.004 C 
HETATM    6  C6  UNL     1     -35.552   4.695   4.909  1.00 20.00     0.005 C 
HETATM    7  C4  UNL     1     -34.502   4.823   3.801  1.00 20.00     0.036 C 
ENDBRANCH   1   2
BRANCH   1   8
HETATM    8  C10 UNL     1     -32.268   7.801   2.896  1.00 20.00     0.041 C 
BRANCH   8   9
HETATM    9  C9  UNL     1     -32.754   8.598   1.696  1.00 20.00    -0.012 A 
HETATM   10  C7  UNL     1     -32.318  10.024   1.505  1.00 20.00     0.005 A 
HETATM   11  C8  UNL     1     -31.803   8.952   0.587  1.00 20.00     0.005 A 
ENDBRANCH   8   9
ENDBRANCH   1   8
BRANCH   1  12
HETATM   12  O12 UNL     1     -31.529   5.524   2.932  1.00 20.00    -0.391 OA
HETATM   13  H30 UNL     1     -31.729   4.694   2.468  1.00 20.00     0.210 HD
ENDBRANCH   1  12
TORSDOF 4
ENDMDL
MODEL 3
REMARK VINA RESULT:      -5.0     10.867     12.755
REMARK  4 active torsions:
REMARK  status: ('A' for Active; 'I' for Inactive)
REMARK    1  A    between atoms: C2_2  and  C11_11 
REMARK    2  A    between atoms: C9_9  and  C10_10 
REMARK    3  A    between atoms: C10_10  and  C11_11 
REMARK    4  A    between atoms: C11_11  and  O12_12 
ROOT
HETATM    1  C11 UNL     1     -33.288  15.574  -3.757  1.00 20.00     0.147 C 
ENDROOT
BRANCH   1   2
HETATM    2  C2  UNL     1     -33.963  15.501  -5.095  1.00 20.00    -0.055 C 
HETATM    3  C1  UNL     1     -34.577  14.383  -5.521  1.00 20.00    -0.021 C 
HETATM    4  C3  UNL     1     -35.233  14.256  -6.865  1.00 20.00     0.027 C 
HETATM    5  C5  UNL     1     -34.860  15.383  -7.827  1.00 20.00     0.004 C 
HETATM    6  C6  UNL     1     -34.879  16.734  -7.121  1.00 20.00     0.005 C 
HETATM    7  C4  UNL     1     -33.912  16.753  -5.934  1.00 20.00     0.036 C 
ENDBRANCH   1   2
BRANCH   1   8
HETATM    8  C10 UNL     1     -34.278  15.387  -2.616  1.00 20.00     0.041 C 
BRANCH   8   9
HETATM    9  C9  UNL     1     -34.662  16.700  -1.951  1.00 20.00    -0.012 A 
HETATM   10  C7  UNL     1     -34.711  16.805  -0.452  1.00 20.00     0.005 A 
HETATM   11  C8  UNL     1     -33.628  17.509  -1.219  1.00 20.00     0.005 A 
ENDBRANCH   8   9
ENDBRANCH   1   8
BRANCH   1  12
HETATM   12  O12 UNL     1     -32.364  14.498  -3.747  1.00 20.00    -0.391 OA
HETATM   13  H30 UNL     1     -31.536  14.839  -3.371  1.00 20.00     0.210 HD
ENDBRANCH   1  12
TORSDOF 4
ENDMDL
MODEL 4
REMARK VINA RESULT:      -5.0     10.927     12.950
REMARK  4 active torsions:
REMARK  status: ('A' for Active; 'I' for Inactive)
REMARK    1  A    between atoms: C2_2  and  C11_11 
REMARK    2  A    between atoms: C9_9  and  C10_10 
REMARK    3  A    between atoms: C10_10  and  C11_11 
REMARK    4  A    between atoms: C11_11  and  O12_12 
ROOT
HETATM    1  C11 UNL     1     -33.237  15.619  -3.725  1.00 20.00     0.147 C 
ENDROOT
BRANCH   1   2
HETATM    2  C2  UNL     1     -33.780  15.879  -5.099  1.00 20.00    -0.055 C 
HETATM    3  C1  UNL     1     -33.734  17.099  -5.662  1.00 20.00    -0.021 C 
HETATM    4  C3  UNL     1     -34.297  17.410  -7.018  1.00 20.00     0.027 C 
HETATM    5  C5  UNL     1     -35.210  16.310  -7.560  1.00 20.00     0.004 C 
HETATM    6  C6  UNL     1     -34.614  14.930  -7.306  1.00 20.00     0.005 C 
HETATM    7  C4  UNL     1     -34.381  14.693  -5.812  1.00 20.00     0.036 C 
ENDBRANCH   1   2
BRANCH   1   8
HETATM    8  C10 UNL     1     -34.351  15.449  -2.702  1.00 20.00     0.041 C 
BRANCH   8   9
HETATM    9  C9  UNL     1     -34.680  16.742  -1.972  1.00 20.00    -0.012 A 
HETATM   10  C7  UNL     1     -34.727  16.773  -0.469  1.00 20.00     0.005 A 
HETATM   11  C8  UNL     1     -33.613  17.467  -1.199  1.00 20.00     0.005 A 
ENDBRANCH   8   9
ENDBRANCH   1   8
BRANCH   1  12
HETATM   12  O12 UNL     1     -32.519  14.401  -3.832  1.00 20.00    -0.391 OA
HETATM   13  H30 UNL     1     -32.770  13.855  -3.069  1.00 20.00     0.210 HD
ENDBRANCH   1  12
TORSDOF 4
ENDMDL
MODEL 5
REMARK VINA RESULT:      -4.9     11.184     13.250
REMARK  4 active torsions:
REMARK  status: ('A' for Active; 'I' for Inactive)
REMARK    1  A    between atoms: C2_2  and  C11_11 
REMARK    2  A    between atoms: C9_9  and  C10_10 
REMARK    3  A    between atoms: C10_10  and  C11_11 
REMARK    4  A    between atoms: C11_11  and  O12_12 
ROOT
HETATM    1  C11 UNL     1     -33.406  16.854  -5.202  1.00 20.00     0.147 C 
ENDROOT
BRANCH   1   2
HETATM    2  C2  UNL     1     -34.528  16.149  -5.907  1.00 20.00    -0.055 C 
HETATM    3  C1  UNL     1     -34.302  15.148  -6.776  1.00 20.00    -0.021 C 
HETATM    4  C3  UNL     1     -35.391  14.440  -7.528  1.00 20.00     0.027 C 
HETATM    5  C5  UNL     1     -36.735  15.166  -7.472  1.00 20.00     0.004 C 
HETATM    6  C6  UNL     1     -37.022  15.678  -6.064  1.00 20.00     0.005 C 
HETATM    7  C4  UNL     1     -35.921  16.628  -5.585  1.00 20.00     0.036 C 
ENDBRANCH   1   2
BRANCH   1   8
HETATM    8  C10 UNL     1     -33.863  17.459  -3.882  1.00 20.00     0.041 C 
BRANCH   8   9
HETATM    9  C9  UNL     1     -33.675  16.513  -2.707  1.00 20.00    -0.012 A 
HETATM   10  C7  UNL     1     -34.102  16.927  -1.325  1.00 20.00     0.005 A 
HETATM   11  C8  UNL     1     -34.866  15.862  -2.061  1.00 20.00     0.005 A 
ENDBRANCH   8   9
ENDBRANCH   1   8
BRANCH   1  12
HETATM   12  O12 UNL     1     -32.440  15.849  -4.940  1.00 20.00    -0.391 OA
HETATM   13  H30 UNL     1     -31.638  16.301  -4.632  1.00 20.00     0.210 HD
ENDBRANCH   1  12
TORSDOF 4
ENDMDL
MODEL 6
REMARK VINA RESULT:      -4.8     10.555     11.792
REMARK  4 active torsions:
REMARK  status: ('A' for Active; 'I' for Inactive)
REMARK    1  A    between atoms: C2_2  and  C11_11 
REMARK    2  A    between atoms: C9_9  and  C10_10 
REMARK    3  A    between atoms: C10_10  and  C11_11 
REMARK    4  A    between atoms: C11_11  and  O12_12 
ROOT
HETATM    1  C11 UNL     1     -34.621  13.561  -4.050  1.00 20.00     0.147 C 
ENDROOT
BRANCH   1   2
HETATM    2  C2  UNL     1     -34.757  14.859  -3.310  1.00 20.00    -0.055 C 
HETATM    3  C1  UNL     1     -33.691  15.499  -2.797  1.00 20.00    -0.021 C 
HETATM    4  C3  UNL     1     -33.786  16.779  -2.019  1.00 20.00     0.027 C 
HETATM    5  C5  UNL     1     -35.212  17.117  -1.583  1.00 20.00     0.004 C 
HETATM    6  C6  UNL     1     -36.204  16.863  -2.712  1.00 20.00     0.005 C 
HETATM    7  C4  UNL     1     -36.157  15.404  -3.174  1.00 20.00     0.036 C 
ENDBRANCH   1   2
BRANCH   1   8
HETATM    8  C10 UNL     1     -35.141  13.668  -5.476  1.00 20.00     0.041 C 
BRANCH   8   9
HETATM    9  C9  UNL     1     -34.406  14.720  -6.292  1.00 20.00    -0.012 A 
HETATM   10  C7  UNL     1     -34.744  14.927  -7.743  1.00 20.00     0.005 A 
HETATM   11  C8  UNL     1     -35.115  15.972  -6.729  1.00 20.00     0.005 A 
ENDBRANCH   8   9
ENDBRANCH   1   8
BRANCH   1  12
HETATM   12  O12 UNL     1     -33.227  13.297  -4.085  1.00 20.00    -0.391 OA
HETATM   13  H30 UNL     1     -32.793  13.999  -3.574  1.00 20.00     0.210 HD
ENDBRANCH   1  12
TORSDOF 4
ENDMDL
MODEL 7
REMARK VINA RESULT:      -4.8     11.154     12.676
REMARK  4 active torsions:
REMARK  status: ('A' for Active; 'I' for Inactive)
REMARK    1  A    between atoms: C2_2  and  C11_11 
REMARK    2  A    between atoms: C9_9  and  C10_10 
REMARK    3  A    between atoms: C10_10  and  C11_11 
REMARK    4  A    between atoms: C11_11  and  O12_12 
ROOT
HETATM    1  C11 UNL     1     -36.009  15.020  -3.390  1.00 20.00     0.147 C 
ENDROOT
BRANCH   1   2
HETATM    2  C2  UNL     1     -35.881  14.990  -4.884  1.00 20.00    -0.055 C 
HETATM    3  C1  UNL     1     -36.937  15.187  -5.692  1.00 20.00    -0.021 C 
HETATM    4  C3  UNL     1     -36.861  15.130  -7.189  1.00 20.00     0.027 C 
HETATM    5  C5  UNL     1     -35.563  14.508  -7.704  1.00 20.00     0.004 C 
HETATM    6  C6  UNL     1     -34.361  15.025  -6.922  1.00 20.00     0.005 C 
HETATM    7  C4  UNL     1     -34.499  14.722  -5.428  1.00 20.00     0.036 C 
ENDBRANCH   1   2
BRANCH   1   8
HETATM    8  C10 UNL     1     -35.557  16.354  -2.813  1.00 20.00     0.041 C 
BRANCH   8   9
HETATM    9  C9  UNL     1     -34.561  16.195  -1.675  1.00 20.00    -0.012 A 
HETATM   10  C7  UNL     1     -33.664  17.338  -1.287  1.00 20.00     0.005 A 
HETATM   11  C8  UNL     1     -34.778  16.914  -0.372  1.00 20.00     0.005 A 
ENDBRANCH   8   9
ENDBRANCH   1   8
BRANCH   1  12
HETATM   12  O12 UNL     1     -37.393  14.849  -3.131  1.00 20.00    -0.391 OA
HETATM   13  H30 UNL     1     -37.484  14.042  -2.599  1.00 20.00     0.210 HD
ENDBRANCH   1  12
TORSDOF 4
ENDMDL
MODEL 8
REMARK VINA RESULT:      -4.8     10.784     11.737
REMARK  4 active torsions:
REMARK  status: ('A' for Active; 'I' for Inactive)
REMARK    1  A    between atoms: C2_2  and  C11_11 
REMARK    2  A    between atoms: C9_9  and  C10_10 
REMARK    3  A    between atoms: C10_10  and  C11_11 
REMARK    4  A    between atoms: C11_11  and  O12_12 
ROOT
HETATM    1  C11 UNL     1     -33.676  16.633  -2.420  1.00 20.00     0.147 C 
ENDROOT
BRANCH   1   2
HETATM    2  C2  UNL     1     -33.884  17.274  -1.079  1.00 20.00    -0.055 C 
HETATM    3  C1  UNL     1     -34.887  16.905  -0.264  1.00 20.00    -0.021 C 
HETATM    4  C3  UNL     1     -35.152  17.543   1.068  1.00 20.00     0.027 C 
HETATM    5  C5  UNL     1     -34.394  18.855   1.271  1.00 20.00     0.004 C 
HETATM    6  C6  UNL     1     -32.955  18.737   0.782  1.00 20.00     0.005 C 
HETATM    7  C4  UNL     1     -32.903  18.356  -0.700  1.00 20.00     0.036 C 
ENDBRANCH   1   2
BRANCH   1   8
HETATM    8  C10 UNL     1     -34.676  15.514  -2.671  1.00 20.00     0.041 C 
BRANCH   8   9
HETATM    9  C9  UNL     1     -34.106  14.399  -3.534  1.00 20.00    -0.012 A 
HETATM   10  C7  UNL     1     -35.021  13.389  -4.169  1.00 20.00     0.005 A 
HETATM   11  C8  UNL     1     -34.321  14.409  -5.022  1.00 20.00     0.005 A 
ENDBRANCH   8   9
ENDBRANCH   1   8
BRANCH   1  12
HETATM   12  O12 UNL     1     -33.895  17.668  -3.365  1.00 20.00    -0.391 OA
HETATM   13  H30 UNL     1     -33.263  18.377  -3.160  1.00 20.00     0.210 HD
ENDBRANCH   1  12
TORSDOF 4
ENDMDL
MODEL 9
REMARK VINA RESULT:      -4.7     10.585     12.668
REMARK  4 active torsions:
REMARK  status: ('A' for Active; 'I' for Inactive)
REMARK    1  A    between atoms: C2_2  and  C11_11 
REMARK    2  A    between atoms: C9_9  and  C10_10 
REMARK    3  A    between atoms: C10_10  and  C11_11 
REMARK    4  A    between atoms: C11_11  and  O12_12 
ROOT
HETATM    1  C11 UNL     1     -34.377  13.506  -4.617  1.00 20.00     0.147 C 
ENDROOT
BRANCH   1   2
HETATM    2  C2  UNL     1     -35.042  14.413  -5.610  1.00 20.00    -0.055 C 
HETATM    3  C1  UNL     1     -36.374  14.593  -5.627  1.00 20.00    -0.021 C 
HETATM    4  C3  UNL     1     -37.084  15.462  -6.624  1.00 20.00     0.027 C 
HETATM    5  C5  UNL     1     -36.206  15.859  -7.811  1.00 20.00     0.004 C 
HETATM    6  C6  UNL     1     -34.808  16.254  -7.349  1.00 20.00     0.005 C 
HETATM    7  C4  UNL     1     -34.131  15.110  -6.590  1.00 20.00     0.036 C 
ENDBRANCH   1   2
BRANCH   1   8
HETATM    8  C10 UNL     1     -33.791  14.285  -3.448  1.00 20.00     0.041 C 
BRANCH   8   9
HETATM    9  C9  UNL     1     -34.648  15.474  -3.046  1.00 20.00    -0.012 A 
HETATM   10  C7  UNL     1     -34.441  16.144  -1.716  1.00 20.00     0.005 A 
HETATM   11  C8  UNL     1     -34.050  16.852  -2.982  1.00 20.00     0.005 A 
ENDBRANCH   8   9
ENDBRANCH   1   8
BRANCH   1  12
HETATM   12  O12 UNL     1     -35.408  12.658  -4.138  1.00 20.00    -0.391 OA
HETATM   13  H30 UNL     1     -36.252  13.067  -4.394  1.00 20.00     0.210 HD
ENDBRANCH   1  12
TORSDOF 4
ENDMDL
