MODEL 1
REMARK VINA RESULT:      -5.5      0.000      0.000
REMARK  2 active torsions:
REMARK  status: ('A' for Active; 'I' for Inactive)
REMARK    1  A    between atoms: C2_2  and  C3_3 
REMARK    2  A    between atoms: C3_3  and  C11_11 
ROOT
HETATM    1  C7  UNL     1     -33.946  18.212   1.002  1.00 20.00     0.005 C 
HETATM    2  C8  UNL     1     -32.836  18.738   0.078  1.00 20.00     0.006 C 
HETATM    3  C9  UNL     1     -34.701  16.606  -0.771  1.00 20.00     0.017 C 
HETATM    4  C10 UNL     1     -34.923  18.961  -1.033  1.00 20.00     0.010 C 
HETATM    5  C11 UNL     1     -33.549  17.097  -1.664  1.00 20.00     0.065 C 
HETATM    6  C12 UNL     1     -35.083  17.871   0.023  1.00 20.00    -0.013 C 
HETATM    7  C13 UNL     1     -33.462  18.599  -1.321  1.00 20.00    -0.003 C 
ENDROOT
BRANCH   5   8
HETATM    8  C3  UNL     1     -33.845  16.875  -3.116  1.00 20.00     0.159 C 
HETATM    9  O14 UNL     1     -33.748  17.776  -3.945  1.00 20.00    -0.292 OA
BRANCH   8  10
HETATM   10  C2  UNL     1     -34.259  15.568  -3.517  1.00 20.00    -0.016 C 
HETATM   11  C1  UNL     1     -35.510  15.186  -3.799  1.00 20.00    -0.016 C 
HETATM   12  C4  UNL     1     -35.576  13.740  -4.164  1.00 20.00     0.028 C 
HETATM   13  C6  UNL     1     -34.108  13.382  -4.395  1.00 20.00     0.009 C 
HETATM   14  C5  UNL     1     -33.290  14.437  -3.651  1.00 20.00     0.042 C 
ENDBRANCH   8  10
ENDBRANCH   5   8
TORSDOF 2
ENDMDL
MODEL 2
REMARK VINA RESULT:      -5.4      0.828      5.045
REMARK  2 active torsions:
REMARK  status: ('A' for Active; 'I' for Inactive)
REMARK    1  A    between atoms: C2_2  and  C3_3 
REMARK    2  A    between atoms: C3_3  and  C11_11 
ROOT
HETATM    1  C7  UNL     1     -35.172  13.315  -4.547  1.00 20.00     0.005 C 
HETATM    2  C8  UNL     1     -36.234  14.190  -3.862  1.00 20.00     0.006 C 
HETATM    3  C9  UNL     1     -33.342  14.758  -3.618  1.00 20.00     0.017 C 
HETATM    4  C10 UNL     1     -34.881  15.572  -5.240  1.00 20.00     0.010 C 
HETATM    5  C11 UNL     1     -34.410  15.589  -2.887  1.00 20.00     0.065 C 
HETATM    6  C12 UNL     1     -34.067  14.324  -4.907  1.00 20.00    -0.013 C 
HETATM    7  C13 UNL     1     -35.589  15.587  -3.881  1.00 20.00    -0.003 C 
ENDROOT
BRANCH   5   8
HETATM    8  C3  UNL     1     -33.926  16.978  -2.601  1.00 20.00     0.159 C 
HETATM    9  O14 UNL     1     -33.455  17.696  -3.478  1.00 20.00    -0.292 OA
BRANCH   8  10
HETATM   10  C2  UNL     1     -34.020  17.450  -1.255  1.00 20.00    -0.016 C 
HETATM   11  C1  UNL     1     -34.839  16.981  -0.307  1.00 20.00    -0.016 C 
HETATM   12  C4  UNL     1     -34.680  17.727   0.976  1.00 20.00     0.028 C 
HETATM   13  C6  UNL     1     -33.383  18.505   0.758  1.00 20.00     0.009 C 
HETATM   14  C5  UNL     1     -33.183  18.584  -0.756  1.00 20.00     0.042 C 
ENDBRANCH   8  10
ENDBRANCH   5   8
TORSDOF 2
ENDMDL
MODEL 3
REMARK VINA RESULT:      -5.4      1.905      5.310
REMARK  2 active torsions:
REMARK  status: ('A' for Active; 'I' for Inactive)
REMARK    1  A    between atoms: C2_2  and  C3_3 
REMARK    2  A    between atoms: C3_3  and  C11_11 
ROOT
HETATM    1  C7  UNL     1     -36.226  14.865  -6.936  1.00 20.00     0.005 C 
HETATM    2  C8  UNL     1     -36.556  16.044  -6.007  1.00 20.00     0.006 C 
HETATM    3  C9  UNL     1     -34.491  14.042  -5.322  1.00 20.00     0.017 C 
HETATM    4  C10 UNL     1     -34.235  16.092  -6.503  1.00 20.00     0.010 C 
HETATM    5  C11 UNL     1     -34.873  15.190  -4.372  1.00 20.00     0.065 C 
HETATM    6  C12 UNL     1     -34.717  14.660  -6.716  1.00 20.00    -0.013 C 
HETATM    7  C13 UNL     1     -35.202  16.345  -5.342  1.00 20.00    -0.003 C 
ENDROOT
BRANCH   5   8
HETATM    8  C3  UNL     1     -33.745  15.542  -3.451  1.00 20.00     0.159 C 
HETATM    9  O14 UNL     1     -32.618  15.078  -3.597  1.00 20.00    -0.292 OA
BRANCH   8  10
HETATM   10  C2  UNL     1     -34.022  16.439  -2.374  1.00 20.00    -0.016 C 
HETATM   11  C1  UNL     1     -34.693  16.147  -1.253  1.00 20.00    -0.016 C 
HETATM   12  C4  UNL     1     -34.810  17.335  -0.357  1.00 20.00     0.028 C 
HETATM   13  C6  UNL     1     -33.801  18.314  -0.956  1.00 20.00     0.009 C 
HETATM   14  C5  UNL     1     -33.584  17.868  -2.403  1.00 20.00     0.042 C 
ENDBRANCH   8  10
ENDBRANCH   5   8
TORSDOF 2
ENDMDL
MODEL 4
REMARK VINA RESULT:      -5.4      2.034      2.720
REMARK  2 active torsions:
REMARK  status: ('A' for Active; 'I' for Inactive)
REMARK    1  A    between atoms: C2_2  and  C3_3 
REMARK    2  A    between atoms: C3_3  and  C11_11 
ROOT
HETATM    1  C7  UNL     1     -35.784  17.669  -1.192  1.00 20.00     0.005 C 
HETATM    2  C8  UNL     1     -34.584  16.877  -0.651  1.00 20.00     0.006 C 
HETATM    3  C9  UNL     1     -35.717  16.362  -3.332  1.00 20.00     0.017 C 
HETATM    4  C10 UNL     1     -33.973  17.862  -2.723  1.00 20.00     0.010 C 
HETATM    5  C11 UNL     1     -34.556  15.534  -2.755  1.00 20.00     0.065 C 
HETATM    6  C12 UNL     1     -35.496  17.750  -2.702  1.00 20.00    -0.013 C 
HETATM    7  C13 UNL     1     -33.774  16.571  -1.922  1.00 20.00    -0.003 C 
ENDROOT
BRANCH   5   8
HETATM    8  C3  UNL     1     -33.711  14.940  -3.839  1.00 20.00     0.159 C 
HETATM    9  O14 UNL     1     -32.609  14.450  -3.611  1.00 20.00    -0.292 OA
BRANCH   8  10
HETATM   10  C2  UNL     1     -34.224  14.969  -5.173  1.00 20.00    -0.016 C 
HETATM   11  C1  UNL     1     -35.025  14.055  -5.733  1.00 20.00    -0.016 C 
HETATM   12  C4  UNL     1     -35.346  14.397  -7.149  1.00 20.00     0.028 C 
HETATM   13  C6  UNL     1     -34.889  15.852  -7.259  1.00 20.00     0.009 C 
HETATM   14  C5  UNL     1     -33.883  16.068  -6.128  1.00 20.00     0.042 C 
ENDBRANCH   8  10
ENDBRANCH   5   8
TORSDOF 2
ENDMDL
MODEL 5
REMARK VINA RESULT:      -5.4      2.417      3.598
REMARK  2 active torsions:
REMARK  status: ('A' for Active; 'I' for Inactive)
REMARK    1  A    between atoms: C2_2  and  C3_3 
REMARK    2  A    between atoms: C3_3  and  C11_11 
ROOT
HETATM    1  C7  UNL     1     -33.865  17.644  -2.087  1.00 20.00     0.005 C 
HETATM    2  C8  UNL     1     -34.651  16.592  -1.289  1.00 20.00     0.006 C 
HETATM    3  C9  UNL     1     -35.119  17.038  -4.174  1.00 20.00     0.017 C 
HETATM    4  C10 UNL     1     -33.606  15.523  -3.133  1.00 20.00     0.010 C 
HETATM    5  C11 UNL     1     -35.942  16.032  -3.351  1.00 20.00     0.065 C 
HETATM    6  C12 UNL     1     -33.742  17.004  -3.481  1.00 20.00    -0.013 C 
HETATM    7  C13 UNL     1     -34.913  15.495  -2.334  1.00 20.00    -0.003 C 
ENDROOT
BRANCH   5   8
HETATM    8  C3  UNL     1     -36.495  14.939  -4.213  1.00 20.00     0.159 C 
HETATM    9  O14 UNL     1     -37.206  14.048  -3.757  1.00 20.00    -0.292 OA
BRANCH   8  10
HETATM   10  C2  UNL     1     -36.161  14.954  -5.602  1.00 20.00    -0.016 C 
HETATM   11  C1  UNL     1     -36.849  15.562  -6.575  1.00 20.00    -0.016 C 
HETATM   12  C4  UNL     1     -36.218  15.350  -7.911  1.00 20.00     0.028 C 
HETATM   13  C6  UNL     1     -34.838  14.801  -7.551  1.00 20.00     0.009 C 
HETATM   14  C5  UNL     1     -34.959  14.240  -6.134  1.00 20.00     0.042 C 
ENDBRANCH   8  10
ENDBRANCH   5   8
TORSDOF 2
ENDMDL
MODEL 6
REMARK VINA RESULT:      -5.3      1.666      5.232
REMARK  2 active torsions:
REMARK  status: ('A' for Active; 'I' for Inactive)
REMARK    1  A    between atoms: C2_2  and  C3_3 
REMARK    2  A    between atoms: C3_3  and  C11_11 
ROOT
HETATM    1  C7  UNL     1     -36.498  15.016  -6.589  1.00 20.00     0.005 C 
HETATM    2  C8  UNL     1     -35.028  14.695  -6.903  1.00 20.00     0.006 C 
HETATM    3  C9  UNL     1     -35.826  16.130  -4.444  1.00 20.00     0.017 C 
HETATM    4  C10 UNL     1     -35.567  13.788  -4.777  1.00 20.00     0.010 C 
HETATM    5  C11 UNL     1     -34.354  15.859  -4.800  1.00 20.00     0.065 C 
HETATM    6  C12 UNL     1     -36.556  14.918  -5.054  1.00 20.00    -0.013 C 
HETATM    7  C13 UNL     1     -34.417  14.488  -5.507  1.00 20.00    -0.003 C 
ENDROOT
BRANCH   5   8
HETATM    8  C3  UNL     1     -33.491  15.813  -3.576  1.00 20.00     0.159 C 
HETATM    9  O14 UNL     1     -32.469  15.135  -3.525  1.00 20.00    -0.292 OA
BRANCH   8  10
HETATM   10  C2  UNL     1     -33.902  16.584  -2.444  1.00 20.00    -0.016 C 
HETATM   11  C1  UNL     1     -34.591  16.135  -1.389  1.00 20.00    -0.016 C 
HETATM   12  C4  UNL     1     -34.863  17.224  -0.405  1.00 20.00     0.028 C 
HETATM   13  C6  UNL     1     -33.927  18.340  -0.867  1.00 20.00     0.009 C 
HETATM   14  C5  UNL     1     -33.602  18.044  -2.332  1.00 20.00     0.042 C 
ENDBRANCH   8  10
ENDBRANCH   5   8
TORSDOF 2
ENDMDL
MODEL 7
REMARK VINA RESULT:      -5.1     12.592     14.989
REMARK  2 active torsions:
REMARK  status: ('A' for Active; 'I' for Inactive)
REMARK    1  A    between atoms: C2_2  and  C3_3 
REMARK    2  A    between atoms: C3_3  and  C11_11 
ROOT
HETATM    1  C7  UNL     1     -40.775   6.220   0.308  1.00 20.00     0.005 C 
HETATM    2  C8  UNL     1     -40.803   6.876  -1.082  1.00 20.00     0.006 C 
HETATM    3  C9  UNL     1     -41.637   4.071  -0.659  1.00 20.00     0.017 C 
HETATM    4  C10 UNL     1     -42.970   6.042  -0.591  1.00 20.00     0.010 C 
HETATM    5  C11 UNL     1     -41.601   4.719  -2.053  1.00 20.00     0.065 C 
HETATM    6  C12 UNL     1     -41.976   5.259   0.263  1.00 20.00    -0.013 C 
HETATM    7  C13 UNL     1     -41.994   6.183  -1.764  1.00 20.00    -0.003 C 
ENDROOT
BRANCH   5   8
HETATM    8  C3  UNL     1     -42.565   4.060  -2.992  1.00 20.00     0.159 C 
HETATM    9  O14 UNL     1     -43.417   4.698  -3.603  1.00 20.00    -0.292 OA
BRANCH   8  10
HETATM   10  C2  UNL     1     -42.472   2.643  -3.153  1.00 20.00    -0.016 C 
HETATM   11  C1  UNL     1     -43.385   1.742  -2.771  1.00 20.00    -0.016 C 
HETATM   12  C4  UNL     1     -42.946   0.349  -3.079  1.00 20.00     0.028 C 
HETATM   13  C6  UNL     1     -41.766   0.567  -4.025  1.00 20.00     0.009 C 
HETATM   14  C5  UNL     1     -41.278   1.995  -3.777  1.00 20.00     0.042 C 
ENDBRANCH   8  10
ENDBRANCH   5   8
TORSDOF 2
ENDMDL
MODEL 8
REMARK VINA RESULT:      -5.0     12.420     14.629
REMARK  2 active torsions:
REMARK  status: ('A' for Active; 'I' for Inactive)
REMARK    1  A    between atoms: C2_2  and  C3_3 
REMARK    2  A    between atoms: C3_3  and  C11_11 
ROOT
HETATM    1  C7  UNL     1     -43.400   7.883  -1.093  1.00 20.00     0.005 C 
HETATM    2  C8  UNL     1     -43.413   6.796  -0.006  1.00 20.00     0.006 C 
HETATM    3  C9  UNL     1     -42.424   6.263  -2.741  1.00 20.00     0.017 C 
HETATM    4  C10 UNL     1     -41.201   7.011  -0.840  1.00 20.00     0.010 C 
HETATM    5  C11 UNL     1     -42.500   5.168  -1.663  1.00 20.00     0.065 C 
HETATM    6  C12 UNL     1     -42.148   7.536  -1.917  1.00 20.00    -0.013 C 
HETATM    7  C13 UNL     1     -42.187   5.939  -0.364  1.00 20.00    -0.003 C 
ENDROOT
BRANCH   5   8
HETATM    8  C3  UNL     1     -41.504   4.077  -1.915  1.00 20.00     0.159 C 
HETATM    9  O14 UNL     1     -40.336   4.165  -1.548  1.00 20.00    -0.292 OA
BRANCH   8  10
HETATM   10  C2  UNL     1     -41.953   2.915  -2.616  1.00 20.00    -0.016 C 
HETATM   11  C1  UNL     1     -41.289   2.265  -3.578  1.00 20.00    -0.016 C 
HETATM   12  C4  UNL     1     -42.071   1.106  -4.100  1.00 20.00     0.028 C 
HETATM   13  C6  UNL     1     -43.178   0.946  -3.058  1.00 20.00     0.009 C 
HETATM   14  C5  UNL     1     -43.285   2.293  -2.341  1.00 20.00     0.042 C 
ENDBRANCH   8  10
ENDBRANCH   5   8
TORSDOF 2
ENDMDL
MODEL 9
REMARK VINA RESULT:      -5.0      2.199      5.489
REMARK  2 active torsions:
REMARK  status: ('A' for Active; 'I' for Inactive)
REMARK    1  A    between atoms: C2_2  and  C3_3 
REMARK    2  A    between atoms: C3_3  and  C11_11 
ROOT
HETATM    1  C7  UNL     1     -34.638  15.236  -7.438  1.00 20.00     0.005 C 
HETATM    2  C8  UNL     1     -33.877  16.155  -6.470  1.00 20.00     0.006 C 
HETATM    3  C9  UNL     1     -36.523  15.020  -5.797  1.00 20.00     0.017 C 
HETATM    4  C10 UNL     1     -34.365  14.116  -5.357  1.00 20.00     0.010 C 
HETATM    5  C11 UNL     1     -35.780  15.990  -4.863  1.00 20.00     0.065 C 
HETATM    6  C12 UNL     1     -35.372  14.267  -6.494  1.00 20.00    -0.013 C 
HETATM    7  C13 UNL     1     -34.299  15.623  -5.090  1.00 20.00    -0.003 C 
ENDROOT
BRANCH   5   8
HETATM    8  C3  UNL     1     -36.187  15.799  -3.434  1.00 20.00     0.159 C 
HETATM    9  O14 UNL     1     -37.039  14.979  -3.104  1.00 20.00    -0.292 OA
BRANCH   8  10
HETATM   10  C2  UNL     1     -35.554  16.617  -2.447  1.00 20.00    -0.016 C 
HETATM   11  C1  UNL     1     -34.729  16.197  -1.481  1.00 20.00    -0.016 C 
HETATM   12  C4  UNL     1     -34.271  17.325  -0.618  1.00 20.00     0.028 C 
HETATM   13  C6  UNL     1     -34.679  18.557  -1.426  1.00 20.00     0.009 C 
HETATM   14  C5  UNL     1     -35.777  18.094  -2.384  1.00 20.00     0.042 C 
ENDBRANCH   8  10
ENDBRANCH   5   8
TORSDOF 2
ENDMDL
