MODEL 1
REMARK VINA RESULT:      -5.8      0.000      0.000
REMARK  2 active torsions:
REMARK  status: ('A' for Active; 'I' for Inactive)
REMARK    1  A    between atoms: C2_2  and  C3_3 
REMARK    2  A    between atoms: C3_3  and  C8_8 
ROOT
HETATM    1  C3  UNL     1     -33.798   5.684   3.024  1.00 20.00     0.159 C 
HETATM    2  O11 UNL     1     -34.568   5.294   2.133  1.00 20.00    -0.292 OA
ENDROOT
BRANCH   1   3
HETATM    3  C2  UNL     1     -34.120   5.518   4.406  1.00 20.00    -0.016 C 
HETATM    4  C1  UNL     1     -34.002   6.445   5.361  1.00 20.00    -0.016 C 
HETATM    5  C4  UNL     1     -34.410   5.915   6.697  1.00 20.00     0.028 C 
HETATM    6  C6  UNL     1     -35.124   4.612   6.340  1.00 20.00     0.009 C 
HETATM    7  C5  UNL     1     -34.624   4.219   4.948  1.00 20.00     0.042 C 
ENDBRANCH   1   3
BRANCH   1   8
HETATM    8  C8  UNL     1     -32.491   6.359   2.660  1.00 20.00     0.064 A 
HETATM    9  C7  UNL     1     -31.874   7.256   3.667  1.00 20.00     0.018 A 
HETATM   10  C9  UNL     1     -32.517   7.835   2.434  1.00 20.00    -0.006 A 
HETATM   11  C10 UNL     1     -31.675   8.411   1.349  1.00 20.00     0.011 C 
ENDBRANCH   1   8
TORSDOF 2
ENDMDL
MODEL 2
REMARK VINA RESULT:      -5.6      1.544      2.211
REMARK  2 active torsions:
REMARK  status: ('A' for Active; 'I' for Inactive)
REMARK    1  A    between atoms: C2_2  and  C3_3 
REMARK    2  A    between atoms: C3_3  and  C8_8 
ROOT
HETATM    1  C3  UNL     1     -32.488   6.879   3.371  1.00 20.00     0.159 C 
HETATM    2  O11 UNL     1     -31.304   6.713   3.699  1.00 20.00    -0.292 OA
ENDROOT
BRANCH   1   3
HETATM    3  C2  UNL     1     -33.546   6.198   4.047  1.00 20.00    -0.016 C 
HETATM    4  C1  UNL     1     -34.443   5.379   3.487  1.00 20.00    -0.016 C 
HETATM    5  C4  UNL     1     -35.418   4.860   4.492  1.00 20.00     0.028 C 
HETATM    6  C6  UNL     1     -34.761   5.227   5.822  1.00 20.00     0.009 C 
HETATM    7  C5  UNL     1     -33.778   6.358   5.515  1.00 20.00     0.042 C 
ENDBRANCH   1   3
BRANCH   1   8
HETATM    8  C8  UNL     1     -32.839   7.812   2.230  1.00 20.00     0.064 A 
HETATM    9  C7  UNL     1     -31.843   7.982   1.145  1.00 20.00     0.018 A 
HETATM   10  C9  UNL     1     -32.082   9.096   2.131  1.00 20.00    -0.006 A 
HETATM   11  C10 UNL     1     -32.806  10.327   1.710  1.00 20.00     0.011 C 
ENDBRANCH   1   8
TORSDOF 2
ENDMDL
MODEL 3
REMARK VINA RESULT:      -5.5     11.458     12.209
REMARK  2 active torsions:
REMARK  status: ('A' for Active; 'I' for Inactive)
REMARK    1  A    between atoms: C2_2  and  C3_3 
REMARK    2  A    between atoms: C3_3  and  C8_8 
ROOT
HETATM    1  C3  UNL     1     -35.211  16.523  -2.169  1.00 20.00     0.159 C 
HETATM    2  O11 UNL     1     -36.164  17.281  -2.404  1.00 20.00    -0.292 OA
ENDROOT
BRANCH   1   3
HETATM    3  C2  UNL     1     -34.932  15.401  -3.008  1.00 20.00    -0.016 C 
HETATM    4  C1  UNL     1     -33.726  14.881  -3.257  1.00 20.00    -0.016 C 
HETATM    5  C4  UNL     1     -33.808  13.725  -4.199  1.00 20.00     0.028 C 
HETATM    6  C6  UNL     1     -35.303  13.407  -4.215  1.00 20.00     0.009 C 
HETATM    7  C5  UNL     1     -36.014  14.677  -3.743  1.00 20.00     0.042 C 
ENDBRANCH   1   3
BRANCH   1   8
HETATM    8  C8  UNL     1     -34.319  16.770  -0.969  1.00 20.00     0.064 A 
HETATM    9  C7  UNL     1     -34.950  17.297   0.264  1.00 20.00     0.018 A 
HETATM   10  C9  UNL     1     -34.073  18.189  -0.574  1.00 20.00    -0.006 A 
HETATM   11  C10 UNL     1     -32.718  18.575  -0.091  1.00 20.00     0.011 C 
ENDBRANCH   1   8
TORSDOF 2
ENDMDL
MODEL 4
REMARK VINA RESULT:      -5.5     11.422     12.281
REMARK  2 active torsions:
REMARK  status: ('A' for Active; 'I' for Inactive)
REMARK    1  A    between atoms: C2_2  and  C3_3 
REMARK    2  A    between atoms: C3_3  and  C8_8 
ROOT
HETATM    1  C3  UNL     1     -33.800  16.408  -3.007  1.00 20.00     0.159 C 
HETATM    2  O11 UNL     1     -33.433  17.067  -3.992  1.00 20.00    -0.292 OA
ENDROOT
BRANCH   1   3
HETATM    3  C2  UNL     1     -33.993  17.025  -1.734  1.00 20.00    -0.016 C 
HETATM    4  C1  UNL     1     -34.762  16.565  -0.741  1.00 20.00    -0.016 C 
HETATM    5  C4  UNL     1     -34.744  17.480   0.439  1.00 20.00     0.028 C 
HETATM    6  C6  UNL     1     -33.566  18.404   0.134  1.00 20.00     0.009 C 
HETATM    7  C5  UNL     1     -33.340  18.322  -1.377  1.00 20.00     0.042 C 
ENDBRANCH   1   3
BRANCH   1   8
HETATM    8  C8  UNL     1     -34.045  14.918  -3.135  1.00 20.00     0.064 A 
HETATM    9  C7  UNL     1     -32.913  14.068  -3.576  1.00 20.00     0.018 A 
HETATM   10  C9  UNL     1     -34.062  14.338  -4.511  1.00 20.00    -0.006 A 
HETATM   11  C10 UNL     1     -35.043  13.262  -4.824  1.00 20.00     0.011 C 
ENDBRANCH   1   8
TORSDOF 2
ENDMDL
MODEL 5
REMARK VINA RESULT:      -5.5     11.276     13.057
REMARK  2 active torsions:
REMARK  status: ('A' for Active; 'I' for Inactive)
REMARK    1  A    between atoms: C2_2  and  C3_3 
REMARK    2  A    between atoms: C3_3  and  C8_8 
ROOT
HETATM    1  C3  UNL     1     -34.071  14.237  -3.990  1.00 20.00     0.159 C 
HETATM    2  O11 UNL     1     -33.211  13.371  -3.768  1.00 20.00    -0.292 OA
ENDROOT
BRANCH   1   3
HETATM    3  C2  UNL     1     -34.321  14.710  -5.314  1.00 20.00    -0.016 C 
HETATM    4  C1  UNL     1     -35.115  14.133  -6.222  1.00 20.00    -0.016 C 
HETATM    5  C4  UNL     1     -35.123  14.891  -7.509  1.00 20.00     0.028 C 
HETATM    6  C6  UNL     1     -34.471  16.218  -7.124  1.00 20.00     0.009 C 
HETATM    7  C5  UNL     1     -33.671  15.946  -5.848  1.00 20.00     0.042 C 
ENDBRANCH   1   3
BRANCH   1   8
HETATM    8  C8  UNL     1     -34.875  14.823  -2.847  1.00 20.00     0.064 A 
HETATM    9  C7  UNL     1     -35.831  15.912  -3.163  1.00 20.00     0.018 A 
HETATM   10  C9  UNL     1     -34.556  16.220  -2.425  1.00 20.00    -0.006 A 
HETATM   11  C10 UNL     1     -34.591  16.558  -0.975  1.00 20.00     0.011 C 
ENDBRANCH   1   8
TORSDOF 2
ENDMDL
MODEL 6
REMARK VINA RESULT:      -5.4     11.873     12.909
REMARK  2 active torsions:
REMARK  status: ('A' for Active; 'I' for Inactive)
REMARK    1  A    between atoms: C2_2  and  C3_3 
REMARK    2  A    between atoms: C3_3  and  C8_8 
ROOT
HETATM    1  C3  UNL     1     -33.837  16.224  -4.291  1.00 20.00     0.159 C 
HETATM    2  O11 UNL     1     -32.878  16.644  -4.956  1.00 20.00    -0.292 OA
ENDROOT
BRANCH   1   3
HETATM    3  C2  UNL     1     -34.039  16.642  -2.940  1.00 20.00    -0.016 C 
HETATM    4  C1  UNL     1     -34.608  15.922  -1.968  1.00 20.00    -0.016 C 
HETATM    5  C4  UNL     1     -34.674  16.683  -0.685  1.00 20.00     0.028 C 
HETATM    6  C6  UNL     1     -33.739  17.863  -0.943  1.00 20.00     0.009 C 
HETATM    7  C5  UNL     1     -33.634  18.000  -2.463  1.00 20.00     0.042 C 
ENDBRANCH   1   3
BRANCH   1   8
HETATM    8  C8  UNL     1     -34.817  15.245  -4.902  1.00 20.00     0.064 A 
HETATM    9  C7  UNL     1     -34.399  13.826  -5.011  1.00 20.00     0.018 A 
HETATM   10  C9  UNL     1     -34.485  14.684  -6.246  1.00 20.00    -0.006 A 
HETATM   11  C10 UNL     1     -35.584  14.475  -7.229  1.00 20.00     0.011 C 
ENDBRANCH   1   8
TORSDOF 2
ENDMDL
MODEL 7
REMARK VINA RESULT:      -5.4     10.174     11.366
REMARK  2 active torsions:
REMARK  status: ('A' for Active; 'I' for Inactive)
REMARK    1  A    between atoms: C2_2  and  C3_3 
REMARK    2  A    between atoms: C3_3  and  C8_8 
ROOT
HETATM    1  C3  UNL     1     -42.505   3.970  -2.915  1.00 20.00     0.159 C 
HETATM    2  O11 UNL     1     -43.417   4.260  -3.704  1.00 20.00    -0.292 OA
ENDROOT
BRANCH   1   3
HETATM    3  C2  UNL     1     -41.866   4.971  -2.121  1.00 20.00    -0.016 C 
HETATM    4  C1  UNL     1     -42.078   6.290  -2.192  1.00 20.00    -0.016 C 
HETATM    5  C4  UNL     1     -41.219   7.038  -1.227  1.00 20.00     0.028 C 
HETATM    6  C6  UNL     1     -40.695   5.932  -0.311  1.00 20.00     0.009 C 
HETATM    7  C5  UNL     1     -40.832   4.627  -1.098  1.00 20.00     0.042 C 
ENDBRANCH   1   3
BRANCH   1   8
HETATM    8  C8  UNL     1     -42.039   2.534  -2.782  1.00 20.00     0.064 A 
HETATM    9  C7  UNL     1     -41.285   1.945  -3.915  1.00 20.00     0.018 A 
HETATM   10  C9  UNL     1     -42.702   1.512  -3.646  1.00 20.00    -0.006 A 
HETATM   11  C10 UNL     1     -42.979   0.163  -3.080  1.00 20.00     0.011 C 
ENDBRANCH   1   8
TORSDOF 2
ENDMDL
MODEL 8
REMARK VINA RESULT:      -5.4     11.692     12.644
REMARK  2 active torsions:
REMARK  status: ('A' for Active; 'I' for Inactive)
REMARK    1  A    between atoms: C2_2  and  C3_3 
REMARK    2  A    between atoms: C3_3  and  C8_8 
ROOT
HETATM    1  C3  UNL     1     -34.820  13.754  -4.776  1.00 20.00     0.159 C 
HETATM    2  O11 UNL     1     -34.849  12.555  -4.461  1.00 20.00    -0.292 OA
ENDROOT
BRANCH   1   3
HETATM    3  C2  UNL     1     -34.717  14.777  -3.784  1.00 20.00    -0.016 C 
HETATM    4  C1  UNL     1     -33.587  15.333  -3.336  1.00 20.00    -0.016 C 
HETATM    5  C4  UNL     1     -33.855  16.357  -2.283  1.00 20.00     0.028 C 
HETATM    6  C6  UNL     1     -35.362  16.581  -2.405  1.00 20.00     0.009 C 
HETATM    7  C5  UNL     1     -35.923  15.340  -3.102  1.00 20.00     0.042 C 
ENDBRANCH   1   3
BRANCH   1   8
HETATM    8  C8  UNL     1     -34.900  14.162  -6.232  1.00 20.00     0.064 A 
HETATM    9  C7  UNL     1     -34.507  15.548  -6.584  1.00 20.00     0.018 A 
HETATM   10  C9  UNL     1     -35.958  15.145  -6.615  1.00 20.00    -0.006 A 
HETATM   11  C10 UNL     1     -36.661  14.974  -7.917  1.00 20.00     0.011 C 
ENDBRANCH   1   8
TORSDOF 2
ENDMDL
MODEL 9
REMARK VINA RESULT:      -5.2     11.443     12.748
REMARK  2 active torsions:
REMARK  status: ('A' for Active; 'I' for Inactive)
REMARK    1  A    between atoms: C2_2  and  C3_3 
REMARK    2  A    between atoms: C3_3  and  C8_8 
ROOT
HETATM    1  C3  UNL     1     -33.846  17.291  -3.608  1.00 20.00     0.159 C 
HETATM    2  O11 UNL     1     -33.389  18.007  -4.512  1.00 20.00    -0.292 OA
ENDROOT
BRANCH   1   3
HETATM    3  C2  UNL     1     -33.924  15.872  -3.756  1.00 20.00    -0.016 C 
HETATM    4  C1  UNL     1     -32.910  15.008  -3.641  1.00 20.00    -0.016 C 
HETATM    5  C4  UNL     1     -33.354  13.603  -3.880  1.00 20.00     0.028 C 
HETATM    6  C6  UNL     1     -34.877  13.714  -3.821  1.00 20.00     0.009 C 
HETATM    7  C5  UNL     1     -35.208  15.183  -4.090  1.00 20.00     0.042 C 
ENDBRANCH   1   3
BRANCH   1   8
HETATM    8  C8  UNL     1     -34.342  17.914  -2.319  1.00 20.00     0.064 A 
HETATM    9  C7  UNL     1     -33.355  18.622  -1.469  1.00 20.00     0.018 A 
HETATM   10  C9  UNL     1     -33.902  17.287  -1.037  1.00 20.00    -0.006 A 
HETATM   11  C10 UNL     1     -34.870  17.204   0.092  1.00 20.00     0.011 C 
ENDBRANCH   1   8
TORSDOF 2
ENDMDL
