MODEL 1
REMARK VINA RESULT:      -5.3      0.000      0.000
REMARK  2 active torsions:
REMARK  status: ('A' for Active; 'I' for Inactive)
REMARK    1  A    between atoms: C2_2  and  C3_3 
REMARK    2  A    between atoms: C3_3  and  C9_9 
ROOT
HETATM    1  C1  UNL     1     -34.211   5.626   3.327  1.00 20.00    -0.016 C 
HETATM    2  C2  UNL     1     -33.403   6.505   3.931  1.00 20.00    -0.016 C 
HETATM    3  C4  UNL     1     -35.134   4.968   4.299  1.00 20.00     0.028 C 
HETATM    4  C5  UNL     1     -33.658   6.574   5.403  1.00 20.00     0.042 C 
HETATM    5  C6  UNL     1     -34.524   5.338   5.650  1.00 20.00     0.009 C 
ENDROOT
BRANCH   2   6
HETATM    6  C3  UNL     1     -32.414   7.318   3.296  1.00 20.00     0.159 C 
HETATM    7  O10 UNL     1     -31.290   7.469   3.795  1.00 20.00    -0.292 OA
BRANCH   6   8
HETATM    8  C9  UNL     1     -32.765   7.991   1.985  1.00 20.00     0.060 A 
HETATM    9  C7  UNL     1     -32.561   9.456   1.884  1.00 20.00     0.013 A 
HETATM   10  C8  UNL     1     -31.652   8.511   1.157  1.00 20.00     0.013 A 
ENDBRANCH   6   8
ENDBRANCH   2   6
TORSDOF 2
ENDMDL
MODEL 2
REMARK VINA RESULT:      -5.2      1.435      1.905
REMARK  2 active torsions:
REMARK  status: ('A' for Active; 'I' for Inactive)
REMARK    1  A    between atoms: C2_2  and  C3_3 
REMARK    2  A    between atoms: C3_3  and  C9_9 
ROOT
HETATM    1  C1  UNL     1     -34.847   4.416   4.541  1.00 20.00    -0.016 C 
HETATM    2  C2  UNL     1     -34.162   5.559   4.428  1.00 20.00    -0.016 C 
HETATM    3  C4  UNL     1     -35.337   4.201   5.934  1.00 20.00     0.028 C 
HETATM    4  C5  UNL     1     -34.085   6.291   5.730  1.00 20.00     0.042 C 
HETATM    5  C6  UNL     1     -34.545   5.234   6.735  1.00 20.00     0.009 C 
ENDROOT
BRANCH   2   6
HETATM    6  C3  UNL     1     -33.572   6.077   3.234  1.00 20.00     0.159 C 
HETATM    7  O10 UNL     1     -33.625   5.448   2.167  1.00 20.00    -0.292 OA
BRANCH   6   8
HETATM    8  C9  UNL     1     -32.884   7.425   3.294  1.00 20.00     0.060 A 
HETATM    9  C7  UNL     1     -31.405   7.441   3.394  1.00 20.00     0.013 A 
HETATM   10  C8  UNL     1     -32.084   7.843   2.120  1.00 20.00     0.013 A 
ENDBRANCH   6   8
ENDBRANCH   2   6
TORSDOF 2
ENDMDL
MODEL 3
REMARK VINA RESULT:      -4.5     10.677     11.262
REMARK  2 active torsions:
REMARK  status: ('A' for Active; 'I' for Inactive)
REMARK    1  A    between atoms: C2_2  and  C3_3 
REMARK    2  A    between atoms: C3_3  and  C9_9 
ROOT
HETATM    1  C1  UNL     1     -33.780  14.887  -3.317  1.00 20.00    -0.016 C 
HETATM    2  C2  UNL     1     -34.989  15.381  -3.030  1.00 20.00    -0.016 C 
HETATM    3  C4  UNL     1     -33.863  13.745  -4.275  1.00 20.00     0.028 C 
HETATM    4  C5  UNL     1     -36.074  14.646  -3.752  1.00 20.00     0.042 C 
HETATM    5  C6  UNL     1     -35.351  13.400  -4.262  1.00 20.00     0.009 C 
ENDROOT
BRANCH   2   6
HETATM    6  C3  UNL     1     -35.269  16.484  -2.166  1.00 20.00     0.159 C 
HETATM    7  O10 UNL     1     -36.100  17.349  -2.477  1.00 20.00    -0.292 OA
BRANCH   6   8
HETATM    8  C9  UNL     1     -34.531  16.573  -0.846  1.00 20.00     0.060 A 
HETATM    9  C7  UNL     1     -33.804  17.829  -0.544  1.00 20.00     0.013 A 
HETATM   10  C8  UNL     1     -35.070  17.490   0.185  1.00 20.00     0.013 A 
ENDBRANCH   6   8
ENDBRANCH   2   6
TORSDOF 2
ENDMDL
MODEL 4
REMARK VINA RESULT:      -4.5     10.065     11.315
REMARK  2 active torsions:
REMARK  status: ('A' for Active; 'I' for Inactive)
REMARK    1  A    between atoms: C2_2  and  C3_3 
REMARK    2  A    between atoms: C3_3  and  C9_9 
ROOT
HETATM    1  C1  UNL     1     -41.991   6.502  -2.012  1.00 20.00    -0.016 C 
HETATM    2  C2  UNL     1     -41.837   5.174  -1.980  1.00 20.00    -0.016 C 
HETATM    3  C4  UNL     1     -41.129   7.181  -1.000  1.00 20.00     0.028 C 
HETATM    4  C5  UNL     1     -40.848   4.754  -0.940  1.00 20.00     0.042 C 
HETATM    5  C6  UNL     1     -40.677   6.026  -0.109  1.00 20.00     0.009 C 
ENDROOT
BRANCH   2   6
HETATM    6  C3  UNL     1     -42.495   4.226  -2.823  1.00 20.00     0.159 C 
HETATM    7  O10 UNL     1     -43.316   4.590  -3.678  1.00 20.00    -0.292 OA
BRANCH   6   8
HETATM    8  C9  UNL     1     -42.162   2.759  -2.659  1.00 20.00     0.060 A 
HETATM    9  C7  UNL     1     -42.809   1.796  -3.581  1.00 20.00     0.013 A 
HETATM   10  C8  UNL     1     -41.350   2.113  -3.717  1.00 20.00     0.013 A 
ENDBRANCH   6   8
ENDBRANCH   2   6
TORSDOF 2
ENDMDL
MODEL 5
REMARK VINA RESULT:      -4.5     10.822     11.599
REMARK  2 active torsions:
REMARK  status: ('A' for Active; 'I' for Inactive)
REMARK    1  A    between atoms: C2_2  and  C3_3 
REMARK    2  A    between atoms: C3_3  and  C9_9 
ROOT
HETATM    1  C1  UNL     1     -33.671  15.319  -3.205  1.00 20.00    -0.016 C 
HETATM    2  C2  UNL     1     -34.808  14.807  -3.689  1.00 20.00    -0.016 C 
HETATM    3  C4  UNL     1     -33.932  16.381  -2.189  1.00 20.00     0.028 C 
HETATM    4  C5  UNL     1     -36.011  15.446  -3.072  1.00 20.00     0.042 C 
HETATM    5  C6  UNL     1     -35.419  16.674  -2.380  1.00 20.00     0.009 C 
ENDROOT
BRANCH   2   6
HETATM    6  C3  UNL     1     -34.919  13.765  -4.660  1.00 20.00     0.159 C 
HETATM    7  O10 UNL     1     -35.089  12.585  -4.319  1.00 20.00    -0.292 OA
BRANCH   6   8
HETATM    8  C9  UNL     1     -34.834  14.131  -6.126  1.00 20.00     0.060 A 
HETATM    9  C7  UNL     1     -35.868  15.044  -6.671  1.00 20.00     0.013 A 
HETATM   10  C8  UNL     1     -34.462  15.524  -6.469  1.00 20.00     0.013 A 
ENDBRANCH   6   8
ENDBRANCH   2   6
TORSDOF 2
ENDMDL
MODEL 6
REMARK VINA RESULT:      -4.5     10.523     11.467
REMARK  2 active torsions:
REMARK  status: ('A' for Active; 'I' for Inactive)
REMARK    1  A    between atoms: C2_2  and  C3_3 
REMARK    2  A    between atoms: C3_3  and  C9_9 
ROOT
HETATM    1  C1  UNL     1     -34.663  16.224  -1.194  1.00 20.00    -0.016 C 
HETATM    2  C2  UNL     1     -34.021  16.558  -2.319  1.00 20.00    -0.016 C 
HETATM    3  C4  UNL     1     -34.775  17.381  -0.259  1.00 20.00     0.028 C 
HETATM    4  C5  UNL     1     -33.602  17.993  -2.314  1.00 20.00     0.042 C 
HETATM    5  C6  UNL     1     -33.794  18.392  -0.850  1.00 20.00     0.009 C 
ENDROOT
BRANCH   2   6
HETATM    6  C3  UNL     1     -33.757  15.697  -3.429  1.00 20.00     0.159 C 
HETATM    7  O10 UNL     1     -33.100  16.091  -4.404  1.00 20.00    -0.292 OA
BRANCH   6   8
HETATM    8  C9  UNL     1     -34.290  14.281  -3.388  1.00 20.00     0.060 A 
HETATM    9  C7  UNL     1     -35.546  13.995  -4.122  1.00 20.00     0.013 A 
HETATM   10  C8  UNL     1     -34.234  13.486  -4.637  1.00 20.00     0.013 A 
ENDBRANCH   6   8
ENDBRANCH   2   6
TORSDOF 2
ENDMDL
MODEL 7
REMARK VINA RESULT:      -4.5     10.903     11.603
REMARK  2 active torsions:
REMARK  status: ('A' for Active; 'I' for Inactive)
REMARK    1  A    between atoms: C2_2  and  C3_3 
REMARK    2  A    between atoms: C3_3  and  C9_9 
ROOT
HETATM    1  C1  UNL     1     -35.854  15.446  -3.156  1.00 20.00    -0.016 C 
HETATM    2  C2  UNL     1     -34.834  14.845  -3.779  1.00 20.00    -0.016 C 
HETATM    3  C4  UNL     1     -35.384  16.549  -2.267  1.00 20.00     0.028 C 
HETATM    4  C5  UNL     1     -33.520  15.452  -3.405  1.00 20.00     0.042 C 
HETATM    5  C6  UNL     1     -33.879  16.301  -2.185  1.00 20.00     0.009 C 
ENDROOT
BRANCH   2   6
HETATM    6  C3  UNL     1     -34.931  13.766  -4.711  1.00 20.00     0.159 C 
HETATM    7  O10 UNL     1     -34.990  12.589  -4.326  1.00 20.00    -0.292 OA
BRANCH   6   8
HETATM    8  C9  UNL     1     -34.969  14.090  -6.190  1.00 20.00     0.060 A 
HETATM    9  C7  UNL     1     -35.870  15.179  -6.636  1.00 20.00     0.013 A 
HETATM   10  C8  UNL     1     -34.385  15.379  -6.629  1.00 20.00     0.013 A 
ENDBRANCH   6   8
ENDBRANCH   2   6
TORSDOF 2
ENDMDL
MODEL 8
REMARK VINA RESULT:      -4.4      1.688      4.591
REMARK  2 active torsions:
REMARK  status: ('A' for Active; 'I' for Inactive)
REMARK    1  A    between atoms: C2_2  and  C3_3 
REMARK    2  A    between atoms: C3_3  and  C9_9 
ROOT
HETATM    1  C1  UNL     1     -32.300   7.372   4.164  1.00 20.00    -0.016 C 
HETATM    2  C2  UNL     1     -33.306   6.500   4.296  1.00 20.00    -0.016 C 
HETATM    3  C4  UNL     1     -31.809   7.439   2.756  1.00 20.00     0.028 C 
HETATM    4  C5  UNL     1     -33.647   5.846   2.995  1.00 20.00     0.042 C 
HETATM    5  C6  UNL     1     -32.453   6.211   2.113  1.00 20.00     0.009 C 
ENDROOT
BRANCH   2   6
HETATM    6  C3  UNL     1     -34.017   6.205   5.500  1.00 20.00     0.159 C 
HETATM    7  O10 UNL     1     -33.766   6.803   6.556  1.00 20.00    -0.292 OA
BRANCH   6   8
HETATM    8  C9  UNL     1     -35.098   5.145   5.460  1.00 20.00     0.060 A 
HETATM    9  C7  UNL     1     -34.673   3.725   5.455  1.00 20.00     0.013 A 
HETATM   10  C8  UNL     1     -35.305   4.325   6.676  1.00 20.00     0.013 A 
ENDBRANCH   6   8
ENDBRANCH   2   6
TORSDOF 2
ENDMDL
MODEL 9
REMARK VINA RESULT:      -4.4     10.592     12.403
REMARK  2 active torsions:
REMARK  status: ('A' for Active; 'I' for Inactive)
REMARK    1  A    between atoms: C2_2  and  C3_3 
REMARK    2  A    between atoms: C3_3  and  C9_9 
ROOT
HETATM    1  C1  UNL     1     -34.442  14.786  -6.971  1.00 20.00    -0.016 C 
HETATM    2  C2  UNL     1     -35.089  14.526  -5.829  1.00 20.00    -0.016 C 
HETATM    3  C4  UNL     1     -35.243  15.670  -7.868  1.00 20.00     0.028 C 
HETATM    4  C5  UNL     1     -36.425  15.195  -5.782  1.00 20.00     0.042 C 
HETATM    5  C6  UNL     1     -36.632  15.629  -7.234  1.00 20.00     0.009 C 
ENDROOT
BRANCH   2   6
HETATM    6  C3  UNL     1     -34.603  13.730  -4.746  1.00 20.00     0.159 C 
HETATM    7  O10 UNL     1     -34.925  12.539  -4.630  1.00 20.00    -0.292 OA
BRANCH   6   8
HETATM    8  C9  UNL     1     -33.673  14.372  -3.738  1.00 20.00     0.060 A 
HETATM    9  C7  UNL     1     -33.294  15.789  -3.953  1.00 20.00     0.013 A 
HETATM   10  C8  UNL     1     -34.235  15.415  -2.848  1.00 20.00     0.013 A 
ENDBRANCH   6   8
ENDBRANCH   2   6
TORSDOF 2
ENDMDL
