MODEL 1
REMARK VINA RESULT:      -5.3      0.000      0.000
REMARK  2 active torsions:
REMARK  status: ('A' for Active; 'I' for Inactive)
REMARK    1  A    between atoms: C2_2  and  C3_3 
REMARK    2  A    between atoms: C3_3  and  C9_9 
ROOT
HETATM    1  C1  UNL     1     -34.035   5.862   3.377  1.00 20.00    -0.016 C 
HETATM    2  C2  UNL     1     -33.155   6.583   4.086  1.00 20.00    -0.016 C 
HETATM    3  C4  UNL     1     -35.098   5.023   4.024  1.00 20.00     0.028 C 
HETATM    4  C5  UNL     1     -33.152   6.659   5.583  1.00 20.00     0.042 C 
HETATM    5  C6  UNL     1     -34.886   4.826   5.527  1.00 20.00     0.004 C 
HETATM    6  C7  UNL     1     -34.446   6.123   6.201  1.00 20.00     0.005 C 
ENDROOT
BRANCH   2   7
HETATM    7  C3  UNL     1     -32.154   7.356   3.346  1.00 20.00     0.159 C 
HETATM    8  O12 UNL     1     -31.139   7.772   3.909  1.00 20.00    -0.292 OA
BRANCH   7   9
HETATM    9  C9  UNL     1     -32.401   7.617   1.881  1.00 20.00     0.064 A 
HETATM   10  C8  UNL     1     -31.371   8.379   1.123  1.00 20.00     0.018 A 
HETATM   11  C10 UNL     1     -32.707   9.000   1.421  1.00 20.00    -0.006 A 
HETATM   12  C11 UNL     1     -32.796  10.172   2.338  1.00 20.00     0.011 C 
ENDBRANCH   7   9
ENDBRANCH   2   7
TORSDOF 2
ENDMDL
MODEL 2
REMARK VINA RESULT:      -5.0     10.553     11.764
REMARK  2 active torsions:
REMARK  status: ('A' for Active; 'I' for Inactive)
REMARK    1  A    between atoms: C2_2  and  C3_3 
REMARK    2  A    between atoms: C3_3  and  C9_9 
ROOT
HETATM    1  C1  UNL     1     -34.477  16.280  -1.342  1.00 20.00    -0.016 C 
HETATM    2  C2  UNL     1     -33.953  16.730  -2.492  1.00 20.00    -0.016 C 
HETATM    3  C4  UNL     1     -34.873  17.199  -0.222  1.00 20.00     0.028 C 
HETATM    4  C5  UNL     1     -33.735  18.181  -2.798  1.00 20.00     0.042 C 
HETATM    5  C6  UNL     1     -34.343  18.624  -0.390  1.00 20.00     0.004 C 
HETATM    6  C7  UNL     1     -34.482  19.104  -1.832  1.00 20.00     0.005 C 
ENDROOT
BRANCH   2   7
HETATM    7  C3  UNL     1     -33.594  15.740  -3.510  1.00 20.00     0.159 C 
HETATM    8  O12 UNL     1     -32.825  16.032  -4.428  1.00 20.00    -0.292 OA
BRANCH   7   9
HETATM    9  C9  UNL     1     -34.187  14.357  -3.395  1.00 20.00     0.064 A 
HETATM   10  C8  UNL     1     -34.165  13.484  -4.600  1.00 20.00     0.018 A 
HETATM   11  C10 UNL     1     -35.464  14.043  -4.093  1.00 20.00    -0.006 A 
HETATM   12  C11 UNL     1     -36.219  15.033  -4.913  1.00 20.00     0.011 C 
ENDBRANCH   7   9
ENDBRANCH   2   7
TORSDOF 2
ENDMDL
MODEL 3
REMARK VINA RESULT:      -5.0     10.539     11.593
REMARK  2 active torsions:
REMARK  status: ('A' for Active; 'I' for Inactive)
REMARK    1  A    between atoms: C2_2  and  C3_3 
REMARK    2  A    between atoms: C3_3  and  C9_9 
ROOT
HETATM    1  C1  UNL     1     -34.046  14.756  -3.048  1.00 20.00    -0.016 C 
HETATM    2  C2  UNL     1     -35.173  15.467  -3.202  1.00 20.00    -0.016 C 
HETATM    3  C4  UNL     1     -33.646  13.663  -3.997  1.00 20.00     0.028 C 
HETATM    4  C5  UNL     1     -36.131  15.277  -4.338  1.00 20.00     0.042 C 
HETATM    5  C6  UNL     1     -34.771  13.240  -4.945  1.00 20.00     0.004 C 
HETATM    6  C7  UNL     1     -35.533  14.450  -5.479  1.00 20.00     0.005 C 
ENDROOT
BRANCH   2   7
HETATM    7  C3  UNL     1     -35.465  16.502  -2.207  1.00 20.00     0.159 C 
HETATM    8  O12 UNL     1     -36.382  17.306  -2.388  1.00 20.00    -0.292 OA
BRANCH   7   9
HETATM    9  C9  UNL     1     -34.619  16.546  -0.959  1.00 20.00     0.064 A 
HETATM   10  C8  UNL     1     -34.905  17.609   0.043  1.00 20.00     0.018 A 
HETATM   11  C10 UNL     1     -33.642  17.653  -0.770  1.00 20.00    -0.006 A 
HETATM   12  C11 UNL     1     -33.432  18.744  -1.763  1.00 20.00     0.011 C 
ENDBRANCH   7   9
ENDBRANCH   2   7
TORSDOF 2
ENDMDL
MODEL 4
REMARK VINA RESULT:      -5.0     10.529     11.748
REMARK  2 active torsions:
REMARK  status: ('A' for Active; 'I' for Inactive)
REMARK    1  A    between atoms: C2_2  and  C3_3 
REMARK    2  A    between atoms: C3_3  and  C9_9 
ROOT
HETATM    1  C1  UNL     1     -33.655  17.977  -2.793  1.00 20.00    -0.016 C 
HETATM    2  C2  UNL     1     -33.961  16.698  -2.533  1.00 20.00    -0.016 C 
HETATM    3  C4  UNL     1     -33.998  19.096  -1.851  1.00 20.00     0.028 C 
HETATM    4  C5  UNL     1     -34.641  16.240  -1.278  1.00 20.00     0.042 C 
HETATM    5  C6  UNL     1     -34.980  18.685  -0.752  1.00 20.00     0.004 C 
HETATM    6  C7  UNL     1     -34.636  17.310  -0.183  1.00 20.00     0.005 C 
ENDROOT
BRANCH   2   7
HETATM    7  C3  UNL     1     -33.587  15.692  -3.531  1.00 20.00     0.159 C 
HETATM    8  O12 UNL     1     -32.796  15.969  -4.435  1.00 20.00    -0.292 OA
BRANCH   7   9
HETATM    9  C9  UNL     1     -34.192  14.316  -3.413  1.00 20.00     0.064 A 
HETATM   10  C8  UNL     1     -34.163  13.434  -4.612  1.00 20.00     0.018 A 
HETATM   11  C10 UNL     1     -35.464  14.006  -4.124  1.00 20.00    -0.006 A 
HETATM   12  C11 UNL     1     -36.202  14.996  -4.959  1.00 20.00     0.011 C 
ENDBRANCH   7   9
ENDBRANCH   2   7
TORSDOF 2
ENDMDL
MODEL 5
REMARK VINA RESULT:      -4.9     10.405     11.790
REMARK  2 active torsions:
REMARK  status: ('A' for Active; 'I' for Inactive)
REMARK    1  A    between atoms: C2_2  and  C3_3 
REMARK    2  A    between atoms: C3_3  and  C9_9 
ROOT
HETATM    1  C1  UNL     1     -34.750  16.379  -1.193  1.00 20.00    -0.016 C 
HETATM    2  C2  UNL     1     -34.816  16.371  -2.532  1.00 20.00    -0.016 C 
HETATM    3  C4  UNL     1     -34.071  17.477  -0.426  1.00 20.00     0.028 C 
HETATM    4  C5  UNL     1     -34.257  17.455  -3.402  1.00 20.00     0.042 C 
HETATM    5  C6  UNL     1     -33.214  18.392  -1.304  1.00 20.00     0.004 C 
HETATM    6  C7  UNL     1     -33.919  18.725  -2.616  1.00 20.00     0.005 C 
ENDROOT
BRANCH   2   7
HETATM    7  C3  UNL     1     -35.495  15.242  -3.172  1.00 20.00     0.159 C 
HETATM    8  O12 UNL     1     -36.686  15.319  -3.484  1.00 20.00    -0.292 OA
BRANCH   7   9
HETATM    9  C9  UNL     1     -34.694  13.993  -3.443  1.00 20.00     0.064 A 
HETATM   10  C8  UNL     1     -33.258  14.148  -3.806  1.00 20.00     0.018 A 
HETATM   11  C10 UNL     1     -34.254  13.686  -4.832  1.00 20.00    -0.006 A 
HETATM   12  C11 UNL     1     -34.571  14.550  -6.005  1.00 20.00     0.011 C 
ENDBRANCH   7   9
ENDBRANCH   2   7
TORSDOF 2
ENDMDL
MODEL 6
REMARK VINA RESULT:      -4.8     10.385     11.689
REMARK  2 active torsions:
REMARK  status: ('A' for Active; 'I' for Inactive)
REMARK    1  A    between atoms: C2_2  and  C3_3 
REMARK    2  A    between atoms: C3_3  and  C9_9 
ROOT
HETATM    1  C1  UNL     1     -35.421  15.560  -3.836  1.00 20.00    -0.016 C 
HETATM    2  C2  UNL     1     -34.167  15.931  -3.539  1.00 20.00    -0.016 C 
HETATM    3  C4  UNL     1     -35.761  14.178  -4.315  1.00 20.00     0.028 C 
HETATM    4  C5  UNL     1     -32.984  15.015  -3.619  1.00 20.00     0.042 C 
HETATM    5  C6  UNL     1     -34.535  13.357  -4.722  1.00 20.00     0.004 C 
HETATM    6  C7  UNL     1     -33.387  13.542  -3.733  1.00 20.00     0.005 C 
ENDROOT
BRANCH   2   7
HETATM    7  C3  UNL     1     -33.953  17.309  -3.091  1.00 20.00     0.159 C 
HETATM    8  O12 UNL     1     -33.871  18.230  -3.907  1.00 20.00    -0.292 OA
BRANCH   7   9
HETATM    9  C9  UNL     1     -33.846  17.565  -1.608  1.00 20.00     0.064 A 
HETATM   10  C8  UNL     1     -34.573  16.650  -0.686  1.00 20.00     0.018 A 
HETATM   11  C10 UNL     1     -35.029  18.070  -0.860  1.00 20.00    -0.006 A 
HETATM   12  C11 UNL     1     -36.346  18.357  -1.498  1.00 20.00     0.011 C 
ENDBRANCH   7   9
ENDBRANCH   2   7
TORSDOF 2
ENDMDL
MODEL 7
REMARK VINA RESULT:      -4.8     10.838     11.750
REMARK  2 active torsions:
REMARK  status: ('A' for Active; 'I' for Inactive)
REMARK    1  A    between atoms: C2_2  and  C3_3 
REMARK    2  A    between atoms: C3_3  and  C9_9 
ROOT
HETATM    1  C1  UNL     1     -35.949  15.466  -3.203  1.00 20.00    -0.016 C 
HETATM    2  C2  UNL     1     -34.797  14.927  -3.627  1.00 20.00    -0.016 C 
HETATM    3  C4  UNL     1     -36.001  16.516  -2.131  1.00 20.00     0.028 C 
HETATM    4  C5  UNL     1     -33.448  15.327  -3.112  1.00 20.00     0.042 C 
HETATM    5  C6  UNL     1     -34.681  16.676  -1.372  1.00 20.00     0.004 C 
HETATM    6  C7  UNL     1     -33.486  16.637  -2.320  1.00 20.00     0.005 C 
ENDROOT
BRANCH   2   7
HETATM    7  C3  UNL     1     -34.870  13.902  -4.671  1.00 20.00     0.159 C 
HETATM    8  O12 UNL     1     -35.222  12.752  -4.400  1.00 20.00    -0.292 OA
BRANCH   7   9
HETATM    9  C9  UNL     1     -34.509  14.298  -6.081  1.00 20.00     0.064 A 
HETATM   10  C8  UNL     1     -34.474  15.749  -6.413  1.00 20.00     0.018 A 
HETATM   11  C10 UNL     1     -35.553  14.868  -6.977  1.00 20.00    -0.006 A 
HETATM   12  C11 UNL     1     -36.971  15.069  -6.564  1.00 20.00     0.011 C 
ENDBRANCH   7   9
ENDBRANCH   2   7
TORSDOF 2
ENDMDL
MODEL 8
REMARK VINA RESULT:      -4.7     10.702     12.980
REMARK  2 active torsions:
REMARK  status: ('A' for Active; 'I' for Inactive)
REMARK    1  A    between atoms: C2_2  and  C3_3 
REMARK    2  A    between atoms: C3_3  and  C9_9 
ROOT
HETATM    1  C1  UNL     1     -34.269  15.500  -6.059  1.00 20.00    -0.016 C 
HETATM    2  C2  UNL     1     -33.803  16.203  -5.016  1.00 20.00    -0.016 C 
HETATM    3  C4  UNL     1     -34.657  16.147  -7.358  1.00 20.00     0.028 C 
HETATM    4  C5  UNL     1     -33.589  17.686  -5.036  1.00 20.00     0.042 C 
HETATM    5  C6  UNL     1     -34.765  17.671  -7.269  1.00 20.00     0.004 C 
HETATM    6  C7  UNL     1     -33.620  18.264  -6.454  1.00 20.00     0.005 C 
ENDROOT
BRANCH   2   7
HETATM    7  C3  UNL     1     -33.466  15.466  -3.795  1.00 20.00     0.159 C 
HETATM    8  O12 UNL     1     -32.324  15.037  -3.614  1.00 20.00    -0.292 OA
BRANCH   7   9
HETATM    9  C9  UNL     1     -34.553  15.255  -2.771  1.00 20.00     0.064 A 
HETATM   10  C8  UNL     1     -35.663  16.247  -2.714  1.00 20.00     0.018 A 
HETATM   11  C10 UNL     1     -34.653  16.174  -1.603  1.00 20.00    -0.006 A 
HETATM   12  C11 UNL     1     -33.720  17.313  -1.369  1.00 20.00     0.011 C 
ENDBRANCH   7   9
ENDBRANCH   2   7
TORSDOF 2
ENDMDL
MODEL 9
REMARK VINA RESULT:      -4.6     10.383     12.249
REMARK  2 active torsions:
REMARK  status: ('A' for Active; 'I' for Inactive)
REMARK    1  A    between atoms: C2_2  and  C3_3 
REMARK    2  A    between atoms: C3_3  and  C9_9 
ROOT
HETATM    1  C1  UNL     1     -35.108  13.791  -4.085  1.00 20.00    -0.016 C 
HETATM    2  C2  UNL     1     -35.765  14.941  -3.874  1.00 20.00    -0.016 C 
HETATM    3  C4  UNL     1     -33.634  13.647  -3.835  1.00 20.00     0.028 C 
HETATM    4  C5  UNL     1     -35.121  16.185  -3.342  1.00 20.00     0.042 C 
HETATM    5  C6  UNL     1     -32.920  14.984  -3.626  1.00 20.00     0.004 C 
HETATM    6  C7  UNL     1     -33.738  15.920  -2.740  1.00 20.00     0.005 C 
ENDROOT
BRANCH   2   7
HETATM    7  C3  UNL     1     -37.201  14.966  -4.164  1.00 20.00     0.159 C 
HETATM    8  O12 UNL     1     -37.943  14.077  -3.742  1.00 20.00    -0.292 OA
BRANCH   7   9
HETATM    9  C9  UNL     1     -37.739  16.113  -4.983  1.00 20.00     0.064 A 
HETATM   10  C8  UNL     1     -38.911  15.853  -5.864  1.00 20.00     0.018 A 
HETATM   11  C10 UNL     1     -37.556  16.111  -6.461  1.00 20.00    -0.006 A 
HETATM   12  C11 UNL     1     -36.849  15.028  -7.202  1.00 20.00     0.011 C 
ENDBRANCH   7   9
ENDBRANCH   2   7
TORSDOF 2
ENDMDL
