MODEL 1
REMARK VINA RESULT:      -3.9      0.000      0.000
REMARK  4 active torsions:
REMARK  status: ('A' for Active; 'I' for Inactive)
REMARK    1  A    between atoms: C4_4  and  C6_6 
REMARK    2  A    between atoms: C5_5  and  C7_7 
REMARK    3  A    between atoms: C6_6  and  C7_7 
REMARK    4  A    between atoms: C7_7  and  N8_8 
ROOT
HETATM    1  C1  UNL     1     -32.199   7.090   2.758  1.00 20.00     0.158 C 
HETATM    2  N8  UNL     1     -32.190   6.078   3.351  1.00 20.00    -0.270 NA
HETATM    3  S9  UNL     1     -32.181   8.453   1.936  1.00 20.00    -0.055 SA
ENDROOT
BRANCH   2   4
HETATM    4  C7  UNL     1     -33.287   5.924   4.318  1.00 20.00     0.109 C 
BRANCH   4   5
HETATM    5  C5  UNL     1     -33.380   7.193   5.174  1.00 20.00     0.023 C 
HETATM    6  C3  UNL     1     -33.758   6.897   6.619  1.00 20.00     0.007 C 
ENDBRANCH   4   5
BRANCH   4   7
HETATM    7  C6  UNL     1     -34.596   5.678   3.557  1.00 20.00     0.027 C 
BRANCH   7   8
HETATM    8  C4  UNL     1     -35.590   4.833   4.360  1.00 20.00    -0.002 C 
HETATM    9  C2  UNL     1     -34.873   3.876   5.300  1.00 20.00     0.005 C 
ENDBRANCH   7   8
ENDBRANCH   4   7
ENDBRANCH   2   4
TORSDOF 4
ENDMDL
MODEL 2
REMARK VINA RESULT:      -3.9     12.022     12.842
REMARK  4 active torsions:
REMARK  status: ('A' for Active; 'I' for Inactive)
REMARK    1  A    between atoms: C4_4  and  C6_6 
REMARK    2  A    between atoms: C5_5  and  C7_7 
REMARK    3  A    between atoms: C6_6  and  C7_7 
REMARK    4  A    between atoms: C7_7  and  N8_8 
ROOT
HETATM    1  C1  UNL     1     -33.342  17.309  -5.232  1.00 20.00     0.158 C 
HETATM    2  N8  UNL     1     -32.963  16.280  -4.816  1.00 20.00    -0.270 NA
HETATM    3  S9  UNL     1     -33.825  18.708  -5.819  1.00 20.00    -0.055 SA
ENDROOT
BRANCH   2   4
HETATM    4  C7  UNL     1     -33.861  15.646  -3.840  1.00 20.00     0.109 C 
BRANCH   4   5
HETATM    5  C5  UNL     1     -33.581  14.139  -3.806  1.00 20.00     0.023 C 
HETATM    6  C3  UNL     1     -34.723  13.319  -4.392  1.00 20.00     0.007 C 
ENDBRANCH   4   5
BRANCH   4   7
HETATM    7  C6  UNL     1     -33.629  16.278  -2.460  1.00 20.00     0.027 C 
BRANCH   7   8
HETATM    8  C4  UNL     1     -34.900  16.298  -1.606  1.00 20.00    -0.002 C 
HETATM    9  C2  UNL     1     -34.677  17.038  -0.296  1.00 20.00     0.005 C 
ENDBRANCH   7   8
ENDBRANCH   4   7
ENDBRANCH   2   4
TORSDOF 4
ENDMDL
MODEL 3
REMARK VINA RESULT:      -3.8     11.734     12.478
REMARK  4 active torsions:
REMARK  status: ('A' for Active; 'I' for Inactive)
REMARK    1  A    between atoms: C4_4  and  C6_6 
REMARK    2  A    between atoms: C5_5  and  C7_7 
REMARK    3  A    between atoms: C6_6  and  C7_7 
REMARK    4  A    between atoms: C7_7  and  N8_8 
ROOT
HETATM    1  C1  UNL     1     -34.515  17.105  -4.717  1.00 20.00     0.158 C 
HETATM    2  N8  UNL     1     -33.656  17.258  -3.933  1.00 20.00    -0.270 NA
HETATM    3  S9  UNL     1     -35.674  16.932  -5.795  1.00 20.00    -0.055 SA
ENDROOT
BRANCH   2   4
HETATM    4  C7  UNL     1     -33.470  16.136  -3.002  1.00 20.00     0.109 C 
BRANCH   4   5
HETATM    5  C5  UNL     1     -34.745  15.961  -2.168  1.00 20.00     0.023 C 
HETATM    6  C3  UNL     1     -34.649  16.633  -0.804  1.00 20.00     0.007 C 
ENDBRANCH   4   5
BRANCH   4   7
HETATM    7  C6  UNL     1     -33.160  14.864  -3.804  1.00 20.00     0.027 C 
BRANCH   7   8
HETATM    8  C4  UNL     1     -34.165  13.741  -3.529  1.00 20.00    -0.002 C 
HETATM    9  C2  UNL     1     -34.817  13.253  -4.813  1.00 20.00     0.005 C 
ENDBRANCH   7   8
ENDBRANCH   4   7
ENDBRANCH   2   4
TORSDOF 4
ENDMDL
MODEL 4
REMARK VINA RESULT:      -3.7     11.744     12.530
REMARK  4 active torsions:
REMARK  status: ('A' for Active; 'I' for Inactive)
REMARK    1  A    between atoms: C4_4  and  C6_6 
REMARK    2  A    between atoms: C5_5  and  C7_7 
REMARK    3  A    between atoms: C6_6  and  C7_7 
REMARK    4  A    between atoms: C7_7  and  N8_8 
ROOT
HETATM    1  C1  UNL     1     -33.644  16.982  -4.984  1.00 20.00     0.158 C 
HETATM    2  N8  UNL     1     -32.939  16.265  -4.379  1.00 20.00    -0.270 NA
HETATM    3  S9  UNL     1     -34.574  17.957  -5.833  1.00 20.00    -0.055 SA
ENDROOT
BRANCH   2   4
HETATM    4  C7  UNL     1     -33.496  15.793  -3.104  1.00 20.00     0.109 C 
BRANCH   4   5
HETATM    5  C5  UNL     1     -33.791  17.002  -2.208  1.00 20.00     0.023 C 
HETATM    6  C3  UNL     1     -34.577  16.625  -0.958  1.00 20.00     0.007 C 
ENDBRANCH   4   5
BRANCH   4   7
HETATM    7  C6  UNL     1     -34.775  14.990  -3.381  1.00 20.00     0.027 C 
BRANCH   7   8
HETATM    8  C4  UNL     1     -34.481  13.535  -3.757  1.00 20.00    -0.002 C 
HETATM    9  C2  UNL     1     -34.806  13.262  -5.218  1.00 20.00     0.005 C 
ENDBRANCH   7   8
ENDBRANCH   4   7
ENDBRANCH   2   4
TORSDOF 4
ENDMDL
MODEL 5
REMARK VINA RESULT:      -3.7     11.687     12.722
REMARK  4 active torsions:
REMARK  status: ('A' for Active; 'I' for Inactive)
REMARK    1  A    between atoms: C4_4  and  C6_6 
REMARK    2  A    between atoms: C5_5  and  C7_7 
REMARK    3  A    between atoms: C6_6  and  C7_7 
REMARK    4  A    between atoms: C7_7  and  N8_8 
ROOT
HETATM    1  C1  UNL     1     -33.806  14.379  -4.013  1.00 20.00     0.158 C 
HETATM    2  N8  UNL     1     -33.071  15.160  -3.537  1.00 20.00    -0.270 NA
HETATM    3  S9  UNL     1     -34.775  13.297  -4.666  1.00 20.00    -0.055 SA
ENDROOT
BRANCH   2   4
HETATM    4  C7  UNL     1     -33.718  16.377  -3.026  1.00 20.00     0.109 C 
BRANCH   4   5
HETATM    5  C5  UNL     1     -34.414  17.099  -4.186  1.00 20.00     0.023 C 
HETATM    6  C3  UNL     1     -33.646  18.328  -4.655  1.00 20.00     0.007 C 
ENDBRANCH   4   5
BRANCH   4   7
HETATM    7  C6  UNL     1     -34.727  15.990  -1.936  1.00 20.00     0.027 C 
BRANCH   7   8
HETATM    8  C4  UNL     1     -34.691  16.945  -0.740  1.00 20.00    -0.002 C 
HETATM    9  C2  UNL     1     -33.431  17.797  -0.747  1.00 20.00     0.005 C 
ENDBRANCH   7   8
ENDBRANCH   4   7
ENDBRANCH   2   4
TORSDOF 4
ENDMDL
MODEL 6
REMARK VINA RESULT:      -3.6     11.371     12.767
REMARK  4 active torsions:
REMARK  status: ('A' for Active; 'I' for Inactive)
REMARK    1  A    between atoms: C4_4  and  C6_6 
REMARK    2  A    between atoms: C5_5  and  C7_7 
REMARK    3  A    between atoms: C6_6  and  C7_7 
REMARK    4  A    between atoms: C7_7  and  N8_8 
ROOT
HETATM    1  C1  UNL     1     -34.707  16.214  -1.856  1.00 20.00     0.158 C 
HETATM    2  N8  UNL     1     -34.768  15.613  -2.862  1.00 20.00    -0.270 NA
HETATM    3  S9  UNL     1     -34.660  17.031  -0.491  1.00 20.00    -0.055 SA
ENDROOT
BRANCH   2   4
HETATM    4  C7  UNL     1     -33.467  15.231  -3.428  1.00 20.00     0.109 C 
BRANCH   4   5
HETATM    5  C5  UNL     1     -33.526  13.766  -3.877  1.00 20.00     0.023 C 
HETATM    6  C3  UNL     1     -34.948  13.297  -4.155  1.00 20.00     0.007 C 
ENDBRANCH   4   5
BRANCH   4   7
HETATM    7  C6  UNL     1     -33.144  16.155  -4.610  1.00 20.00     0.027 C 
BRANCH   7   8
HETATM    8  C4  UNL     1     -34.377  16.462  -5.466  1.00 20.00    -0.002 C 
HETATM    9  C2  UNL     1     -34.246  15.873  -6.861  1.00 20.00     0.005 C 
ENDBRANCH   7   8
ENDBRANCH   4   7
ENDBRANCH   2   4
TORSDOF 4
ENDMDL
MODEL 7
REMARK VINA RESULT:      -3.5      0.981      2.073
REMARK  4 active torsions:
REMARK  status: ('A' for Active; 'I' for Inactive)
REMARK    1  A    between atoms: C4_4  and  C6_6 
REMARK    2  A    between atoms: C5_5  and  C7_7 
REMARK    3  A    between atoms: C6_6  and  C7_7 
REMARK    4  A    between atoms: C7_7  and  N8_8 
ROOT
HETATM    1  C1  UNL     1     -32.196   7.583   2.602  1.00 20.00     0.158 C 
HETATM    2  N8  UNL     1     -32.240   6.711   3.385  1.00 20.00    -0.270 NA
HETATM    3  S9  UNL     1     -32.101   8.758   1.531  1.00 20.00    -0.055 SA
ENDROOT
BRANCH   2   4
HETATM    4  C7  UNL     1     -33.539   6.555   4.055  1.00 20.00     0.109 C 
BRANCH   4   5
HETATM    5  C5  UNL     1     -34.355   5.483   3.322  1.00 20.00     0.023 C 
HETATM    6  C3  UNL     1     -35.823   5.861   3.180  1.00 20.00     0.007 C 
ENDBRANCH   4   5
BRANCH   4   7
HETATM    7  C6  UNL     1     -33.304   6.160   5.519  1.00 20.00     0.027 C 
BRANCH   7   8
HETATM    8  C4  UNL     1     -34.609   5.851   6.258  1.00 20.00    -0.002 C 
HETATM    9  C2  UNL     1     -34.836   4.352   6.382  1.00 20.00     0.005 C 
ENDBRANCH   7   8
ENDBRANCH   4   7
ENDBRANCH   2   4
TORSDOF 4
ENDMDL
MODEL 8
REMARK VINA RESULT:      -3.5      0.980      2.446
REMARK  4 active torsions:
REMARK  status: ('A' for Active; 'I' for Inactive)
REMARK    1  A    between atoms: C4_4  and  C6_6 
REMARK    2  A    between atoms: C5_5  and  C7_7 
REMARK    3  A    between atoms: C6_6  and  C7_7 
REMARK    4  A    between atoms: C7_7  and  N8_8 
ROOT
HETATM    1  C1  UNL     1     -32.303   7.105   2.871  1.00 20.00     0.158 C 
HETATM    2  N8  UNL     1     -32.512   6.180   3.562  1.00 20.00    -0.270 NA
HETATM    3  S9  UNL     1     -31.984   8.347   1.928  1.00 20.00    -0.055 SA
ENDROOT
BRANCH   2   4
HETATM    4  C7  UNL     1     -33.878   6.114   4.099  1.00 20.00     0.109 C 
BRANCH   4   5
HETATM    5  C5  UNL     1     -34.827   5.630   2.996  1.00 20.00     0.023 C 
HETATM    6  C3  UNL     1     -36.294   5.776   3.380  1.00 20.00     0.007 C 
ENDBRANCH   4   5
BRANCH   4   7
HETATM    7  C6  UNL     1     -33.900   5.157   5.299  1.00 20.00     0.027 C 
BRANCH   7   8
HETATM    8  C4  UNL     1     -34.378   5.840   6.584  1.00 20.00    -0.002 C 
HETATM    9  C2  UNL     1     -33.714   7.195   6.772  1.00 20.00     0.005 C 
ENDBRANCH   7   8
ENDBRANCH   4   7
ENDBRANCH   2   4
TORSDOF 4
ENDMDL
MODEL 9
REMARK VINA RESULT:      -3.5     11.946     12.641
REMARK  4 active torsions:
REMARK  status: ('A' for Active; 'I' for Inactive)
REMARK    1  A    between atoms: C4_4  and  C6_6 
REMARK    2  A    between atoms: C5_5  and  C7_7 
REMARK    3  A    between atoms: C6_6  and  C7_7 
REMARK    4  A    between atoms: C7_7  and  N8_8 
ROOT
HETATM    1  C1  UNL     1     -36.924  15.009  -4.042  1.00 20.00     0.158 C 
HETATM    2  N8  UNL     1     -35.774  15.053  -4.270  1.00 20.00    -0.270 NA
HETATM    3  S9  UNL     1     -38.491  14.947  -3.769  1.00 20.00    -0.055 SA
ENDROOT
BRANCH   2   4
HETATM    4  C7  UNL     1     -34.917  15.159  -3.081  1.00 20.00     0.109 C 
BRANCH   4   5
HETATM    5  C5  UNL     1     -33.448  15.134  -3.518  1.00 20.00     0.023 C 
HETATM    6  C3  UNL     1     -33.145  16.153  -4.609  1.00 20.00     0.007 C 
ENDBRANCH   4   5
BRANCH   4   7
HETATM    7  C6  UNL     1     -35.247  16.462  -2.339  1.00 20.00     0.027 C 
BRANCH   7   8
HETATM    8  C4  UNL     1     -34.605  16.523  -0.950  1.00 20.00    -0.002 C 
HETATM    9  C2  UNL     1     -33.648  17.698  -0.831  1.00 20.00     0.005 C 
ENDBRANCH   7   8
ENDBRANCH   4   7
ENDBRANCH   2   4
TORSDOF 4
ENDMDL
