MODEL 1
REMARK VINA RESULT:      -3.8      0.000      0.000
REMARK  4 active torsions:
REMARK  status: ('A' for Active; 'I' for Inactive)
REMARK    1  A    between atoms: C4_4  and  C6_6 
REMARK    2  A    between atoms: C5_5  and  C7_7 
REMARK    3  A    between atoms: C6_6  and  C7_7 
REMARK    4  A    between atoms: C7_7  and  N8_8 
ROOT
HETATM    1  C1  UNL     1     -32.188   7.118   2.838  1.00 20.00     0.158 C 
HETATM    2  N8  UNL     1     -32.138   6.112   3.439  1.00 20.00    -0.270 NA
HETATM    3  S9  UNL     1     -32.220   8.480   2.014  1.00 20.00    -0.055 SA
ENDROOT
BRANCH   2   4
HETATM    4  C7  UNL     1     -33.417   5.683   4.022  1.00 20.00     0.109 C 
BRANCH   4   5
HETATM    5  C5  UNL     1     -34.441   5.489   2.897  1.00 20.00     0.023 C 
HETATM    6  C3  UNL     1     -35.870   5.746   3.357  1.00 20.00     0.007 C 
ENDBRANCH   4   5
BRANCH   4   7
HETATM    7  C6  UNL     1     -33.895   6.745   5.023  1.00 20.00     0.027 C 
BRANCH   7   8
HETATM    8  C4  UNL     1     -34.092   6.174   6.431  1.00 20.00    -0.002 C 
HETATM    9  C2  UNL     1     -34.523   4.717   6.383  1.00 20.00     0.005 C 
ENDBRANCH   7   8
ENDBRANCH   4   7
ENDBRANCH   2   4
TORSDOF 4
ENDMDL
MODEL 2
REMARK VINA RESULT:      -3.8     11.900     12.734
REMARK  4 active torsions:
REMARK  status: ('A' for Active; 'I' for Inactive)
REMARK    1  A    between atoms: C4_4  and  C6_6 
REMARK    2  A    between atoms: C5_5  and  C7_7 
REMARK    3  A    between atoms: C6_6  and  C7_7 
REMARK    4  A    between atoms: C7_7  and  N8_8 
ROOT
HETATM    1  C1  UNL     1     -33.412  17.283  -5.274  1.00 20.00     0.158 C 
HETATM    2  N8  UNL     1     -32.989  16.328  -4.742  1.00 20.00    -0.270 NA
HETATM    3  S9  UNL     1     -33.955  18.582  -6.018  1.00 20.00    -0.055 SA
ENDROOT
BRANCH   2   4
HETATM    4  C7  UNL     1     -33.875  15.752  -3.722  1.00 20.00     0.109 C 
BRANCH   4   5
HETATM    5  C5  UNL     1     -33.596  16.429  -2.374  1.00 20.00     0.023 C 
HETATM    6  C3  UNL     1     -34.775  16.333  -1.416  1.00 20.00     0.007 C 
ENDBRANCH   4   5
BRANCH   4   7
HETATM    7  C6  UNL     1     -33.627  14.238  -3.636  1.00 20.00     0.027 C 
BRANCH   7   8
HETATM    8  C4  UNL     1     -34.821  13.422  -4.141  1.00 20.00    -0.002 C 
HETATM    9  C2  UNL     1     -36.088  14.263  -4.189  1.00 20.00     0.005 C 
ENDBRANCH   7   8
ENDBRANCH   4   7
ENDBRANCH   2   4
TORSDOF 4
ENDMDL
MODEL 3
REMARK VINA RESULT:      -3.8     11.844     12.473
REMARK  4 active torsions:
REMARK  status: ('A' for Active; 'I' for Inactive)
REMARK    1  A    between atoms: C4_4  and  C6_6 
REMARK    2  A    between atoms: C5_5  and  C7_7 
REMARK    3  A    between atoms: C6_6  and  C7_7 
REMARK    4  A    between atoms: C7_7  and  N8_8 
ROOT
HETATM    1  C1  UNL     1     -33.501  16.974  -5.071  1.00 20.00     0.158 C 
HETATM    2  N8  UNL     1     -32.831  16.157  -4.561  1.00 20.00    -0.270 NA
HETATM    3  S9  UNL     1     -34.384  18.088  -5.789  1.00 20.00    -0.055 SA
ENDROOT
BRANCH   2   4
HETATM    4  C7  UNL     1     -33.414  15.552  -3.356  1.00 20.00     0.109 C 
BRANCH   4   5
HETATM    5  C5  UNL     1     -34.728  14.856  -3.729  1.00 20.00     0.023 C 
HETATM    6  C3  UNL     1     -34.515  13.433  -4.229  1.00 20.00     0.007 C 
ENDBRANCH   4   5
BRANCH   4   7
HETATM    7  C6  UNL     1     -33.654  16.650  -2.308  1.00 20.00     0.027 C 
BRANCH   7   8
HETATM    8  C4  UNL     1     -34.857  16.347  -1.410  1.00 20.00    -0.002 C 
HETATM    9  C2  UNL     1     -34.785  17.123  -0.105  1.00 20.00     0.005 C 
ENDBRANCH   7   8
ENDBRANCH   4   7
ENDBRANCH   2   4
TORSDOF 4
ENDMDL
MODEL 4
REMARK VINA RESULT:      -3.7     11.163     12.396
REMARK  4 active torsions:
REMARK  status: ('A' for Active; 'I' for Inactive)
REMARK    1  A    between atoms: C4_4  and  C6_6 
REMARK    2  A    between atoms: C5_5  and  C7_7 
REMARK    3  A    between atoms: C6_6  and  C7_7 
REMARK    4  A    between atoms: C7_7  and  N8_8 
ROOT
HETATM    1  C1  UNL     1     -34.724  16.507  -1.144  1.00 20.00     0.158 C 
HETATM    2  N8  UNL     1     -34.655  15.813  -2.086  1.00 20.00    -0.270 NA
HETATM    3  S9  UNL     1     -34.849  17.433   0.145  1.00 20.00    -0.055 SA
ENDROOT
BRANCH   2   4
HETATM    4  C7  UNL     1     -33.509  16.083  -2.964  1.00 20.00     0.109 C 
BRANCH   4   5
HETATM    5  C5  UNL     1     -33.881  17.201  -3.945  1.00 20.00     0.023 C 
HETATM    6  C3  UNL     1     -33.438  16.900  -5.371  1.00 20.00     0.007 C 
ENDBRANCH   4   5
BRANCH   4   7
HETATM    7  C6  UNL     1     -33.136  14.796  -3.715  1.00 20.00     0.027 C 
BRANCH   7   8
HETATM    8  C4  UNL     1     -34.224  13.723  -3.609  1.00 20.00    -0.002 C 
HETATM    9  C2  UNL     1     -34.759  13.338  -4.980  1.00 20.00     0.005 C 
ENDBRANCH   7   8
ENDBRANCH   4   7
ENDBRANCH   2   4
TORSDOF 4
ENDMDL
MODEL 5
REMARK VINA RESULT:      -3.7      0.991      2.216
REMARK  4 active torsions:
REMARK  status: ('A' for Active; 'I' for Inactive)
REMARK    1  A    between atoms: C4_4  and  C6_6 
REMARK    2  A    between atoms: C5_5  and  C7_7 
REMARK    3  A    between atoms: C6_6  and  C7_7 
REMARK    4  A    between atoms: C7_7  and  N8_8 
ROOT
HETATM    1  C1  UNL     1     -32.168   7.576   2.714  1.00 20.00     0.158 C 
HETATM    2  N8  UNL     1     -32.212   6.766   3.561  1.00 20.00    -0.270 NA
HETATM    3  S9  UNL     1     -32.072   8.668   1.559  1.00 20.00    -0.055 SA
ENDROOT
BRANCH   2   4
HETATM    4  C7  UNL     1     -33.527   6.620   4.201  1.00 20.00     0.109 C 
BRANCH   4   5
HETATM    5  C5  UNL     1     -33.329   6.217   5.668  1.00 20.00     0.023 C 
HETATM    6  C3  UNL     1     -33.668   7.343   6.635  1.00 20.00     0.007 C 
ENDBRANCH   4   5
BRANCH   4   7
HETATM    7  C6  UNL     1     -34.339   5.558   3.446  1.00 20.00     0.027 C 
BRANCH   7   8
HETATM    8  C4  UNL     1     -35.508   5.018   4.276  1.00 20.00    -0.002 C 
HETATM    9  C2  UNL     1     -35.080   3.837   5.133  1.00 20.00     0.005 C 
ENDBRANCH   7   8
ENDBRANCH   4   7
ENDBRANCH   2   4
TORSDOF 4
ENDMDL
MODEL 6
REMARK VINA RESULT:      -3.6     11.615     12.491
REMARK  4 active torsions:
REMARK  status: ('A' for Active; 'I' for Inactive)
REMARK    1  A    between atoms: C4_4  and  C6_6 
REMARK    2  A    between atoms: C5_5  and  C7_7 
REMARK    3  A    between atoms: C6_6  and  C7_7 
REMARK    4  A    between atoms: C7_7  and  N8_8 
ROOT
HETATM    1  C1  UNL     1     -35.643  14.377  -3.913  1.00 20.00     0.158 C 
HETATM    2  N8  UNL     1     -36.313  15.124  -3.308  1.00 20.00    -0.270 NA
HETATM    3  S9  UNL     1     -34.761  13.338  -4.737  1.00 20.00    -0.055 SA
ENDROOT
BRANCH   2   4
HETATM    4  C7  UNL     1     -35.656  16.392  -2.959  1.00 20.00     0.109 C 
BRANCH   4   5
HETATM    5  C5  UNL     1     -35.200  17.090  -4.246  1.00 20.00     0.023 C 
HETATM    6  C3  UNL     1     -33.730  17.485  -4.208  1.00 20.00     0.007 C 
ENDBRANCH   4   5
BRANCH   4   7
HETATM    7  C6  UNL     1     -34.460  16.103  -2.039  1.00 20.00     0.027 C 
BRANCH   7   8
HETATM    8  C4  UNL     1     -34.635  16.714  -0.646  1.00 20.00    -0.002 C 
HETATM    9  C2  UNL     1     -33.693  17.890  -0.435  1.00 20.00     0.005 C 
ENDBRANCH   7   8
ENDBRANCH   4   7
ENDBRANCH   2   4
TORSDOF 4
ENDMDL
MODEL 7
REMARK VINA RESULT:      -3.5     11.544     12.593
REMARK  4 active torsions:
REMARK  status: ('A' for Active; 'I' for Inactive)
REMARK    1  A    between atoms: C4_4  and  C6_6 
REMARK    2  A    between atoms: C5_5  and  C7_7 
REMARK    3  A    between atoms: C6_6  and  C7_7 
REMARK    4  A    between atoms: C7_7  and  N8_8 
ROOT
HETATM    1  C1  UNL     1     -37.713  14.909  -3.826  1.00 20.00     0.158 C 
HETATM    2  N8  UNL     1     -36.924  14.050  -3.943  1.00 20.00    -0.270 NA
HETATM    3  S9  UNL     1     -38.807  16.053  -3.649  1.00 20.00    -0.055 SA
ENDROOT
BRANCH   2   4
HETATM    4  C7  UNL     1     -35.683  14.447  -4.622  1.00 20.00     0.109 C 
BRANCH   4   5
HETATM    5  C5  UNL     1     -35.983  14.711  -6.102  1.00 20.00     0.023 C 
HETATM    6  C3  UNL     1     -34.718  14.855  -6.938  1.00 20.00     0.007 C 
ENDBRANCH   4   5
BRANCH   4   7
HETATM    7  C6  UNL     1     -34.644  13.327  -4.464  1.00 20.00     0.027 C 
BRANCH   7   8
HETATM    8  C4  UNL     1     -33.376  13.803  -3.749  1.00 20.00    -0.002 C 
HETATM    9  C2  UNL     1     -33.485  15.263  -3.338  1.00 20.00     0.005 C 
ENDBRANCH   7   8
ENDBRANCH   4   7
ENDBRANCH   2   4
TORSDOF 4
ENDMDL
MODEL 8
REMARK VINA RESULT:      -3.5     11.741     12.640
REMARK  4 active torsions:
REMARK  status: ('A' for Active; 'I' for Inactive)
REMARK    1  A    between atoms: C4_4  and  C6_6 
REMARK    2  A    between atoms: C5_5  and  C7_7 
REMARK    3  A    between atoms: C6_6  and  C7_7 
REMARK    4  A    between atoms: C7_7  and  N8_8 
ROOT
HETATM    1  C1  UNL     1     -35.971  17.025  -4.237  1.00 20.00     0.158 C 
HETATM    2  N8  UNL     1     -34.805  17.040  -4.117  1.00 20.00    -0.270 NA
HETATM    3  S9  UNL     1     -37.552  17.032  -4.426  1.00 20.00    -0.055 SA
ENDROOT
BRANCH   2   4
HETATM    4  C7  UNL     1     -34.279  16.091  -3.127  1.00 20.00     0.109 C 
BRANCH   4   5
HETATM    5  C5  UNL     1     -33.772  16.868  -1.906  1.00 20.00     0.023 C 
HETATM    6  C3  UNL     1     -34.671  16.695  -0.689  1.00 20.00     0.007 C 
ENDBRANCH   4   5
BRANCH   4   7
HETATM    7  C6  UNL     1     -33.145  15.275  -3.766  1.00 20.00     0.027 C 
BRANCH   7   8
HETATM    8  C4  UNL     1     -33.408  13.766  -3.709  1.00 20.00    -0.002 C 
HETATM    9  C2  UNL     1     -34.834  13.436  -4.119  1.00 20.00     0.005 C 
ENDBRANCH   7   8
ENDBRANCH   4   7
ENDBRANCH   2   4
TORSDOF 4
ENDMDL
MODEL 9
REMARK VINA RESULT:      -3.5     11.609     12.338
REMARK  4 active torsions:
REMARK  status: ('A' for Active; 'I' for Inactive)
REMARK    1  A    between atoms: C4_4  and  C6_6 
REMARK    2  A    between atoms: C5_5  and  C7_7 
REMARK    3  A    between atoms: C6_6  and  C7_7 
REMARK    4  A    between atoms: C7_7  and  N8_8 
ROOT
HETATM    1  C1  UNL     1     -35.743  15.130  -5.965  1.00 20.00     0.158 C 
HETATM    2  N8  UNL     1     -36.025  15.524  -4.898  1.00 20.00    -0.270 NA
HETATM    3  S9  UNL     1     -35.394  14.605  -7.427  1.00 20.00    -0.055 SA
ENDROOT
BRANCH   2   4
HETATM    4  C7  UNL     1     -34.966  15.373  -3.890  1.00 20.00     0.109 C 
BRANCH   4   5
HETATM    5  C5  UNL     1     -34.662  13.882  -3.701  1.00 20.00     0.023 C 
HETATM    6  C3  UNL     1     -33.170  13.580  -3.738  1.00 20.00     0.007 C 
ENDBRANCH   4   5
BRANCH   4   7
HETATM    7  C6  UNL     1     -35.433  16.009  -2.571  1.00 20.00     0.027 C 
BRANCH   7   8
HETATM    8  C4  UNL     1     -34.262  16.498  -1.713  1.00 20.00    -0.002 C 
HETATM    9  C2  UNL     1     -34.734  16.955  -0.341  1.00 20.00     0.005 C 
ENDBRANCH   7   8
ENDBRANCH   4   7
ENDBRANCH   2   4
TORSDOF 4
ENDMDL
