MODEL 1
REMARK VINA RESULT:      -4.7      0.000      0.000
REMARK  3 active torsions:
REMARK  status: ('A' for Active; 'I' for Inactive)
REMARK    1  A    between atoms: C6_6  and  N10_10 
REMARK    2  A    between atoms: C7_7  and  C8_8 
REMARK    3  A    between atoms: C8_8  and  N10_10 
ROOT
HETATM    1  C1  UNL     1     -32.172   8.001   2.274  1.00 20.00     0.094 C 
HETATM    2  C2  UNL     1     -32.054   5.567   2.652  1.00 20.00     0.059 C 
HETATM    3  C6  UNL     1     -32.318   6.933   3.272  1.00 20.00     0.322 C 
HETATM    4  N9  UNL     1     -32.052   8.846   1.486  1.00 20.00    -0.195 NA
ENDROOT
BRANCH   3   5
HETATM    5  N10 UNL     1     -33.653   6.984   3.860  1.00 20.00     0.105 N 
HETATM    6  H26 UNL     1     -33.617   7.550   4.710  1.00 20.00     0.318 HD
BRANCH   5   7
HETATM    7  C8  UNL     1     -34.136   5.656   4.181  1.00 20.00     0.221 C 
HETATM    8  C5  UNL     1     -35.558   5.503   3.646  1.00 20.00     0.043 C 
BRANCH   7   9
HETATM    9  C7  UNL     1     -34.026   5.379   5.697  1.00 20.00     0.010 C 
HETATM   10  C3  UNL     1     -34.043   6.643   6.564  1.00 20.00     0.011 C 
HETATM   11  C4  UNL     1     -35.122   4.415   6.168  1.00 20.00     0.011 C 
ENDBRANCH   7   9
ENDBRANCH   5   7
ENDBRANCH   3   5
TORSDOF 3
ENDMDL
MODEL 2
REMARK VINA RESULT:      -4.2     11.278     12.332
REMARK  3 active torsions:
REMARK  status: ('A' for Active; 'I' for Inactive)
REMARK    1  A    between atoms: C6_6  and  N10_10 
REMARK    2  A    between atoms: C7_7  and  C8_8 
REMARK    3  A    between atoms: C8_8  and  N10_10 
ROOT
HETATM    1  C1  UNL     1     -36.855  14.452  -3.960  1.00 20.00     0.094 C 
HETATM    2  C2  UNL     1     -34.843  13.208  -4.656  1.00 20.00     0.059 C 
HETATM    3  C6  UNL     1     -35.415  14.554  -4.232  1.00 20.00     0.322 C 
HETATM    4  N9  UNL     1     -37.994  14.373  -3.750  1.00 20.00    -0.195 NA
ENDROOT
BRANCH   3   5
HETATM    5  N10 UNL     1     -34.722  15.060  -3.051  1.00 20.00     0.105 N 
HETATM    6  H26 UNL     1     -35.346  14.985  -2.245  1.00 20.00     0.318 HD
BRANCH   5   7
HETATM    7  C8  UNL     1     -34.321  16.441  -3.228  1.00 20.00     0.221 C 
HETATM    8  C5  UNL     1     -33.317  16.522  -4.376  1.00 20.00     0.043 C 
BRANCH   7   9
HETATM    9  C7  UNL     1     -33.781  17.034  -1.907  1.00 20.00     0.010 C 
HETATM   10  C3  UNL     1     -33.595  18.555  -1.938  1.00 20.00     0.011 C 
HETATM   11  C4  UNL     1     -34.670  16.647  -0.719  1.00 20.00     0.011 C 
ENDBRANCH   7   9
ENDBRANCH   5   7
ENDBRANCH   3   5
TORSDOF 3
ENDMDL
MODEL 3
REMARK VINA RESULT:      -4.2     11.521     13.069
REMARK  3 active torsions:
REMARK  status: ('A' for Active; 'I' for Inactive)
REMARK    1  A    between atoms: C6_6  and  N10_10 
REMARK    2  A    between atoms: C7_7  and  C8_8 
REMARK    3  A    between atoms: C8_8  and  N10_10 
ROOT
HETATM    1  C1  UNL     1     -34.741  13.717  -5.082  1.00 20.00     0.094 C 
HETATM    2  C2  UNL     1     -34.410  14.957  -7.187  1.00 20.00     0.059 C 
HETATM    3  C6  UNL     1     -34.634  15.053  -5.684  1.00 20.00     0.322 C 
HETATM    4  N9  UNL     1     -34.830  12.662  -4.606  1.00 20.00    -0.195 NA
ENDROOT
BRANCH   3   5
HETATM    5  N10 UNL     1     -33.553  15.799  -5.048  1.00 20.00     0.105 N 
HETATM    6  H26 UNL     1     -33.063  15.180  -4.398  1.00 20.00     0.318 HD
BRANCH   5   7
HETATM    7  C8  UNL     1     -34.061  16.950  -4.330  1.00 20.00     0.221 C 
HETATM    8  C5  UNL     1     -33.526  18.220  -4.989  1.00 20.00     0.043 C 
BRANCH   7   9
HETATM    9  C7  UNL     1     -33.721  16.859  -2.826  1.00 20.00     0.010 C 
HETATM   10  C3  UNL     1     -33.638  18.218  -2.122  1.00 20.00     0.011 C 
HETATM   11  C4  UNL     1     -34.714  15.954  -2.085  1.00 20.00     0.011 C 
ENDBRANCH   7   9
ENDBRANCH   5   7
ENDBRANCH   3   5
TORSDOF 3
ENDMDL
MODEL 4
REMARK VINA RESULT:      -4.0     11.122     13.534
REMARK  3 active torsions:
REMARK  status: ('A' for Active; 'I' for Inactive)
REMARK    1  A    between atoms: C6_6  and  N10_10 
REMARK    2  A    between atoms: C7_7  and  C8_8 
REMARK    3  A    between atoms: C8_8  and  N10_10 
ROOT
HETATM    1  C1  UNL     1     -34.127  13.770  -4.042  1.00 20.00     0.094 C 
HETATM    2  C2  UNL     1     -33.890  15.878  -2.785  1.00 20.00     0.059 C 
HETATM    3  C6  UNL     1     -33.291  14.961  -3.843  1.00 20.00     0.322 C 
HETATM    4  N9  UNL     1     -34.785  12.825  -4.196  1.00 20.00    -0.195 NA
ENDROOT
BRANCH   3   5
HETATM    5  N10 UNL     1     -33.130  15.670  -5.109  1.00 20.00     0.105 N 
HETATM    6  H26 UNL     1     -32.740  16.596  -4.921  1.00 20.00     0.318 HD
BRANCH   5   7
HETATM    7  C8  UNL     1     -34.397  15.808  -5.799  1.00 20.00     0.221 C 
HETATM    8  C5  UNL     1     -34.331  15.037  -7.116  1.00 20.00     0.043 C 
BRANCH   7   9
HETATM    9  C7  UNL     1     -34.765  17.297  -5.986  1.00 20.00     0.010 C 
HETATM   10  C3  UNL     1     -35.981  17.745  -5.167  1.00 20.00     0.011 C 
HETATM   11  C4  UNL     1     -33.571  18.209  -5.679  1.00 20.00     0.011 C 
ENDBRANCH   7   9
ENDBRANCH   5   7
ENDBRANCH   3   5
TORSDOF 3
ENDMDL
MODEL 5
REMARK VINA RESULT:      -3.9     11.325     12.880
REMARK  3 active torsions:
REMARK  status: ('A' for Active; 'I' for Inactive)
REMARK    1  A    between atoms: C6_6  and  N10_10 
REMARK    2  A    between atoms: C7_7  and  C8_8 
REMARK    3  A    between atoms: C8_8  and  N10_10 
ROOT
HETATM    1  C1  UNL     1     -34.273  15.594  -6.702  1.00 20.00     0.094 C 
HETATM    2  C2  UNL     1     -33.669  17.857  -5.933  1.00 20.00     0.059 C 
HETATM    3  C6  UNL     1     -33.982  16.424  -5.526  1.00 20.00     0.322 C 
HETATM    4  N9  UNL     1     -34.508  14.939  -7.631  1.00 20.00    -0.195 NA
ENDROOT
BRANCH   3   5
HETATM    5  N10 UNL     1     -32.872  15.847  -4.775  1.00 20.00     0.105 N 
HETATM    6  H26 UNL     1     -32.407  15.148  -5.357  1.00 20.00     0.318 HD
BRANCH   5   7
HETATM    7  C8  UNL     1     -33.333  15.228  -3.548  1.00 20.00     0.221 C 
HETATM    8  C5  UNL     1     -33.493  13.727  -3.779  1.00 20.00     0.043 C 
BRANCH   7   9
HETATM    9  C7  UNL     1     -34.626  15.905  -3.040  1.00 20.00     0.010 C 
HETATM   10  C3  UNL     1     -35.884  15.046  -3.206  1.00 20.00     0.011 C 
HETATM   11  C4  UNL     1     -34.488  16.341  -1.576  1.00 20.00     0.011 C 
ENDBRANCH   7   9
ENDBRANCH   5   7
ENDBRANCH   3   5
TORSDOF 3
ENDMDL
MODEL 6
REMARK VINA RESULT:      -3.9     11.744     13.576
REMARK  3 active torsions:
REMARK  status: ('A' for Active; 'I' for Inactive)
REMARK    1  A    between atoms: C6_6  and  N10_10 
REMARK    2  A    between atoms: C7_7  and  C8_8 
REMARK    3  A    between atoms: C8_8  and  N10_10 
ROOT
HETATM    1  C1  UNL     1     -34.707  13.723  -5.021  1.00 20.00     0.094 C 
HETATM    2  C2  UNL     1     -34.380  15.013  -7.097  1.00 20.00     0.059 C 
HETATM    3  C6  UNL     1     -34.419  15.052  -5.575  1.00 20.00     0.322 C 
HETATM    4  N9  UNL     1     -34.940  12.673  -4.583  1.00 20.00    -0.195 NA
ENDROOT
BRANCH   3   5
HETATM    5  N10 UNL     1     -33.155  15.549  -5.039  1.00 20.00     0.105 N 
HETATM    6  H26 UNL     1     -32.696  14.795  -4.523  1.00 20.00     0.318 HD
BRANCH   5   7
HETATM    7  C8  UNL     1     -33.366  16.681  -4.161  1.00 20.00     0.221 C 
HETATM    8  C5  UNL     1     -33.763  16.169  -2.778  1.00 20.00     0.043 C 
BRANCH   7   9
HETATM    9  C7  UNL     1     -34.397  17.663  -4.762  1.00 20.00     0.010 C 
HETATM   10  C3  UNL     1     -35.325  18.305  -3.724  1.00 20.00     0.011 C 
HETATM   11  C4  UNL     1     -33.708  18.758  -5.585  1.00 20.00     0.011 C 
ENDBRANCH   7   9
ENDBRANCH   5   7
ENDBRANCH   3   5
TORSDOF 3
ENDMDL
MODEL 7
REMARK VINA RESULT:      -3.9     11.288     12.760
REMARK  3 active torsions:
REMARK  status: ('A' for Active; 'I' for Inactive)
REMARK    1  A    between atoms: C6_6  and  N10_10 
REMARK    2  A    between atoms: C7_7  and  C8_8 
REMARK    3  A    between atoms: C8_8  and  N10_10 
ROOT
HETATM    1  C1  UNL     1     -35.618  13.687  -4.140  1.00 20.00     0.094 C 
HETATM    2  C2  UNL     1     -37.820  14.779  -4.335  1.00 20.00     0.059 C 
HETATM    3  C6  UNL     1     -36.497  14.722  -3.582  1.00 20.00     0.322 C 
HETATM    4  N9  UNL     1     -34.924  12.866  -4.578  1.00 20.00    -0.195 NA
ENDROOT
BRANCH   3   5
HETATM    5  N10 UNL     1     -35.825  16.017  -3.620  1.00 20.00     0.105 N 
HETATM    6  H26 UNL     1     -35.703  16.297  -4.595  1.00 20.00     0.318 HD
BRANCH   5   7
HETATM    7  C8  UNL     1     -34.534  15.958  -2.966  1.00 20.00     0.221 C 
HETATM    8  C5  UNL     1     -34.703  16.346  -1.498  1.00 20.00     0.043 C 
BRANCH   7   9
HETATM    9  C7  UNL     1     -33.498  16.833  -3.708  1.00 20.00     0.010 C 
HETATM   10  C3  UNL     1     -33.301  16.451  -5.179  1.00 20.00     0.011 C 
HETATM   11  C4  UNL     1     -33.849  18.322  -3.603  1.00 20.00     0.011 C 
ENDBRANCH   7   9
ENDBRANCH   5   7
ENDBRANCH   3   5
TORSDOF 3
ENDMDL
MODEL 8
REMARK VINA RESULT:      -3.9     11.340     12.617
REMARK  3 active torsions:
REMARK  status: ('A' for Active; 'I' for Inactive)
REMARK    1  A    between atoms: C6_6  and  N10_10 
REMARK    2  A    between atoms: C7_7  and  C8_8 
REMARK    3  A    between atoms: C8_8  and  N10_10 
ROOT
HETATM    1  C1  UNL     1     -37.754  15.257  -3.830  1.00 20.00     0.094 C 
HETATM    2  C2  UNL     1     -37.389  17.382  -5.027  1.00 20.00     0.059 C 
HETATM    3  C6  UNL     1     -36.948  16.484  -3.878  1.00 20.00     0.322 C 
HETATM    4  N9  UNL     1     -38.394  14.289  -3.788  1.00 20.00    -0.195 NA
ENDROOT
BRANCH   3   5
HETATM    5  N10 UNL     1     -35.534  16.144  -4.002  1.00 20.00     0.105 N 
HETATM    6  H26 UNL     1     -35.390  15.647  -4.884  1.00 20.00     0.318 HD
BRANCH   5   7
HETATM    7  C8  UNL     1     -35.095  15.313  -2.899  1.00 20.00     0.221 C 
HETATM    8  C5  UNL     1     -34.530  16.209  -1.799  1.00 20.00     0.043 C 
BRANCH   7   9
HETATM    9  C7  UNL     1     -34.094  14.239  -3.380  1.00 20.00     0.010 C 
HETATM   10  C3  UNL     1     -34.587  13.420  -4.578  1.00 20.00     0.011 C 
HETATM   11  C4  UNL     1     -32.728  14.856  -3.704  1.00 20.00     0.011 C 
ENDBRANCH   7   9
ENDBRANCH   5   7
ENDBRANCH   3   5
TORSDOF 3
ENDMDL
MODEL 9
REMARK VINA RESULT:      -3.9     11.175     12.051
REMARK  3 active torsions:
REMARK  status: ('A' for Active; 'I' for Inactive)
REMARK    1  A    between atoms: C6_6  and  N10_10 
REMARK    2  A    between atoms: C7_7  and  C8_8 
REMARK    3  A    between atoms: C8_8  and  N10_10 
ROOT
HETATM    1  C1  UNL     1     -35.023  17.212   0.130  1.00 20.00     0.094 C 
HETATM    2  C2  UNL     1     -33.714  17.791  -1.878  1.00 20.00     0.059 C 
HETATM    3  C6  UNL     1     -34.411  16.685  -1.096  1.00 20.00     0.322 C 
HETATM    4  N9  UNL     1     -35.504  17.628   1.102  1.00 20.00    -0.195 NA
ENDROOT
BRANCH   3   5
HETATM    5  N10 UNL     1     -35.427  16.034  -1.917  1.00 20.00     0.105 N 
HETATM    6  H26 UNL     1     -35.712  15.164  -1.462  1.00 20.00     0.318 HD
BRANCH   5   7
HETATM    7  C8  UNL     1     -34.924  15.745  -3.245  1.00 20.00     0.221 C 
HETATM    8  C5  UNL     1     -36.046  15.958  -4.258  1.00 20.00     0.043 C 
BRANCH   7   9
HETATM    9  C7  UNL     1     -34.312  14.327  -3.307  1.00 20.00     0.010 C 
HETATM   10  C3  UNL     1     -35.022  13.385  -4.286  1.00 20.00     0.011 C 
HETATM   11  C4  UNL     1     -32.815  14.381  -3.636  1.00 20.00     0.011 C 
ENDBRANCH   7   9
ENDBRANCH   5   7
ENDBRANCH   3   5
TORSDOF 3
ENDMDL
