MODEL 1
REMARK VINA RESULT:      -5.0      0.000      0.000
REMARK  5 active torsions:
REMARK  status: ('A' for Active; 'I' for Inactive)
REMARK    1  A    between atoms: C5_5  and  N10_10 
REMARK    2  A    between atoms: C6_6  and  C7_7 
REMARK    3  A    between atoms: C6_6  and  C8_8 
REMARK    4  A    between atoms: C7_7  and  C9_9 
REMARK    5  A    between atoms: C8_8  and  N10_10 
ROOT
HETATM    1  C1  UNL     1     -32.023   8.760   1.007  1.00 20.00     0.013 C 
HETATM    2  C2  UNL     1     -31.957   8.201   2.068  1.00 20.00    -0.087 C 
HETATM    3  C5  UNL     1     -31.877   7.523   3.364  1.00 20.00     0.362 C 
ENDROOT
BRANCH   3   4
HETATM    4  N10 UNL     1     -32.075   6.081   3.206  1.00 20.00     0.094 N 
HETATM    5  H27 UNL     1     -31.912   5.632   4.114  1.00 20.00     0.317 HD
BRANCH   4   6
HETATM    6  C8  UNL     1     -33.394   5.776   2.728  1.00 20.00     0.270 C 
BRANCH   6   7
HETATM    7  C6  UNL     1     -34.485   6.281   3.668  1.00 20.00     0.030 C 
BRANCH   7   8
HETATM    8  C7  UNL     1     -35.231   5.139   4.369  1.00 20.00     0.005 C 
BRANCH   8   9
HETATM    9  C9  UNL     1     -34.977   5.085   5.888  1.00 20.00    -0.023 C 
HETATM   10  C3  UNL     1     -34.252   3.785   6.246  1.00 20.00     0.009 C 
HETATM   11  C4  UNL     1     -34.167   6.282   6.387  1.00 20.00     0.009 C 
ENDBRANCH   8   9
ENDBRANCH   7   8
ENDBRANCH   6   7
ENDBRANCH   4   6
ENDBRANCH   3   4
TORSDOF 5
ENDMDL
MODEL 2
REMARK VINA RESULT:      -4.8      1.414      4.476
REMARK  5 active torsions:
REMARK  status: ('A' for Active; 'I' for Inactive)
REMARK    1  A    between atoms: C5_5  and  N10_10 
REMARK    2  A    between atoms: C6_6  and  C7_7 
REMARK    3  A    between atoms: C6_6  and  C8_8 
REMARK    4  A    between atoms: C7_7  and  C9_9 
REMARK    5  A    between atoms: C8_8  and  N10_10 
ROOT
HETATM    1  C1  UNL     1     -33.924   6.805   6.738  1.00 20.00     0.013 C 
HETATM    2  C2  UNL     1     -34.284   5.745   6.301  1.00 20.00    -0.087 C 
HETATM    3  C5  UNL     1     -34.721   4.451   5.773  1.00 20.00     0.362 C 
ENDROOT
BRANCH   3   4
HETATM    4  N10 UNL     1     -35.421   4.624   4.498  1.00 20.00     0.094 N 
HETATM    5  H27 UNL     1     -36.422   4.740   4.694  1.00 20.00     0.317 HD
BRANCH   4   6
HETATM    6  C8  UNL     1     -34.922   5.755   3.768  1.00 20.00     0.270 C 
BRANCH   6   7
HETATM    7  C6  UNL     1     -33.907   5.356   2.699  1.00 20.00     0.030 C 
BRANCH   7   8
HETATM    8  C7  UNL     1     -32.492   5.852   3.020  1.00 20.00     0.005 C 
BRANCH   8   9
HETATM    9  C9  UNL     1     -32.393   7.385   3.132  1.00 20.00    -0.023 C 
HETATM   10  C3  UNL     1     -31.316   7.762   4.153  1.00 20.00     0.009 C 
HETATM   11  C4  UNL     1     -32.086   8.051   1.790  1.00 20.00     0.009 C 
ENDBRANCH   8   9
ENDBRANCH   7   8
ENDBRANCH   6   7
ENDBRANCH   4   6
ENDBRANCH   3   4
TORSDOF 5
ENDMDL
MODEL 3
REMARK VINA RESULT:      -4.8      0.827      1.436
REMARK  5 active torsions:
REMARK  status: ('A' for Active; 'I' for Inactive)
REMARK    1  A    between atoms: C5_5  and  N10_10 
REMARK    2  A    between atoms: C6_6  and  C7_7 
REMARK    3  A    between atoms: C6_6  and  C8_8 
REMARK    4  A    between atoms: C7_7  and  C9_9 
REMARK    5  A    between atoms: C8_8  and  N10_10 
ROOT
HETATM    1  C1  UNL     1     -32.513   9.457   0.467  1.00 20.00     0.013 C 
HETATM    2  C2  UNL     1     -32.101   8.794   1.380  1.00 20.00    -0.087 C 
HETATM    3  C5  UNL     1     -31.594   7.987   2.493  1.00 20.00     0.362 C 
ENDROOT
BRANCH   3   4
HETATM    4  N10 UNL     1     -32.697   7.338   3.205  1.00 20.00     0.094 N 
HETATM    5  H27 UNL     1     -33.576   7.766   2.895  1.00 20.00     0.317 HD
BRANCH   4   6
HETATM    6  C8  UNL     1     -32.721   5.922   2.966  1.00 20.00     0.270 C 
BRANCH   6   7
HETATM    7  C6  UNL     1     -34.142   5.375   2.850  1.00 20.00     0.030 C 
BRANCH   7   8
HETATM    8  C7  UNL     1     -34.985   5.665   4.097  1.00 20.00     0.005 C 
BRANCH   8   9
HETATM    9  C9  UNL     1     -34.341   5.157   5.401  1.00 20.00    -0.023 C 
HETATM   10  C3  UNL     1     -34.172   6.320   6.383  1.00 20.00     0.009 C 
HETATM   11  C4  UNL     1     -35.155   4.041   6.059  1.00 20.00     0.009 C 
ENDBRANCH   8   9
ENDBRANCH   7   8
ENDBRANCH   6   7
ENDBRANCH   4   6
ENDBRANCH   3   4
TORSDOF 5
ENDMDL
MODEL 4
REMARK VINA RESULT:      -4.6      1.182      5.321
REMARK  5 active torsions:
REMARK  status: ('A' for Active; 'I' for Inactive)
REMARK    1  A    between atoms: C5_5  and  N10_10 
REMARK    2  A    between atoms: C6_6  and  C7_7 
REMARK    3  A    between atoms: C6_6  and  C8_8 
REMARK    4  A    between atoms: C7_7  and  C9_9 
REMARK    5  A    between atoms: C8_8  and  N10_10 
ROOT
HETATM    1  C1  UNL     1     -34.597   4.654   6.553  1.00 20.00     0.013 C 
HETATM    2  C2  UNL     1     -35.011   4.825   5.438  1.00 20.00    -0.087 C 
HETATM    3  C5  UNL     1     -35.520   5.033   4.081  1.00 20.00     0.362 C 
ENDROOT
BRANCH   3   4
HETATM    4  N10 UNL     1     -34.437   5.430   3.178  1.00 20.00     0.094 N 
HETATM    5  H27 UNL     1     -34.848   5.669   2.268  1.00 20.00     0.317 HD
BRANCH   4   6
HETATM    6  C8  UNL     1     -33.695   6.544   3.698  1.00 20.00     0.270 C 
BRANCH   6   7
HETATM    7  C6  UNL     1     -32.227   6.511   3.282  1.00 20.00     0.030 C 
BRANCH   7   8
HETATM    8  C7  UNL     1     -31.680   7.904   2.949  1.00 20.00     0.005 C 
BRANCH   8   9
HETATM    9  C9  UNL     1     -32.372   8.558   1.738  1.00 20.00    -0.023 C 
HETATM   10  C3  UNL     1     -32.717  10.014   2.062  1.00 20.00     0.009 C 
HETATM   11  C4  UNL     1     -31.514   8.501   0.474  1.00 20.00     0.009 C 
ENDBRANCH   8   9
ENDBRANCH   7   8
ENDBRANCH   6   7
ENDBRANCH   4   6
ENDBRANCH   3   4
TORSDOF 5
ENDMDL
MODEL 5
REMARK VINA RESULT:      -4.5      1.148      5.318
REMARK  5 active torsions:
REMARK  status: ('A' for Active; 'I' for Inactive)
REMARK    1  A    between atoms: C5_5  and  N10_10 
REMARK    2  A    between atoms: C6_6  and  C7_7 
REMARK    3  A    between atoms: C6_6  and  C8_8 
REMARK    4  A    between atoms: C7_7  and  C9_9 
REMARK    5  A    between atoms: C8_8  and  N10_10 
ROOT
HETATM    1  C1  UNL     1     -34.842   4.337   6.060  1.00 20.00     0.013 C 
HETATM    2  C2  UNL     1     -34.927   4.837   4.971  1.00 20.00    -0.087 C 
HETATM    3  C5  UNL     1     -35.035   5.446   3.643  1.00 20.00     0.362 C 
ENDROOT
BRANCH   3   4
HETATM    4  N10 UNL     1     -33.709   5.777   3.117  1.00 20.00     0.094 N 
HETATM    5  H27 UNL     1     -33.830   6.271   2.226  1.00 20.00     0.317 HD
BRANCH   4   6
HETATM    6  C8  UNL     1     -32.960   6.586   4.038  1.00 20.00     0.270 C 
BRANCH   6   7
HETATM    7  C6  UNL     1     -31.904   7.438   3.339  1.00 20.00     0.030 C 
BRANCH   7   8
HETATM    8  C7  UNL     1     -32.119   7.511   1.822  1.00 20.00     0.005 C 
BRANCH   8   9
HETATM    9  C9  UNL     1     -31.971   8.934   1.252  1.00 20.00    -0.023 C 
HETATM   10  C3  UNL     1     -32.410   8.954  -0.214  1.00 20.00     0.009 C 
HETATM   11  C4  UNL     1     -32.772   9.968   2.045  1.00 20.00     0.009 C 
ENDBRANCH   8   9
ENDBRANCH   7   8
ENDBRANCH   6   7
ENDBRANCH   4   6
ENDBRANCH   3   4
TORSDOF 5
ENDMDL
MODEL 6
REMARK VINA RESULT:      -4.1     11.368     12.287
REMARK  5 active torsions:
REMARK  status: ('A' for Active; 'I' for Inactive)
REMARK    1  A    between atoms: C5_5  and  N10_10 
REMARK    2  A    between atoms: C6_6  and  C7_7 
REMARK    3  A    between atoms: C6_6  and  C8_8 
REMARK    4  A    between atoms: C7_7  and  C9_9 
REMARK    5  A    between atoms: C8_8  and  N10_10 
ROOT
HETATM    1  C1  UNL     1     -34.781  14.762  -7.061  1.00 20.00     0.013 C 
HETATM    2  C2  UNL     1     -34.794  14.133  -6.037  1.00 20.00    -0.087 C 
HETATM    3  C5  UNL     1     -34.816  13.365  -4.790  1.00 20.00     0.362 C 
ENDROOT
BRANCH   3   4
HETATM    4  N10 UNL     1     -33.509  13.415  -4.131  1.00 20.00     0.094 N 
HETATM    5  H27 UNL     1     -32.805  13.048  -4.781  1.00 20.00     0.317 HD
BRANCH   4   6
HETATM    6  C8  UNL     1     -33.168  14.751  -3.730  1.00 20.00     0.270 C 
BRANCH   6   7
HETATM    7  C6  UNL     1     -34.149  15.321  -2.708  1.00 20.00     0.030 C 
BRANCH   7   8
HETATM    8  C7  UNL     1     -34.040  16.844  -2.576  1.00 20.00     0.005 C 
BRANCH   8   9
HETATM    9  C9  UNL     1     -33.667  17.309  -1.155  1.00 20.00    -0.023 C 
HETATM   10  C3  UNL     1     -33.288  18.792  -1.177  1.00 20.00     0.009 C 
HETATM   11  C4  UNL     1     -34.797  17.081  -0.151  1.00 20.00     0.009 C 
ENDBRANCH   8   9
ENDBRANCH   7   8
ENDBRANCH   6   7
ENDBRANCH   4   6
ENDBRANCH   3   4
TORSDOF 5
ENDMDL
MODEL 7
REMARK VINA RESULT:      -4.1     10.806     12.113
REMARK  5 active torsions:
REMARK  status: ('A' for Active; 'I' for Inactive)
REMARK    1  A    between atoms: C5_5  and  N10_10 
REMARK    2  A    between atoms: C6_6  and  C7_7 
REMARK    3  A    between atoms: C6_6  and  C8_8 
REMARK    4  A    between atoms: C7_7  and  C9_9 
REMARK    5  A    between atoms: C8_8  and  N10_10 
ROOT
HETATM    1  C1  UNL     1     -35.376  14.967  -6.969  1.00 20.00     0.013 C 
HETATM    2  C2  UNL     1     -35.243  14.199  -6.055  1.00 20.00    -0.087 C 
HETATM    3  C5  UNL     1     -35.085  13.262  -4.941  1.00 20.00     0.362 C 
ENDROOT
BRANCH   3   4
HETATM    4  N10 UNL     1     -33.671  13.101  -4.597  1.00 20.00     0.094 N 
HETATM    5  H27 UNL     1     -33.107  13.457  -5.377  1.00 20.00     0.317 HD
BRANCH   4   6
HETATM    6  C8  UNL     1     -33.337  13.794  -3.384  1.00 20.00     0.270 C 
BRANCH   6   7
HETATM    7  C6  UNL     1     -32.683  15.148  -3.648  1.00 20.00     0.030 C 
BRANCH   7   8
HETATM    8  C7  UNL     1     -33.597  16.322  -3.277  1.00 20.00     0.005 C 
BRANCH   8   9
HETATM    9  C9  UNL     1     -34.767  15.919  -2.360  1.00 20.00    -0.023 C 
HETATM   10  C3  UNL     1     -34.603  16.580  -0.989  1.00 20.00     0.009 C 
HETATM   11  C4  UNL     1     -36.127  16.291  -2.952  1.00 20.00     0.009 C 
ENDBRANCH   8   9
ENDBRANCH   7   8
ENDBRANCH   6   7
ENDBRANCH   4   6
ENDBRANCH   3   4
TORSDOF 5
ENDMDL
MODEL 8
REMARK VINA RESULT:      -4.0     11.575     12.774
REMARK  5 active torsions:
REMARK  status: ('A' for Active; 'I' for Inactive)
REMARK    1  A    between atoms: C5_5  and  N10_10 
REMARK    2  A    between atoms: C6_6  and  C7_7 
REMARK    3  A    between atoms: C6_6  and  C8_8 
REMARK    4  A    between atoms: C7_7  and  C9_9 
REMARK    5  A    between atoms: C8_8  and  N10_10 
ROOT
HETATM    1  C1  UNL     1     -34.873  13.191  -4.516  1.00 20.00     0.013 C 
HETATM    2  C2  UNL     1     -34.704  13.954  -5.427  1.00 20.00    -0.087 C 
HETATM    3  C5  UNL     1     -34.497  14.882  -6.542  1.00 20.00     0.362 C 
ENDROOT
BRANCH   3   4
HETATM    4  N10 UNL     1     -34.469  16.266  -6.064  1.00 20.00     0.094 N 
HETATM    5  H27 UNL     1     -35.317  16.433  -5.511  1.00 20.00     0.317 HD
BRANCH   4   6
HETATM    6  C8  UNL     1     -33.299  16.531  -5.274  1.00 20.00     0.270 C 
BRANCH   6   7
HETATM    7  C6  UNL     1     -33.635  17.186  -3.937  1.00 20.00     0.030 C 
BRANCH   7   8
HETATM    8  C7  UNL     1     -33.489  16.217  -2.757  1.00 20.00     0.005 C 
BRANCH   8   9
HETATM    9  C9  UNL     1     -34.791  16.031  -1.956  1.00 20.00    -0.023 C 
HETATM   10  C3  UNL     1     -34.684  16.761  -0.614  1.00 20.00     0.009 C 
HETATM   11  C4  UNL     1     -36.022  16.527  -2.716  1.00 20.00     0.009 C 
ENDBRANCH   8   9
ENDBRANCH   7   8
ENDBRANCH   6   7
ENDBRANCH   4   6
ENDBRANCH   3   4
TORSDOF 5
ENDMDL
MODEL 9
REMARK VINA RESULT:      -4.0     10.981     12.697
REMARK  5 active torsions:
REMARK  status: ('A' for Active; 'I' for Inactive)
REMARK    1  A    between atoms: C5_5  and  N10_10 
REMARK    2  A    between atoms: C6_6  and  C7_7 
REMARK    3  A    between atoms: C6_6  and  C8_8 
REMARK    4  A    between atoms: C7_7  and  C9_9 
REMARK    5  A    between atoms: C8_8  and  N10_10 
ROOT
HETATM    1  C1  UNL     1     -34.456  16.415  -1.454  1.00 20.00     0.013 C 
HETATM    2  C2  UNL     1     -33.903  16.276  -2.511  1.00 20.00    -0.087 C 
HETATM    3  C5  UNL     1     -33.230  16.112  -3.801  1.00 20.00     0.362 C 
ENDROOT
BRANCH   3   4
HETATM    4  N10 UNL     1     -32.644  14.774  -3.911  1.00 20.00     0.094 N 
HETATM    5  H27 UNL     1     -31.850  14.715  -3.264  1.00 20.00     0.317 HD
BRANCH   4   6
HETATM    6  C8  UNL     1     -33.605  13.748  -3.615  1.00 20.00     0.270 C 
BRANCH   6   7
HETATM    7  C6  UNL     1     -34.393  13.314  -4.848  1.00 20.00     0.030 C 
BRANCH   7   8
HETATM    8  C7  UNL     1     -35.751  14.018  -4.955  1.00 20.00     0.005 C 
BRANCH   8   9
HETATM    9  C9  UNL     1     -35.900  14.866  -6.232  1.00 20.00    -0.023 C 
HETATM   10  C3  UNL     1     -36.312  16.293  -5.862  1.00 20.00     0.009 C 
HETATM   11  C4  UNL     1     -34.619  14.899  -7.065  1.00 20.00     0.009 C 
ENDBRANCH   8   9
ENDBRANCH   7   8
ENDBRANCH   6   7
ENDBRANCH   4   6
ENDBRANCH   3   4
TORSDOF 5
ENDMDL
