MODEL 1
REMARK VINA RESULT:      -3.7      0.000      0.000
REMARK  3 active torsions:
REMARK  status: ('A' for Active; 'I' for Inactive)
REMARK    1  A    between atoms: C3_3  and  C5_5 
REMARK    2  A    between atoms: C5_5  and  C6_6 
REMARK    3  A    between atoms: C6_6  and  S9_9 
ROOT
HETATM    1  C1  UNL     1     -34.378   6.013   6.424  1.00 20.00     0.281 C 
HETATM    2  C2  UNL     1     -34.916   4.694   5.890  1.00 20.00     0.106 C 
HETATM    3  C3  UNL     1     -34.010   6.439   4.137  1.00 20.00     0.282 C 
HETATM    4  N7  UNL     1     -33.388   6.497   5.462  1.00 20.00     0.098 N 
HETATM    5  S8  UNL     1     -35.115   4.990   4.118  1.00 20.00    -0.132 SA
HETATM    6  H22 UNL     1     -33.107   7.452   5.682  1.00 20.00     0.317 HD
ENDROOT
BRANCH   3   7
HETATM    7  C5  UNL     1     -32.948   6.328   3.056  1.00 20.00     0.056 C 
BRANCH   7   8
HETATM    8  C6  UNL     1     -32.011   7.531   3.081  1.00 20.00     0.076 C 
BRANCH   8   9
HETATM    9  S9  UNL     1     -31.898   8.286   1.433  1.00 20.00    -0.173 SA
HETATM   10  C4  UNL     1     -32.644   9.885   1.825  1.00 20.00     0.089 C 
ENDBRANCH   8   9
ENDBRANCH   7   8
ENDBRANCH   3   7
TORSDOF 3
ENDMDL
MODEL 2
REMARK VINA RESULT:      -3.4     11.265     12.255
REMARK  3 active torsions:
REMARK  status: ('A' for Active; 'I' for Inactive)
REMARK    1  A    between atoms: C3_3  and  C5_5 
REMARK    2  A    between atoms: C5_5  and  C6_6 
REMARK    3  A    between atoms: C6_6  and  S9_9 
ROOT
HETATM    1  C1  UNL     1     -35.365  14.460  -6.769  1.00 20.00     0.281 C 
HETATM    2  C2  UNL     1     -36.508  15.156  -6.045  1.00 20.00     0.106 C 
HETATM    3  C3  UNL     1     -34.806  13.772  -4.587  1.00 20.00     0.282 C 
HETATM    4  N7  UNL     1     -34.258  14.345  -5.818  1.00 20.00     0.098 N 
HETATM    5  S8  UNL     1     -36.505  14.404  -4.402  1.00 20.00    -0.132 SA
HETATM    6  H22 UNL     1     -33.522  13.747  -6.192  1.00 20.00     0.317 HD
ENDROOT
BRANCH   3   7
HETATM    7  C5  UNL     1     -33.948  14.158  -3.394  1.00 20.00     0.056 C 
BRANCH   7   8
HETATM    8  C6  UNL     1     -33.080  15.372  -3.711  1.00 20.00     0.076 C 
BRANCH   8   9
HETATM    9  S9  UNL     1     -33.879  16.896  -3.132  1.00 20.00    -0.173 SA
HETATM   10  C4  UNL     1     -34.564  16.262  -1.584  1.00 20.00     0.089 C 
ENDBRANCH   8   9
ENDBRANCH   7   8
ENDBRANCH   3   7
TORSDOF 3
ENDMDL
MODEL 3
REMARK VINA RESULT:      -3.4     11.111     11.726
REMARK  3 active torsions:
REMARK  status: ('A' for Active; 'I' for Inactive)
REMARK    1  A    between atoms: C3_3  and  C5_5 
REMARK    2  A    between atoms: C5_5  and  C6_6 
REMARK    3  A    between atoms: C6_6  and  S9_9 
ROOT
HETATM    1  C1  UNL     1     -36.382  14.417  -4.125  1.00 20.00     0.281 C 
HETATM    2  C2  UNL     1     -35.098  13.599  -4.122  1.00 20.00     0.106 C 
HETATM    3  C3  UNL     1     -35.057  15.936  -2.906  1.00 20.00     0.282 C 
HETATM    4  N7  UNL     1     -36.357  15.263  -2.931  1.00 20.00     0.098 N 
HETATM    5  S8  UNL     1     -33.832  14.779  -3.599  1.00 20.00    -0.132 SA
HETATM    6  H22 UNL     1     -37.112  15.948  -2.959  1.00 20.00     0.317 HD
ENDROOT
BRANCH   3   7
HETATM    7  C5  UNL     1     -34.691  16.331  -1.485  1.00 20.00     0.056 C 
BRANCH   7   8
HETATM    8  C6  UNL     1     -33.696  17.486  -1.474  1.00 20.00     0.076 C 
BRANCH   8   9
HETATM    9  S9  UNL     1     -33.719  18.332   0.132  1.00 20.00    -0.173 SA
HETATM   10  C4  UNL     1     -35.169  17.516   0.839  1.00 20.00     0.089 C 
ENDBRANCH   8   9
ENDBRANCH   7   8
ENDBRANCH   3   7
TORSDOF 3
ENDMDL
MODEL 4
REMARK VINA RESULT:      -3.4     11.402     11.974
REMARK  3 active torsions:
REMARK  status: ('A' for Active; 'I' for Inactive)
REMARK    1  A    between atoms: C3_3  and  C5_5 
REMARK    2  A    between atoms: C5_5  and  C6_6 
REMARK    3  A    between atoms: C6_6  and  S9_9 
ROOT
HETATM    1  C1  UNL     1     -34.862  13.154  -4.710  1.00 20.00     0.281 C 
HETATM    2  C2  UNL     1     -34.796  14.214  -5.800  1.00 20.00     0.106 C 
HETATM    3  C3  UNL     1     -34.859  15.041  -3.299  1.00 20.00     0.282 C 
HETATM    4  N7  UNL     1     -34.246  13.728  -3.513  1.00 20.00     0.098 N 
HETATM    5  S8  UNL     1     -35.213  15.749  -4.940  1.00 20.00    -0.132 SA
HETATM    6  H22 UNL     1     -34.401  13.127  -2.704  1.00 20.00     0.317 HD
ENDROOT
BRANCH   3   7
HETATM    7  C5  UNL     1     -33.925  15.940  -2.508  1.00 20.00     0.056 C 
BRANCH   7   8
HETATM    8  C6  UNL     1     -34.590  16.434  -1.228  1.00 20.00     0.076 C 
BRANCH   8   9
HETATM    9  S9  UNL     1     -33.800  17.962  -0.647  1.00 20.00    -0.173 SA
HETATM   10  C4  UNL     1     -33.560  18.761  -2.250  1.00 20.00     0.089 C 
ENDBRANCH   8   9
ENDBRANCH   7   8
ENDBRANCH   3   7
TORSDOF 3
ENDMDL
MODEL 5
REMARK VINA RESULT:      -3.3     10.997     12.514
REMARK  3 active torsions:
REMARK  status: ('A' for Active; 'I' for Inactive)
REMARK    1  A    between atoms: C3_3  and  C5_5 
REMARK    2  A    between atoms: C5_5  and  C6_6 
REMARK    3  A    between atoms: C6_6  and  S9_9 
ROOT
HETATM    1  C1  UNL     1     -33.323  13.636  -3.779  1.00 20.00     0.281 C 
HETATM    2  C2  UNL     1     -34.820  13.579  -4.049  1.00 20.00     0.106 C 
HETATM    3  C3  UNL     1     -33.807  15.885  -3.278  1.00 20.00     0.282 C 
HETATM    4  N7  UNL     1     -32.893  15.014  -4.019  1.00 20.00     0.098 N 
HETATM    5  S8  UNL     1     -35.453  15.104  -3.312  1.00 20.00    -0.132 SA
HETATM    6  H22 UNL     1     -31.934  15.153  -3.703  1.00 20.00     0.317 HD
ENDROOT
BRANCH   3   7
HETATM    7  C5  UNL     1     -33.848  17.268  -3.906  1.00 20.00     0.056 C 
BRANCH   7   8
HETATM    8  C6  UNL     1     -33.380  17.228  -5.356  1.00 20.00     0.076 C 
BRANCH   8   9
HETATM    9  S9  UNL     1     -34.802  17.188  -6.484  1.00 20.00    -0.173 SA
HETATM   10  C4  UNL     1     -34.511  15.561  -7.216  1.00 20.00     0.089 C 
ENDBRANCH   8   9
ENDBRANCH   7   8
ENDBRANCH   3   7
TORSDOF 3
ENDMDL
MODEL 6
REMARK VINA RESULT:      -3.3     11.126     13.159
REMARK  3 active torsions:
REMARK  status: ('A' for Active; 'I' for Inactive)
REMARK    1  A    between atoms: C3_3  and  C5_5 
REMARK    2  A    between atoms: C5_5  and  C6_6 
REMARK    3  A    between atoms: C6_6  and  S9_9 
ROOT
HETATM    1  C1  UNL     1     -33.145  15.261  -3.771  1.00 20.00     0.281 C 
HETATM    2  C2  UNL     1     -33.370  13.757  -3.709  1.00 20.00     0.106 C 
HETATM    3  C3  UNL     1     -34.507  15.078  -5.684  1.00 20.00     0.282 C 
HETATM    4  N7  UNL     1     -33.261  15.657  -5.175  1.00 20.00     0.098 N 
HETATM    5  S8  UNL     1     -34.742  13.474  -4.852  1.00 20.00    -0.132 SA
HETATM    6  H22 UNL     1     -33.279  16.672  -5.263  1.00 20.00     0.317 HD
ENDROOT
BRANCH   3   7
HETATM    7  C5  UNL     1     -34.434  14.904  -7.192  1.00 20.00     0.056 C 
BRANCH   7   8
HETATM    8  C6  UNL     1     -35.818  14.672  -7.787  1.00 20.00     0.076 C 
BRANCH   8   9
HETATM    9  S9  UNL     1     -37.036  15.779  -7.020  1.00 20.00    -0.173 SA
HETATM   10  C4  UNL     1     -38.536  15.020  -7.684  1.00 20.00     0.089 C 
ENDBRANCH   8   9
ENDBRANCH   7   8
ENDBRANCH   3   7
TORSDOF 3
ENDMDL
MODEL 7
REMARK VINA RESULT:      -3.2     11.176     11.943
REMARK  3 active torsions:
REMARK  status: ('A' for Active; 'I' for Inactive)
REMARK    1  A    between atoms: C3_3  and  C5_5 
REMARK    2  A    between atoms: C5_5  and  C6_6 
REMARK    3  A    between atoms: C6_6  and  S9_9 
ROOT
HETATM    1  C1  UNL     1     -34.910  17.351   0.225  1.00 20.00     0.281 C 
HETATM    2  C2  UNL     1     -34.912  18.754  -0.364  1.00 20.00     0.106 C 
HETATM    3  C3  UNL     1     -33.798  16.837  -1.787  1.00 20.00     0.282 C 
HETATM    4  N7  UNL     1     -34.881  16.412  -0.897  1.00 20.00     0.098 N 
HETATM    5  S8  UNL     1     -33.725  18.656  -1.725  1.00 20.00    -0.132 SA
HETATM    6  H22 UNL     1     -34.718  15.461  -0.567  1.00 20.00     0.317 HD
ENDROOT
BRANCH   3   7
HETATM    7  C5  UNL     1     -34.053  16.350  -3.203  1.00 20.00     0.056 C 
BRANCH   7   8
HETATM    8  C6  UNL     1     -33.116  15.203  -3.568  1.00 20.00     0.076 C 
BRANCH   8   9
HETATM    9  S9  UNL     1     -34.066  13.726  -4.028  1.00 20.00    -0.173 SA
HETATM   10  C4  UNL     1     -35.725  14.438  -3.928  1.00 20.00     0.089 C 
ENDBRANCH   8   9
ENDBRANCH   7   8
ENDBRANCH   3   7
TORSDOF 3
ENDMDL
MODEL 8
REMARK VINA RESULT:      -3.2     11.050     12.163
REMARK  3 active torsions:
REMARK  status: ('A' for Active; 'I' for Inactive)
REMARK    1  A    between atoms: C3_3  and  C5_5 
REMARK    2  A    between atoms: C5_5  and  C6_6 
REMARK    3  A    between atoms: C6_6  and  S9_9 
ROOT
HETATM    1  C1  UNL     1     -34.855  16.217  -2.032  1.00 20.00     0.281 C 
HETATM    2  C2  UNL     1     -33.759  16.723  -2.960  1.00 20.00     0.106 C 
HETATM    3  C3  UNL     1     -34.609  14.254  -3.310  1.00 20.00     0.282 C 
HETATM    4  N7  UNL     1     -35.595  15.186  -2.761  1.00 20.00     0.098 N 
HETATM    5  S8  UNL     1     -33.129  15.223  -3.747  1.00 20.00    -0.132 SA
HETATM    6  H22 UNL     1     -36.239  14.697  -2.140  1.00 20.00     0.317 HD
ENDROOT
BRANCH   3   7
HETATM    7  C5  UNL     1     -35.173  13.541  -4.528  1.00 20.00     0.056 C 
BRANCH   7   8
HETATM    8  C6  UNL     1     -34.801  14.272  -5.814  1.00 20.00     0.076 C 
BRANCH   8   9
HETATM    9  S9  UNL     1     -36.247  15.126  -6.503  1.00 20.00    -0.173 SA
HETATM   10  C4  UNL     1     -35.779  16.820  -6.077  1.00 20.00     0.089 C 
ENDBRANCH   8   9
ENDBRANCH   7   8
ENDBRANCH   3   7
TORSDOF 3
ENDMDL
MODEL 9
REMARK VINA RESULT:      -3.1     11.336     12.441
REMARK  3 active torsions:
REMARK  status: ('A' for Active; 'I' for Inactive)
REMARK    1  A    between atoms: C3_3  and  C5_5 
REMARK    2  A    between atoms: C5_5  and  C6_6 
REMARK    3  A    between atoms: C6_6  and  S9_9 
ROOT
HETATM    1  C1  UNL     1     -36.347  17.176  -2.632  1.00 20.00     0.281 C 
HETATM    2  C2  UNL     1     -35.485  17.848  -3.691  1.00 20.00     0.106 C 
HETATM    3  C3  UNL     1     -34.655  15.541  -2.729  1.00 20.00     0.282 C 
HETATM    4  N7  UNL     1     -36.106  15.736  -2.730  1.00 20.00     0.098 N 
HETATM    5  S8  UNL     1     -33.915  16.958  -3.604  1.00 20.00    -0.132 SA
HETATM    6  H22 UNL     1     -36.532  15.245  -1.944  1.00 20.00     0.317 HD
ENDROOT
BRANCH   3   7
HETATM    7  C5  UNL     1     -34.295  14.231  -3.410  1.00 20.00     0.056 C 
BRANCH   7   8
HETATM    8  C6  UNL     1     -35.422  13.757  -4.321  1.00 20.00     0.076 C 
BRANCH   8   9
HETATM    9  S9  UNL     1     -35.081  14.206  -6.046  1.00 20.00    -0.173 SA
HETATM   10  C4  UNL     1     -36.471  15.333  -6.304  1.00 20.00     0.089 C 
ENDBRANCH   8   9
ENDBRANCH   7   8
ENDBRANCH   3   7
TORSDOF 3
ENDMDL
