MODEL 1
REMARK VINA RESULT:      -5.7      0.000      0.000
REMARK  1 active torsions:
REMARK  status: ('A' for Active; 'I' for Inactive)
REMARK    1  A    between atoms: C9_9  and  O11_11 
ROOT
HETATM    1  C1  UNL     1     -34.101  15.030  -2.822  1.00 20.00     0.052 A 
HETATM    2  C2  UNL     1     -33.745  17.366  -3.405  1.00 20.00     0.049 A 
HETATM    3  C3  UNL     1     -34.231  14.748  -4.172  1.00 20.00    -0.020 A 
HETATM    4  C4  UNL     1     -34.114  15.761  -5.133  1.00 20.00    -0.043 A 
HETATM    5  C5  UNL     1     -33.865  17.072  -4.765  1.00 20.00    -0.052 A 
HETATM    6  C6  UNL     1     -33.862  16.353  -2.440  1.00 20.00     0.117 A 
HETATM    7  C7  UNL     1     -34.244  15.204  -6.517  1.00 20.00     0.042 C 
HETATM    8  C8  UNL     1     -34.921  13.857  -6.228  1.00 20.00     0.041 C 
HETATM    9  C9  UNL     1     -34.447  13.421  -4.832  1.00 20.00     0.152 C 
HETATM   10  C10 UNL     1     -33.721  18.154  -5.779  1.00 20.00     0.049 C 
HETATM   11  F12 UNL     1     -33.737  16.657  -1.141  1.00 20.00    -0.206 F 
ENDROOT
BRANCH   9  12
HETATM   12  O11 UNL     1     -35.437  12.655  -4.177  1.00 20.00    -0.391 OA
HETATM   13  H23 UNL     1     -35.925  12.166  -4.863  1.00 20.00     0.210 HD
ENDBRANCH   9  12
TORSDOF 1
ENDMDL
MODEL 2
REMARK VINA RESULT:      -4.8      2.390      3.569
REMARK  1 active torsions:
REMARK  status: ('A' for Active; 'I' for Inactive)
REMARK    1  A    between atoms: C9_9  and  O11_11 
ROOT
HETATM    1  C1  UNL     1     -33.474  17.276  -5.206  1.00 20.00     0.052 A 
HETATM    2  C2  UNL     1     -34.559  16.757  -7.322  1.00 20.00     0.049 A 
HETATM    3  C3  UNL     1     -33.704  15.970  -4.807  1.00 20.00    -0.020 A 
HETATM    4  C4  UNL     1     -34.350  15.061  -5.656  1.00 20.00    -0.043 A 
HETATM    5  C5  UNL     1     -34.777  15.439  -6.918  1.00 20.00    -0.052 A 
HETATM    6  C6  UNL     1     -33.912  17.669  -6.474  1.00 20.00     0.117 A 
HETATM    7  C7  UNL     1     -34.439  13.707  -5.023  1.00 20.00     0.042 C 
HETATM    8  C8  UNL     1     -34.209  14.058  -3.547  1.00 20.00     0.041 C 
HETATM    9  C9  UNL     1     -33.301  15.299  -3.530  1.00 20.00     0.152 C 
HETATM   10  C10 UNL     1     -35.448  14.477  -7.835  1.00 20.00     0.049 C 
HETATM   11  F12 UNL     1     -33.707  18.928  -6.885  1.00 20.00    -0.206 F 
ENDROOT
BRANCH   9  12
HETATM   12  O11 UNL     1     -33.565  16.104  -2.399  1.00 20.00    -0.391 OA
HETATM   13  H23 UNL     1     -33.653  17.021  -2.712  1.00 20.00     0.210 HD
ENDBRANCH   9  12
TORSDOF 1
ENDMDL
MODEL 3
REMARK VINA RESULT:      -4.8      2.550      3.260
REMARK  1 active torsions:
REMARK  status: ('A' for Active; 'I' for Inactive)
REMARK    1  A    between atoms: C9_9  and  O11_11 
ROOT
HETATM    1  C1  UNL     1     -35.188  14.088  -4.009  1.00 20.00     0.052 A 
HETATM    2  C2  UNL     1     -33.393  15.453  -3.095  1.00 20.00     0.049 A 
HETATM    3  C3  UNL     1     -36.053  15.152  -3.809  1.00 20.00    -0.020 A 
HETATM    4  C4  UNL     1     -35.595  16.359  -3.264  1.00 20.00    -0.043 A 
HETATM    5  C5  UNL     1     -34.267  16.525  -2.908  1.00 20.00    -0.052 A 
HETATM    6  C6  UNL     1     -33.849  14.243  -3.641  1.00 20.00     0.117 A 
HETATM    7  C7  UNL     1     -36.699  17.367  -3.191  1.00 20.00     0.042 C 
HETATM    8  C8  UNL     1     -37.932  16.460  -3.305  1.00 20.00     0.041 C 
HETATM    9  C9  UNL     1     -37.508  15.250  -4.154  1.00 20.00     0.152 C 
HETATM   10  C10 UNL     1     -33.766  17.809  -2.344  1.00 20.00     0.049 C 
HETATM   11  F12 UNL     1     -32.991  13.229  -3.818  1.00 20.00    -0.206 F 
ENDROOT
BRANCH   9  12
HETATM   12  O11 UNL     1     -38.224  14.091  -3.778  1.00 20.00    -0.391 OA
HETATM   13  H23 UNL     1     -37.701  13.323  -4.067  1.00 20.00     0.210 HD
ENDBRANCH   9  12
TORSDOF 1
ENDMDL
MODEL 4
REMARK VINA RESULT:      -4.7      3.243      4.604
REMARK  1 active torsions:
REMARK  status: ('A' for Active; 'I' for Inactive)
REMARK    1  A    between atoms: C9_9  and  O11_11 
ROOT
HETATM    1  C1  UNL     1     -37.210  15.976  -3.310  1.00 20.00     0.052 A 
HETATM    2  C2  UNL     1     -35.971  14.091  -4.224  1.00 20.00     0.049 A 
HETATM    3  C3  UNL     1     -36.048  16.391  -2.681  1.00 20.00    -0.020 A 
HETATM    4  C4  UNL     1     -34.855  15.671  -2.824  1.00 20.00    -0.043 A 
HETATM    5  C5  UNL     1     -34.800  14.523  -3.597  1.00 20.00    -0.052 A 
HETATM    6  C6  UNL     1     -37.167  14.812  -4.082  1.00 20.00     0.117 A 
HETATM    7  C7  UNL     1     -33.733  16.341  -2.092  1.00 20.00     0.042 C 
HETATM    8  C8  UNL     1     -34.512  17.249  -1.131  1.00 20.00     0.041 C 
HETATM    9  C9  UNL     1     -35.826  17.613  -1.842  1.00 20.00     0.152 C 
HETATM   10  C10 UNL     1     -33.534  13.759  -3.770  1.00 20.00     0.049 C 
HETATM   11  F12 UNL     1     -38.277  14.383  -4.698  1.00 20.00    -0.206 F 
ENDROOT
BRANCH   9  12
HETATM   12  O11 UNL     1     -36.868  17.814  -0.908  1.00 20.00    -0.391 OA
HETATM   13  H23 UNL     1     -37.106  18.757  -0.941  1.00 20.00     0.210 HD
ENDBRANCH   9  12
TORSDOF 1
ENDMDL
MODEL 5
REMARK VINA RESULT:      -4.7      2.494      3.098
REMARK  1 active torsions:
REMARK  status: ('A' for Active; 'I' for Inactive)
REMARK    1  A    between atoms: C9_9  and  O11_11 
ROOT
HETATM    1  C1  UNL     1     -36.560  15.037  -5.258  1.00 20.00     0.052 A 
HETATM    2  C2  UNL     1     -35.831  17.168  -6.181  1.00 20.00     0.049 A 
HETATM    3  C3  UNL     1     -35.325  14.919  -4.644  1.00 20.00    -0.020 A 
HETATM    4  C4  UNL     1     -34.350  15.916  -4.789  1.00 20.00    -0.043 A 
HETATM    5  C5  UNL     1     -34.592  17.048  -5.549  1.00 20.00    -0.052 A 
HETATM    6  C6  UNL     1     -36.808  16.171  -6.037  1.00 20.00     0.117 A 
HETATM    7  C7  UNL     1     -33.124  15.586  -3.997  1.00 20.00     0.042 C 
HETATM    8  C8  UNL     1     -33.316  14.080  -3.773  1.00 20.00     0.041 C 
HETATM    9  C9  UNL     1     -34.833  13.834  -3.735  1.00 20.00     0.152 C 
HETATM   10  C10 UNL     1     -33.571  18.122  -5.696  1.00 20.00     0.049 C 
HETATM   11  F12 UNL     1     -37.994  16.310  -6.647  1.00 20.00    -0.206 F 
ENDROOT
BRANCH   9  12
HETATM   12  O11 UNL     1     -35.150  12.546  -4.223  1.00 20.00    -0.391 OA
HETATM   13  H23 UNL     1     -35.954  12.633  -4.765  1.00 20.00     0.210 HD
ENDBRANCH   9  12
TORSDOF 1
ENDMDL
MODEL 6
REMARK VINA RESULT:      -4.7      1.957      2.354
REMARK  1 active torsions:
REMARK  status: ('A' for Active; 'I' for Inactive)
REMARK    1  A    between atoms: C9_9  and  O11_11 
ROOT
HETATM    1  C1  UNL     1     -33.564  15.889  -2.511  1.00 20.00     0.052 A 
HETATM    2  C2  UNL     1     -35.525  17.242  -2.017  1.00 20.00     0.049 A 
HETATM    3  C3  UNL     1     -34.338  15.149  -3.389  1.00 20.00    -0.020 A 
HETATM    4  C4  UNL     1     -35.691  15.452  -3.587  1.00 20.00    -0.043 A 
HETATM    5  C5  UNL     1     -36.296  16.500  -2.913  1.00 20.00    -0.052 A 
HETATM    6  C6  UNL     1     -34.169  16.940  -1.816  1.00 20.00     0.117 A 
HETATM    7  C7  UNL     1     -36.299  14.547  -4.614  1.00 20.00     0.042 C 
HETATM    8  C8  UNL     1     -35.284  13.396  -4.627  1.00 20.00     0.041 C 
HETATM    9  C9  UNL     1     -33.921  14.012  -4.272  1.00 20.00     0.152 C 
HETATM   10  C10 UNL     1     -37.729  16.843  -3.129  1.00 20.00     0.049 C 
HETATM   11  F12 UNL     1     -33.446  17.670  -0.957  1.00 20.00    -0.206 F 
ENDROOT
BRANCH   9  12
HETATM   12  O11 UNL     1     -33.105  13.080  -3.591  1.00 20.00    -0.391 OA
HETATM   13  H23 UNL     1     -32.282  12.989  -4.102  1.00 20.00     0.210 HD
ENDBRANCH   9  12
TORSDOF 1
ENDMDL
MODEL 7
REMARK VINA RESULT:      -4.7      1.329      1.329
REMARK  1 active torsions:
REMARK  status: ('A' for Active; 'I' for Inactive)
REMARK    1  A    between atoms: C9_9  and  O11_11 
ROOT
HETATM    1  C1  UNL     1     -35.038  15.546  -2.313  1.00 20.00     0.052 A 
HETATM    2  C2  UNL     1     -33.788  17.585  -2.763  1.00 20.00     0.049 A 
HETATM    3  C3  UNL     1     -35.286  15.439  -3.672  1.00 20.00    -0.020 A 
HETATM    4  C4  UNL     1     -34.787  16.390  -4.572  1.00 20.00    -0.043 A 
HETATM    5  C5  UNL     1     -34.031  17.464  -4.132  1.00 20.00    -0.052 A 
HETATM    6  C6  UNL     1     -34.287  16.634  -1.860  1.00 20.00     0.117 A 
HETATM    7  C7  UNL     1     -35.145  16.034  -5.981  1.00 20.00     0.042 C 
HETATM    8  C8  UNL     1     -36.298  15.048  -5.751  1.00 20.00     0.041 C 
HETATM    9  C9  UNL     1     -36.020  14.358  -4.405  1.00 20.00     0.152 C 
HETATM   10  C10 UNL     1     -33.481  18.471  -5.081  1.00 20.00     0.049 C 
HETATM   11  F12 UNL     1     -34.035  16.766  -0.550  1.00 20.00    -0.206 F 
ENDROOT
BRANCH   9  12
HETATM   12  O11 UNL     1     -37.226  14.002  -3.760  1.00 20.00    -0.391 OA
HETATM   13  H23 UNL     1     -37.685  13.365  -4.336  1.00 20.00     0.210 HD
ENDBRANCH   9  12
TORSDOF 1
ENDMDL
MODEL 8
REMARK VINA RESULT:      -4.6      2.095      3.305
REMARK  1 active torsions:
REMARK  status: ('A' for Active; 'I' for Inactive)
REMARK    1  A    between atoms: C9_9  and  O11_11 
ROOT
HETATM    1  C1  UNL     1     -33.914  17.436  -3.487  1.00 20.00     0.052 A 
HETATM    2  C2  UNL     1     -34.212  15.101  -2.870  1.00 20.00     0.049 A 
HETATM    3  C3  UNL     1     -34.208  17.092  -4.796  1.00 20.00    -0.020 A 
HETATM    4  C4  UNL     1     -34.508  15.768  -5.143  1.00 20.00    -0.043 A 
HETATM    5  C5  UNL     1     -34.520  14.764  -4.189  1.00 20.00    -0.052 A 
HETATM    6  C6  UNL     1     -33.912  16.427  -2.521  1.00 20.00     0.117 A 
HETATM    7  C7  UNL     1     -34.836  15.656  -6.599  1.00 20.00     0.042 C 
HETATM    8  C8  UNL     1     -34.229  16.959  -7.137  1.00 20.00     0.041 C 
HETATM    9  C9  UNL     1     -34.314  17.985  -5.995  1.00 20.00     0.152 C 
HETATM   10  C10 UNL     1     -34.854  13.356  -4.543  1.00 20.00     0.049 C 
HETATM   11  F12 UNL     1     -33.626  16.729  -1.246  1.00 20.00    -0.206 F 
ENDROOT
BRANCH   9  12
HETATM   12  O11 UNL     1     -33.249  18.911  -6.065  1.00 20.00    -0.391 OA
HETATM   13  H23 UNL     1     -33.354  19.529  -5.320  1.00 20.00     0.210 HD
ENDBRANCH   9  12
TORSDOF 1
ENDMDL
MODEL 9
REMARK VINA RESULT:      -4.6     12.012     12.997
REMARK  1 active torsions:
REMARK  status: ('A' for Active; 'I' for Inactive)
REMARK    1  A    between atoms: C9_9  and  O11_11 
ROOT
HETATM    1  C1  UNL     1     -40.929   4.903  -0.866  1.00 20.00     0.052 A 
HETATM    2  C2  UNL     1     -41.514   7.264  -0.786  1.00 20.00     0.049 A 
HETATM    3  C3  UNL     1     -41.807   4.757  -1.928  1.00 20.00    -0.020 A 
HETATM    4  C4  UNL     1     -42.529   5.852  -2.422  1.00 20.00    -0.043 A 
HETATM    5  C5  UNL     1     -42.387   7.112  -1.865  1.00 20.00    -0.052 A 
HETATM    6  C6  UNL     1     -40.790   6.169  -0.290  1.00 20.00     0.117 A 
HETATM    7  C7  UNL     1     -43.369   5.455  -3.595  1.00 20.00     0.042 C 
HETATM    8  C8  UNL     1     -43.417   3.931  -3.419  1.00 20.00     0.041 C 
HETATM    9  C9  UNL     1     -42.100   3.529  -2.734  1.00 20.00     0.152 C 
HETATM   10  C10 UNL     1     -43.136   8.286  -2.392  1.00 20.00     0.049 C 
HETATM   11  F12 UNL     1     -39.952   6.340   0.741  1.00 20.00    -0.206 F 
ENDROOT
BRANCH   9  12
HETATM   12  O11 UNL     1     -42.280   2.387  -1.920  1.00 20.00    -0.391 OA
HETATM   13  H23 UNL     1     -43.134   1.990  -2.165  1.00 20.00     0.210 HD
ENDBRANCH   9  12
TORSDOF 1
ENDMDL
