MODEL 1
REMARK VINA RESULT:      -5.8      0.000      0.000
REMARK  3 active torsions:
REMARK  status: ('A' for Active; 'I' for Inactive)
REMARK    1  A    between atoms: C3_3  and  C4_4 
REMARK    2  A    between atoms: C3_3  and  C5_5 
REMARK    3  A    between atoms: C5_5  and  C6_6 
ROOT
HETATM    1  C1  UNL     1     -32.138   8.731   1.588  1.00 20.00     0.012 C 
HETATM    2  C2  UNL     1     -32.097   7.811   2.358  1.00 20.00    -0.110 C 
HETATM    3  C4  UNL     1     -32.038   6.687   3.300  1.00 20.00     0.171 C 
ENDROOT
BRANCH   3   4
HETATM    4  C3  UNL     1     -33.406   6.094   3.587  1.00 20.00     0.146 C 
HETATM    5  O7  UNL     1     -34.024   5.427   2.758  1.00 20.00    -0.297 OA
BRANCH   4   6
HETATM    6  C5  UNL     1     -33.965   6.380   4.972  1.00 20.00     0.196 C 
BRANCH   6   7
HETATM    7  C6  UNL     1     -34.714   5.210   5.564  1.00 20.00     0.394 C 
HETATM    8  F8  UNL     1     -35.803   4.922   4.817  1.00 20.00    -0.171 F 
HETATM    9  F9  UNL     1     -33.946   4.101   5.608  1.00 20.00    -0.171 F 
HETATM   10  F10 UNL     1     -35.140   5.478   6.817  1.00 20.00    -0.171 F 
ENDBRANCH   6   7
ENDBRANCH   4   6
ENDBRANCH   3   4
TORSDOF 3
ENDMDL
MODEL 2
REMARK VINA RESULT:      -5.8      0.100      1.215
REMARK  3 active torsions:
REMARK  status: ('A' for Active; 'I' for Inactive)
REMARK    1  A    between atoms: C3_3  and  C4_4 
REMARK    2  A    between atoms: C3_3  and  C5_5 
REMARK    3  A    between atoms: C5_5  and  C6_6 
ROOT
HETATM    1  C1  UNL     1     -32.160   8.756   1.493  1.00 20.00     0.012 C 
HETATM    2  C2  UNL     1     -32.097   7.895   2.327  1.00 20.00    -0.110 C 
HETATM    3  C4  UNL     1     -32.011   6.843   3.347  1.00 20.00     0.171 C 
ENDROOT
BRANCH   3   4
HETATM    4  C3  UNL     1     -33.345   6.163   3.598  1.00 20.00     0.146 C 
HETATM    5  O7  UNL     1     -33.885   5.441   2.761  1.00 20.00    -0.297 OA
BRANCH   4   6
HETATM    6  C5  UNL     1     -33.971   6.435   4.956  1.00 20.00     0.196 C 
BRANCH   6   7
HETATM    7  C6  UNL     1     -34.709   5.244   5.520  1.00 20.00     0.394 C 
HETATM    8  F8  UNL     1     -35.070   5.477   6.802  1.00 20.00    -0.171 F 
HETATM    9  F9  UNL     1     -35.834   4.982   4.822  1.00 20.00    -0.171 F 
HETATM   10  F10 UNL     1     -33.939   4.135   5.511  1.00 20.00    -0.171 F 
ENDBRANCH   6   7
ENDBRANCH   4   6
ENDBRANCH   3   4
TORSDOF 3
ENDMDL
MODEL 3
REMARK VINA RESULT:      -5.6      1.381      1.677
REMARK  3 active torsions:
REMARK  status: ('A' for Active; 'I' for Inactive)
REMARK    1  A    between atoms: C3_3  and  C4_4 
REMARK    2  A    between atoms: C3_3  and  C5_5 
REMARK    3  A    between atoms: C5_5  and  C6_6 
ROOT
HETATM    1  C1  UNL     1     -31.672   7.449   3.483  1.00 20.00     0.012 C 
HETATM    2  C2  UNL     1     -32.509   6.627   3.224  1.00 20.00    -0.110 C 
HETATM    3  C4  UNL     1     -33.525   5.620   2.901  1.00 20.00     0.171 C 
ENDROOT
BRANCH   3   4
HETATM    4  C3  UNL     1     -34.705   5.655   3.856  1.00 20.00     0.146 C 
HETATM    5  O7  UNL     1     -35.872   5.619   3.466  1.00 20.00    -0.297 OA
BRANCH   4   6
HETATM    6  C5  UNL     1     -34.349   5.739   5.332  1.00 20.00     0.196 C 
BRANCH   6   7
HETATM    7  C6  UNL     1     -34.633   4.461   6.086  1.00 20.00     0.394 C 
HETATM    8  F8  UNL     1     -35.769   4.582   6.807  1.00 20.00    -0.171 F 
HETATM    9  F9  UNL     1     -34.794   3.416   5.246  1.00 20.00    -0.171 F 
HETATM   10  F10 UNL     1     -33.636   4.161   6.945  1.00 20.00    -0.171 F 
ENDBRANCH   6   7
ENDBRANCH   4   6
ENDBRANCH   3   4
TORSDOF 3
ENDMDL
MODEL 4
REMARK VINA RESULT:      -5.4      2.614      3.808
REMARK  3 active torsions:
REMARK  status: ('A' for Active; 'I' for Inactive)
REMARK    1  A    between atoms: C3_3  and  C4_4 
REMARK    2  A    between atoms: C3_3  and  C5_5 
REMARK    3  A    between atoms: C5_5  and  C6_6 
ROOT
HETATM    1  C1  UNL     1     -33.444   7.362   6.728  1.00 20.00     0.012 C 
HETATM    2  C2  UNL     1     -34.083   6.356   6.584  1.00 20.00    -0.110 C 
HETATM    3  C4  UNL     1     -34.865   5.126   6.416  1.00 20.00     0.171 C 
ENDROOT
BRANCH   3   4
HETATM    4  C3  UNL     1     -34.982   4.702   4.963  1.00 20.00     0.146 C 
HETATM    5  O7  UNL     1     -35.113   3.526   4.626  1.00 20.00    -0.297 OA
BRANCH   4   6
HETATM    6  C5  UNL     1     -34.926   5.832   3.946  1.00 20.00     0.196 C 
BRANCH   6   7
HETATM    7  C6  UNL     1     -33.660   5.827   3.122  1.00 20.00     0.394 C 
HETATM    8  F8  UNL     1     -33.365   7.079   2.706  1.00 20.00    -0.171 F 
HETATM    9  F9  UNL     1     -32.606   5.378   3.836  1.00 20.00    -0.171 F 
HETATM   10  F10 UNL     1     -33.787   5.053   2.024  1.00 20.00    -0.171 F 
ENDBRANCH   6   7
ENDBRANCH   4   6
ENDBRANCH   3   4
TORSDOF 3
ENDMDL
MODEL 5
REMARK VINA RESULT:      -5.4      1.291      1.293
REMARK  3 active torsions:
REMARK  status: ('A' for Active; 'I' for Inactive)
REMARK    1  A    between atoms: C3_3  and  C4_4 
REMARK    2  A    between atoms: C3_3  and  C5_5 
REMARK    3  A    between atoms: C5_5  and  C6_6 
ROOT
HETATM    1  C1  UNL     1     -32.130   8.517   1.934  1.00 20.00     0.012 C 
HETATM    2  C2  UNL     1     -32.238   7.482   2.533  1.00 20.00    -0.110 C 
HETATM    3  C4  UNL     1     -32.363   6.213   3.258  1.00 20.00     0.171 C 
ENDROOT
BRANCH   3   4
HETATM    4  C3  UNL     1     -33.345   6.296   4.413  1.00 20.00     0.146 C 
HETATM    5  O7  UNL     1     -33.144   7.000   5.402  1.00 20.00    -0.297 OA
BRANCH   4   6
HETATM    6  C5  UNL     1     -34.598   5.446   4.268  1.00 20.00     0.196 C 
BRANCH   6   7
HETATM    7  C6  UNL     1     -34.828   4.521   5.440  1.00 20.00     0.394 C 
HETATM    8  F8  UNL     1     -35.571   3.458   5.061  1.00 20.00    -0.171 F 
HETATM    9  F9  UNL     1     -33.664   4.049   5.933  1.00 20.00    -0.171 F 
HETATM   10  F10 UNL     1     -35.488   5.142   6.440  1.00 20.00    -0.171 F 
ENDBRANCH   6   7
ENDBRANCH   4   6
ENDBRANCH   3   4
TORSDOF 3
ENDMDL
MODEL 6
REMARK VINA RESULT:      -5.3      2.989      4.560
REMARK  3 active torsions:
REMARK  status: ('A' for Active; 'I' for Inactive)
REMARK    1  A    between atoms: C3_3  and  C4_4 
REMARK    2  A    between atoms: C3_3  and  C5_5 
REMARK    3  A    between atoms: C5_5  and  C6_6 
ROOT
HETATM    1  C1  UNL     1     -35.160   4.311   6.344  1.00 20.00     0.012 C 
HETATM    2  C2  UNL     1     -34.578   5.164   5.732  1.00 20.00    -0.110 C 
HETATM    3  C4  UNL     1     -33.866   6.212   4.992  1.00 20.00     0.171 C 
ENDROOT
BRANCH   3   4
HETATM    4  C3  UNL     1     -33.686   5.870   3.523  1.00 20.00     0.146 C 
HETATM    5  O7  UNL     1     -34.591   5.391   2.841  1.00 20.00    -0.297 OA
BRANCH   4   6
HETATM    6  C5  UNL     1     -32.308   6.158   2.949  1.00 20.00     0.196 C 
BRANCH   6   7
HETATM    7  C6  UNL     1     -32.047   7.631   2.739  1.00 20.00     0.394 C 
HETATM    8  F8  UNL     1     -31.247   8.111   3.716  1.00 20.00    -0.171 F 
HETATM    9  F9  UNL     1     -31.432   7.861   1.560  1.00 20.00    -0.171 F 
HETATM   10  F10 UNL     1     -33.193   8.344   2.763  1.00 20.00    -0.171 F 
ENDBRANCH   6   7
ENDBRANCH   4   6
ENDBRANCH   3   4
TORSDOF 3
ENDMDL
MODEL 7
REMARK VINA RESULT:      -5.2      2.705      4.011
REMARK  3 active torsions:
REMARK  status: ('A' for Active; 'I' for Inactive)
REMARK    1  A    between atoms: C3_3  and  C4_4 
REMARK    2  A    between atoms: C3_3  and  C5_5 
REMARK    3  A    between atoms: C5_5  and  C6_6 
ROOT
HETATM    1  C1  UNL     1     -33.640   7.262   6.984  1.00 20.00     0.012 C 
HETATM    2  C2  UNL     1     -33.988   6.406   6.217  1.00 20.00    -0.110 C 
HETATM    3  C4  UNL     1     -34.415   5.355   5.286  1.00 20.00     0.171 C 
ENDROOT
BRANCH   3   4
HETATM    4  C3  UNL     1     -34.266   5.768   3.833  1.00 20.00     0.146 C 
HETATM    5  O7  UNL     1     -34.663   5.065   2.903  1.00 20.00    -0.297 OA
BRANCH   4   6
HETATM    6  C5  UNL     1     -33.591   7.110   3.600  1.00 20.00     0.196 C 
BRANCH   6   7
HETATM    7  C6  UNL     1     -32.137   6.985   3.212  1.00 20.00     0.394 C 
HETATM    8  F8  UNL     1     -31.941   7.459   1.961  1.00 20.00    -0.171 F 
HETATM    9  F9  UNL     1     -31.340   7.689   4.043  1.00 20.00    -0.171 F 
HETATM   10  F10 UNL     1     -31.729   5.698   3.227  1.00 20.00    -0.171 F 
ENDBRANCH   6   7
ENDBRANCH   4   6
ENDBRANCH   3   4
TORSDOF 3
ENDMDL
MODEL 8
REMARK VINA RESULT:      -5.2      1.541      2.196
REMARK  3 active torsions:
REMARK  status: ('A' for Active; 'I' for Inactive)
REMARK    1  A    between atoms: C3_3  and  C4_4 
REMARK    2  A    between atoms: C3_3  and  C5_5 
REMARK    3  A    between atoms: C5_5  and  C6_6 
ROOT
HETATM    1  C1  UNL     1     -32.159   8.943   0.965  1.00 20.00     0.012 C 
HETATM    2  C2  UNL     1     -32.009   8.406   2.028  1.00 20.00    -0.110 C 
HETATM    3  C4  UNL     1     -31.820   7.757   3.330  1.00 20.00     0.171 C 
ENDROOT
BRANCH   3   4
HETATM    4  C3  UNL     1     -32.531   6.419   3.423  1.00 20.00     0.146 C 
HETATM    5  O7  UNL     1     -32.016   5.369   3.041  1.00 20.00    -0.297 OA
BRANCH   4   6
HETATM    6  C5  UNL     1     -33.928   6.462   4.022  1.00 20.00     0.196 C 
BRANCH   6   7
HETATM    7  C6  UNL     1     -34.843   5.391   3.476  1.00 20.00     0.394 C 
HETATM    8  F8  UNL     1     -34.776   4.280   4.242  1.00 20.00    -0.171 F 
HETATM    9  F9  UNL     1     -36.129   5.799   3.462  1.00 20.00    -0.171 F 
HETATM   10  F10 UNL     1     -34.498   5.039   2.219  1.00 20.00    -0.171 F 
ENDBRANCH   6   7
ENDBRANCH   4   6
ENDBRANCH   3   4
TORSDOF 3
ENDMDL
MODEL 9
REMARK VINA RESULT:      -5.1      3.315      4.804
REMARK  3 active torsions:
REMARK  status: ('A' for Active; 'I' for Inactive)
REMARK    1  A    between atoms: C3_3  and  C4_4 
REMARK    2  A    between atoms: C3_3  and  C5_5 
REMARK    3  A    between atoms: C5_5  and  C6_6 
ROOT
HETATM    1  C1  UNL     1     -35.258   4.188   6.098  1.00 20.00     0.012 C 
HETATM    2  C2  UNL     1     -34.980   4.761   5.080  1.00 20.00    -0.110 C 
HETATM    3  C4  UNL     1     -34.646   5.457   3.832  1.00 20.00     0.171 C 
ENDROOT
BRANCH   3   4
HETATM    4  C3  UNL     1     -33.389   6.299   3.952  1.00 20.00     0.146 C 
HETATM    5  O7  UNL     1     -33.048   6.831   5.008  1.00 20.00    -0.297 OA
BRANCH   4   6
HETATM    6  C5  UNL     1     -32.575   6.443   2.675  1.00 20.00     0.196 C 
BRANCH   6   7
HETATM    7  C6  UNL     1     -32.057   7.845   2.456  1.00 20.00     0.394 C 
HETATM    8  F8  UNL     1     -33.070   8.737   2.519  1.00 20.00    -0.171 F 
HETATM    9  F9  UNL     1     -31.151   8.190   3.394  1.00 20.00    -0.171 F 
HETATM   10  F10 UNL     1     -31.478   7.974   1.243  1.00 20.00    -0.171 F 
ENDBRANCH   6   7
ENDBRANCH   4   6
ENDBRANCH   3   4
TORSDOF 3
ENDMDL
