MODEL 1
REMARK VINA RESULT:      -5.1      0.000      0.000
REMARK  5 active torsions:
REMARK  status: ('A' for Active; 'I' for Inactive)
REMARK    1  A    between atoms: C1_1  and  C9_9 
REMARK    2  A    between atoms: C6_6  and  C7_7 
REMARK    3  A    between atoms: C7_7  and  C10_10 
REMARK    4  A    between atoms: C8_8  and  C9_9 
REMARK    5  A    between atoms: C8_8  and  C10_10 
ROOT
HETATM    1  C8  UNL     1     -33.808   6.738   4.097  1.00 20.00     0.016 C 
ENDROOT
BRANCH   1   2
HETATM    2  C9  UNL     1     -34.678   5.481   3.916  1.00 20.00     0.051 C 
HETATM    3  C4  UNL     1     -36.087   5.801   3.427  1.00 20.00     0.018 C 
BRANCH   2   4
HETATM    4  C1  UNL     1     -34.778   4.719   5.238  1.00 20.00     0.126 C 
HETATM    5  C2  UNL     1     -34.551   5.514   6.499  1.00 20.00     0.091 C 
HETATM    6  O11 UNL     1     -35.059   3.522   5.289  1.00 20.00    -0.298 OA
ENDBRANCH   2   4
ENDBRANCH   1   2
BRANCH   1   7
HETATM    7  C10 UNL     1     -32.362   6.634   3.568  1.00 20.00    -0.018 C 
HETATM    8  C5  UNL     1     -32.286   5.541   2.495  1.00 20.00     0.010 C 
BRANCH   7   9
HETATM    9  C7  UNL     1     -31.773   7.964   3.055  1.00 20.00     0.004 C 
BRANCH   9  10
HETATM   10  C6  UNL     1     -32.022   8.259   1.575  1.00 20.00    -0.004 C 
HETATM   11  C3  UNL     1     -32.412   9.715   1.361  1.00 20.00     0.005 C 
ENDBRANCH   9  10
ENDBRANCH   7   9
ENDBRANCH   1   7
TORSDOF 5
ENDMDL
MODEL 2
REMARK VINA RESULT:      -4.7      1.254      1.875
REMARK  5 active torsions:
REMARK  status: ('A' for Active; 'I' for Inactive)
REMARK    1  A    between atoms: C1_1  and  C9_9 
REMARK    2  A    between atoms: C6_6  and  C7_7 
REMARK    3  A    between atoms: C7_7  and  C10_10 
REMARK    4  A    between atoms: C8_8  and  C9_9 
REMARK    5  A    between atoms: C8_8  and  C10_10 
ROOT
HETATM    1  C8  UNL     1     -32.918   6.183   3.896  1.00 20.00     0.016 C 
ENDROOT
BRANCH   1   2
HETATM    2  C9  UNL     1     -34.110   6.392   4.848  1.00 20.00     0.051 C 
HETATM    3  C4  UNL     1     -33.683   6.577   6.300  1.00 20.00     0.018 C 
BRANCH   2   4
HETATM    4  C1  UNL     1     -35.063   5.200   4.762  1.00 20.00     0.126 C 
HETATM    5  C2  UNL     1     -34.912   4.134   5.817  1.00 20.00     0.091 C 
HETATM    6  O11 UNL     1     -35.936   5.115   3.900  1.00 20.00    -0.298 OA
ENDBRANCH   2   4
ENDBRANCH   1   2
BRANCH   1   7
HETATM    7  C10 UNL     1     -32.295   7.468   3.310  1.00 20.00    -0.018 C 
HETATM    8  C5  UNL     1     -30.988   7.787   4.046  1.00 20.00     0.010 C 
BRANCH   7   9
HETATM    9  C7  UNL     1     -32.084   7.436   1.783  1.00 20.00     0.004 C 
BRANCH   9  10
HETATM   10  C6  UNL     1     -31.734   8.782   1.145  1.00 20.00    -0.004 C 
HETATM   11  C3  UNL     1     -32.657   9.885   1.645  1.00 20.00     0.005 C 
ENDBRANCH   9  10
ENDBRANCH   7   9
ENDBRANCH   1   7
TORSDOF 5
ENDMDL
MODEL 3
REMARK VINA RESULT:      -4.6     10.854     12.038
REMARK  5 active torsions:
REMARK  status: ('A' for Active; 'I' for Inactive)
REMARK    1  A    between atoms: C1_1  and  C9_9 
REMARK    2  A    between atoms: C6_6  and  C7_7 
REMARK    3  A    between atoms: C7_7  and  C10_10 
REMARK    4  A    between atoms: C8_8  and  C9_9 
REMARK    5  A    between atoms: C8_8  and  C10_10 
ROOT
HETATM    1  C8  UNL     1     -34.723  15.471  -2.823  1.00 20.00     0.016 C 
ENDROOT
BRANCH   1   2
HETATM    2  C9  UNL     1     -33.913  14.261  -3.326  1.00 20.00     0.051 C 
HETATM    3  C4  UNL     1     -32.461  14.609  -3.639  1.00 20.00     0.018 C 
BRANCH   2   4
HETATM    4  C1  UNL     1     -34.562  13.682  -4.582  1.00 20.00     0.126 C 
HETATM    5  C2  UNL     1     -34.568  14.559  -5.809  1.00 20.00     0.091 C 
HETATM    6  O11 UNL     1     -35.034  12.546  -4.617  1.00 20.00    -0.298 OA
ENDBRANCH   2   4
ENDBRANCH   1   2
BRANCH   1   7
HETATM    7  C10 UNL     1     -33.950  16.804  -2.736  1.00 20.00    -0.018 C 
HETATM    8  C5  UNL     1     -34.654  17.861  -3.595  1.00 20.00     0.010 C 
BRANCH   7   9
HETATM    9  C7  UNL     1     -33.719  17.314  -1.299  1.00 20.00     0.004 C 
BRANCH   9  10
HETATM   10  C6  UNL     1     -34.796  16.919  -0.286  1.00 20.00    -0.004 C 
HETATM   11  C3  UNL     1     -34.792  17.854   0.914  1.00 20.00     0.005 C 
ENDBRANCH   9  10
ENDBRANCH   7   9
ENDBRANCH   1   7
TORSDOF 5
ENDMDL
MODEL 4
REMARK VINA RESULT:      -4.4     11.462     12.501
REMARK  5 active torsions:
REMARK  status: ('A' for Active; 'I' for Inactive)
REMARK    1  A    between atoms: C1_1  and  C9_9 
REMARK    2  A    between atoms: C6_6  and  C7_7 
REMARK    3  A    between atoms: C7_7  and  C10_10 
REMARK    4  A    between atoms: C8_8  and  C9_9 
REMARK    5  A    between atoms: C8_8  and  C10_10 
ROOT
HETATM    1  C8  UNL     1     -34.677  16.283  -4.885  1.00 20.00     0.016 C 
ENDROOT
BRANCH   1   2
HETATM    2  C9  UNL     1     -34.343  14.887  -5.442  1.00 20.00     0.051 C 
HETATM    3  C4  UNL     1     -34.555  14.785  -6.949  1.00 20.00     0.018 C 
BRANCH   2   4
HETATM    4  C1  UNL     1     -35.202  13.829  -4.752  1.00 20.00     0.126 C 
HETATM    5  C2  UNL     1     -36.526  14.287  -4.195  1.00 20.00     0.091 C 
HETATM    6  O11 UNL     1     -34.859  12.649  -4.673  1.00 20.00    -0.298 OA
ENDBRANCH   2   4
ENDBRANCH   1   2
BRANCH   1   7
HETATM    7  C10 UNL     1     -33.632  16.887  -3.923  1.00 20.00    -0.018 C 
HETATM    8  C5  UNL     1     -33.845  18.402  -3.819  1.00 20.00     0.010 C 
BRANCH   7   9
HETATM    9  C7  UNL     1     -33.595  16.231  -2.528  1.00 20.00     0.004 C 
BRANCH   9  10
HETATM   10  C6  UNL     1     -34.888  16.348  -1.718  1.00 20.00    -0.004 C 
HETATM   11  C3  UNL     1     -34.635  17.004  -0.368  1.00 20.00     0.005 C 
ENDBRANCH   9  10
ENDBRANCH   7   9
ENDBRANCH   1   7
TORSDOF 5
ENDMDL
MODEL 5
REMARK VINA RESULT:      -4.2     10.648     12.184
REMARK  5 active torsions:
REMARK  status: ('A' for Active; 'I' for Inactive)
REMARK    1  A    between atoms: C1_1  and  C9_9 
REMARK    2  A    between atoms: C6_6  and  C7_7 
REMARK    3  A    between atoms: C7_7  and  C10_10 
REMARK    4  A    between atoms: C8_8  and  C9_9 
REMARK    5  A    between atoms: C8_8  and  C10_10 
ROOT
HETATM    1  C8  UNL     1     -35.651  15.531  -2.853  1.00 20.00     0.016 C 
ENDROOT
BRANCH   1   2
HETATM    2  C9  UNL     1     -35.166  15.045  -4.230  1.00 20.00     0.051 C 
HETATM    3  C4  UNL     1     -36.291  14.951  -5.256  1.00 20.00     0.018 C 
BRANCH   2   4
HETATM    4  C1  UNL     1     -34.506  13.673  -4.098  1.00 20.00     0.126 C 
HETATM    5  C2  UNL     1     -33.067  13.652  -3.648  1.00 20.00     0.091 C 
HETATM    6  O11 UNL     1     -35.114  12.625  -4.315  1.00 20.00    -0.298 OA
ENDBRANCH   2   4
ENDBRANCH   1   2
BRANCH   1   7
HETATM    7  C10 UNL     1     -34.964  16.803  -2.312  1.00 20.00    -0.018 C 
HETATM    8  C5  UNL     1     -34.603  16.602  -0.835  1.00 20.00     0.010 C 
BRANCH   7   9
HETATM    9  C7  UNL     1     -33.741  17.265  -3.130  1.00 20.00     0.004 C 
BRANCH   9  10
HETATM   10  C6  UNL     1     -33.961  18.520  -3.978  1.00 20.00    -0.004 C 
HETATM   11  C3  UNL     1     -33.586  18.275  -5.432  1.00 20.00     0.005 C 
ENDBRANCH   9  10
ENDBRANCH   7   9
ENDBRANCH   1   7
TORSDOF 5
ENDMDL
MODEL 6
REMARK VINA RESULT:      -4.1     11.068     12.385
REMARK  5 active torsions:
REMARK  status: ('A' for Active; 'I' for Inactive)
REMARK    1  A    between atoms: C1_1  and  C9_9 
REMARK    2  A    between atoms: C6_6  and  C7_7 
REMARK    3  A    between atoms: C7_7  and  C10_10 
REMARK    4  A    between atoms: C8_8  and  C9_9 
REMARK    5  A    between atoms: C8_8  and  C10_10 
ROOT
HETATM    1  C8  UNL     1     -35.786  15.600  -3.106  1.00 20.00     0.016 C 
ENDROOT
BRANCH   1   2
HETATM    2  C9  UNL     1     -35.684  14.342  -3.987  1.00 20.00     0.051 C 
HETATM    3  C4  UNL     1     -34.385  13.571  -3.770  1.00 20.00     0.018 C 
BRANCH   2   4
HETATM    4  C1  UNL     1     -35.787  14.726  -5.462  1.00 20.00     0.126 C 
HETATM    5  C2  UNL     1     -34.506  14.713  -6.258  1.00 20.00     0.091 C 
HETATM    6  O11 UNL     1     -36.859  15.005  -5.997  1.00 20.00    -0.298 OA
ENDBRANCH   2   4
ENDBRANCH   1   2
BRANCH   1   7
HETATM    7  C10 UNL     1     -34.469  16.070  -2.452  1.00 20.00    -0.018 C 
HETATM    8  C5  UNL     1     -33.839  17.177  -3.306  1.00 20.00     0.010 C 
BRANCH   7   9
HETATM    9  C7  UNL     1     -34.609  16.508  -0.980  1.00 20.00     0.004 C 
BRANCH   9  10
HETATM   10  C6  UNL     1     -33.725  17.687  -0.565  1.00 20.00    -0.004 C 
HETATM   11  C3  UNL     1     -34.121  18.216   0.806  1.00 20.00     0.005 C 
ENDBRANCH   9  10
ENDBRANCH   7   9
ENDBRANCH   1   7
TORSDOF 5
ENDMDL
MODEL 7
REMARK VINA RESULT:      -4.1      2.153      4.938
REMARK  5 active torsions:
REMARK  status: ('A' for Active; 'I' for Inactive)
REMARK    1  A    between atoms: C1_1  and  C9_9 
REMARK    2  A    between atoms: C6_6  and  C7_7 
REMARK    3  A    between atoms: C7_7  and  C10_10 
REMARK    4  A    between atoms: C8_8  and  C9_9 
REMARK    5  A    between atoms: C8_8  and  C10_10 
ROOT
HETATM    1  C8  UNL     1     -33.983   6.959   4.261  1.00 20.00     0.016 C 
ENDROOT
BRANCH   1   2
HETATM    2  C9  UNL     1     -33.013   6.629   3.111  1.00 20.00     0.051 C 
HETATM    3  C4  UNL     1     -32.253   5.326   3.332  1.00 20.00     0.018 C 
BRANCH   2   4
HETATM    4  C1  UNL     1     -32.004   7.764   2.936  1.00 20.00     0.126 C 
HETATM    5  C2  UNL     1     -32.161   8.629   1.712  1.00 20.00     0.091 C 
HETATM    6  O11 UNL     1     -31.120   7.992   3.761  1.00 20.00    -0.298 OA
ENDBRANCH   2   4
ENDBRANCH   1   2
BRANCH   1   7
HETATM    7  C10 UNL     1     -33.623   6.354   5.634  1.00 20.00    -0.018 C 
HETATM    8  C5  UNL     1     -33.136   7.465   6.573  1.00 20.00     0.010 C 
BRANCH   7   9
HETATM    9  C7  UNL     1     -34.752   5.528   6.283  1.00 20.00     0.004 C 
BRANCH   9  10
HETATM   10  C6  UNL     1     -34.733   4.032   5.961  1.00 20.00    -0.004 C 
HETATM   11  C3  UNL     1     -35.214   3.768   4.541  1.00 20.00     0.005 C 
ENDBRANCH   9  10
ENDBRANCH   7   9
ENDBRANCH   1   7
TORSDOF 5
ENDMDL
MODEL 8
REMARK VINA RESULT:      -4.1     10.760     12.215
REMARK  5 active torsions:
REMARK  status: ('A' for Active; 'I' for Inactive)
REMARK    1  A    between atoms: C1_1  and  C9_9 
REMARK    2  A    between atoms: C6_6  and  C7_7 
REMARK    3  A    between atoms: C7_7  and  C10_10 
REMARK    4  A    between atoms: C8_8  and  C9_9 
REMARK    5  A    between atoms: C8_8  and  C10_10 
ROOT
HETATM    1  C8  UNL     1     -34.391  15.006  -5.035  1.00 20.00     0.016 C 
ENDROOT
BRANCH   1   2
HETATM    2  C9  UNL     1     -35.724  14.414  -5.528  1.00 20.00     0.051 C 
HETATM    3  C4  UNL     1     -36.039  14.784  -6.973  1.00 20.00     0.018 C 
BRANCH   2   4
HETATM    4  C1  UNL     1     -36.870  14.890  -4.636  1.00 20.00     0.126 C 
HETATM    5  C2  UNL     1     -37.250  16.346  -4.740  1.00 20.00     0.091 C 
HETATM    6  O11 UNL     1     -37.483  14.130  -3.888  1.00 20.00    -0.298 OA
ENDBRANCH   2   4
ENDBRANCH   1   2
BRANCH   1   7
HETATM    7  C10 UNL     1     -34.042  14.733  -3.557  1.00 20.00    -0.018 C 
HETATM    8  C5  UNL     1     -32.833  13.793  -3.481  1.00 20.00     0.010 C 
BRANCH   7   9
HETATM    9  C7  UNL     1     -33.819  16.001  -2.709  1.00 20.00     0.004 C 
BRANCH   9  10
HETATM   10  C6  UNL     1     -34.955  16.347  -1.743  1.00 20.00    -0.004 C 
HETATM   11  C3  UNL     1     -34.424  17.030  -0.491  1.00 20.00     0.005 C 
ENDBRANCH   9  10
ENDBRANCH   7   9
ENDBRANCH   1   7
TORSDOF 5
ENDMDL
MODEL 9
REMARK VINA RESULT:      -4.1     10.996     12.370
REMARK  5 active torsions:
REMARK  status: ('A' for Active; 'I' for Inactive)
REMARK    1  A    between atoms: C1_1  and  C9_9 
REMARK    2  A    between atoms: C6_6  and  C7_7 
REMARK    3  A    between atoms: C7_7  and  C10_10 
REMARK    4  A    between atoms: C8_8  and  C9_9 
REMARK    5  A    between atoms: C8_8  and  C10_10 
ROOT
HETATM    1  C8  UNL     1     -34.612  14.262  -3.341  1.00 20.00     0.016 C 
ENDROOT
BRANCH   1   2
HETATM    2  C9  UNL     1     -35.547  13.735  -4.444  1.00 20.00     0.051 C 
HETATM    3  C4  UNL     1     -34.955  13.881  -5.843  1.00 20.00     0.018 C 
BRANCH   2   4
HETATM    4  C1  UNL     1     -36.883  14.475  -4.396  1.00 20.00     0.126 C 
HETATM    5  C2  UNL     1     -37.189  15.399  -5.548  1.00 20.00     0.091 C 
HETATM    6  O11 UNL     1     -37.694  14.313  -3.485  1.00 20.00    -0.298 OA
ENDBRANCH   2   4
ENDBRANCH   1   2
BRANCH   1   7
HETATM    7  C10 UNL     1     -34.528  15.798  -3.211  1.00 20.00    -0.018 C 
HETATM    8  C5  UNL     1     -34.668  16.196  -1.737  1.00 20.00     0.010 C 
BRANCH   7   9
HETATM    9  C7  UNL     1     -33.269  16.424  -3.844  1.00 20.00     0.004 C 
BRANCH   9  10
HETATM   10  C6  UNL     1     -33.507  17.188  -5.148  1.00 20.00    -0.004 C 
HETATM   11  C3  UNL     1     -34.722  18.098  -5.040  1.00 20.00     0.005 C 
ENDBRANCH   9  10
ENDBRANCH   7   9
ENDBRANCH   1   7
TORSDOF 5
ENDMDL
