MODEL 1
REMARK VINA RESULT:      -5.2      0.000      0.000
REMARK  5 active torsions:
REMARK  status: ('A' for Active; 'I' for Inactive)
REMARK    1  A    between atoms: C1_1  and  C9_9 
REMARK    2  A    between atoms: C6_6  and  C7_7 
REMARK    3  A    between atoms: C7_7  and  C10_10 
REMARK    4  A    between atoms: C8_8  and  C9_9 
REMARK    5  A    between atoms: C8_8  and  C10_10 
ROOT
HETATM    1  C8  UNL     1     -33.838   7.054   3.923  1.00 20.00     0.016 C 
ENDROOT
BRANCH   1   2
HETATM    2  C9  UNL     1     -33.839   6.041   5.083  1.00 20.00     0.051 C 
HETATM    3  C4  UNL     1     -33.945   6.708   6.451  1.00 20.00     0.018 C 
BRANCH   2   4
HETATM    4  C1  UNL     1     -35.002   5.063   4.922  1.00 20.00     0.126 C 
HETATM    5  C2  UNL     1     -35.103   3.955   5.940  1.00 20.00     0.091 C 
HETATM    6  O11 UNL     1     -35.841   5.179   4.029  1.00 20.00    -0.298 OA
ENDBRANCH   2   4
ENDBRANCH   1   2
BRANCH   1   7
HETATM    7  C10 UNL     1     -32.798   6.797   2.812  1.00 20.00    -0.018 C 
HETATM    8  C5  UNL     1     -32.092   5.459   3.070  1.00 20.00     0.010 C 
BRANCH   7   9
HETATM    9  C7  UNL     1     -31.776   7.936   2.611  1.00 20.00     0.004 C 
BRANCH   9  10
HETATM   10  C6  UNL     1     -31.800   8.596   1.230  1.00 20.00    -0.004 C 
HETATM   11  C3  UNL     1     -32.519   9.937   1.274  1.00 20.00     0.005 C 
ENDBRANCH   9  10
ENDBRANCH   7   9
ENDBRANCH   1   7
TORSDOF 5
ENDMDL
MODEL 2
REMARK VINA RESULT:      -5.0      1.534      1.987
REMARK  5 active torsions:
REMARK  status: ('A' for Active; 'I' for Inactive)
REMARK    1  A    between atoms: C1_1  and  C9_9 
REMARK    2  A    between atoms: C6_6  and  C7_7 
REMARK    3  A    between atoms: C7_7  and  C10_10 
REMARK    4  A    between atoms: C8_8  and  C9_9 
REMARK    5  A    between atoms: C8_8  and  C10_10 
ROOT
HETATM    1  C8  UNL     1     -32.802   5.939   3.571  1.00 20.00     0.016 C 
ENDROOT
BRANCH   1   2
HETATM    2  C9  UNL     1     -34.170   6.308   4.173  1.00 20.00     0.051 C 
HETATM    3  C4  UNL     1     -35.329   5.572   3.507  1.00 20.00     0.018 C 
BRANCH   2   4
HETATM    4  C1  UNL     1     -34.185   5.997   5.669  1.00 20.00     0.126 C 
HETATM    5  C2  UNL     1     -34.708   4.642   6.076  1.00 20.00     0.091 C 
HETATM    6  O11 UNL     1     -33.765   6.791   6.511  1.00 20.00    -0.298 OA
ENDBRANCH   2   4
ENDBRANCH   1   2
BRANCH   1   7
HETATM    7  C10 UNL     1     -31.993   7.112   2.979  1.00 20.00    -0.018 C 
HETATM    8  C5  UNL     1     -31.168   7.777   4.090  1.00 20.00     0.010 C 
BRANCH   7   9
HETATM    9  C7  UNL     1     -32.835   8.153   2.213  1.00 20.00     0.004 C 
BRANCH   9  10
HETATM   10  C6  UNL     1     -32.038   9.105   1.318  1.00 20.00    -0.004 C 
HETATM   11  C3  UNL     1     -32.576   9.103  -0.106  1.00 20.00     0.005 C 
ENDBRANCH   9  10
ENDBRANCH   7   9
ENDBRANCH   1   7
TORSDOF 5
ENDMDL
MODEL 3
REMARK VINA RESULT:      -4.6      2.091      5.055
REMARK  5 active torsions:
REMARK  status: ('A' for Active; 'I' for Inactive)
REMARK    1  A    between atoms: C1_1  and  C9_9 
REMARK    2  A    between atoms: C6_6  and  C7_7 
REMARK    3  A    between atoms: C7_7  and  C10_10 
REMARK    4  A    between atoms: C8_8  and  C9_9 
REMARK    5  A    between atoms: C8_8  and  C10_10 
ROOT
HETATM    1  C8  UNL     1     -32.778   6.267   2.898  1.00 20.00     0.016 C 
ENDROOT
BRANCH   1   2
HETATM    2  C9  UNL     1     -32.304   7.699   3.206  1.00 20.00     0.051 C 
HETATM    3  C4  UNL     1     -30.980   7.734   3.963  1.00 20.00     0.018 C 
BRANCH   2   4
HETATM    4  C1  UNL     1     -32.148   8.490   1.907  1.00 20.00     0.126 C 
HETATM    5  C2  UNL     1     -32.721   9.885   1.889  1.00 20.00     0.091 C 
HETATM    6  O11 UNL     1     -31.560   8.035   0.926  1.00 20.00    -0.298 OA
ENDBRANCH   2   4
ENDBRANCH   1   2
BRANCH   1   7
HETATM    7  C10 UNL     1     -33.865   5.706   3.840  1.00 20.00    -0.018 C 
HETATM    8  C5  UNL     1     -35.233   5.788   3.151  1.00 20.00     0.010 C 
BRANCH   7   9
HETATM    9  C7  UNL     1     -33.904   6.360   5.237  1.00 20.00     0.004 C 
BRANCH   9  10
HETATM   10  C6  UNL     1     -34.623   5.546   6.316  1.00 20.00    -0.004 C 
HETATM   11  C3  UNL     1     -34.698   4.074   5.937  1.00 20.00     0.005 C 
ENDBRANCH   9  10
ENDBRANCH   7   9
ENDBRANCH   1   7
TORSDOF 5
ENDMDL
MODEL 4
REMARK VINA RESULT:      -4.6     10.986     12.023
REMARK  5 active torsions:
REMARK  status: ('A' for Active; 'I' for Inactive)
REMARK    1  A    between atoms: C1_1  and  C9_9 
REMARK    2  A    between atoms: C6_6  and  C7_7 
REMARK    3  A    between atoms: C7_7  and  C10_10 
REMARK    4  A    between atoms: C8_8  and  C9_9 
REMARK    5  A    between atoms: C8_8  and  C10_10 
ROOT
HETATM    1  C8  UNL     1     -33.807  15.341  -3.207  1.00 20.00     0.016 C 
ENDROOT
BRANCH   1   2
HETATM    2  C9  UNL     1     -34.973  14.371  -3.473  1.00 20.00     0.051 C 
HETATM    3  C4  UNL     1     -36.332  15.065  -3.471  1.00 20.00     0.018 C 
BRANCH   2   4
HETATM    4  C1  UNL     1     -34.779  13.675  -4.819  1.00 20.00     0.126 C 
HETATM    5  C2  UNL     1     -34.576  14.564  -6.021  1.00 20.00     0.091 C 
HETATM    6  O11 UNL     1     -34.756  12.449  -4.929  1.00 20.00    -0.298 OA
ENDBRANCH   2   4
ENDBRANCH   1   2
BRANCH   1   7
HETATM    7  C10 UNL     1     -34.208  16.793  -2.872  1.00 20.00    -0.018 C 
HETATM    8  C5  UNL     1     -33.695  17.733  -3.971  1.00 20.00     0.010 C 
BRANCH   7   9
HETATM    9  C7  UNL     1     -33.766  17.276  -1.475  1.00 20.00     0.004 C 
BRANCH   9  10
HETATM   10  C6  UNL     1     -34.725  16.931  -0.333  1.00 20.00    -0.004 C 
HETATM   11  C3  UNL     1     -34.575  17.906   0.826  1.00 20.00     0.005 C 
ENDBRANCH   9  10
ENDBRANCH   7   9
ENDBRANCH   1   7
TORSDOF 5
ENDMDL
MODEL 5
REMARK VINA RESULT:      -4.5     10.903     12.256
REMARK  5 active torsions:
REMARK  status: ('A' for Active; 'I' for Inactive)
REMARK    1  A    between atoms: C1_1  and  C9_9 
REMARK    2  A    between atoms: C6_6  and  C7_7 
REMARK    3  A    between atoms: C7_7  and  C10_10 
REMARK    4  A    between atoms: C8_8  and  C9_9 
REMARK    5  A    between atoms: C8_8  and  C10_10 
ROOT
HETATM    1  C8  UNL     1     -34.829  15.349  -3.334  1.00 20.00     0.016 C 
ENDROOT
BRANCH   1   2
HETATM    2  C9  UNL     1     -33.694  16.382  -3.218  1.00 20.00     0.051 C 
HETATM    3  C4  UNL     1     -33.606  17.304  -4.431  1.00 20.00     0.018 C 
BRANCH   2   4
HETATM    4  C1  UNL     1     -33.888  17.235  -1.965  1.00 20.00     0.126 C 
HETATM    5  C2  UNL     1     -34.630  16.597  -0.817  1.00 20.00     0.091 C 
HETATM    6  O11 UNL     1     -33.441  18.378  -1.871  1.00 20.00    -0.298 OA
ENDBRANCH   2   4
ENDBRANCH   1   2
BRANCH   1   7
HETATM    7  C10 UNL     1     -34.391  13.910  -3.681  1.00 20.00    -0.018 C 
HETATM    8  C5  UNL     1     -32.871  13.783  -3.514  1.00 20.00     0.010 C 
BRANCH   7   9
HETATM    9  C7  UNL     1     -34.840  13.419  -5.073  1.00 20.00     0.004 C 
BRANCH   9  10
HETATM   10  C6  UNL     1     -35.456  14.493  -5.975  1.00 20.00    -0.004 C 
HETATM   11  C3  UNL     1     -34.524  14.846  -7.125  1.00 20.00     0.005 C 
ENDBRANCH   9  10
ENDBRANCH   7   9
ENDBRANCH   1   7
TORSDOF 5
ENDMDL
MODEL 6
REMARK VINA RESULT:      -4.5     10.585     11.977
REMARK  5 active torsions:
REMARK  status: ('A' for Active; 'I' for Inactive)
REMARK    1  A    between atoms: C1_1  and  C9_9 
REMARK    2  A    between atoms: C6_6  and  C7_7 
REMARK    3  A    between atoms: C7_7  and  C10_10 
REMARK    4  A    between atoms: C8_8  and  C9_9 
REMARK    5  A    between atoms: C8_8  and  C10_10 
ROOT
HETATM    1  C8  UNL     1     -34.848  15.297  -3.073  1.00 20.00     0.016 C 
ENDROOT
BRANCH   1   2
HETATM    2  C9  UNL     1     -33.924  14.652  -4.122  1.00 20.00     0.051 C 
HETATM    3  C4  UNL     1     -32.783  13.856  -3.496  1.00 20.00     0.018 C 
BRANCH   2   4
HETATM    4  C1  UNL     1     -34.729  13.725  -5.031  1.00 20.00     0.126 C 
HETATM    5  C2  UNL     1     -35.155  14.284  -6.366  1.00 20.00     0.091 C 
HETATM    6  O11 UNL     1     -34.999  12.566  -4.716  1.00 20.00    -0.298 OA
ENDBRANCH   2   4
ENDBRANCH   1   2
BRANCH   1   7
HETATM    7  C10 UNL     1     -34.554  16.776  -2.741  1.00 20.00    -0.018 C 
HETATM    8  C5  UNL     1     -33.784  17.418  -3.902  1.00 20.00     0.010 C 
BRANCH   7   9
HETATM    9  C7  UNL     1     -33.827  17.000  -1.398  1.00 20.00     0.004 C 
BRANCH   9  10
HETATM   10  C6  UNL     1     -34.732  17.022  -0.164  1.00 20.00    -0.004 C 
HETATM   11  C3  UNL     1     -34.488  18.268   0.675  1.00 20.00     0.005 C 
ENDBRANCH   9  10
ENDBRANCH   7   9
ENDBRANCH   1   7
TORSDOF 5
ENDMDL
MODEL 7
REMARK VINA RESULT:      -4.4     10.623     12.631
REMARK  5 active torsions:
REMARK  status: ('A' for Active; 'I' for Inactive)
REMARK    1  A    between atoms: C1_1  and  C9_9 
REMARK    2  A    between atoms: C6_6  and  C7_7 
REMARK    3  A    between atoms: C7_7  and  C10_10 
REMARK    4  A    between atoms: C8_8  and  C9_9 
REMARK    5  A    between atoms: C8_8  and  C10_10 
ROOT
HETATM    1  C8  UNL     1     -33.814  16.021  -5.074  1.00 20.00     0.016 C 
ENDROOT
BRANCH   1   2
HETATM    2  C9  UNL     1     -34.794  14.863  -5.340  1.00 20.00     0.051 C 
HETATM    3  C4  UNL     1     -34.867  14.476  -6.814  1.00 20.00     0.018 C 
BRANCH   2   4
HETATM    4  C1  UNL     1     -34.385  13.635  -4.529  1.00 20.00     0.126 C 
HETATM    5  C2  UNL     1     -33.142  13.762  -3.683  1.00 20.00     0.091 C 
HETATM    6  O11 UNL     1     -35.044  12.595  -4.532  1.00 20.00    -0.298 OA
ENDBRANCH   2   4
ENDBRANCH   1   2
BRANCH   1   7
HETATM    7  C10 UNL     1     -34.461  17.370  -4.693  1.00 20.00    -0.018 C 
HETATM    8  C5  UNL     1     -33.502  18.515  -5.046  1.00 20.00     0.010 C 
BRANCH   7   9
HETATM    9  C7  UNL     1     -34.929  17.468  -3.226  1.00 20.00     0.004 C 
BRANCH   9  10
HETATM   10  C6  UNL     1     -33.912  16.991  -2.185  1.00 20.00    -0.004 C 
HETATM   11  C3  UNL     1     -34.596  16.617  -0.878  1.00 20.00     0.005 C 
ENDBRANCH   9  10
ENDBRANCH   7   9
ENDBRANCH   1   7
TORSDOF 5
ENDMDL
MODEL 8
REMARK VINA RESULT:      -4.4     10.472     12.139
REMARK  5 active torsions:
REMARK  status: ('A' for Active; 'I' for Inactive)
REMARK    1  A    between atoms: C1_1  and  C9_9 
REMARK    2  A    between atoms: C6_6  and  C7_7 
REMARK    3  A    between atoms: C7_7  and  C10_10 
REMARK    4  A    between atoms: C8_8  and  C9_9 
REMARK    5  A    between atoms: C8_8  and  C10_10 
ROOT
HETATM    1  C8  UNL     1     -34.724  15.207  -2.885  1.00 20.00     0.016 C 
ENDROOT
BRANCH   1   2
HETATM    2  C9  UNL     1     -33.839  14.589  -3.984  1.00 20.00     0.051 C 
HETATM    3  C4  UNL     1     -32.696  13.750  -3.421  1.00 20.00     0.018 C 
BRANCH   2   4
HETATM    4  C1  UNL     1     -34.685  13.711  -4.906  1.00 20.00     0.126 C 
HETATM    5  C2  UNL     1     -35.062  14.297  -6.243  1.00 20.00     0.091 C 
HETATM    6  O11 UNL     1     -35.023  12.569  -4.598  1.00 20.00    -0.298 OA
ENDBRANCH   2   4
ENDBRANCH   1   2
BRANCH   1   7
HETATM    7  C10 UNL     1     -34.240  16.558  -2.318  1.00 20.00    -0.018 C 
HETATM    8  C5  UNL     1     -34.606  16.650  -0.831  1.00 20.00     0.010 C 
BRANCH   7   9
HETATM    9  C7  UNL     1     -34.739  17.796  -3.092  1.00 20.00     0.004 C 
BRANCH   9  10
HETATM   10  C6  UNL     1     -33.678  18.510  -3.934  1.00 20.00    -0.004 C 
HETATM   11  C3  UNL     1     -33.627  17.948  -5.347  1.00 20.00     0.005 C 
ENDBRANCH   9  10
ENDBRANCH   7   9
ENDBRANCH   1   7
TORSDOF 5
ENDMDL
MODEL 9
REMARK VINA RESULT:      -4.4     10.600     12.105
REMARK  5 active torsions:
REMARK  status: ('A' for Active; 'I' for Inactive)
REMARK    1  A    between atoms: C1_1  and  C9_9 
REMARK    2  A    between atoms: C6_6  and  C7_7 
REMARK    3  A    between atoms: C7_7  and  C10_10 
REMARK    4  A    between atoms: C8_8  and  C9_9 
REMARK    5  A    between atoms: C8_8  and  C10_10 
ROOT
HETATM    1  C8  UNL     1     -35.863  15.468  -5.108  1.00 20.00     0.016 C 
ENDROOT
BRANCH   1   2
HETATM    2  C9  UNL     1     -34.454  14.942  -5.438  1.00 20.00     0.051 C 
HETATM    3  C4  UNL     1     -33.357  15.961  -5.146  1.00 20.00     0.018 C 
BRANCH   2   4
HETATM    4  C1  UNL     1     -34.169  13.671  -4.638  1.00 20.00     0.126 C 
HETATM    5  C2  UNL     1     -33.062  13.745  -3.616  1.00 20.00     0.091 C 
HETATM    6  O11 UNL     1     -34.823  12.639  -4.788  1.00 20.00    -0.298 OA
ENDBRANCH   2   4
ENDBRANCH   1   2
BRANCH   1   7
HETATM    7  C10 UNL     1     -36.299  15.332  -3.633  1.00 20.00    -0.018 C 
HETATM    8  C5  UNL     1     -37.813  15.089  -3.568  1.00 20.00     0.010 C 
BRANCH   7   9
HETATM    9  C7  UNL     1     -35.885  16.511  -2.728  1.00 20.00     0.004 C 
BRANCH   9  10
HETATM   10  C6  UNL     1     -34.865  16.168  -1.639  1.00 20.00    -0.004 C 
HETATM   11  C3  UNL     1     -33.770  17.221  -1.560  1.00 20.00     0.005 C 
ENDBRANCH   9  10
ENDBRANCH   7   9
ENDBRANCH   1   7
TORSDOF 5
ENDMDL
