MODEL 1
REMARK VINA RESULT:      -5.8      0.000      0.000
REMARK  4 active torsions:
REMARK  status: ('A' for Active; 'I' for Inactive)
REMARK    1  A    between atoms: C2_2  and  C7_7 
REMARK    2  A    between atoms: C3_3  and  C8_8 
REMARK    3  A    between atoms: C3_3  and  C9_9 
REMARK    4  A    between atoms: C7_7  and  C8_8 
ROOT
HETATM    1  C1  UNL     1     -32.263   8.585   1.837  1.00 20.00    -0.111 C 
HETATM    2  C2  UNL     1     -32.293   7.578   2.489  1.00 20.00    -0.107 C 
HETATM    3  C4  UNL     1     -32.229   9.811   1.040  1.00 20.00     0.112 C 
ENDROOT
BRANCH   2   4
HETATM    4  C7  UNL     1     -32.330   6.341   3.284  1.00 20.00     0.101 C 
BRANCH   4   5
HETATM    5  C8  UNL     1     -33.533   5.474   2.924  1.00 20.00     0.090 C 
BRANCH   5   6
HETATM    6  C3  UNL     1     -34.626   5.468   3.987  1.00 20.00     0.131 C 
HETATM    7  O10 UNL     1     -35.805   5.699   3.716  1.00 20.00    -0.298 OA
BRANCH   6   8
HETATM    8  C9  UNL     1     -34.176   5.157   5.412  1.00 20.00     0.047 C 
HETATM    9  C5  UNL     1     -34.157   6.442   6.233  1.00 20.00     0.017 C 
HETATM   10  C6  UNL     1     -35.082   4.111   6.054  1.00 20.00     0.017 C 
ENDBRANCH   6   8
ENDBRANCH   5   6
ENDBRANCH   4   5
ENDBRANCH   2   4
TORSDOF 4
ENDMDL
MODEL 2
REMARK VINA RESULT:      -5.2      1.415      1.722
REMARK  4 active torsions:
REMARK  status: ('A' for Active; 'I' for Inactive)
REMARK    1  A    between atoms: C2_2  and  C7_7 
REMARK    2  A    between atoms: C3_3  and  C8_8 
REMARK    3  A    between atoms: C3_3  and  C9_9 
REMARK    4  A    between atoms: C7_7  and  C8_8 
ROOT
HETATM    1  C1  UNL     1     -32.195   8.637   1.462  1.00 20.00    -0.111 C 
HETATM    2  C2  UNL     1     -32.052   7.967   2.449  1.00 20.00    -0.107 C 
HETATM    3  C4  UNL     1     -32.366   9.456   0.263  1.00 20.00     0.112 C 
ENDROOT
BRANCH   2   4
HETATM    4  C7  UNL     1     -31.877   7.150   3.659  1.00 20.00     0.101 C 
BRANCH   4   5
HETATM    5  C8  UNL     1     -32.986   6.111   3.803  1.00 20.00     0.090 C 
BRANCH   5   6
HETATM    6  C3  UNL     1     -33.733   6.190   5.130  1.00 20.00     0.131 C 
HETATM    7  O10 UNL     1     -33.318   6.857   6.077  1.00 20.00    -0.298 OA
BRANCH   6   8
HETATM    8  C9  UNL     1     -35.033   5.394   5.218  1.00 20.00     0.047 C 
HETATM    9  C5  UNL     1     -35.661   5.289   3.833  1.00 20.00     0.017 C 
HETATM   10  C6  UNL     1     -34.787   4.011   5.814  1.00 20.00     0.017 C 
ENDBRANCH   6   8
ENDBRANCH   5   6
ENDBRANCH   4   5
ENDBRANCH   2   4
TORSDOF 4
ENDMDL
MODEL 3
REMARK VINA RESULT:      -4.8     10.960     12.086
REMARK  4 active torsions:
REMARK  status: ('A' for Active; 'I' for Inactive)
REMARK    1  A    between atoms: C2_2  and  C7_7 
REMARK    2  A    between atoms: C3_3  and  C8_8 
REMARK    3  A    between atoms: C3_3  and  C9_9 
REMARK    4  A    between atoms: C7_7  and  C8_8 
ROOT
HETATM    1  C1  UNL     1     -34.283  16.628  -1.373  1.00 20.00    -0.111 C 
HETATM    2  C2  UNL     1     -33.836  16.205  -2.404  1.00 20.00    -0.107 C 
HETATM    3  C4  UNL     1     -34.828  17.139  -0.115  1.00 20.00     0.112 C 
ENDROOT
BRANCH   2   4
HETATM    4  C7  UNL     1     -33.290  15.684  -3.666  1.00 20.00     0.101 C 
BRANCH   4   5
HETATM    5  C8  UNL     1     -33.429  14.167  -3.757  1.00 20.00     0.090 C 
BRANCH   5   6
HETATM    6  C3  UNL     1     -34.535  13.707  -4.701  1.00 20.00     0.131 C 
HETATM    7  O10 UNL     1     -34.871  12.526  -4.790  1.00 20.00    -0.298 OA
BRANCH   6   8
HETATM    8  C9  UNL     1     -35.207  14.798  -5.531  1.00 20.00     0.047 C 
HETATM    9  C5  UNL     1     -35.141  14.428  -7.008  1.00 20.00     0.017 C 
HETATM   10  C6  UNL     1     -36.650  15.012  -5.084  1.00 20.00     0.017 C 
ENDBRANCH   6   8
ENDBRANCH   5   6
ENDBRANCH   4   5
ENDBRANCH   2   4
TORSDOF 4
ENDMDL
MODEL 4
REMARK VINA RESULT:      -4.7     11.299     12.303
REMARK  4 active torsions:
REMARK  status: ('A' for Active; 'I' for Inactive)
REMARK    1  A    between atoms: C2_2  and  C7_7 
REMARK    2  A    between atoms: C3_3  and  C8_8 
REMARK    3  A    between atoms: C3_3  and  C9_9 
REMARK    4  A    between atoms: C7_7  and  C8_8 
ROOT
HETATM    1  C1  UNL     1     -34.649  16.652  -0.899  1.00 20.00    -0.111 C 
HETATM    2  C2  UNL     1     -34.427  16.053  -1.916  1.00 20.00    -0.107 C 
HETATM    3  C4  UNL     1     -34.916  17.382   0.340  1.00 20.00     0.112 C 
ENDROOT
BRANCH   2   4
HETATM    4  C7  UNL     1     -34.151  15.318  -3.160  1.00 20.00     0.101 C 
BRANCH   4   5
HETATM    5  C8  UNL     1     -35.407  14.648  -3.710  1.00 20.00     0.090 C 
BRANCH   5   6
HETATM    6  C3  UNL     1     -35.146  13.748  -4.913  1.00 20.00     0.131 C 
HETATM    7  O10 UNL     1     -34.683  12.614  -4.794  1.00 20.00    -0.298 OA
BRANCH   6   8
HETATM    8  C9  UNL     1     -35.494  14.334  -6.279  1.00 20.00     0.047 C 
HETATM    9  C5  UNL     1     -36.691  15.269  -6.143  1.00 20.00     0.017 C 
HETATM   10  C6  UNL     1     -34.296  15.062  -6.881  1.00 20.00     0.017 C 
ENDBRANCH   6   8
ENDBRANCH   5   6
ENDBRANCH   4   5
ENDBRANCH   2   4
TORSDOF 4
ENDMDL
MODEL 5
REMARK VINA RESULT:      -4.5      1.831      5.221
REMARK  4 active torsions:
REMARK  status: ('A' for Active; 'I' for Inactive)
REMARK    1  A    between atoms: C2_2  and  C7_7 
REMARK    2  A    between atoms: C3_3  and  C8_8 
REMARK    3  A    between atoms: C3_3  and  C9_9 
REMARK    4  A    between atoms: C7_7  and  C8_8 
ROOT
HETATM    1  C1  UNL     1     -34.706   5.052   5.242  1.00 20.00    -0.111 C 
HETATM    2  C2  UNL     1     -34.309   5.450   4.181  1.00 20.00    -0.107 C 
HETATM    3  C4  UNL     1     -35.191   4.564   6.532  1.00 20.00     0.112 C 
ENDROOT
BRANCH   2   4
HETATM    4  C7  UNL     1     -33.826   5.936   2.879  1.00 20.00     0.101 C 
BRANCH   4   5
HETATM    5  C8  UNL     1     -32.317   6.166   2.887  1.00 20.00     0.090 C 
BRANCH   5   6
HETATM    6  C3  UNL     1     -31.922   7.639   2.893  1.00 20.00     0.131 C 
HETATM    7  O10 UNL     1     -31.215   8.124   3.776  1.00 20.00    -0.298 OA
BRANCH   6   8
HETATM    8  C9  UNL     1     -32.452   8.482   1.735  1.00 20.00     0.047 C 
HETATM    9  C5  UNL     1     -32.706   9.906   2.216  1.00 20.00     0.017 C 
HETATM   10  C6  UNL     1     -31.479   8.467   0.560  1.00 20.00     0.017 C 
ENDBRANCH   6   8
ENDBRANCH   5   6
ENDBRANCH   4   5
ENDBRANCH   2   4
TORSDOF 4
ENDMDL
MODEL 6
REMARK VINA RESULT:      -4.4     10.928     12.244
REMARK  4 active torsions:
REMARK  status: ('A' for Active; 'I' for Inactive)
REMARK    1  A    between atoms: C2_2  and  C7_7 
REMARK    2  A    between atoms: C3_3  and  C8_8 
REMARK    3  A    between atoms: C3_3  and  C9_9 
REMARK    4  A    between atoms: C7_7  and  C8_8 
ROOT
HETATM    1  C1  UNL     1     -34.526  16.490  -1.198  1.00 20.00    -0.111 C 
HETATM    2  C2  UNL     1     -34.213  15.893  -2.192  1.00 20.00    -0.107 C 
HETATM    3  C4  UNL     1     -34.908  17.213   0.014  1.00 20.00     0.112 C 
ENDROOT
BRANCH   2   4
HETATM    4  C7  UNL     1     -33.833  15.159  -3.408  1.00 20.00     0.101 C 
BRANCH   4   5
HETATM    5  C8  UNL     1     -34.764  13.979  -3.670  1.00 20.00     0.090 C 
BRANCH   5   6
HETATM    6  C3  UNL     1     -36.087  14.373  -4.319  1.00 20.00     0.131 C 
HETATM    7  O10 UNL     1     -37.174  14.039  -3.848  1.00 20.00    -0.298 OA
BRANCH   6   8
HETATM    8  C9  UNL     1     -35.987  15.210  -5.592  1.00 20.00     0.047 C 
HETATM    9  C5  UNL     1     -35.406  14.362  -6.717  1.00 20.00     0.017 C 
HETATM   10  C6  UNL     1     -37.350  15.777  -5.981  1.00 20.00     0.017 C 
ENDBRANCH   6   8
ENDBRANCH   5   6
ENDBRANCH   4   5
ENDBRANCH   2   4
TORSDOF 4
ENDMDL
MODEL 7
REMARK VINA RESULT:      -4.3      1.714      2.271
REMARK  4 active torsions:
REMARK  status: ('A' for Active; 'I' for Inactive)
REMARK    1  A    between atoms: C2_2  and  C7_7 
REMARK    2  A    between atoms: C3_3  and  C8_8 
REMARK    3  A    between atoms: C3_3  and  C9_9 
REMARK    4  A    between atoms: C7_7  and  C8_8 
ROOT
HETATM    1  C1  UNL     1     -32.151   6.986   3.324  1.00 20.00    -0.111 C 
HETATM    2  C2  UNL     1     -33.129   6.339   3.063  1.00 20.00    -0.107 C 
HETATM    3  C4  UNL     1     -30.963   7.776   3.644  1.00 20.00     0.112 C 
ENDROOT
BRANCH   2   4
HETATM    4  C7  UNL     1     -34.328   5.551   2.744  1.00 20.00     0.101 C 
BRANCH   4   5
HETATM    5  C8  UNL     1     -35.337   5.570   3.888  1.00 20.00     0.090 C 
BRANCH   5   6
HETATM    6  C3  UNL     1     -35.073   4.516   4.958  1.00 20.00     0.131 C 
HETATM    7  O10 UNL     1     -35.174   3.311   4.729  1.00 20.00    -0.298 OA
BRANCH   6   8
HETATM    8  C9  UNL     1     -34.672   5.040   6.334  1.00 20.00     0.047 C 
HETATM    9  C5  UNL     1     -33.527   4.199   6.887  1.00 20.00     0.017 C 
HETATM   10  C6  UNL     1     -34.283   6.515   6.264  1.00 20.00     0.017 C 
ENDBRANCH   6   8
ENDBRANCH   5   6
ENDBRANCH   4   5
ENDBRANCH   2   4
TORSDOF 4
ENDMDL
MODEL 8
REMARK VINA RESULT:      -4.3     11.390     12.392
REMARK  4 active torsions:
REMARK  status: ('A' for Active; 'I' for Inactive)
REMARK    1  A    between atoms: C2_2  and  C7_7 
REMARK    2  A    between atoms: C3_3  and  C8_8 
REMARK    3  A    between atoms: C3_3  and  C9_9 
REMARK    4  A    between atoms: C7_7  and  C8_8 
ROOT
HETATM    1  C1  UNL     1     -36.762  14.396  -4.131  1.00 20.00    -0.111 C 
HETATM    2  C2  UNL     1     -35.611  14.070  -4.233  1.00 20.00    -0.107 C 
HETATM    3  C4  UNL     1     -38.164  14.794  -4.011  1.00 20.00     0.112 C 
ENDROOT
BRANCH   2   4
HETATM    4  C7  UNL     1     -34.200  13.673  -4.361  1.00 20.00     0.101 C 
BRANCH   4   5
HETATM    5  C8  UNL     1     -33.286  14.562  -3.523  1.00 20.00     0.090 C 
BRANCH   5   6
HETATM    6  C3  UNL     1     -33.288  16.025  -3.955  1.00 20.00     0.131 C 
HETATM    7  O10 UNL     1     -32.833  16.389  -5.039  1.00 20.00    -0.298 OA
BRANCH   6   8
HETATM    8  C9  UNL     1     -33.890  17.017  -2.963  1.00 20.00     0.047 C 
HETATM    9  C5  UNL     1     -35.051  17.755  -3.621  1.00 20.00     0.017 C 
HETATM   10  C6  UNL     1     -34.344  16.308  -1.690  1.00 20.00     0.017 C 
ENDBRANCH   6   8
ENDBRANCH   5   6
ENDBRANCH   4   5
ENDBRANCH   2   4
TORSDOF 4
ENDMDL
MODEL 9
REMARK VINA RESULT:      -4.2     11.474     12.451
REMARK  4 active torsions:
REMARK  status: ('A' for Active; 'I' for Inactive)
REMARK    1  A    between atoms: C2_2  and  C7_7 
REMARK    2  A    between atoms: C3_3  and  C8_8 
REMARK    3  A    between atoms: C3_3  and  C9_9 
REMARK    4  A    between atoms: C7_7  and  C8_8 
ROOT
HETATM    1  C1  UNL     1     -34.818  17.113  -0.051  1.00 20.00    -0.111 C 
HETATM    2  C2  UNL     1     -34.499  16.639  -1.107  1.00 20.00    -0.107 C 
HETATM    3  C4  UNL     1     -35.210  17.686   1.236  1.00 20.00     0.112 C 
ENDROOT
BRANCH   2   4
HETATM    4  C7  UNL     1     -34.112  16.058  -2.402  1.00 20.00     0.101 C 
BRANCH   4   5
HETATM    5  C8  UNL     1     -35.298  15.401  -3.103  1.00 20.00     0.090 C 
BRANCH   5   6
HETATM    6  C3  UNL     1     -35.309  15.607  -4.614  1.00 20.00     0.131 C 
HETATM    7  O10 UNL     1     -35.942  16.518  -5.147  1.00 20.00    -0.298 OA
BRANCH   6   8
HETATM    8  C9  UNL     1     -34.485  14.616  -5.433  1.00 20.00     0.047 C 
HETATM    9  C5  UNL     1     -34.664  13.212  -4.866  1.00 20.00     0.017 C 
HETATM   10  C6  UNL     1     -34.878  14.666  -6.906  1.00 20.00     0.017 C 
ENDBRANCH   6   8
ENDBRANCH   5   6
ENDBRANCH   4   5
ENDBRANCH   2   4
TORSDOF 4
ENDMDL
