MODEL 1
REMARK VINA RESULT:      -5.8      0.000      0.000
REMARK  3 active torsions:
REMARK  status: ('A' for Active; 'I' for Inactive)
REMARK    1  A    between atoms: C2_2  and  C9_9 
REMARK    2  A    between atoms: C6_6  and  C9_9 
REMARK    3  A    between atoms: C7_7  and  O10_10 
ROOT
HETATM    1  C1  UNL     1     -32.229   8.521   1.745  1.00 20.00    -0.111 C 
HETATM    2  C2  UNL     1     -32.220   7.685   2.607  1.00 20.00    -0.107 C 
HETATM    3  C8  UNL     1     -32.240   9.539   0.695  1.00 20.00     0.112 C 
ENDROOT
BRANCH   2   4
HETATM    4  C9  UNL     1     -32.214   6.666   3.663  1.00 20.00     0.101 C 
BRANCH   4   5
HETATM    5  C6  UNL     1     -33.621   6.390   4.170  1.00 20.00     0.025 C 
HETATM    6  C4  UNL     1     -34.338   5.293   3.389  1.00 20.00     0.008 C 
HETATM    7  C3  UNL     1     -35.439   4.800   4.328  1.00 20.00     0.003 C 
HETATM    8  C5  UNL     1     -35.069   5.298   5.724  1.00 20.00     0.032 C 
HETATM    9  C7  UNL     1     -33.653   5.849   5.597  1.00 20.00     0.123 C 
BRANCH   9  10
HETATM   10  O10 UNL     1     -33.410   6.875   6.540  1.00 20.00    -0.395 OA
HETATM   11  H24 UNL     1     -32.447   6.918   6.675  1.00 20.00     0.210 HD
ENDBRANCH   9  10
ENDBRANCH   4   5
ENDBRANCH   2   4
TORSDOF 3
ENDMDL
MODEL 2
REMARK VINA RESULT:      -5.1     11.014     11.552
REMARK  3 active torsions:
REMARK  status: ('A' for Active; 'I' for Inactive)
REMARK    1  A    between atoms: C2_2  and  C9_9 
REMARK    2  A    between atoms: C6_6  and  C9_9 
REMARK    3  A    between atoms: C7_7  and  O10_10 
ROOT
HETATM    1  C1  UNL     1     -34.788  17.202   0.035  1.00 20.00    -0.111 C 
HETATM    2  C2  UNL     1     -34.382  16.971  -1.072  1.00 20.00    -0.107 C 
HETATM    3  C8  UNL     1     -35.282  17.482   1.382  1.00 20.00     0.112 C 
ENDROOT
BRANCH   2   4
HETATM    4  C9  UNL     1     -33.886  16.695  -2.425  1.00 20.00     0.101 C 
BRANCH   4   5
HETATM    5  C6  UNL     1     -34.170  15.257  -2.833  1.00 20.00     0.025 C 
HETATM    6  C4  UNL     1     -35.600  15.042  -3.320  1.00 20.00     0.008 C 
HETATM    7  C3  UNL     1     -35.539  13.763  -4.156  1.00 20.00     0.003 C 
HETATM    8  C5  UNL     1     -34.064  13.527  -4.476  1.00 20.00     0.032 C 
HETATM    9  C7  UNL     1     -33.344  14.795  -4.030  1.00 20.00     0.123 C 
BRANCH   9  10
HETATM   10  O10 UNL     1     -32.006  14.527  -3.657  1.00 20.00    -0.395 OA
HETATM   11  H24 UNL     1     -31.500  15.346  -3.797  1.00 20.00     0.210 HD
ENDBRANCH   9  10
ENDBRANCH   4   5
ENDBRANCH   2   4
TORSDOF 3
ENDMDL
MODEL 3
REMARK VINA RESULT:      -5.0      1.613      2.185
REMARK  3 active torsions:
REMARK  status: ('A' for Active; 'I' for Inactive)
REMARK    1  A    between atoms: C2_2  and  C9_9 
REMARK    2  A    between atoms: C6_6  and  C9_9 
REMARK    3  A    between atoms: C7_7  and  O10_10 
ROOT
HETATM    1  C1  UNL     1     -32.368   7.638   2.184  1.00 20.00    -0.111 C 
HETATM    2  C2  UNL     1     -33.027   6.703   2.549  1.00 20.00    -0.107 C 
HETATM    3  C8  UNL     1     -31.565   8.776   1.740  1.00 20.00     0.112 C 
ENDROOT
BRANCH   2   4
HETATM    4  C9  UNL     1     -33.837   5.561   2.990  1.00 20.00     0.101 C 
BRANCH   4   5
HETATM    5  C6  UNL     1     -33.802   5.413   4.504  1.00 20.00     0.025 C 
HETATM    6  C4  UNL     1     -33.588   6.736   5.232  1.00 20.00     0.008 C 
HETATM    7  C3  UNL     1     -34.109   6.491   6.649  1.00 20.00     0.003 C 
HETATM    8  C5  UNL     1     -34.970   5.230   6.578  1.00 20.00     0.032 C 
HETATM    9  C7  UNL     1     -35.123   4.925   5.093  1.00 20.00     0.123 C 
BRANCH   9  10
HETATM   10  O10 UNL     1     -35.306   3.541   4.864  1.00 20.00    -0.395 OA
HETATM   11  H24 UNL     1     -34.694   3.070   5.455  1.00 20.00     0.210 HD
ENDBRANCH   9  10
ENDBRANCH   4   5
ENDBRANCH   2   4
TORSDOF 3
ENDMDL
MODEL 4
REMARK VINA RESULT:      -4.8     11.294     12.236
REMARK  3 active torsions:
REMARK  status: ('A' for Active; 'I' for Inactive)
REMARK    1  A    between atoms: C2_2  and  C9_9 
REMARK    2  A    between atoms: C6_6  and  C9_9 
REMARK    3  A    between atoms: C7_7  and  O10_10 
ROOT
HETATM    1  C1  UNL     1     -34.452  16.582  -1.271  1.00 20.00    -0.111 C 
HETATM    2  C2  UNL     1     -33.959  15.994  -2.195  1.00 20.00    -0.107 C 
HETATM    3  C8  UNL     1     -35.051  17.298  -0.146  1.00 20.00     0.112 C 
ENDROOT
BRANCH   2   4
HETATM    4  C9  UNL     1     -33.353  15.273  -3.320  1.00 20.00     0.101 C 
BRANCH   4   5
HETATM    5  C6  UNL     1     -34.337  15.122  -4.471  1.00 20.00     0.025 C 
HETATM    6  C4  UNL     1     -33.948  15.930  -5.705  1.00 20.00     0.008 C 
HETATM    7  C3  UNL     1     -34.690  15.259  -6.861  1.00 20.00     0.003 C 
HETATM    8  C5  UNL     1     -35.120  13.882  -6.356  1.00 20.00     0.032 C 
HETATM    9  C7  UNL     1     -34.408  13.699  -5.021  1.00 20.00     0.123 C 
BRANCH   9  10
HETATM   10  O10 UNL     1     -35.138  12.851  -4.156  1.00 20.00    -0.395 OA
HETATM   11  H24 UNL     1     -35.525  13.413  -3.463  1.00 20.00     0.210 HD
ENDBRANCH   9  10
ENDBRANCH   4   5
ENDBRANCH   2   4
TORSDOF 3
ENDMDL
MODEL 5
REMARK VINA RESULT:      -4.5     11.470     13.104
REMARK  3 active torsions:
REMARK  status: ('A' for Active; 'I' for Inactive)
REMARK    1  A    between atoms: C2_2  and  C9_9 
REMARK    2  A    between atoms: C6_6  and  C9_9 
REMARK    3  A    between atoms: C7_7  and  O10_10 
ROOT
HETATM    1  C1  UNL     1     -34.690  16.627  -0.983  1.00 20.00    -0.111 C 
HETATM    2  C2  UNL     1     -34.769  15.926  -1.955  1.00 20.00    -0.107 C 
HETATM    3  C8  UNL     1     -34.594  17.481   0.200  1.00 20.00     0.112 C 
ENDROOT
BRANCH   2   4
HETATM    4  C9  UNL     1     -34.871  15.070  -3.143  1.00 20.00     0.101 C 
BRANCH   4   5
HETATM    5  C6  UNL     1     -34.726  15.882  -4.421  1.00 20.00     0.025 C 
HETATM    6  C4  UNL     1     -35.754  17.002  -4.541  1.00 20.00     0.008 C 
HETATM    7  C3  UNL     1     -35.143  17.988  -5.537  1.00 20.00     0.003 C 
HETATM    8  C5  UNL     1     -33.657  17.644  -5.627  1.00 20.00     0.032 C 
HETATM    9  C7  UNL     1     -33.405  16.641  -4.508  1.00 20.00     0.123 C 
BRANCH   9  10
HETATM   10  O10 UNL     1     -32.334  15.772  -4.823  1.00 20.00    -0.395 OA
HETATM   11  H24 UNL     1     -32.406  15.559  -5.769  1.00 20.00     0.210 HD
ENDBRANCH   9  10
ENDBRANCH   4   5
ENDBRANCH   2   4
TORSDOF 3
ENDMDL
MODEL 6
REMARK VINA RESULT:      -4.4     11.245     12.257
REMARK  3 active torsions:
REMARK  status: ('A' for Active; 'I' for Inactive)
REMARK    1  A    between atoms: C2_2  and  C9_9 
REMARK    2  A    between atoms: C6_6  and  C9_9 
REMARK    3  A    between atoms: C7_7  and  O10_10 
ROOT
HETATM    1  C1  UNL     1     -34.296  16.934  -1.343  1.00 20.00    -0.111 C 
HETATM    2  C2  UNL     1     -33.906  16.783  -2.469  1.00 20.00    -0.107 C 
HETATM    3  C8  UNL     1     -34.772  17.117   0.028  1.00 20.00     0.112 C 
ENDROOT
BRANCH   2   4
HETATM    4  C9  UNL     1     -33.424  16.596  -3.842  1.00 20.00     0.101 C 
BRANCH   4   5
HETATM    5  C6  UNL     1     -33.678  15.177  -4.326  1.00 20.00     0.025 C 
HETATM    6  C4  UNL     1     -34.560  14.368  -3.381  1.00 20.00     0.008 C 
HETATM    7  C3  UNL     1     -35.129  13.241  -4.245  1.00 20.00     0.003 C 
HETATM    8  C5  UNL     1     -34.918  13.665  -5.698  1.00 20.00     0.032 C 
HETATM    9  C7  UNL     1     -34.462  15.118  -5.635  1.00 20.00     0.123 C 
BRANCH   9  10
HETATM   10  O10 UNL     1     -33.643  15.452  -6.739  1.00 20.00    -0.395 OA
HETATM   11  H24 UNL     1     -33.029  14.710  -6.875  1.00 20.00     0.210 HD
ENDBRANCH   9  10
ENDBRANCH   4   5
ENDBRANCH   2   4
TORSDOF 3
ENDMDL
MODEL 7
REMARK VINA RESULT:      -4.3      9.251     10.607
REMARK  3 active torsions:
REMARK  status: ('A' for Active; 'I' for Inactive)
REMARK    1  A    between atoms: C2_2  and  C9_9 
REMARK    2  A    between atoms: C6_6  and  C9_9 
REMARK    3  A    between atoms: C7_7  and  O10_10 
ROOT
HETATM    1  C1  UNL     1     -41.831   3.276  -2.682  1.00 20.00    -0.111 C 
HETATM    2  C2  UNL     1     -41.267   3.948  -1.861  1.00 20.00    -0.107 C 
HETATM    3  C8  UNL     1     -42.518   2.459  -3.680  1.00 20.00     0.112 C 
ENDROOT
BRANCH   2   4
HETATM    4  C9  UNL     1     -40.573   4.769  -0.862  1.00 20.00     0.101 C 
BRANCH   4   5
HETATM    5  C6  UNL     1     -41.337   6.053  -0.578  1.00 20.00     0.025 C 
HETATM    6  C4  UNL     1     -41.581   6.896  -1.826  1.00 20.00     0.008 C 
HETATM    7  C3  UNL     1     -42.763   7.797  -1.464  1.00 20.00     0.003 C 
HETATM    8  C5  UNL     1     -43.417   7.174  -0.232  1.00 20.00     0.032 C 
HETATM    9  C7  UNL     1     -42.754   5.812  -0.065  1.00 20.00     0.123 C 
BRANCH   9  10
HETATM   10  O10 UNL     1     -42.746   5.402   1.289  1.00 20.00    -0.395 OA
HETATM   11  H24 UNL     1     -43.223   4.556   1.336  1.00 20.00     0.210 HD
ENDBRANCH   9  10
ENDBRANCH   4   5
ENDBRANCH   2   4
TORSDOF 3
ENDMDL
MODEL 8
REMARK VINA RESULT:      -4.2      9.506     11.020
REMARK  3 active torsions:
REMARK  status: ('A' for Active; 'I' for Inactive)
REMARK    1  A    between atoms: C2_2  and  C9_9 
REMARK    2  A    between atoms: C6_6  and  C9_9 
REMARK    3  A    between atoms: C7_7  and  O10_10 
ROOT
HETATM    1  C1  UNL     1     -42.015   1.931  -3.446  1.00 20.00    -0.111 C 
HETATM    2  C2  UNL     1     -42.405   2.994  -3.045  1.00 20.00    -0.107 C 
HETATM    3  C8  UNL     1     -41.541   0.637  -3.933  1.00 20.00     0.112 C 
ENDROOT
BRANCH   2   4
HETATM    4  C9  UNL     1     -42.887   4.290  -2.553  1.00 20.00     0.101 C 
BRANCH   4   5
HETATM    5  C6  UNL     1     -41.776   5.063  -1.858  1.00 20.00     0.025 C 
HETATM    6  C4  UNL     1     -41.763   6.547  -2.211  1.00 20.00     0.008 C 
HETATM    7  C3  UNL     1     -40.995   7.214  -1.069  1.00 20.00     0.003 C 
HETATM    8  C5  UNL     1     -40.965   6.203   0.077  1.00 20.00     0.032 C 
HETATM    9  C7  UNL     1     -41.919   5.089  -0.339  1.00 20.00     0.123 C 
BRANCH   9  10
HETATM   10  O10 UNL     1     -41.548   3.850   0.233  1.00 20.00    -0.395 OA
HETATM   11  H24 UNL     1     -41.876   3.151  -0.359  1.00 20.00     0.210 HD
ENDBRANCH   9  10
ENDBRANCH   4   5
ENDBRANCH   2   4
TORSDOF 3
ENDMDL
MODEL 9
REMARK VINA RESULT:      -4.2     10.107     10.915
REMARK  3 active torsions:
REMARK  status: ('A' for Active; 'I' for Inactive)
REMARK    1  A    between atoms: C2_2  and  C9_9 
REMARK    2  A    between atoms: C6_6  and  C9_9 
REMARK    3  A    between atoms: C7_7  and  O10_10 
ROOT
HETATM    1  C1  UNL     1     -42.283   8.850  -4.718  1.00 20.00    -0.111 C 
HETATM    2  C2  UNL     1     -42.607   7.953  -3.989  1.00 20.00    -0.107 C 
HETATM    3  C8  UNL     1     -41.887   9.942  -5.606  1.00 20.00     0.112 C 
ENDROOT
BRANCH   2   4
HETATM    4  C9  UNL     1     -42.999   6.857  -3.095  1.00 20.00     0.101 C 
BRANCH   4   5
HETATM    5  C6  UNL     1     -41.801   6.318  -2.327  1.00 20.00     0.025 C 
HETATM    6  C4  UNL     1     -41.461   7.142  -1.089  1.00 20.00     0.008 C 
HETATM    7  C3  UNL     1     -40.649   6.197  -0.202  1.00 20.00     0.003 C 
HETATM    8  C5  UNL     1     -40.903   4.786  -0.731  1.00 20.00     0.032 C 
HETATM    9  C7  UNL     1     -42.035   4.928  -1.741  1.00 20.00     0.123 C 
BRANCH   9  10
HETATM   10  O10 UNL     1     -41.965   3.931  -2.742  1.00 20.00    -0.395 OA
HETATM   11  H24 UNL     1     -41.177   3.392  -2.556  1.00 20.00     0.210 HD
ENDBRANCH   9  10
ENDBRANCH   4   5
ENDBRANCH   2   4
TORSDOF 3
ENDMDL
