MODEL 1
REMARK VINA RESULT:      -4.6      0.000      0.000
REMARK  4 active torsions:
REMARK  status: ('A' for Active; 'I' for Inactive)
REMARK    1  A    between atoms: C2_2  and  C7_7 
REMARK    2  A    between atoms: C7_7  and  N11_11 
REMARK    3  A    between atoms: C8_8  and  C9_9 
REMARK    4  A    between atoms: C8_8  and  N11_11 
ROOT
HETATM    1  C1  UNL     1     -34.518  16.897  -0.754  1.00 20.00    -0.109 C 
HETATM    2  C2  UNL     1     -34.048  16.491  -1.782  1.00 20.00    -0.077 C 
HETATM    3  C4  UNL     1     -35.089  17.391   0.497  1.00 20.00     0.112 C 
ENDROOT
BRANCH   2   4
HETATM    4  C7  UNL     1     -33.477  15.990  -3.036  1.00 20.00     0.365 C 
BRANCH   4   5
HETATM    5  N11 UNL     1     -34.134  16.607  -4.196  1.00 20.00     0.096 N 
HETATM    6  C6  UNL     1     -33.828  18.042  -4.234  1.00 20.00     0.311 C 
BRANCH   5   7
HETATM    7  C8  UNL     1     -33.736  15.957  -5.424  1.00 20.00     0.291 C 
BRANCH   7   8
HETATM    8  C9  UNL     1     -34.838  15.038  -5.970  1.00 20.00     0.117 C 
HETATM    9  C3  UNL     1     -34.834  13.728  -5.292  1.00 20.00     0.065 C 
HETATM   10  N10 UNL     1     -34.834  12.698  -4.757  1.00 20.00    -0.197 NA
HETATM   11  C5  UNL     1     -34.739  14.858  -7.485  1.00 20.00     0.027 C 
ENDBRANCH   7   8
ENDBRANCH   5   7
ENDBRANCH   4   5
ENDBRANCH   2   4
TORSDOF 4
ENDMDL
MODEL 2
REMARK VINA RESULT:      -4.5      1.422      1.787
REMARK  4 active torsions:
REMARK  status: ('A' for Active; 'I' for Inactive)
REMARK    1  A    between atoms: C2_2  and  C7_7 
REMARK    2  A    between atoms: C7_7  and  N11_11 
REMARK    3  A    between atoms: C8_8  and  C9_9 
REMARK    4  A    between atoms: C8_8  and  N11_11 
ROOT
HETATM    1  C1  UNL     1     -34.803  17.192   0.060  1.00 20.00    -0.109 C 
HETATM    2  C2  UNL     1     -34.426  16.816  -1.017  1.00 20.00    -0.077 C 
HETATM    3  C4  UNL     1     -35.262  17.648   1.371  1.00 20.00     0.112 C 
ENDROOT
BRANCH   2   4
HETATM    4  C7  UNL     1     -33.970  16.354  -2.332  1.00 20.00     0.365 C 
BRANCH   4   5
HETATM    5  N11 UNL     1     -34.700  17.035  -3.409  1.00 20.00     0.096 N 
HETATM    6  C6  UNL     1     -33.834  18.040  -4.038  1.00 20.00     0.311 C 
BRANCH   5   7
HETATM    7  C8  UNL     1     -35.189  16.087  -4.384  1.00 20.00     0.291 C 
BRANCH   7   8
HETATM    8  C9  UNL     1     -35.794  14.841  -3.720  1.00 20.00     0.117 C 
HETATM    9  C3  UNL     1     -35.228  13.600  -4.284  1.00 20.00     0.065 C 
HETATM   10  N10 UNL     1     -34.781  12.624  -4.724  1.00 20.00    -0.197 NA
HETATM   11  C5  UNL     1     -37.320  14.824  -3.812  1.00 20.00     0.027 C 
ENDBRANCH   7   8
ENDBRANCH   5   7
ENDBRANCH   4   5
ENDBRANCH   2   4
TORSDOF 4
ENDMDL
MODEL 3
REMARK VINA RESULT:      -4.4      1.661      1.891
REMARK  4 active torsions:
REMARK  status: ('A' for Active; 'I' for Inactive)
REMARK    1  A    between atoms: C2_2  and  C7_7 
REMARK    2  A    between atoms: C7_7  and  N11_11 
REMARK    3  A    between atoms: C8_8  and  C9_9 
REMARK    4  A    between atoms: C8_8  and  N11_11 
ROOT
HETATM    1  C1  UNL     1     -34.791  17.102  -0.105  1.00 20.00    -0.109 C 
HETATM    2  C2  UNL     1     -34.446  16.708  -1.186  1.00 20.00    -0.077 C 
HETATM    3  C4  UNL     1     -35.209  17.583   1.210  1.00 20.00     0.112 C 
ENDROOT
BRANCH   2   4
HETATM    4  C7  UNL     1     -34.023  16.221  -2.502  1.00 20.00     0.365 C 
BRANCH   4   5
HETATM    5  N11 UNL     1     -35.097  16.380  -3.491  1.00 20.00     0.096 N 
HETATM    6  C6  UNL     1     -35.395  17.806  -3.675  1.00 20.00     0.311 C 
BRANCH   5   7
HETATM    7  C8  UNL     1     -34.743  15.757  -4.746  1.00 20.00     0.291 C 
BRANCH   7   8
HETATM    8  C9  UNL     1     -35.473  14.421  -4.950  1.00 20.00     0.117 C 
HETATM    9  C3  UNL     1     -36.768  14.400  -4.242  1.00 20.00     0.065 C 
HETATM   10  N10 UNL     1     -37.788  14.383  -3.689  1.00 20.00    -0.197 NA
HETATM   11  C5  UNL     1     -34.615  13.228  -4.532  1.00 20.00     0.027 C 
ENDBRANCH   7   8
ENDBRANCH   5   7
ENDBRANCH   4   5
ENDBRANCH   2   4
TORSDOF 4
ENDMDL
MODEL 4
REMARK VINA RESULT:      -4.3      1.469      1.973
REMARK  4 active torsions:
REMARK  status: ('A' for Active; 'I' for Inactive)
REMARK    1  A    between atoms: C2_2  and  C7_7 
REMARK    2  A    between atoms: C7_7  and  N11_11 
REMARK    3  A    between atoms: C8_8  and  C9_9 
REMARK    4  A    between atoms: C8_8  and  N11_11 
ROOT
HETATM    1  C1  UNL     1     -34.325  17.043  -1.635  1.00 20.00    -0.109 C 
HETATM    2  C2  UNL     1     -34.053  17.052  -2.805  1.00 20.00    -0.077 C 
HETATM    3  C4  UNL     1     -34.657  17.032  -0.212  1.00 20.00     0.112 C 
ENDROOT
BRANCH   2   4
HETATM    4  C7  UNL     1     -33.720  17.070  -4.232  1.00 20.00     0.365 C 
BRANCH   4   5
HETATM    5  N11 UNL     1     -34.759  16.396  -5.022  1.00 20.00     0.096 N 
HETATM    6  C6  UNL     1     -35.302  17.323  -6.022  1.00 20.00     0.311 C 
BRANCH   5   7
HETATM    7  C8  UNL     1     -34.242  15.201  -5.648  1.00 20.00     0.291 C 
BRANCH   7   8
HETATM    8  C9  UNL     1     -34.677  13.929  -4.905  1.00 20.00     0.117 C 
HETATM    9  C3  UNL     1     -36.009  14.092  -4.290  1.00 20.00     0.065 C 
HETATM   10  N10 UNL     1     -37.057  14.218  -3.809  1.00 20.00    -0.197 NA
HETATM   11  C5  UNL     1     -33.652  13.495  -3.857  1.00 20.00     0.027 C 
ENDBRANCH   7   8
ENDBRANCH   5   7
ENDBRANCH   4   5
ENDBRANCH   2   4
TORSDOF 4
ENDMDL
MODEL 5
REMARK VINA RESULT:      -4.2      1.868      1.974
REMARK  4 active torsions:
REMARK  status: ('A' for Active; 'I' for Inactive)
REMARK    1  A    between atoms: C2_2  and  C7_7 
REMARK    2  A    between atoms: C7_7  and  N11_11 
REMARK    3  A    between atoms: C8_8  and  C9_9 
REMARK    4  A    between atoms: C8_8  and  N11_11 
ROOT
HETATM    1  C1  UNL     1     -34.617  16.600  -0.966  1.00 20.00    -0.109 C 
HETATM    2  C2  UNL     1     -34.438  15.961  -1.967  1.00 20.00    -0.077 C 
HETATM    3  C4  UNL     1     -34.833  17.379   0.252  1.00 20.00     0.112 C 
ENDROOT
BRANCH   2   4
HETATM    4  C7  UNL     1     -34.215  15.180  -3.187  1.00 20.00     0.365 C 
BRANCH   4   5
HETATM    5  N11 UNL     1     -34.520  15.975  -4.383  1.00 20.00     0.096 N 
HETATM    6  C6  UNL     1     -33.284  16.555  -4.923  1.00 20.00     0.311 C 
BRANCH   5   7
HETATM    7  C8  UNL     1     -35.197  15.177  -5.379  1.00 20.00     0.291 C 
BRANCH   7   8
HETATM    8  C9  UNL     1     -36.679  15.557  -5.510  1.00 20.00     0.117 C 
HETATM    9  C3  UNL     1     -37.502  14.886  -4.486  1.00 20.00     0.065 C 
HETATM   10  N10 UNL     1     -38.150  14.361  -3.679  1.00 20.00    -0.197 NA
HETATM   11  C5  UNL     1     -37.225  15.271  -6.908  1.00 20.00     0.027 C 
ENDBRANCH   7   8
ENDBRANCH   5   7
ENDBRANCH   4   5
ENDBRANCH   2   4
TORSDOF 4
ENDMDL
MODEL 6
REMARK VINA RESULT:      -4.2      1.604      2.366
REMARK  4 active torsions:
REMARK  status: ('A' for Active; 'I' for Inactive)
REMARK    1  A    between atoms: C2_2  and  C7_7 
REMARK    2  A    between atoms: C7_7  and  N11_11 
REMARK    3  A    between atoms: C8_8  and  C9_9 
REMARK    4  A    between atoms: C8_8  and  N11_11 
ROOT
HETATM    1  C1  UNL     1     -34.705  16.849  -0.695  1.00 20.00    -0.109 C 
HETATM    2  C2  UNL     1     -34.757  16.248  -1.735  1.00 20.00    -0.077 C 
HETATM    3  C4  UNL     1     -34.640  17.579   0.569  1.00 20.00     0.112 C 
ENDROOT
BRANCH   2   4
HETATM    4  C7  UNL     1     -34.822  15.511  -3.000  1.00 20.00     0.365 C 
BRANCH   4   5
HETATM    5  N11 UNL     1     -33.488  15.059  -3.413  1.00 20.00     0.096 N 
HETATM    6  C6  UNL     1     -33.541  13.644  -3.802  1.00 20.00     0.311 C 
BRANCH   5   7
HETATM    7  C8  UNL     1     -32.973  15.875  -4.489  1.00 20.00     0.291 C 
BRANCH   7   8
HETATM    8  C9  UNL     1     -34.096  16.429  -5.377  1.00 20.00     0.117 C 
HETATM    9  C3  UNL     1     -34.290  15.602  -6.583  1.00 20.00     0.065 C 
HETATM   10  N10 UNL     1     -34.445  14.950  -7.531  1.00 20.00    -0.197 NA
HETATM   11  C5  UNL     1     -33.858  17.889  -5.761  1.00 20.00     0.027 C 
ENDBRANCH   7   8
ENDBRANCH   5   7
ENDBRANCH   4   5
ENDBRANCH   2   4
TORSDOF 4
ENDMDL
MODEL 7
REMARK VINA RESULT:      -4.2      1.730      5.098
REMARK  4 active torsions:
REMARK  status: ('A' for Active; 'I' for Inactive)
REMARK    1  A    between atoms: C2_2  and  C7_7 
REMARK    2  A    between atoms: C7_7  and  N11_11 
REMARK    3  A    between atoms: C8_8  and  C9_9 
REMARK    4  A    between atoms: C8_8  and  N11_11 
ROOT
HETATM    1  C1  UNL     1     -35.003  14.679  -6.692  1.00 20.00    -0.109 C 
HETATM    2  C2  UNL     1     -35.045  14.026  -5.685  1.00 20.00    -0.077 C 
HETATM    3  C4  UNL     1     -34.951  15.473  -7.918  1.00 20.00     0.112 C 
ENDROOT
BRANCH   2   4
HETATM    4  C7  UNL     1     -35.093  13.233  -4.452  1.00 20.00     0.365 C 
BRANCH   4   5
HETATM    5  N11 UNL     1     -34.429  13.938  -3.349  1.00 20.00     0.096 N 
HETATM    6  C6  UNL     1     -32.993  14.059  -3.629  1.00 20.00     0.311 C 
BRANCH   5   7
HETATM    7  C8  UNL     1     -35.026  15.235  -3.126  1.00 20.00     0.291 C 
BRANCH   7   8
HETATM    8  C9  UNL     1     -34.033  16.226  -2.503  1.00 20.00     0.117 C 
HETATM    9  C3  UNL     1     -34.454  16.633  -1.148  1.00 20.00     0.065 C 
HETATM   10  N10 UNL     1     -34.783  16.952  -0.082  1.00 20.00    -0.197 NA
HETATM   11  C5  UNL     1     -33.813  17.453  -3.387  1.00 20.00     0.027 C 
ENDBRANCH   7   8
ENDBRANCH   5   7
ENDBRANCH   4   5
ENDBRANCH   2   4
TORSDOF 4
ENDMDL
MODEL 8
REMARK VINA RESULT:      -4.1     11.551     13.016
REMARK  4 active torsions:
REMARK  status: ('A' for Active; 'I' for Inactive)
REMARK    1  A    between atoms: C2_2  and  C7_7 
REMARK    2  A    between atoms: C7_7  and  N11_11 
REMARK    3  A    between atoms: C8_8  and  C9_9 
REMARK    4  A    between atoms: C8_8  and  N11_11 
ROOT
HETATM    1  C1  UNL     1     -32.225   8.611   1.794  1.00 20.00    -0.109 C 
HETATM    2  C2  UNL     1     -32.269   7.609   2.455  1.00 20.00    -0.077 C 
HETATM    3  C4  UNL     1     -32.170   9.830   0.990  1.00 20.00     0.112 C 
ENDROOT
BRANCH   2   4
HETATM    4  C7  UNL     1     -32.327   6.389   3.265  1.00 20.00     0.365 C 
BRANCH   4   5
HETATM    5  N11 UNL     1     -33.713   5.937   3.435  1.00 20.00     0.096 N 
HETATM    6  C6  UNL     1     -34.199   5.341   2.184  1.00 20.00     0.311 C 
BRANCH   5   7
HETATM    7  C8  UNL     1     -33.824   5.003   4.533  1.00 20.00     0.291 C 
BRANCH   7   8
HETATM    8  C9  UNL     1     -34.679   5.563   5.679  1.00 20.00     0.117 C 
HETATM    9  C3  UNL     1     -33.958   6.609   6.429  1.00 20.00     0.065 C 
HETATM   10  N10 UNL     1     -33.393   7.434   7.019  1.00 20.00    -0.197 NA
HETATM   11  C5  UNL     1     -35.165   4.464   6.624  1.00 20.00     0.027 C 
ENDBRANCH   7   8
ENDBRANCH   5   7
ENDBRANCH   4   5
ENDBRANCH   2   4
TORSDOF 4
ENDMDL
MODEL 9
REMARK VINA RESULT:      -4.1      1.684      2.290
REMARK  4 active torsions:
REMARK  status: ('A' for Active; 'I' for Inactive)
REMARK    1  A    between atoms: C2_2  and  C7_7 
REMARK    2  A    between atoms: C7_7  and  N11_11 
REMARK    3  A    between atoms: C8_8  and  C9_9 
REMARK    4  A    between atoms: C8_8  and  N11_11 
ROOT
HETATM    1  C1  UNL     1     -34.988  17.570   0.875  1.00 20.00    -0.109 C 
HETATM    2  C2  UNL     1     -34.626  17.561  -0.270  1.00 20.00    -0.077 C 
HETATM    3  C4  UNL     1     -35.429  17.581   2.268  1.00 20.00     0.112 C 
ENDROOT
BRANCH   2   4
HETATM    4  C7  UNL     1     -34.179  17.552  -1.666  1.00 20.00     0.365 C 
BRANCH   4   5
HETATM    5  N11 UNL     1     -35.120  16.810  -2.515  1.00 20.00     0.096 N 
HETATM    6  C6  UNL     1     -35.097  17.356  -3.877  1.00 20.00     0.311 C 
BRANCH   5   7
HETATM    7  C8  UNL     1     -34.815  15.397  -2.515  1.00 20.00     0.291 C 
BRANCH   7   8
HETATM    8  C9  UNL     1     -34.067  14.972  -3.787  1.00 20.00     0.117 C 
HETATM    9  C3  UNL     1     -34.562  13.679  -4.297  1.00 20.00     0.065 C 
HETATM   10  N10 UNL     1     -34.952  12.663  -4.701  1.00 20.00    -0.197 NA
HETATM   11  C5  UNL     1     -32.554  14.921  -3.574  1.00 20.00     0.027 C 
ENDBRANCH   7   8
ENDBRANCH   5   7
ENDBRANCH   4   5
ENDBRANCH   2   4
TORSDOF 4
ENDMDL
