MODEL 1
REMARK VINA RESULT:      -4.1      0.000      0.000
REMARK  4 active torsions:
REMARK  status: ('A' for Active; 'I' for Inactive)
REMARK    1  A    between atoms: C2_2  and  C7_7 
REMARK    2  A    between atoms: C7_7  and  N11_11 
REMARK    3  A    between atoms: C8_8  and  C9_9 
REMARK    4  A    between atoms: C8_8  and  N11_11 
ROOT
HETATM    1  C1  UNL     1     -34.142  16.674  -2.162  1.00 20.00    -0.109 C 
HETATM    2  C2  UNL     1     -33.817  16.656  -3.317  1.00 20.00    -0.079 C 
HETATM    3  C4  UNL     1     -34.537  16.694  -0.753  1.00 20.00     0.112 C 
ENDROOT
BRANCH   2   4
HETATM    4  C7  UNL     1     -33.425  16.630  -4.724  1.00 20.00     0.327 C 
BRANCH   4   5
HETATM    5  N11 UNL     1     -34.381  15.759  -5.501  1.00 20.00    -0.064 N 
HETATM    6  C6  UNL     1     -34.095  15.822  -6.982  1.00 20.00     0.270 C 
HETATM    7  H26 UNL     1     -34.183  14.787  -5.213  1.00 20.00     0.280 HD
BRANCH   5   8
HETATM    8  C8  UNL     1     -35.802  16.046  -5.182  1.00 20.00     0.254 C 
BRANCH   8   9
HETATM    9  C9  UNL     1     -36.562  14.782  -4.767  1.00 20.00     0.114 C 
HETATM   10  C3  UNL     1     -35.638  13.671  -4.469  1.00 20.00     0.065 C 
HETATM   11  N10 UNL     1     -34.913  12.796  -4.235  1.00 20.00    -0.197 NA
HETATM   12  C5  UNL     1     -37.512  15.016  -3.592  1.00 20.00     0.027 C 
ENDBRANCH   8   9
ENDBRANCH   5   8
ENDBRANCH   4   5
ENDBRANCH   2   4
TORSDOF 4
ENDMDL
MODEL 2
REMARK VINA RESULT:      -4.1      1.532      1.960
REMARK  4 active torsions:
REMARK  status: ('A' for Active; 'I' for Inactive)
REMARK    1  A    between atoms: C2_2  and  C7_7 
REMARK    2  A    between atoms: C7_7  and  N11_11 
REMARK    3  A    between atoms: C8_8  and  C9_9 
REMARK    4  A    between atoms: C8_8  and  N11_11 
ROOT
HETATM    1  C1  UNL     1     -34.178  16.552  -1.679  1.00 20.00    -0.109 C 
HETATM    2  C2  UNL     1     -33.613  16.226  -2.687  1.00 20.00    -0.079 C 
HETATM    3  C4  UNL     1     -34.866  16.952  -0.451  1.00 20.00     0.112 C 
ENDROOT
BRANCH   2   4
HETATM    4  C7  UNL     1     -32.920  15.828  -3.909  1.00 20.00     0.327 C 
BRANCH   4   5
HETATM    5  N11 UNL     1     -33.494  16.578  -5.085  1.00 20.00    -0.064 N 
HETATM    6  C6  UNL     1     -33.579  18.058  -4.800  1.00 20.00     0.270 C 
HETATM    7  H26 UNL     1     -32.810  16.474  -5.854  1.00 20.00     0.280 HD
BRANCH   5   8
HETATM    8  C8  UNL     1     -34.786  16.012  -5.548  1.00 20.00     0.254 C 
BRANCH   8   9
HETATM    9  C9  UNL     1     -34.607  14.644  -6.213  1.00 20.00     0.114 C 
HETATM   10  C3  UNL     1     -34.854  13.545  -5.258  1.00 20.00     0.065 C 
HETATM   11  N10 UNL     1     -35.047  12.681  -4.509  1.00 20.00    -0.197 NA
HETATM   12  C5  UNL     1     -35.470  14.468  -7.462  1.00 20.00     0.027 C 
ENDBRANCH   8   9
ENDBRANCH   5   8
ENDBRANCH   4   5
ENDBRANCH   2   4
TORSDOF 4
ENDMDL
MODEL 3
REMARK VINA RESULT:      -4.1      1.543      2.070
REMARK  4 active torsions:
REMARK  status: ('A' for Active; 'I' for Inactive)
REMARK    1  A    between atoms: C2_2  and  C7_7 
REMARK    2  A    between atoms: C7_7  and  N11_11 
REMARK    3  A    between atoms: C8_8  and  C9_9 
REMARK    4  A    between atoms: C8_8  and  N11_11 
ROOT
HETATM    1  C1  UNL     1     -34.390  16.429  -1.522  1.00 20.00    -0.109 C 
HETATM    2  C2  UNL     1     -34.058  15.923  -2.558  1.00 20.00    -0.079 C 
HETATM    3  C4  UNL     1     -34.795  17.047  -0.259  1.00 20.00     0.112 C 
ENDROOT
BRANCH   2   4
HETATM    4  C7  UNL     1     -33.648  15.308  -3.817  1.00 20.00     0.327 C 
BRANCH   4   5
HETATM    5  N11 UNL     1     -34.833  14.634  -4.464  1.00 20.00    -0.064 N 
HETATM    6  C6  UNL     1     -34.507  13.212  -4.854  1.00 20.00     0.270 C 
HETATM    7  H26 UNL     1     -35.561  14.570  -3.732  1.00 20.00     0.280 HD
BRANCH   5   8
HETATM    8  C8  UNL     1     -35.393  15.420  -5.591  1.00 20.00     0.254 C 
BRANCH   8   9
HETATM    9  C9  UNL     1     -36.789  15.965  -5.274  1.00 20.00     0.114 C 
HETATM   10  C3  UNL     1     -37.526  15.061  -4.369  1.00 20.00     0.065 C 
HETATM   11  N10 UNL     1     -38.107  14.351  -3.658  1.00 20.00    -0.197 NA
HETATM   12  C5  UNL     1     -36.763  17.383  -4.705  1.00 20.00     0.027 C 
ENDBRANCH   8   9
ENDBRANCH   5   8
ENDBRANCH   4   5
ENDBRANCH   2   4
TORSDOF 4
ENDMDL
MODEL 4
REMARK VINA RESULT:      -4.0      2.166      3.321
REMARK  4 active torsions:
REMARK  status: ('A' for Active; 'I' for Inactive)
REMARK    1  A    between atoms: C2_2  and  C7_7 
REMARK    2  A    between atoms: C7_7  and  N11_11 
REMARK    3  A    between atoms: C8_8  and  C9_9 
REMARK    4  A    between atoms: C8_8  and  N11_11 
ROOT
HETATM    1  C1  UNL     1     -32.920  18.434  -0.084  1.00 20.00    -0.109 C 
HETATM    2  C2  UNL     1     -33.843  17.755  -0.442  1.00 20.00    -0.079 C 
HETATM    3  C4  UNL     1     -31.795  19.262   0.350  1.00 20.00     0.112 C 
ENDROOT
BRANCH   2   4
HETATM    4  C7  UNL     1     -34.964  16.930  -0.882  1.00 20.00     0.327 C 
BRANCH   4   5
HETATM    5  N11 UNL     1     -34.988  16.867  -2.389  1.00 20.00    -0.064 N 
HETATM    6  C6  UNL     1     -35.794  18.004  -2.970  1.00 20.00     0.270 C 
HETATM    7  H26 UNL     1     -34.013  17.020  -2.698  1.00 20.00     0.280 HD
BRANCH   5   8
HETATM    8  C8  UNL     1     -35.422  15.542  -2.899  1.00 20.00     0.254 C 
BRANCH   8   9
HETATM    9  C9  UNL     1     -34.231  14.627  -3.202  1.00 20.00     0.114 C 
HETATM   10  C3  UNL     1     -34.615  13.525  -4.106  1.00 20.00     0.065 C 
HETATM   11  N10 UNL     1     -34.916  12.658  -4.816  1.00 20.00    -0.197 NA
HETATM   12  C5  UNL     1     -33.025  15.380  -3.761  1.00 20.00     0.027 C 
ENDBRANCH   8   9
ENDBRANCH   5   8
ENDBRANCH   4   5
ENDBRANCH   2   4
TORSDOF 4
ENDMDL
MODEL 5
REMARK VINA RESULT:      -4.0     11.247     12.569
REMARK  4 active torsions:
REMARK  status: ('A' for Active; 'I' for Inactive)
REMARK    1  A    between atoms: C2_2  and  C7_7 
REMARK    2  A    between atoms: C7_7  and  N11_11 
REMARK    3  A    between atoms: C8_8  and  C9_9 
REMARK    4  A    between atoms: C8_8  and  N11_11 
ROOT
HETATM    1  C1  UNL     1     -32.199   8.508   1.834  1.00 20.00    -0.109 C 
HETATM    2  C2  UNL     1     -32.127   7.498   2.479  1.00 20.00    -0.079 C 
HETATM    3  C4  UNL     1     -32.286   9.738   1.046  1.00 20.00     0.112 C 
ENDROOT
BRANCH   2   4
HETATM    4  C7  UNL     1     -32.033   6.270   3.263  1.00 20.00     0.327 C 
BRANCH   4   5
HETATM    5  N11 UNL     1     -33.416   5.717   3.508  1.00 20.00    -0.064 N 
HETATM    6  C6  UNL     1     -34.027   5.187   2.234  1.00 20.00     0.270 C 
HETATM    7  H26 UNL     1     -33.292   4.900   4.129  1.00 20.00     0.280 HD
BRANCH   5   8
HETATM    8  C8  UNL     1     -34.301   6.684   4.205  1.00 20.00     0.254 C 
BRANCH   8   9
HETATM    9  C9  UNL     1     -34.632   6.234   5.632  1.00 20.00     0.114 C 
HETATM   10  C3  UNL     1     -34.781   4.768   5.713  1.00 20.00     0.065 C 
HETATM   11  N10 UNL     1     -34.899   3.616   5.779  1.00 20.00    -0.197 NA
HETATM   12  C5  UNL     1     -33.616   6.726   6.663  1.00 20.00     0.027 C 
ENDBRANCH   8   9
ENDBRANCH   5   8
ENDBRANCH   4   5
ENDBRANCH   2   4
TORSDOF 4
ENDMDL
MODEL 6
REMARK VINA RESULT:      -3.8      1.758      2.612
REMARK  4 active torsions:
REMARK  status: ('A' for Active; 'I' for Inactive)
REMARK    1  A    between atoms: C2_2  and  C7_7 
REMARK    2  A    between atoms: C7_7  and  N11_11 
REMARK    3  A    between atoms: C8_8  and  C9_9 
REMARK    4  A    between atoms: C8_8  and  N11_11 
ROOT
HETATM    1  C1  UNL     1     -34.648  17.154  -0.412  1.00 20.00    -0.109 C 
HETATM    2  C2  UNL     1     -34.246  16.977  -1.530  1.00 20.00    -0.079 C 
HETATM    3  C4  UNL     1     -35.137  17.373   0.949  1.00 20.00     0.112 C 
ENDROOT
BRANCH   2   4
HETATM    4  C7  UNL     1     -33.752  16.763  -2.887  1.00 20.00     0.327 C 
BRANCH   4   5
HETATM    5  N11 UNL     1     -34.889  16.330  -3.779  1.00 20.00    -0.064 N 
HETATM    6  C6  UNL     1     -35.983  17.370  -3.814  1.00 20.00     0.270 C 
HETATM    7  H26 UNL     1     -34.503  16.288  -4.737  1.00 20.00     0.280 HD
BRANCH   5   8
HETATM    8  C8  UNL     1     -35.399  14.978  -3.438  1.00 20.00     0.254 C 
BRANCH   8   9
HETATM    9  C9  UNL     1     -34.811  13.896  -4.349  1.00 20.00     0.114 C 
HETATM   10  C3  UNL     1     -34.646  14.388  -5.731  1.00 20.00     0.065 C 
HETATM   11  N10 UNL     1     -34.516  14.773  -6.818  1.00 20.00    -0.197 NA
HETATM   12  C5  UNL     1     -33.494  13.324  -3.825  1.00 20.00     0.027 C 
ENDBRANCH   8   9
ENDBRANCH   5   8
ENDBRANCH   4   5
ENDBRANCH   2   4
TORSDOF 4
ENDMDL
MODEL 7
REMARK VINA RESULT:      -3.7      1.570      2.869
REMARK  4 active torsions:
REMARK  status: ('A' for Active; 'I' for Inactive)
REMARK    1  A    between atoms: C2_2  and  C7_7 
REMARK    2  A    between atoms: C7_7  and  N11_11 
REMARK    3  A    between atoms: C8_8  and  C9_9 
REMARK    4  A    between atoms: C8_8  and  N11_11 
ROOT
HETATM    1  C1  UNL     1     -34.238  16.377  -1.732  1.00 20.00    -0.109 C 
HETATM    2  C2  UNL     1     -33.790  15.854  -2.716  1.00 20.00    -0.079 C 
HETATM    3  C4  UNL     1     -34.783  17.011  -0.532  1.00 20.00     0.112 C 
ENDROOT
BRANCH   2   4
HETATM    4  C7  UNL     1     -33.251  15.216  -3.913  1.00 20.00     0.327 C 
BRANCH   4   5
HETATM    5  N11 UNL     1     -34.373  14.909  -4.875  1.00 20.00    -0.064 N 
HETATM    6  C6  UNL     1     -34.667  13.429  -4.916  1.00 20.00     0.270 C 
HETATM    7  H26 UNL     1     -35.218  15.358  -4.482  1.00 20.00     0.280 HD
BRANCH   5   8
HETATM    8  C8  UNL     1     -34.141  15.482  -6.224  1.00 20.00     0.254 C 
BRANCH   8   9
HETATM    9  C9  UNL     1     -35.012  16.716  -6.480  1.00 20.00     0.114 C 
HETATM   10  C3  UNL     1     -36.066  16.854  -5.455  1.00 20.00     0.065 C 
HETATM   11  N10 UNL     1     -36.895  16.963  -4.652  1.00 20.00    -0.197 NA
HETATM   12  C5  UNL     1     -34.202  18.008  -6.589  1.00 20.00     0.027 C 
ENDBRANCH   8   9
ENDBRANCH   5   8
ENDBRANCH   4   5
ENDBRANCH   2   4
TORSDOF 4
ENDMDL
MODEL 8
REMARK VINA RESULT:      -3.7      1.457      3.193
REMARK  4 active torsions:
REMARK  status: ('A' for Active; 'I' for Inactive)
REMARK    1  A    between atoms: C2_2  and  C7_7 
REMARK    2  A    between atoms: C7_7  and  N11_11 
REMARK    3  A    between atoms: C8_8  and  C9_9 
REMARK    4  A    between atoms: C8_8  and  N11_11 
ROOT
HETATM    1  C1  UNL     1     -34.702  16.553  -1.437  1.00 20.00    -0.109 C 
HETATM    2  C2  UNL     1     -35.127  15.874  -2.331  1.00 20.00    -0.079 C 
HETATM    3  C4  UNL     1     -34.187  17.382  -0.348  1.00 20.00     0.112 C 
ENDROOT
BRANCH   2   4
HETATM    4  C7  UNL     1     -35.644  15.052  -3.421  1.00 20.00     0.327 C 
BRANCH   4   5
HETATM    5  N11 UNL     1     -34.557  14.817  -4.441  1.00 20.00    -0.064 N 
HETATM    6  C6  UNL     1     -34.146  13.365  -4.476  1.00 20.00     0.270 C 
HETATM    7  H26 UNL     1     -34.979  15.018  -5.363  1.00 20.00     0.280 HD
BRANCH   5   8
HETATM    8  C8  UNL     1     -33.401  15.732  -4.263  1.00 20.00     0.254 C 
BRANCH   8   9
HETATM    9  C9  UNL     1     -33.325  16.782  -5.376  1.00 20.00     0.114 C 
HETATM   10  C3  UNL     1     -34.220  16.442  -6.500  1.00 20.00     0.065 C 
HETATM   11  N10 UNL     1     -34.922  16.177  -7.384  1.00 20.00    -0.197 NA
HETATM   12  C5  UNL     1     -33.607  18.200  -4.880  1.00 20.00     0.027 C 
ENDBRANCH   8   9
ENDBRANCH   5   8
ENDBRANCH   4   5
ENDBRANCH   2   4
TORSDOF 4
ENDMDL
MODEL 9
REMARK VINA RESULT:      -3.6      1.433      3.461
REMARK  4 active torsions:
REMARK  status: ('A' for Active; 'I' for Inactive)
REMARK    1  A    between atoms: C2_2  and  C7_7 
REMARK    2  A    between atoms: C7_7  and  N11_11 
REMARK    3  A    between atoms: C8_8  and  C9_9 
REMARK    4  A    between atoms: C8_8  and  N11_11 
ROOT
HETATM    1  C1  UNL     1     -38.273  15.159  -3.980  1.00 20.00    -0.109 C 
HETATM    2  C2  UNL     1     -37.280  15.719  -3.602  1.00 20.00    -0.079 C 
HETATM    3  C4  UNL     1     -39.483  14.479  -4.441  1.00 20.00     0.112 C 
ENDROOT
BRANCH   2   4
HETATM    4  C7  UNL     1     -36.076  16.404  -3.141  1.00 20.00     0.327 C 
BRANCH   4   5
HETATM    5  N11 UNL     1     -34.858  15.767  -3.765  1.00 20.00    -0.064 N 
HETATM    6  C6  UNL     1     -33.600  16.154  -3.026  1.00 20.00     0.270 C 
HETATM    7  H26 UNL     1     -34.967  14.748  -3.632  1.00 20.00     0.280 HD
BRANCH   5   8
HETATM    8  C8  UNL     1     -34.764  16.025  -5.224  1.00 20.00     0.254 C 
BRANCH   8   9
HETATM    9  C9  UNL     1     -34.645  14.727  -6.029  1.00 20.00     0.114 C 
HETATM   10  C3  UNL     1     -34.785  13.540  -5.162  1.00 20.00     0.065 C 
HETATM   11  N10 UNL     1     -34.894  12.607  -4.483  1.00 20.00    -0.197 NA
HETATM   12  C5  UNL     1     -35.630  14.655  -7.196  1.00 20.00     0.027 C 
ENDBRANCH   8   9
ENDBRANCH   5   8
ENDBRANCH   4   5
ENDBRANCH   2   4
TORSDOF 4
ENDMDL
