MODEL 1
REMARK VINA RESULT:      -4.9      0.000      0.000
REMARK  4 active torsions:
REMARK  status: ('A' for Active; 'I' for Inactive)
REMARK    1  A    between atoms: C2_2  and  C7_7 
REMARK    2  A    between atoms: C5_5  and  C8_8 
REMARK    3  A    between atoms: C7_7  and  C8_8 
REMARK    4  A    between atoms: C8_8  and  O9_9 
ROOT
HETATM    1  C1  UNL     1     -32.244   8.523   1.804  1.00 20.00    -0.111 C 
HETATM    2  C2  UNL     1     -32.249   7.608   2.583  1.00 20.00    -0.104 C 
HETATM    3  C6  UNL     1     -32.238   9.637   0.857  1.00 20.00     0.112 C 
ENDROOT
BRANCH   2   4
HETATM    4  C7  UNL     1     -32.252   6.486   3.536  1.00 20.00     0.126 C 
BRANCH   4   5
HETATM    5  C8  UNL     1     -33.530   6.475   4.377  1.00 20.00     0.133 C 
BRANCH   5   6
HETATM    6  C5  UNL     1     -34.157   5.087   4.407  1.00 20.00     0.015 A 
HETATM    7  C3  UNL     1     -34.959   4.643   5.599  1.00 20.00     0.007 A 
HETATM    8  C4  UNL     1     -35.648   4.928   4.294  1.00 20.00     0.007 A 
ENDBRANCH   5   6
BRANCH   5   9
HETATM    9  O9  UNL     1     -33.203   6.853   5.714  1.00 20.00    -0.394 OA
HETATM   10  H21 UNL     1     -32.984   6.035   6.185  1.00 20.00     0.210 HD
ENDBRANCH   5   9
ENDBRANCH   4   5
ENDBRANCH   2   4
TORSDOF 4
ENDMDL
MODEL 2
REMARK VINA RESULT:      -4.6      1.351      1.523
REMARK  4 active torsions:
REMARK  status: ('A' for Active; 'I' for Inactive)
REMARK    1  A    between atoms: C2_2  and  C7_7 
REMARK    2  A    between atoms: C5_5  and  C8_8 
REMARK    3  A    between atoms: C7_7  and  C8_8 
REMARK    4  A    between atoms: C8_8  and  O9_9 
ROOT
HETATM    1  C1  UNL     1     -32.168   8.379   1.800  1.00 20.00    -0.111 C 
HETATM    2  C2  UNL     1     -32.181   7.705   2.795  1.00 20.00    -0.104 C 
HETATM    3  C6  UNL     1     -32.153   9.198   0.589  1.00 20.00     0.112 C 
ENDROOT
BRANCH   2   4
HETATM    4  C7  UNL     1     -32.195   6.882   4.015  1.00 20.00     0.126 C 
BRANCH   4   5
HETATM    5  C8  UNL     1     -33.237   5.765   3.921  1.00 20.00     0.133 C 
BRANCH   5   6
HETATM    6  C5  UNL     1     -34.414   6.031   4.851  1.00 20.00     0.015 A 
HETATM    7  C3  UNL     1     -35.168   4.885   5.466  1.00 20.00     0.007 A 
HETATM    8  C4  UNL     1     -34.292   5.753   6.324  1.00 20.00     0.007 A 
ENDBRANCH   5   6
BRANCH   5   9
HETATM    9  O9  UNL     1     -33.724   5.703   2.582  1.00 20.00    -0.394 OA
HETATM   10  H21 UNL     1     -32.953   5.804   2.003  1.00 20.00     0.210 HD
ENDBRANCH   5   9
ENDBRANCH   4   5
ENDBRANCH   2   4
TORSDOF 4
ENDMDL
MODEL 3
REMARK VINA RESULT:      -4.2     11.016     12.200
REMARK  4 active torsions:
REMARK  status: ('A' for Active; 'I' for Inactive)
REMARK    1  A    between atoms: C2_2  and  C7_7 
REMARK    2  A    between atoms: C5_5  and  C8_8 
REMARK    3  A    between atoms: C7_7  and  C8_8 
REMARK    4  A    between atoms: C8_8  and  O9_9 
ROOT
HETATM    1  C1  UNL     1     -34.427  16.093  -1.922  1.00 20.00    -0.111 C 
HETATM    2  C2  UNL     1     -34.063  15.313  -2.761  1.00 20.00    -0.104 C 
HETATM    3  C6  UNL     1     -34.871  17.040  -0.900  1.00 20.00     0.112 C 
ENDROOT
BRANCH   2   4
HETATM    4  C7  UNL     1     -33.615  14.360  -3.789  1.00 20.00     0.126 C 
BRANCH   4   5
HETATM    5  C8  UNL     1     -34.744  14.020  -4.764  1.00 20.00     0.133 C 
BRANCH   5   6
HETATM    6  C5  UNL     1     -34.496  14.644  -6.131  1.00 20.00     0.015 A 
HETATM    7  C3  UNL     1     -35.439  14.371  -7.271  1.00 20.00     0.007 A 
HETATM    8  C4  UNL     1     -35.397  15.735  -6.641  1.00 20.00     0.007 A 
ENDBRANCH   5   6
BRANCH   5   9
HETATM    9  O9  UNL     1     -34.809  12.604  -4.917  1.00 20.00    -0.394 OA
HETATM   10  H21 UNL     1     -34.688  12.423  -5.861  1.00 20.00     0.210 HD
ENDBRANCH   5   9
ENDBRANCH   4   5
ENDBRANCH   2   4
TORSDOF 4
ENDMDL
MODEL 4
REMARK VINA RESULT:      -4.2     11.067     11.527
REMARK  4 active torsions:
REMARK  status: ('A' for Active; 'I' for Inactive)
REMARK    1  A    between atoms: C2_2  and  C7_7 
REMARK    2  A    between atoms: C5_5  and  C8_8 
REMARK    3  A    between atoms: C7_7  and  C8_8 
REMARK    4  A    between atoms: C8_8  and  O9_9 
ROOT
HETATM    1  C1  UNL     1     -34.541  17.042  -0.676  1.00 20.00    -0.111 C 
HETATM    2  C2  UNL     1     -34.115  16.812  -1.776  1.00 20.00    -0.104 C 
HETATM    3  C6  UNL     1     -35.060  17.322   0.662  1.00 20.00     0.112 C 
ENDROOT
BRANCH   2   4
HETATM    4  C7  UNL     1     -33.594  16.528  -3.123  1.00 20.00     0.126 C 
BRANCH   4   5
HETATM    5  C8  UNL     1     -33.528  15.023  -3.387  1.00 20.00     0.133 C 
BRANCH   5   6
HETATM    6  C5  UNL     1     -34.488  14.617  -4.498  1.00 20.00     0.015 A 
HETATM    7  C3  UNL     1     -34.633  13.171  -4.884  1.00 20.00     0.007 A 
HETATM    8  C4  UNL     1     -35.754  13.874  -4.171  1.00 20.00     0.007 A 
ENDBRANCH   5   6
BRANCH   5   9
HETATM    9  O9  UNL     1     -32.202  14.684  -3.789  1.00 20.00    -0.394 OA
HETATM   10  H21 UNL     1     -32.143  13.717  -3.757  1.00 20.00     0.210 HD
ENDBRANCH   5   9
ENDBRANCH   4   5
ENDBRANCH   2   4
TORSDOF 4
ENDMDL
MODEL 5
REMARK VINA RESULT:      -4.2      1.915      2.336
REMARK  4 active torsions:
REMARK  status: ('A' for Active; 'I' for Inactive)
REMARK    1  A    between atoms: C2_2  and  C7_7 
REMARK    2  A    between atoms: C5_5  and  C8_8 
REMARK    3  A    between atoms: C7_7  and  C8_8 
REMARK    4  A    between atoms: C8_8  and  O9_9 
ROOT
HETATM    1  C1  UNL     1     -32.185   6.956   3.336  1.00 20.00    -0.111 C 
HETATM    2  C2  UNL     1     -33.014   6.131   3.059  1.00 20.00    -0.104 C 
HETATM    3  C6  UNL     1     -31.177   7.959   3.674  1.00 20.00     0.112 C 
ENDROOT
BRANCH   2   4
HETATM    4  C7  UNL     1     -34.030   5.121   2.717  1.00 20.00     0.126 C 
BRANCH   4   5
HETATM    5  C8  UNL     1     -35.034   4.935   3.856  1.00 20.00     0.133 C 
BRANCH   5   6
HETATM    6  C5  UNL     1     -34.326   4.796   5.198  1.00 20.00     0.015 A 
HETATM    7  C3  UNL     1     -34.619   5.761   6.313  1.00 20.00     0.007 A 
HETATM    8  C4  UNL     1     -35.085   4.336   6.411  1.00 20.00     0.007 A 
ENDBRANCH   5   6
BRANCH   5   9
HETATM    9  O9  UNL     1     -35.885   6.078   3.910  1.00 20.00    -0.394 OA
HETATM   10  H21 UNL     1     -36.414   6.066   3.098  1.00 20.00     0.210 HD
ENDBRANCH   5   9
ENDBRANCH   4   5
ENDBRANCH   2   4
TORSDOF 4
ENDMDL
MODEL 6
REMARK VINA RESULT:      -4.2      1.487      4.975
REMARK  4 active torsions:
REMARK  status: ('A' for Active; 'I' for Inactive)
REMARK    1  A    between atoms: C2_2  and  C7_7 
REMARK    2  A    between atoms: C5_5  and  C8_8 
REMARK    3  A    between atoms: C7_7  and  C8_8 
REMARK    4  A    between atoms: C8_8  and  O9_9 
ROOT
HETATM    1  C1  UNL     1     -34.389   5.272   5.419  1.00 20.00    -0.111 C 
HETATM    2  C2  UNL     1     -33.696   6.147   4.973  1.00 20.00    -0.104 C 
HETATM    3  C6  UNL     1     -35.232   4.208   5.963  1.00 20.00     0.112 C 
ENDROOT
BRANCH   2   4
HETATM    4  C7  UNL     1     -32.847   7.216   4.424  1.00 20.00     0.126 C 
BRANCH   4   5
HETATM    5  C8  UNL     1     -32.729   7.107   2.902  1.00 20.00     0.133 C 
BRANCH   5   6
HETATM    6  C5  UNL     1     -31.885   8.240   2.333  1.00 20.00     0.015 A 
HETATM    7  C3  UNL     1     -31.784   8.437   0.846  1.00 20.00     0.007 A 
HETATM    8  C4  UNL     1     -32.546   9.425   1.684  1.00 20.00     0.007 A 
ENDBRANCH   5   6
BRANCH   5   9
HETATM    9  O9  UNL     1     -32.102   5.868   2.578  1.00 20.00    -0.394 OA
HETATM   10  H21 UNL     1     -32.526   5.549   1.767  1.00 20.00     0.210 HD
ENDBRANCH   5   9
ENDBRANCH   4   5
ENDBRANCH   2   4
TORSDOF 4
ENDMDL
MODEL 7
REMARK VINA RESULT:      -4.0     11.403     12.996
REMARK  4 active torsions:
REMARK  status: ('A' for Active; 'I' for Inactive)
REMARK    1  A    between atoms: C2_2  and  C7_7 
REMARK    2  A    between atoms: C5_5  and  C8_8 
REMARK    3  A    between atoms: C7_7  and  C8_8 
REMARK    4  A    between atoms: C8_8  and  O9_9 
ROOT
HETATM    1  C1  UNL     1     -34.529  16.319  -1.540  1.00 20.00    -0.111 C 
HETATM    2  C2  UNL     1     -34.519  15.620  -2.517  1.00 20.00    -0.104 C 
HETATM    3  C6  UNL     1     -34.541  17.168  -0.350  1.00 20.00     0.112 C 
ENDROOT
BRANCH   2   4
HETATM    4  C7  UNL     1     -34.505  14.765  -3.715  1.00 20.00     0.126 C 
BRANCH   4   5
HETATM    5  C8  UNL     1     -33.809  15.461  -4.887  1.00 20.00     0.133 C 
BRANCH   5   6
HETATM    6  C5  UNL     1     -34.442  16.816  -5.175  1.00 20.00     0.015 A 
HETATM    7  C3  UNL     1     -33.578  17.996  -5.526  1.00 20.00     0.007 A 
HETATM    8  C4  UNL     1     -34.450  17.365  -6.575  1.00 20.00     0.007 A 
ENDBRANCH   5   6
BRANCH   5   9
HETATM    9  O9  UNL     1     -32.437  15.663  -4.552  1.00 20.00    -0.394 OA
HETATM   10  H21 UNL     1     -32.149  16.451  -5.037  1.00 20.00     0.210 HD
ENDBRANCH   5   9
ENDBRANCH   4   5
ENDBRANCH   2   4
TORSDOF 4
ENDMDL
MODEL 8
REMARK VINA RESULT:      -3.9     11.381     12.243
REMARK  4 active torsions:
REMARK  status: ('A' for Active; 'I' for Inactive)
REMARK    1  A    between atoms: C2_2  and  C7_7 
REMARK    2  A    between atoms: C5_5  and  C8_8 
REMARK    3  A    between atoms: C7_7  and  C8_8 
REMARK    4  A    between atoms: C8_8  and  O9_9 
ROOT
HETATM    1  C1  UNL     1     -34.569  16.757  -0.853  1.00 20.00    -0.111 C 
HETATM    2  C2  UNL     1     -34.175  16.248  -1.868  1.00 20.00    -0.104 C 
HETATM    3  C6  UNL     1     -35.048  17.375   0.382  1.00 20.00     0.112 C 
ENDROOT
BRANCH   2   4
HETATM    4  C7  UNL     1     -33.695  15.627  -3.113  1.00 20.00     0.126 C 
BRANCH   4   5
HETATM    5  C8  UNL     1     -34.825  15.480  -4.133  1.00 20.00     0.133 C 
BRANCH   5   6
HETATM    6  C5  UNL     1     -34.346  14.754  -5.385  1.00 20.00     0.015 A 
HETATM    7  C3  UNL     1     -35.327  14.358  -6.453  1.00 20.00     0.007 A 
HETATM    8  C4  UNL     1     -34.339  15.460  -6.713  1.00 20.00     0.007 A 
ENDBRANCH   5   6
BRANCH   5   9
HETATM    9  O9  UNL     1     -35.879  14.719  -3.545  1.00 20.00    -0.394 OA
HETATM   10  H21 UNL     1     -36.706  15.170  -3.777  1.00 20.00     0.210 HD
ENDBRANCH   5   9
ENDBRANCH   4   5
ENDBRANCH   2   4
TORSDOF 4
ENDMDL
MODEL 9
REMARK VINA RESULT:      -3.8      9.277     10.991
REMARK  4 active torsions:
REMARK  status: ('A' for Active; 'I' for Inactive)
REMARK    1  A    between atoms: C2_2  and  C7_7 
REMARK    2  A    between atoms: C5_5  and  C8_8 
REMARK    3  A    between atoms: C7_7  and  C8_8 
REMARK    4  A    between atoms: C8_8  and  O9_9 
ROOT
HETATM    1  C1  UNL     1     -41.893   1.622  -3.432  1.00 20.00    -0.111 C 
HETATM    2  C2  UNL     1     -42.198   2.631  -2.855  1.00 20.00    -0.104 C 
HETATM    3  C6  UNL     1     -41.521   0.394  -4.133  1.00 20.00     0.112 C 
ENDROOT
BRANCH   2   4
HETATM    4  C7  UNL     1     -42.574   3.867  -2.150  1.00 20.00     0.126 C 
BRANCH   4   5
HETATM    5  C8  UNL     1     -41.345   4.722  -1.832  1.00 20.00     0.133 C 
BRANCH   5   6
HETATM    6  C5  UNL     1     -41.666   5.776  -0.779  1.00 20.00     0.015 A 
HETATM    7  C3  UNL     1     -40.576   6.324   0.100  1.00 20.00     0.007 A 
HETATM    8  C4  UNL     1     -41.195   7.193  -0.958  1.00 20.00     0.007 A 
ENDBRANCH   5   6
BRANCH   5   9
HETATM    9  O9  UNL     1     -40.315   3.875  -1.326  1.00 20.00    -0.394 OA
HETATM   10  H21 UNL     1     -40.137   4.170  -0.420  1.00 20.00     0.210 HD
ENDBRANCH   5   9
ENDBRANCH   4   5
ENDBRANCH   2   4
TORSDOF 4
ENDMDL
