MODEL 1
REMARK VINA RESULT:      -5.0      0.000      0.000
REMARK  2 active torsions:
REMARK  status: ('A' for Active; 'I' for Inactive)
REMARK    1  A    between atoms: C1_1  and  C5_5 
REMARK    2  A    between atoms: C6_6  and  C7_7 
ROOT
HETATM    1  C4  UNL     1     -33.777   5.777   2.742  1.00 20.00     0.021 A 
HETATM    2  C5  UNL     1     -32.466   6.162   3.377  1.00 20.00     0.091 A 
HETATM    3  C7  UNL     1     -33.734   6.119   4.208  1.00 20.00     0.005 A 
ENDROOT
BRANCH   2   4
HETATM    4  C1  UNL     1     -31.920   7.465   3.054  1.00 20.00     0.177 C 
HETATM    5  O8  UNL     1     -32.304   7.953   1.955  1.00 20.00    -0.648 OA
HETATM    6  O9  UNL     1     -31.130   7.938   3.919  1.00 20.00    -0.648 OA
ENDBRANCH   2   4
BRANCH   3   7
HETATM    7  C6  UNL     1     -33.956   5.082   5.299  1.00 20.00    -0.010 A 
HETATM    8  C2  UNL     1     -34.870   5.318   6.468  1.00 20.00     0.005 A 
HETATM    9  C3  UNL     1     -35.233   4.299   5.425  1.00 20.00     0.005 A 
ENDBRANCH   3   7
TORSDOF 2
ENDMDL
MODEL 2
REMARK VINA RESULT:      -4.8      2.781      4.229
REMARK  2 active torsions:
REMARK  status: ('A' for Active; 'I' for Inactive)
REMARK    1  A    between atoms: C1_1  and  C5_5 
REMARK    2  A    between atoms: C6_6  and  C7_7 
ROOT
HETATM    1  C4  UNL     1     -34.654   5.388   3.095  1.00 20.00     0.021 A 
HETATM    2  C5  UNL     1     -34.688   5.702   4.568  1.00 20.00     0.091 A 
HETATM    3  C7  UNL     1     -33.414   5.911   3.773  1.00 20.00     0.005 A 
ENDROOT
BRANCH   2   4
HETATM    4  C1  UNL     1     -34.726   4.586   5.491  1.00 20.00     0.177 C 
HETATM    5  O8  UNL     1     -35.146   3.499   5.007  1.00 20.00    -0.648 OA
HETATM    6  O9  UNL     1     -34.333   4.853   6.662  1.00 20.00    -0.648 OA
ENDBRANCH   2   4
BRANCH   3   7
HETATM    7  C6  UNL     1     -32.849   7.295   3.492  1.00 20.00    -0.010 A 
HETATM    8  C2  UNL     1     -31.377   7.596   3.549  1.00 20.00     0.005 A 
HETATM    9  C3  UNL     1     -32.100   7.625   2.231  1.00 20.00     0.005 A 
ENDBRANCH   3   7
TORSDOF 2
ENDMDL
MODEL 3
REMARK VINA RESULT:      -4.7      2.782      4.338
REMARK  2 active torsions:
REMARK  status: ('A' for Active; 'I' for Inactive)
REMARK    1  A    between atoms: C1_1  and  C5_5 
REMARK    2  A    between atoms: C6_6  and  C7_7 
ROOT
HETATM    1  C4  UNL     1     -34.647   5.384   3.086  1.00 20.00     0.021 A 
HETATM    2  C5  UNL     1     -34.689   5.700   4.558  1.00 20.00     0.091 A 
HETATM    3  C7  UNL     1     -33.412   5.910   3.769  1.00 20.00     0.005 A 
ENDROOT
BRANCH   2   4
HETATM    4  C1  UNL     1     -34.729   4.586   5.484  1.00 20.00     0.177 C 
HETATM    5  O8  UNL     1     -34.349   4.847   6.658  1.00 20.00    -0.648 OA
HETATM    6  O9  UNL     1     -35.141   3.499   4.988  1.00 20.00    -0.648 OA
ENDBRANCH   2   4
BRANCH   3   7
HETATM    7  C6  UNL     1     -32.847   7.295   3.488  1.00 20.00    -0.010 A 
HETATM    8  C2  UNL     1     -31.375   7.595   3.535  1.00 20.00     0.005 A 
HETATM    9  C3  UNL     1     -32.108   7.628   2.223  1.00 20.00     0.005 A 
ENDBRANCH   3   7
TORSDOF 2
ENDMDL
MODEL 4
REMARK VINA RESULT:      -4.6     10.971     11.897
REMARK  2 active torsions:
REMARK  status: ('A' for Active; 'I' for Inactive)
REMARK    1  A    between atoms: C1_1  and  C5_5 
REMARK    2  A    between atoms: C6_6  and  C7_7 
ROOT
HETATM    1  C4  UNL     1     -33.176  15.800  -4.247  1.00 20.00     0.021 A 
HETATM    2  C5  UNL     1     -34.329  14.880  -3.941  1.00 20.00     0.091 A 
HETATM    3  C7  UNL     1     -33.650  15.650  -2.826  1.00 20.00     0.005 A 
ENDROOT
BRANCH   2   4
HETATM    4  C1  UNL     1     -34.088  13.453  -4.013  1.00 20.00     0.177 C 
HETATM    5  O8  UNL     1     -32.902  13.094  -3.780  1.00 20.00    -0.648 OA
HETATM    6  O9  UNL     1     -35.103  12.758  -4.303  1.00 20.00    -0.648 OA
ENDBRANCH   2   4
BRANCH   3   7
HETATM    7  C6  UNL     1     -34.346  16.774  -2.072  1.00 20.00    -0.010 A 
HETATM    8  C2  UNL     1     -34.673  16.687  -0.607  1.00 20.00     0.005 A 
HETATM    9  C3  UNL     1     -33.630  17.656  -1.089  1.00 20.00     0.005 A 
ENDBRANCH   3   7
TORSDOF 2
ENDMDL
MODEL 5
REMARK VINA RESULT:      -4.6     10.971     11.857
REMARK  2 active torsions:
REMARK  status: ('A' for Active; 'I' for Inactive)
REMARK    1  A    between atoms: C1_1  and  C5_5 
REMARK    2  A    between atoms: C6_6  and  C7_7 
ROOT
HETATM    1  C4  UNL     1     -33.136  15.786  -4.225  1.00 20.00     0.021 A 
HETATM    2  C5  UNL     1     -34.313  14.891  -3.937  1.00 20.00     0.091 A 
HETATM    3  C7  UNL     1     -33.635  15.647  -2.811  1.00 20.00     0.005 A 
ENDROOT
BRANCH   2   4
HETATM    4  C1  UNL     1     -34.101  13.459  -4.006  1.00 20.00     0.177 C 
HETATM    5  O8  UNL     1     -35.125  12.774  -4.279  1.00 20.00    -0.648 OA
HETATM    6  O9  UNL     1     -32.914  13.087  -3.782  1.00 20.00    -0.648 OA
ENDBRANCH   2   4
BRANCH   3   7
HETATM    7  C6  UNL     1     -34.319  16.784  -2.068  1.00 20.00    -0.010 A 
HETATM    8  C2  UNL     1     -34.697  16.693  -0.616  1.00 20.00     0.005 A 
HETATM    9  C3  UNL     1     -33.608  17.633  -1.052  1.00 20.00     0.005 A 
ENDBRANCH   3   7
TORSDOF 2
ENDMDL
MODEL 6
REMARK VINA RESULT:      -4.2      1.328      1.834
REMARK  2 active torsions:
REMARK  status: ('A' for Active; 'I' for Inactive)
REMARK    1  A    between atoms: C1_1  and  C5_5 
REMARK    2  A    between atoms: C6_6  and  C7_7 
ROOT
HETATM    1  C4  UNL     1     -32.008   6.221   3.073  1.00 20.00     0.021 A 
HETATM    2  C5  UNL     1     -32.392   7.676   3.144  1.00 20.00     0.091 A 
HETATM    3  C7  UNL     1     -33.464   6.606   3.072  1.00 20.00     0.005 A 
ENDROOT
BRANCH   2   4
HETATM    4  C1  UNL     1     -32.175   8.488   1.964  1.00 20.00     0.177 C 
HETATM    5  O8  UNL     1     -31.455   7.960   1.072  1.00 20.00    -0.648 OA
HETATM    6  O9  UNL     1     -32.737   9.619   1.988  1.00 20.00    -0.648 OA
ENDBRANCH   2   4
BRANCH   3   7
HETATM    7  C6  UNL     1     -34.392   6.304   4.239  1.00 20.00    -0.010 A 
HETATM    8  C2  UNL     1     -35.304   5.110   4.262  1.00 20.00     0.005 A 
HETATM    9  C3  UNL     1     -34.138   5.182   5.207  1.00 20.00     0.005 A 
ENDBRANCH   3   7
TORSDOF 2
ENDMDL
MODEL 7
REMARK VINA RESULT:      -4.2      2.364      4.774
REMARK  2 active torsions:
REMARK  status: ('A' for Active; 'I' for Inactive)
REMARK    1  A    between atoms: C1_1  and  C5_5 
REMARK    2  A    between atoms: C6_6  and  C7_7 
ROOT
HETATM    1  C4  UNL     1     -31.528   7.419   3.726  1.00 20.00     0.021 A 
HETATM    2  C5  UNL     1     -32.435   6.496   2.954  1.00 20.00     0.091 A 
HETATM    3  C7  UNL     1     -32.412   7.980   2.644  1.00 20.00     0.005 A 
ENDROOT
BRANCH   2   4
HETATM    4  C1  UNL     1     -33.601   5.973   3.638  1.00 20.00     0.177 C 
HETATM    5  O8  UNL     1     -33.675   6.249   4.866  1.00 20.00    -0.648 OA
HETATM    6  O9  UNL     1     -34.389   5.306   2.908  1.00 20.00    -0.648 OA
ENDBRANCH   2   4
BRANCH   3   7
HETATM    7  C6  UNL     1     -31.860   8.530   1.337  1.00 20.00    -0.010 A 
HETATM    8  C2  UNL     1     -32.731   8.827   0.149  1.00 20.00     0.005 A 
HETATM    9  C3  UNL     1     -32.075   9.951   0.900  1.00 20.00     0.005 A 
ENDBRANCH   3   7
TORSDOF 2
ENDMDL
MODEL 8
REMARK VINA RESULT:      -4.1      2.338      4.173
REMARK  2 active torsions:
REMARK  status: ('A' for Active; 'I' for Inactive)
REMARK    1  A    between atoms: C1_1  and  C5_5 
REMARK    2  A    between atoms: C6_6  and  C7_7 
ROOT
HETATM    1  C4  UNL     1     -33.688   5.727   2.821  1.00 20.00     0.021 A 
HETATM    2  C5  UNL     1     -34.000   6.496   4.078  1.00 20.00     0.091 A 
HETATM    3  C7  UNL     1     -32.583   6.457   3.538  1.00 20.00     0.005 A 
ENDROOT
BRANCH   2   4
HETATM    4  C1  UNL     1     -34.280   5.736   5.280  1.00 20.00     0.177 C 
HETATM    5  O8  UNL     1     -34.710   4.565   5.088  1.00 20.00    -0.648 OA
HETATM    6  O9  UNL     1     -34.056   6.350   6.361  1.00 20.00    -0.648 OA
ENDBRANCH   2   4
BRANCH   3   7
HETATM    7  C6  UNL     1     -31.901   7.686   2.956  1.00 20.00    -0.010 A 
HETATM    8  C2  UNL     1     -31.805   7.936   1.477  1.00 20.00     0.005 A 
HETATM    9  C3  UNL     1     -32.665   8.821   2.335  1.00 20.00     0.005 A 
ENDBRANCH   3   7
TORSDOF 2
ENDMDL
MODEL 9
REMARK VINA RESULT:      -3.8     11.876     12.599
REMARK  2 active torsions:
REMARK  status: ('A' for Active; 'I' for Inactive)
REMARK    1  A    between atoms: C1_1  and  C5_5 
REMARK    2  A    between atoms: C6_6  and  C7_7 
ROOT
HETATM    1  C4  UNL     1     -34.694  15.018  -2.886  1.00 20.00     0.021 A 
HETATM    2  C5  UNL     1     -33.483  15.679  -3.491  1.00 20.00     0.091 A 
HETATM    3  C7  UNL     1     -34.377  16.449  -2.538  1.00 20.00     0.005 A 
ENDROOT
BRANCH   2   4
HETATM    4  C1  UNL     1     -33.540  16.031  -4.895  1.00 20.00     0.177 C 
HETATM    5  O8  UNL     1     -34.123  15.193  -5.637  1.00 20.00    -0.648 OA
HETATM    6  O9  UNL     1     -32.995  17.132  -5.188  1.00 20.00    -0.648 OA
ENDBRANCH   2   4
BRANCH   3   7
HETATM    7  C6  UNL     1     -33.916  16.872  -1.152  1.00 20.00    -0.010 A 
HETATM    8  C2  UNL     1     -34.055  18.280  -0.646  1.00 20.00     0.005 A 
HETATM    9  C3  UNL     1     -34.875  17.178  -0.036  1.00 20.00     0.005 A 
ENDBRANCH   3   7
TORSDOF 2
ENDMDL
