MODEL 1
REMARK VINA RESULT:      -4.3      0.000      0.000
REMARK  4 active torsions:
REMARK  status: ('A' for Active; 'I' for Inactive)
REMARK    1  A    between atoms: C2_2  and  C6_6 
REMARK    2  A    between atoms: C6_6  and  N10_10 
REMARK    3  A    between atoms: C7_7  and  N10_10 
REMARK    4  A    between atoms: C8_8  and  N10_10 
ROOT
HETATM    1  C1  UNL     1     -34.755  16.924  -0.395  1.00 20.00    -0.109 C 
HETATM    2  C2  UNL     1     -34.491  16.424  -1.455  1.00 20.00    -0.077 C 
HETATM    3  C4  UNL     1     -35.077  17.531   0.896  1.00 20.00     0.112 C 
ENDROOT
BRANCH   2   4
HETATM    4  C6  UNL     1     -34.170  15.821  -2.751  1.00 20.00     0.366 C 
BRANCH   4   5
HETATM    5  N10 UNL     1     -35.265  16.009  -3.701  1.00 20.00     0.111 N 
BRANCH   5   6
HETATM    6  C7  UNL     1     -36.133  14.833  -3.721  1.00 20.00     0.396 C 
HETATM    7  C3  UNL     1     -35.409  13.659  -4.204  1.00 20.00     0.089 C 
HETATM    8  N9  UNL     1     -34.837  12.724  -4.587  1.00 20.00    -0.195 NA
ENDBRANCH   5   6
BRANCH   5   9
HETATM    9  C8  UNL     1     -34.741  16.280  -5.039  1.00 20.00     0.270 C 
HETATM   10  C5  UNL     1     -33.292  16.626  -4.990  1.00 20.00     0.037 C 
ENDBRANCH   5   9
ENDBRANCH   4   5
ENDBRANCH   2   4
TORSDOF 4
ENDMDL
MODEL 2
REMARK VINA RESULT:      -4.0      1.452      1.815
REMARK  4 active torsions:
REMARK  status: ('A' for Active; 'I' for Inactive)
REMARK    1  A    between atoms: C2_2  and  C6_6 
REMARK    2  A    between atoms: C6_6  and  N10_10 
REMARK    3  A    between atoms: C7_7  and  N10_10 
REMARK    4  A    between atoms: C8_8  and  N10_10 
ROOT
HETATM    1  C1  UNL     1     -34.298  16.571  -1.437  1.00 20.00    -0.109 C 
HETATM    2  C2  UNL     1     -33.931  16.155  -2.503  1.00 20.00    -0.077 C 
HETATM    3  C4  UNL     1     -34.745  17.078  -0.141  1.00 20.00     0.112 C 
ENDROOT
BRANCH   2   4
HETATM    4  C6  UNL     1     -33.479  15.643  -3.800  1.00 20.00     0.366 C 
BRANCH   4   5
HETATM    5  N10 UNL     1     -34.576  15.621  -4.765  1.00 20.00     0.111 N 
BRANCH   5   6
HETATM    6  C7  UNL     1     -35.203  14.301  -4.798  1.00 20.00     0.396 C 
HETATM    7  C3  UNL     1     -36.537  14.342  -4.205  1.00 20.00     0.089 C 
HETATM    8  N9  UNL     1     -37.598  14.372  -3.734  1.00 20.00    -0.195 NA
ENDBRANCH   5   6
BRANCH   5   9
HETATM    9  C8  UNL     1     -34.095  15.993  -6.095  1.00 20.00     0.270 C 
HETATM   10  C5  UNL     1     -34.423  14.942  -7.100  1.00 20.00     0.037 C 
ENDBRANCH   5   9
ENDBRANCH   4   5
ENDBRANCH   2   4
TORSDOF 4
ENDMDL
MODEL 3
REMARK VINA RESULT:      -3.9      1.503      2.314
REMARK  4 active torsions:
REMARK  status: ('A' for Active; 'I' for Inactive)
REMARK    1  A    between atoms: C2_2  and  C6_6 
REMARK    2  A    between atoms: C6_6  and  N10_10 
REMARK    3  A    between atoms: C7_7  and  N10_10 
REMARK    4  A    between atoms: C8_8  and  N10_10 
ROOT
HETATM    1  C1  UNL     1     -34.604  16.536  -1.035  1.00 20.00    -0.109 C 
HETATM    2  C2  UNL     1     -34.416  15.902  -2.037  1.00 20.00    -0.077 C 
HETATM    3  C4  UNL     1     -34.834  17.309   0.185  1.00 20.00     0.112 C 
ENDROOT
BRANCH   2   4
HETATM    4  C6  UNL     1     -34.180  15.126  -3.258  1.00 20.00     0.366 C 
BRANCH   4   5
HETATM    5  N10 UNL     1     -35.385  14.402  -3.659  1.00 20.00     0.111 N 
BRANCH   5   6
HETATM    6  C7  UNL     1     -35.099  13.518  -4.788  1.00 20.00     0.396 C 
HETATM    7  C3  UNL     1     -34.723  14.288  -5.971  1.00 20.00     0.089 C 
HETATM    8  N9  UNL     1     -34.425  14.897  -6.914  1.00 20.00    -0.195 NA
ENDBRANCH   5   6
BRANCH   5   9
HETATM    9  C8  UNL     1     -36.454  15.339  -4.002  1.00 20.00     0.270 C 
HETATM   10  C5  UNL     1     -37.795  14.712  -3.830  1.00 20.00     0.037 C 
ENDBRANCH   5   9
ENDBRANCH   4   5
ENDBRANCH   2   4
TORSDOF 4
ENDMDL
MODEL 4
REMARK VINA RESULT:      -3.9      1.238      3.664
REMARK  4 active torsions:
REMARK  status: ('A' for Active; 'I' for Inactive)
REMARK    1  A    between atoms: C2_2  and  C6_6 
REMARK    2  A    between atoms: C6_6  and  N10_10 
REMARK    3  A    between atoms: C7_7  and  N10_10 
REMARK    4  A    between atoms: C8_8  and  N10_10 
ROOT
HETATM    1  C1  UNL     1     -33.561  17.626  -5.636  1.00 20.00    -0.109 C 
HETATM    2  C2  UNL     1     -33.311  16.718  -4.890  1.00 20.00    -0.077 C 
HETATM    3  C4  UNL     1     -33.863  18.731  -6.543  1.00 20.00     0.112 C 
ENDROOT
BRANCH   2   4
HETATM    4  C6  UNL     1     -33.013  15.610  -3.977  1.00 20.00     0.366 C 
BRANCH   4   5
HETATM    5  N10 UNL     1     -34.026  15.511  -2.928  1.00 20.00     0.111 N 
BRANCH   5   6
HETATM    6  C7  UNL     1     -35.292  15.034  -3.482  1.00 20.00     0.396 C 
HETATM    7  C3  UNL     1     -35.136  13.707  -4.072  1.00 20.00     0.089 C 
HETATM    8  N9  UNL     1     -35.015  12.652  -4.542  1.00 20.00    -0.195 NA
ENDBRANCH   5   6
BRANCH   5   9
HETATM    9  C8  UNL     1     -34.210  16.805  -2.271  1.00 20.00     0.270 C 
HETATM   10  C5  UNL     1     -34.595  16.633  -0.842  1.00 20.00     0.037 C 
ENDBRANCH   5   9
ENDBRANCH   4   5
ENDBRANCH   2   4
TORSDOF 4
ENDMDL
MODEL 5
REMARK VINA RESULT:      -3.8     11.234     12.372
REMARK  4 active torsions:
REMARK  status: ('A' for Active; 'I' for Inactive)
REMARK    1  A    between atoms: C2_2  and  C6_6 
REMARK    2  A    between atoms: C6_6  and  N10_10 
REMARK    3  A    between atoms: C7_7  and  N10_10 
REMARK    4  A    between atoms: C8_8  and  N10_10 
ROOT
HETATM    1  C1  UNL     1     -32.227   8.048   2.064  1.00 20.00    -0.109 C 
HETATM    2  C2  UNL     1     -32.433   7.202   2.892  1.00 20.00    -0.077 C 
HETATM    3  C4  UNL     1     -31.976   9.077   1.057  1.00 20.00     0.112 C 
ENDROOT
BRANCH   2   4
HETATM    4  C6  UNL     1     -32.690   6.173   3.904  1.00 20.00     0.366 C 
BRANCH   4   5
HETATM    5  N10 UNL     1     -34.063   6.258   4.397  1.00 20.00     0.111 N 
BRANCH   5   6
HETATM    6  C7  UNL     1     -34.119   5.913   5.817  1.00 20.00     0.396 C 
HETATM    7  C3  UNL     1     -33.605   7.007   6.639  1.00 20.00     0.089 C 
HETATM    8  N9  UNL     1     -33.197   7.874   7.295  1.00 20.00    -0.195 NA
ENDBRANCH   5   6
BRANCH   5   9
HETATM    9  C8  UNL     1     -34.940   5.379   3.623  1.00 20.00     0.270 C 
HETATM   10  C5  UNL     1     -35.362   4.196   4.426  1.00 20.00     0.037 C 
ENDBRANCH   5   9
ENDBRANCH   4   5
ENDBRANCH   2   4
TORSDOF 4
ENDMDL
MODEL 6
REMARK VINA RESULT:      -3.8      1.355      2.561
REMARK  4 active torsions:
REMARK  status: ('A' for Active; 'I' for Inactive)
REMARK    1  A    between atoms: C2_2  and  C6_6 
REMARK    2  A    between atoms: C6_6  and  N10_10 
REMARK    3  A    between atoms: C7_7  and  N10_10 
REMARK    4  A    between atoms: C8_8  and  N10_10 
ROOT
HETATM    1  C1  UNL     1     -34.656  16.911  -0.505  1.00 20.00    -0.109 C 
HETATM    2  C2  UNL     1     -34.761  16.291  -1.529  1.00 20.00    -0.077 C 
HETATM    3  C4  UNL     1     -34.530  17.666   0.740  1.00 20.00     0.112 C 
ENDROOT
BRANCH   2   4
HETATM    4  C6  UNL     1     -34.884  15.529  -2.775  1.00 20.00     0.366 C 
BRANCH   4   5
HETATM    5  N10 UNL     1     -33.571  15.274  -3.364  1.00 20.00     0.111 N 
BRANCH   5   6
HETATM    6  C7  UNL     1     -33.226  16.325  -4.320  1.00 20.00     0.396 C 
HETATM    7  C3  UNL     1     -34.275  16.480  -5.325  1.00 20.00     0.089 C 
HETATM    8  N9  UNL     1     -35.106  16.606  -6.126  1.00 20.00    -0.195 NA
ENDBRANCH   5   6
BRANCH   5   9
HETATM    9  C8  UNL     1     -33.548  13.964  -4.013  1.00 20.00     0.270 C 
HETATM   10  C5  UNL     1     -34.911  13.364  -4.066  1.00 20.00     0.037 C 
ENDBRANCH   5   9
ENDBRANCH   4   5
ENDBRANCH   2   4
TORSDOF 4
ENDMDL
MODEL 7
REMARK VINA RESULT:      -3.6     10.987     12.004
REMARK  4 active torsions:
REMARK  status: ('A' for Active; 'I' for Inactive)
REMARK    1  A    between atoms: C2_2  and  C6_6 
REMARK    2  A    between atoms: C6_6  and  N10_10 
REMARK    3  A    between atoms: C7_7  and  N10_10 
REMARK    4  A    between atoms: C8_8  and  N10_10 
ROOT
HETATM    1  C1  UNL     1     -32.309   8.528   2.039  1.00 20.00    -0.109 C 
HETATM    2  C2  UNL     1     -32.225   7.450   2.563  1.00 20.00    -0.077 C 
HETATM    3  C4  UNL     1     -32.413   9.839   1.401  1.00 20.00     0.112 C 
ENDROOT
BRANCH   2   4
HETATM    4  C6  UNL     1     -32.116   6.134   3.199  1.00 20.00     0.366 C 
BRANCH   4   5
HETATM    5  N10 UNL     1     -33.101   5.988   4.270  1.00 20.00     0.111 N 
BRANCH   5   6
HETATM    6  C7  UNL     1     -34.409   5.640   3.717  1.00 20.00     0.396 C 
HETATM    7  C3  UNL     1     -35.023   4.553   4.477  1.00 20.00     0.089 C 
HETATM    8  N9  UNL     1     -35.513   3.689   5.078  1.00 20.00    -0.195 NA
ENDBRANCH   5   6
BRANCH   5   9
HETATM    9  C8  UNL     1     -33.189   7.218   5.056  1.00 20.00     0.270 C 
HETATM   10  C5  UNL     1     -33.627   6.936   6.452  1.00 20.00     0.037 C 
ENDBRANCH   5   9
ENDBRANCH   4   5
ENDBRANCH   2   4
TORSDOF 4
ENDMDL
MODEL 8
REMARK VINA RESULT:      -3.5      1.440      2.625
REMARK  4 active torsions:
REMARK  status: ('A' for Active; 'I' for Inactive)
REMARK    1  A    between atoms: C2_2  and  C6_6 
REMARK    2  A    between atoms: C6_6  and  N10_10 
REMARK    3  A    between atoms: C7_7  and  N10_10 
REMARK    4  A    between atoms: C8_8  and  N10_10 
ROOT
HETATM    1  C1  UNL     1     -34.382  16.691  -1.214  1.00 20.00    -0.109 C 
HETATM    2  C2  UNL     1     -33.973  16.296  -2.272  1.00 20.00    -0.077 C 
HETATM    3  C4  UNL     1     -34.880  17.170   0.074  1.00 20.00     0.112 C 
ENDROOT
BRANCH   2   4
HETATM    4  C6  UNL     1     -33.473  15.822  -3.566  1.00 20.00     0.366 C 
BRANCH   4   5
HETATM    5  N10 UNL     1     -34.570  15.634  -4.513  1.00 20.00     0.111 N 
BRANCH   5   6
HETATM    6  C7  UNL     1     -35.249  16.903  -4.768  1.00 20.00     0.396 C 
HETATM    7  C3  UNL     1     -36.139  16.796  -5.922  1.00 20.00     0.089 C 
HETATM    8  N9  UNL     1     -36.847  16.713  -6.839  1.00 20.00    -0.195 NA
ENDBRANCH   5   6
BRANCH   5   9
HETATM    9  C8  UNL     1     -35.516  14.639  -4.009  1.00 20.00     0.270 C 
HETATM   10  C5  UNL     1     -35.061  13.255  -4.322  1.00 20.00     0.037 C 
ENDBRANCH   5   9
ENDBRANCH   4   5
ENDBRANCH   2   4
TORSDOF 4
ENDMDL
MODEL 9
REMARK VINA RESULT:      -3.4     10.506     12.434
REMARK  4 active torsions:
REMARK  status: ('A' for Active; 'I' for Inactive)
REMARK    1  A    between atoms: C2_2  and  C6_6 
REMARK    2  A    between atoms: C6_6  and  N10_10 
REMARK    3  A    between atoms: C7_7  and  N10_10 
REMARK    4  A    between atoms: C8_8  and  N10_10 
ROOT
HETATM    1  C1  UNL     1     -42.357   8.447  -4.434  1.00 20.00    -0.109 C 
HETATM    2  C2  UNL     1     -42.633   7.505  -3.741  1.00 20.00    -0.077 C 
HETATM    3  C4  UNL     1     -42.021   9.595  -5.275  1.00 20.00     0.112 C 
ENDROOT
BRANCH   2   4
HETATM    4  C6  UNL     1     -42.970   6.351  -2.903  1.00 20.00     0.366 C 
BRANCH   4   5
HETATM    5  N10 UNL     1     -41.774   5.802  -2.265  1.00 20.00     0.111 N 
BRANCH   5   6
HETATM    6  C7  UNL     1     -42.077   4.523  -1.626  1.00 20.00     0.396 C 
HETATM    7  C3  UNL     1     -41.754   3.407  -2.513  1.00 20.00     0.089 C 
HETATM    8  N9  UNL     1     -41.498   2.519  -3.215  1.00 20.00    -0.195 NA
ENDBRANCH   5   6
BRANCH   5   9
HETATM    9  C8  UNL     1     -41.236   6.748  -1.288  1.00 20.00     0.270 C 
HETATM   10  C5  UNL     1     -40.775   6.046  -0.056  1.00 20.00     0.037 C 
ENDBRANCH   5   9
ENDBRANCH   4   5
ENDBRANCH   2   4
TORSDOF 4
ENDMDL
