MODEL 1
REMARK VINA RESULT:      -5.9      0.000      0.000
REMARK  3 active torsions:
REMARK  status: ('A' for Active; 'I' for Inactive)
REMARK    1  A    between atoms: C2_2  and  C10_10 
REMARK    2  A    between atoms: C7_7  and  N11_11 
REMARK    3  A    between atoms: C10_10  and  N11_11 
ROOT
HETATM    1  C1  UNL     1     -32.243   8.435   1.860  1.00 20.00    -0.109 C 
HETATM    2  C2  UNL     1     -32.311   7.415   2.491  1.00 20.00    -0.077 C 
HETATM    3  C8  UNL     1     -32.161   9.677   1.092  1.00 20.00     0.112 C 
ENDROOT
BRANCH   2   4
HETATM    4  C10 UNL     1     -32.401   6.171   3.260  1.00 20.00     0.363 C 
BRANCH   4   5
HETATM    5  N11 UNL     1     -33.615   5.443   2.930  1.00 20.00     0.103 N 
HETATM    6  H28 UNL     1     -33.384   4.484   2.690  1.00 20.00     0.318 HD
BRANCH   5   7
HETATM    7  C7  UNL     1     -34.522   5.432   4.055  1.00 20.00     0.155 C 
HETATM    8  C5  UNL     1     -33.946   6.224   5.235  1.00 20.00     0.041 C 
HETATM    9  C3  UNL     1     -34.637   5.656   6.471  1.00 20.00     0.003 C 
HETATM   10  C4  UNL     1     -35.084   4.243   6.097  1.00 20.00     0.003 C 
HETATM   11  C6  UNL     1     -34.642   4.026   4.653  1.00 20.00     0.041 C 
HETATM   12  C9  UNL     1     -35.883   5.981   3.613  1.00 20.00     0.049 C 
ENDBRANCH   5   7
ENDBRANCH   4   5
ENDBRANCH   2   4
TORSDOF 3
ENDMDL
MODEL 2
REMARK VINA RESULT:      -4.6     11.328     12.276
REMARK  3 active torsions:
REMARK  status: ('A' for Active; 'I' for Inactive)
REMARK    1  A    between atoms: C2_2  and  C10_10 
REMARK    2  A    between atoms: C7_7  and  N11_11 
REMARK    3  A    between atoms: C10_10  and  N11_11 
ROOT
HETATM    1  C1  UNL     1     -34.855  17.150   0.146  1.00 20.00    -0.109 C 
HETATM    2  C2  UNL     1     -34.554  16.719  -0.934  1.00 20.00    -0.077 C 
HETATM    3  C8  UNL     1     -35.221  17.675   1.461  1.00 20.00     0.112 C 
ENDROOT
BRANCH   2   4
HETATM    4  C10 UNL     1     -34.180  16.195  -2.251  1.00 20.00     0.363 C 
BRANCH   4   5
HETATM    5  N11 UNL     1     -35.226  16.452  -3.228  1.00 20.00     0.103 N 
HETATM    6  H28 UNL     1     -34.920  17.173  -3.874  1.00 20.00     0.318 HD
BRANCH   5   7
HETATM    7  C7  UNL     1     -35.524  15.254  -3.979  1.00 20.00     0.155 C 
HETATM    8  C5  UNL     1     -34.539  14.130  -3.638  1.00 20.00     0.041 C 
HETATM    9  C3  UNL     1     -34.554  13.206  -4.853  1.00 20.00     0.003 C 
HETATM   10  C4  UNL     1     -35.016  14.061  -6.032  1.00 20.00     0.003 C 
HETATM   11  C6  UNL     1     -35.258  15.460  -5.475  1.00 20.00     0.041 C 
HETATM   12  C9  UNL     1     -36.975  14.838  -3.711  1.00 20.00     0.049 C 
ENDBRANCH   5   7
ENDBRANCH   4   5
ENDBRANCH   2   4
TORSDOF 3
ENDMDL
MODEL 3
REMARK VINA RESULT:      -4.6     11.139     12.610
REMARK  3 active torsions:
REMARK  status: ('A' for Active; 'I' for Inactive)
REMARK    1  A    between atoms: C2_2  and  C10_10 
REMARK    2  A    between atoms: C7_7  and  N11_11 
REMARK    3  A    between atoms: C10_10  and  N11_11 
ROOT
HETATM    1  C1  UNL     1     -34.793  17.105  -0.065  1.00 20.00    -0.109 C 
HETATM    2  C2  UNL     1     -34.446  16.695  -1.140  1.00 20.00    -0.077 C 
HETATM    3  C8  UNL     1     -35.216  17.601   1.244  1.00 20.00     0.112 C 
ENDROOT
BRANCH   2   4
HETATM    4  C10 UNL     1     -34.029  16.200  -2.455  1.00 20.00     0.363 C 
BRANCH   4   5
HETATM    5  N11 UNL     1     -35.050  15.342  -3.034  1.00 20.00     0.103 N 
HETATM    6  H28 UNL     1     -35.897  15.880  -3.194  1.00 20.00     0.318 HD
BRANCH   5   7
HETATM    7  C7  UNL     1     -34.601  14.800  -4.296  1.00 20.00     0.155 C 
HETATM    8  C5  UNL     1     -33.947  15.885  -5.161  1.00 20.00     0.041 C 
HETATM    9  C3  UNL     1     -34.080  15.383  -6.596  1.00 20.00     0.003 C 
HETATM   10  C4  UNL     1     -35.264  14.416  -6.601  1.00 20.00     0.003 C 
HETATM   11  C6  UNL     1     -35.789  14.379  -5.169  1.00 20.00     0.041 C 
HETATM   12  C9  UNL     1     -33.646  13.630  -4.033  1.00 20.00     0.049 C 
ENDBRANCH   5   7
ENDBRANCH   4   5
ENDBRANCH   2   4
TORSDOF 3
ENDMDL
MODEL 4
REMARK VINA RESULT:      -4.5     11.863     13.178
REMARK  3 active torsions:
REMARK  status: ('A' for Active; 'I' for Inactive)
REMARK    1  A    between atoms: C2_2  and  C10_10 
REMARK    2  A    between atoms: C7_7  and  N11_11 
REMARK    3  A    between atoms: C10_10  and  N11_11 
ROOT
HETATM    1  C1  UNL     1     -34.109  16.501  -1.730  1.00 20.00    -0.109 C 
HETATM    2  C2  UNL     1     -33.708  15.848  -2.655  1.00 20.00    -0.077 C 
HETATM    3  C8  UNL     1     -34.597  17.298  -0.605  1.00 20.00     0.112 C 
ENDROOT
BRANCH   2   4
HETATM    4  C10 UNL     1     -33.213  15.056  -3.784  1.00 20.00     0.363 C 
BRANCH   4   5
HETATM    5  N11 UNL     1     -33.569  15.676  -5.049  1.00 20.00     0.103 N 
HETATM    6  H28 UNL     1     -32.751  15.718  -5.651  1.00 20.00     0.318 HD
BRANCH   5   7
HETATM    7  C7  UNL     1     -34.596  14.912  -5.719  1.00 20.00     0.155 C 
HETATM    8  C5  UNL     1     -34.382  14.911  -7.237  1.00 20.00     0.041 C 
HETATM    9  C3  UNL     1     -35.760  14.638  -7.833  1.00 20.00     0.003 C 
HETATM   10  C4  UNL     1     -36.775  15.079  -6.779  1.00 20.00     0.003 C 
HETATM   11  C6  UNL     1     -35.962  15.597  -5.597  1.00 20.00     0.041 C 
HETATM   12  C9  UNL     1     -34.621  13.489  -5.148  1.00 20.00     0.049 C 
ENDBRANCH   5   7
ENDBRANCH   4   5
ENDBRANCH   2   4
TORSDOF 3
ENDMDL
MODEL 5
REMARK VINA RESULT:      -4.4      9.045     11.111
REMARK  3 active torsions:
REMARK  status: ('A' for Active; 'I' for Inactive)
REMARK    1  A    between atoms: C2_2  and  C10_10 
REMARK    2  A    between atoms: C7_7  and  N11_11 
REMARK    3  A    between atoms: C10_10  and  N11_11 
ROOT
HETATM    1  C1  UNL     1     -41.749   0.661  -3.764  1.00 20.00    -0.109 C 
HETATM    2  C2  UNL     1     -41.946   1.798  -3.426  1.00 20.00    -0.077 C 
HETATM    3  C8  UNL     1     -41.512  -0.721  -4.176  1.00 20.00     0.112 C 
ENDROOT
BRANCH   2   4
HETATM    4  C10 UNL     1     -42.191   3.182  -3.011  1.00 20.00     0.363 C 
BRANCH   4   5
HETATM    5  N11 UNL     1     -41.447   3.501  -1.804  1.00 20.00     0.103 N 
HETATM    6  H28 UNL     1     -40.453   3.524  -2.011  1.00 20.00     0.318 HD
BRANCH   5   7
HETATM    7  C7  UNL     1     -41.842   4.793  -1.290  1.00 20.00     0.155 C 
HETATM    8  C5  UNL     1     -42.254   5.735  -2.427  1.00 20.00     0.041 C 
HETATM    9  C3  UNL     1     -42.053   7.142  -1.870  1.00 20.00     0.003 C 
HETATM   10  C4  UNL     1     -41.020   7.014  -0.751  1.00 20.00     0.003 C 
HETATM   11  C6  UNL     1     -40.645   5.536  -0.686  1.00 20.00     0.041 C 
HETATM   12  C9  UNL     1     -42.971   4.607  -0.269  1.00 20.00     0.049 C 
ENDBRANCH   5   7
ENDBRANCH   4   5
ENDBRANCH   2   4
TORSDOF 3
ENDMDL
MODEL 6
REMARK VINA RESULT:      -4.3      1.050      1.747
REMARK  3 active torsions:
REMARK  status: ('A' for Active; 'I' for Inactive)
REMARK    1  A    between atoms: C2_2  and  C10_10 
REMARK    2  A    between atoms: C7_7  and  N11_11 
REMARK    3  A    between atoms: C10_10  and  N11_11 
ROOT
HETATM    1  C1  UNL     1     -32.247   8.534   1.791  1.00 20.00    -0.109 C 
HETATM    2  C2  UNL     1     -32.282   7.521   2.437  1.00 20.00    -0.077 C 
HETATM    3  C8  UNL     1     -32.203   9.767   1.007  1.00 20.00     0.112 C 
ENDROOT
BRANCH   2   4
HETATM    4  C10 UNL     1     -32.329   6.289   3.229  1.00 20.00     0.363 C 
BRANCH   4   5
HETATM    5  N11 UNL     1     -32.506   6.586   4.641  1.00 20.00     0.103 N 
HETATM    6  H28 UNL     1     -32.543   7.592   4.776  1.00 20.00     0.318 HD
BRANCH   5   7
HETATM    7  C7  UNL     1     -33.737   6.008   5.130  1.00 20.00     0.155 C 
HETATM    8  C5  UNL     1     -33.554   4.524   5.466  1.00 20.00     0.041 C 
HETATM    9  C3  UNL     1     -34.952   3.919   5.371  1.00 20.00     0.003 C 
HETATM   10  C4  UNL     1     -35.750   4.835   4.445  1.00 20.00     0.003 C 
HETATM   11  C6  UNL     1     -34.797   5.949   4.024  1.00 20.00     0.041 C 
HETATM   12  C9  UNL     1     -34.225   6.810   6.343  1.00 20.00     0.049 C 
ENDBRANCH   5   7
ENDBRANCH   4   5
ENDBRANCH   2   4
TORSDOF 3
ENDMDL
MODEL 7
REMARK VINA RESULT:      -4.2     11.561     13.368
REMARK  3 active torsions:
REMARK  status: ('A' for Active; 'I' for Inactive)
REMARK    1  A    between atoms: C2_2  and  C10_10 
REMARK    2  A    between atoms: C7_7  and  N11_11 
REMARK    3  A    between atoms: C10_10  and  N11_11 
ROOT
HETATM    1  C1  UNL     1     -34.415  16.289  -1.664  1.00 20.00    -0.109 C 
HETATM    2  C2  UNL     1     -34.420  15.496  -2.567  1.00 20.00    -0.077 C 
HETATM    3  C8  UNL     1     -34.411  17.253  -0.565  1.00 20.00     0.112 C 
ENDROOT
BRANCH   2   4
HETATM    4  C10 UNL     1     -34.428  14.535  -3.673  1.00 20.00     0.363 C 
BRANCH   4   5
HETATM    5  N11 UNL     1     -33.722  15.065  -4.827  1.00 20.00     0.103 N 
HETATM    6  H28 UNL     1     -33.141  14.339  -5.236  1.00 20.00     0.318 HD
BRANCH   5   7
HETATM    7  C7  UNL     1     -34.658  15.526  -5.828  1.00 20.00     0.155 C 
HETATM    8  C5  UNL     1     -36.083  15.061  -5.505  1.00 20.00     0.041 C 
HETATM    9  C3  UNL     1     -36.814  15.060  -6.845  1.00 20.00     0.003 C 
HETATM   10  C4  UNL     1     -35.735  14.919  -7.918  1.00 20.00     0.003 C 
HETATM   11  C6  UNL     1     -34.404  14.842  -7.176  1.00 20.00     0.041 C 
HETATM   12  C9  UNL     1     -34.569  17.052  -5.939  1.00 20.00     0.049 C 
ENDBRANCH   5   7
ENDBRANCH   4   5
ENDBRANCH   2   4
TORSDOF 3
ENDMDL
MODEL 8
REMARK VINA RESULT:      -4.1     11.244     12.789
REMARK  3 active torsions:
REMARK  status: ('A' for Active; 'I' for Inactive)
REMARK    1  A    between atoms: C2_2  and  C10_10 
REMARK    2  A    between atoms: C7_7  and  N11_11 
REMARK    3  A    between atoms: C10_10  and  N11_11 
ROOT
HETATM    1  C1  UNL     1     -32.939  18.419  -0.755  1.00 20.00    -0.109 C 
HETATM    2  C2  UNL     1     -33.589  18.139  -1.726  1.00 20.00    -0.077 C 
HETATM    3  C8  UNL     1     -32.147  18.759   0.427  1.00 20.00     0.112 C 
ENDROOT
BRANCH   2   4
HETATM    4  C10 UNL     1     -34.384  17.791  -2.907  1.00 20.00     0.363 C 
BRANCH   4   5
HETATM    5  N11 UNL     1     -33.527  17.368  -4.002  1.00 20.00     0.103 N 
HETATM    6  H28 UNL     1     -32.556  17.398  -3.708  1.00 20.00     0.318 HD
BRANCH   5   7
HETATM    7  C7  UNL     1     -33.847  16.017  -4.403  1.00 20.00     0.155 C 
HETATM    8  C5  UNL     1     -35.176  15.560  -3.791  1.00 20.00     0.041 C 
HETATM    9  C3  UNL     1     -35.099  14.036  -3.764  1.00 20.00     0.003 C 
HETATM   10  C4  UNL     1     -33.612  13.685  -3.766  1.00 20.00     0.003 C 
HETATM   11  C6  UNL     1     -32.861  15.013  -3.794  1.00 20.00     0.041 C 
HETATM   12  C9  UNL     1     -33.868  15.935  -5.934  1.00 20.00     0.049 C 
ENDBRANCH   5   7
ENDBRANCH   4   5
ENDBRANCH   2   4
TORSDOF 3
ENDMDL
MODEL 9
REMARK VINA RESULT:      -4.1     11.315     12.810
REMARK  3 active torsions:
REMARK  status: ('A' for Active; 'I' for Inactive)
REMARK    1  A    between atoms: C2_2  and  C10_10 
REMARK    2  A    between atoms: C7_7  and  N11_11 
REMARK    3  A    between atoms: C10_10  and  N11_11 
ROOT
HETATM    1  C1  UNL     1     -39.575  14.755  -4.309  1.00 20.00    -0.109 C 
HETATM    2  C2  UNL     1     -38.392  14.698  -4.107  1.00 20.00    -0.077 C 
HETATM    3  C8  UNL     1     -41.015  14.824  -4.552  1.00 20.00     0.112 C 
ENDROOT
BRANCH   2   4
HETATM    4  C10 UNL     1     -36.950  14.624  -3.858  1.00 20.00     0.363 C 
BRANCH   4   5
HETATM    5  N11 UNL     1     -36.560  15.534  -2.794  1.00 20.00     0.103 N 
HETATM    6  H28 UNL     1     -36.779  15.120  -1.892  1.00 20.00     0.318 HD
BRANCH   5   7
HETATM    7  C7  UNL     1     -35.140  15.799  -2.848  1.00 20.00     0.155 C 
HETATM    8  C5  UNL     1     -34.804  16.777  -3.979  1.00 20.00     0.041 C 
HETATM    9  C3  UNL     1     -33.340  16.506  -4.318  1.00 20.00     0.003 C 
HETATM   10  C4  UNL     1     -33.057  15.074  -3.865  1.00 20.00     0.003 C 
HETATM   11  C6  UNL     1     -34.361  14.548  -3.275  1.00 20.00     0.041 C 
HETATM   12  C9  UNL     1     -34.671  16.322  -1.485  1.00 20.00     0.049 C 
ENDBRANCH   5   7
ENDBRANCH   4   5
ENDBRANCH   2   4
TORSDOF 3
ENDMDL
