MODEL 1
REMARK VINA RESULT:      -5.3      0.000      0.000
REMARK  4 active torsions:
REMARK  status: ('A' for Active; 'I' for Inactive)
REMARK    1  A    between atoms: C2_2  and  C6_6 
REMARK    2  A    between atoms: C3_3  and  C6_6 
REMARK    3  A    between atoms: C3_3  and  C7_7 
REMARK    4  A    between atoms: C7_7  and  C8_8 
ROOT
HETATM    1  C1  UNL     1     -32.252   8.364   1.940  1.00 20.00    -0.111 C 
HETATM    2  C2  UNL     1     -32.353   7.375   2.614  1.00 20.00    -0.100 C 
HETATM    3  C4  UNL     1     -32.130   9.568   1.119  1.00 20.00     0.112 C 
ENDROOT
BRANCH   2   4
HETATM    4  C6  UNL     1     -32.477   6.170   3.442  1.00 20.00     0.172 C 
BRANCH   4   5
HETATM    5  C3  UNL     1     -33.847   6.042   4.084  1.00 20.00     0.137 C 
HETATM    6  O9  UNL     1     -34.850   5.726   3.444  1.00 20.00    -0.297 OA
BRANCH   5   7
HETATM    7  C7  UNL     1     -33.899   6.332   5.577  1.00 20.00     0.079 C 
BRANCH   7   8
HETATM    8  C8  UNL     1     -34.790   5.353   6.334  1.00 20.00     0.003 C 
HETATM    9  C5  UNL     1     -34.543   3.919   5.894  1.00 20.00     0.005 C 
ENDBRANCH   7   8
ENDBRANCH   5   7
ENDBRANCH   4   5
ENDBRANCH   2   4
TORSDOF 4
ENDMDL
MODEL 2
REMARK VINA RESULT:      -5.3      1.153      1.319
REMARK  4 active torsions:
REMARK  status: ('A' for Active; 'I' for Inactive)
REMARK    1  A    between atoms: C2_2  and  C6_6 
REMARK    2  A    between atoms: C3_3  and  C6_6 
REMARK    3  A    between atoms: C3_3  and  C7_7 
REMARK    4  A    between atoms: C7_7  and  C8_8 
ROOT
HETATM    1  C1  UNL     1     -32.220   8.565   1.824  1.00 20.00    -0.111 C 
HETATM    2  C2  UNL     1     -32.204   7.566   2.491  1.00 20.00    -0.100 C 
HETATM    3  C4  UNL     1     -32.240   9.780   1.012  1.00 20.00     0.112 C 
ENDROOT
BRANCH   2   4
HETATM    4  C6  UNL     1     -32.188   6.349   3.310  1.00 20.00     0.172 C 
BRANCH   4   5
HETATM    5  C3  UNL     1     -33.413   6.227   4.198  1.00 20.00     0.137 C 
HETATM    6  O9  UNL     1     -33.478   6.751   5.310  1.00 20.00    -0.297 OA
BRANCH   5   7
HETATM    7  C7  UNL     1     -34.560   5.410   3.621  1.00 20.00     0.079 C 
BRANCH   7   8
HETATM    8  C8  UNL     1     -35.504   4.883   4.697  1.00 20.00     0.003 C 
HETATM    9  C5  UNL     1     -34.810   3.884   5.608  1.00 20.00     0.005 C 
ENDBRANCH   7   8
ENDBRANCH   5   7
ENDBRANCH   4   5
ENDBRANCH   2   4
TORSDOF 4
ENDMDL
MODEL 3
REMARK VINA RESULT:      -5.0      1.524      2.014
REMARK  4 active torsions:
REMARK  status: ('A' for Active; 'I' for Inactive)
REMARK    1  A    between atoms: C2_2  and  C6_6 
REMARK    2  A    between atoms: C3_3  and  C6_6 
REMARK    3  A    between atoms: C3_3  and  C7_7 
REMARK    4  A    between atoms: C7_7  and  C8_8 
ROOT
HETATM    1  C1  UNL     1     -32.164   6.961   3.373  1.00 20.00    -0.111 C 
HETATM    2  C2  UNL     1     -33.017   6.157   3.111  1.00 20.00    -0.100 C 
HETATM    3  C4  UNL     1     -31.125   7.939   3.692  1.00 20.00     0.112 C 
ENDROOT
BRANCH   2   4
HETATM    4  C6  UNL     1     -34.062   5.176   2.796  1.00 20.00     0.172 C 
BRANCH   4   5
HETATM    5  C3  UNL     1     -35.158   5.135   3.846  1.00 20.00     0.137 C 
HETATM    6  O9  UNL     1     -36.221   5.743   3.716  1.00 20.00    -0.297 OA
BRANCH   5   7
HETATM    7  C7  UNL     1     -34.855   4.290   5.075  1.00 20.00     0.079 C 
BRANCH   7   8
HETATM    8  C8  UNL     1     -35.025   5.066   6.377  1.00 20.00     0.003 C 
HETATM    9  C5  UNL     1     -34.121   6.288   6.420  1.00 20.00     0.005 C 
ENDBRANCH   7   8
ENDBRANCH   5   7
ENDBRANCH   4   5
ENDBRANCH   2   4
TORSDOF 4
ENDMDL
MODEL 4
REMARK VINA RESULT:      -4.7      1.303      5.123
REMARK  4 active torsions:
REMARK  status: ('A' for Active; 'I' for Inactive)
REMARK    1  A    between atoms: C2_2  and  C6_6 
REMARK    2  A    between atoms: C3_3  and  C6_6 
REMARK    3  A    between atoms: C3_3  and  C7_7 
REMARK    4  A    between atoms: C7_7  and  C8_8 
ROOT
HETATM    1  C1  UNL     1     -34.772   5.087   5.287  1.00 20.00    -0.111 C 
HETATM    2  C2  UNL     1     -34.411   5.809   4.398  1.00 20.00    -0.100 C 
HETATM    3  C4  UNL     1     -35.212   4.208   6.369  1.00 20.00     0.112 C 
ENDROOT
BRANCH   2   4
HETATM    4  C6  UNL     1     -33.964   6.686   3.310  1.00 20.00     0.172 C 
BRANCH   4   5
HETATM    5  C3  UNL     1     -32.462   6.632   3.095  1.00 20.00     0.137 C 
HETATM    6  O9  UNL     1     -31.830   5.576   3.114  1.00 20.00    -0.297 OA
BRANCH   5   7
HETATM    7  C7  UNL     1     -31.787   7.974   2.852  1.00 20.00     0.079 C 
BRANCH   7   8
HETATM    8  C8  UNL     1     -31.928   8.450   1.410  1.00 20.00     0.003 C 
HETATM    9  C5  UNL     1     -32.443   9.878   1.342  1.00 20.00     0.005 C 
ENDBRANCH   7   8
ENDBRANCH   5   7
ENDBRANCH   4   5
ENDBRANCH   2   4
TORSDOF 4
ENDMDL
MODEL 5
REMARK VINA RESULT:      -4.5     10.934     11.843
REMARK  4 active torsions:
REMARK  status: ('A' for Active; 'I' for Inactive)
REMARK    1  A    between atoms: C2_2  and  C6_6 
REMARK    2  A    between atoms: C3_3  and  C6_6 
REMARK    3  A    between atoms: C3_3  and  C7_7 
REMARK    4  A    between atoms: C7_7  and  C8_8 
ROOT
HETATM    1  C1  UNL     1     -34.311  16.477  -1.477  1.00 20.00    -0.111 C 
HETATM    2  C2  UNL     1     -33.884  15.994  -2.490  1.00 20.00    -0.100 C 
HETATM    3  C4  UNL     1     -34.830  17.065  -0.244  1.00 20.00     0.112 C 
ENDROOT
BRANCH   2   4
HETATM    4  C6  UNL     1     -33.368  15.405  -3.731  1.00 20.00     0.172 C 
BRANCH   4   5
HETATM    5  C3  UNL     1     -33.754  13.945  -3.889  1.00 20.00     0.137 C 
HETATM    6  O9  UNL     1     -32.944  13.028  -3.748  1.00 20.00    -0.297 OA
BRANCH   5   7
HETATM    7  C7  UNL     1     -35.213  13.688  -4.234  1.00 20.00     0.079 C 
BRANCH   7   8
HETATM    8  C8  UNL     1     -35.738  14.635  -5.308  1.00 20.00     0.003 C 
HETATM    9  C5  UNL     1     -35.212  14.264  -6.685  1.00 20.00     0.005 C 
ENDBRANCH   7   8
ENDBRANCH   5   7
ENDBRANCH   4   5
ENDBRANCH   2   4
TORSDOF 4
ENDMDL
MODEL 6
REMARK VINA RESULT:      -4.5     11.221     12.476
REMARK  4 active torsions:
REMARK  status: ('A' for Active; 'I' for Inactive)
REMARK    1  A    between atoms: C2_2  and  C6_6 
REMARK    2  A    between atoms: C3_3  and  C6_6 
REMARK    3  A    between atoms: C3_3  and  C7_7 
REMARK    4  A    between atoms: C7_7  and  C8_8 
ROOT
HETATM    1  C1  UNL     1     -34.399  16.034  -2.045  1.00 20.00    -0.111 C 
HETATM    2  C2  UNL     1     -34.030  15.309  -2.928  1.00 20.00    -0.100 C 
HETATM    3  C4  UNL     1     -34.848  16.917  -0.970  1.00 20.00     0.112 C 
ENDROOT
BRANCH   2   4
HETATM    4  C6  UNL     1     -33.582  14.418  -4.004  1.00 20.00     0.172 C 
BRANCH   4   5
HETATM    5  C3  UNL     1     -34.735  13.708  -4.692  1.00 20.00     0.137 C 
HETATM    6  O9  UNL     1     -35.084  12.567  -4.389  1.00 20.00    -0.297 OA
BRANCH   5   7
HETATM    7  C7  UNL     1     -35.432  14.504  -5.786  1.00 20.00     0.079 C 
BRANCH   7   8
HETATM    8  C8  UNL     1     -34.479  14.935  -6.897  1.00 20.00     0.003 C 
HETATM    9  C5  UNL     1     -34.456  16.446  -7.057  1.00 20.00     0.005 C 
ENDBRANCH   7   8
ENDBRANCH   5   7
ENDBRANCH   4   5
ENDBRANCH   2   4
TORSDOF 4
ENDMDL
MODEL 7
REMARK VINA RESULT:      -4.4     11.117     12.368
REMARK  4 active torsions:
REMARK  status: ('A' for Active; 'I' for Inactive)
REMARK    1  A    between atoms: C2_2  and  C6_6 
REMARK    2  A    between atoms: C3_3  and  C6_6 
REMARK    3  A    between atoms: C3_3  and  C7_7 
REMARK    4  A    between atoms: C7_7  and  C8_8 
ROOT
HETATM    1  C1  UNL     1     -34.650  16.642  -1.033  1.00 20.00    -0.111 C 
HETATM    2  C2  UNL     1     -34.846  15.888  -1.947  1.00 20.00    -0.100 C 
HETATM    3  C4  UNL     1     -34.410  17.560   0.079  1.00 20.00     0.112 C 
ENDROOT
BRANCH   2   4
HETATM    4  C6  UNL     1     -35.092  14.966  -3.062  1.00 20.00     0.172 C 
BRANCH   4   5
HETATM    5  C3  UNL     1     -33.809  14.481  -3.713  1.00 20.00     0.137 C 
HETATM    6  O9  UNL     1     -33.565  13.287  -3.885  1.00 20.00    -0.297 OA
BRANCH   5   7
HETATM    7  C7  UNL     1     -32.840  15.574  -4.140  1.00 20.00     0.079 C 
BRANCH   7   8
HETATM    8  C8  UNL     1     -33.362  16.397  -5.313  1.00 20.00     0.003 C 
HETATM    9  C5  UNL     1     -33.557  17.855  -4.930  1.00 20.00     0.005 C 
ENDBRANCH   7   8
ENDBRANCH   5   7
ENDBRANCH   4   5
ENDBRANCH   2   4
TORSDOF 4
ENDMDL
MODEL 8
REMARK VINA RESULT:      -4.3     10.918     11.841
REMARK  4 active torsions:
REMARK  status: ('A' for Active; 'I' for Inactive)
REMARK    1  A    between atoms: C2_2  and  C6_6 
REMARK    2  A    between atoms: C3_3  and  C6_6 
REMARK    3  A    between atoms: C3_3  and  C7_7 
REMARK    4  A    between atoms: C7_7  and  C8_8 
ROOT
HETATM    1  C1  UNL     1     -34.768  17.041  -0.222  1.00 20.00    -0.111 C 
HETATM    2  C2  UNL     1     -34.386  16.599  -1.271  1.00 20.00    -0.100 C 
HETATM    3  C4  UNL     1     -35.231  17.581   1.055  1.00 20.00     0.112 C 
ENDROOT
BRANCH   2   4
HETATM    4  C6  UNL     1     -33.927  16.055  -2.554  1.00 20.00     0.172 C 
BRANCH   4   5
HETATM    5  C3  UNL     1     -34.885  15.025  -3.128  1.00 20.00     0.137 C 
HETATM    6  O9  UNL     1     -36.107  15.167  -3.091  1.00 20.00    -0.297 OA
BRANCH   5   7
HETATM    7  C7  UNL     1     -34.231  13.802  -3.753  1.00 20.00     0.079 C 
BRANCH   7   8
HETATM    8  C8  UNL     1     -34.866  13.412  -5.084  1.00 20.00     0.003 C 
HETATM    9  C5  UNL     1     -34.618  14.467  -6.150  1.00 20.00     0.005 C 
ENDBRANCH   7   8
ENDBRANCH   5   7
ENDBRANCH   4   5
ENDBRANCH   2   4
TORSDOF 4
ENDMDL
MODEL 9
REMARK VINA RESULT:      -4.2      2.018      4.135
REMARK  4 active torsions:
REMARK  status: ('A' for Active; 'I' for Inactive)
REMARK    1  A    between atoms: C2_2  and  C6_6 
REMARK    2  A    between atoms: C3_3  and  C6_6 
REMARK    3  A    between atoms: C3_3  and  C7_7 
REMARK    4  A    between atoms: C7_7  and  C8_8 
ROOT
HETATM    1  C1  UNL     1     -33.761   6.816   6.776  1.00 20.00    -0.111 C 
HETATM    2  C2  UNL     1     -34.422   5.848   6.516  1.00 20.00    -0.100 C 
HETATM    3  C4  UNL     1     -32.956   7.994   7.093  1.00 20.00     0.112 C 
ENDROOT
BRANCH   2   4
HETATM    4  C6  UNL     1     -35.231   4.667   6.191  1.00 20.00     0.172 C 
BRANCH   4   5
HETATM    5  C3  UNL     1     -35.133   4.277   4.727  1.00 20.00     0.137 C 
HETATM    6  O9  UNL     1     -35.002   3.108   4.362  1.00 20.00    -0.297 OA
BRANCH   5   7
HETATM    7  C7  UNL     1     -35.208   5.429   3.737  1.00 20.00     0.079 C 
BRANCH   7   8
HETATM    8  C8  UNL     1     -34.055   5.422   2.738  1.00 20.00     0.003 C 
HETATM    9  C5  UNL     1     -32.896   6.280   3.217  1.00 20.00     0.005 C 
ENDBRANCH   7   8
ENDBRANCH   5   7
ENDBRANCH   4   5
ENDBRANCH   2   4
TORSDOF 4
ENDMDL
