MODEL 1
REMARK VINA RESULT:      -5.6      0.000      0.000
REMARK  3 active torsions:
REMARK  status: ('A' for Active; 'I' for Inactive)
REMARK    1  A    between atoms: C2_2  and  C7_7 
REMARK    2  A    between atoms: C3_3  and  C8_8 
REMARK    3  A    between atoms: C7_7  and  C8_8 
ROOT
HETATM    1  C1  UNL     1     -32.227   8.312   1.892  1.00 20.00    -0.111 C 
HETATM    2  C2  UNL     1     -32.391   7.475   2.736  1.00 20.00    -0.106 C 
HETATM    3  C4  UNL     1     -32.031   9.329   0.860  1.00 20.00     0.112 C 
ENDROOT
BRANCH   2   4
HETATM    4  C7  UNL     1     -32.593   6.450   3.772  1.00 20.00     0.105 C 
BRANCH   4   5
HETATM    5  C8  UNL     1     -34.057   6.316   4.214  1.00 20.00     0.062 C 
HETATM    6  C6  UNL     1     -34.819   5.286   3.377  1.00 20.00     0.018 C 
BRANCH   5   7
HETATM    7  C3  UNL     1     -34.175   6.015   5.711  1.00 20.00     0.127 C 
HETATM    8  C5  UNL     1     -34.842   4.719   6.097  1.00 20.00     0.091 C 
HETATM    9  O9  UNL     1     -33.738   6.776   6.573  1.00 20.00    -0.298 OA
ENDBRANCH   5   7
ENDBRANCH   4   5
ENDBRANCH   2   4
TORSDOF 3
ENDMDL
MODEL 2
REMARK VINA RESULT:      -5.3      0.887      1.163
REMARK  3 active torsions:
REMARK  status: ('A' for Active; 'I' for Inactive)
REMARK    1  A    between atoms: C2_2  and  C7_7 
REMARK    2  A    between atoms: C3_3  and  C8_8 
REMARK    3  A    between atoms: C7_7  and  C8_8 
ROOT
HETATM    1  C1  UNL     1     -32.203   8.130   2.009  1.00 20.00    -0.111 C 
HETATM    2  C2  UNL     1     -32.430   7.255   2.798  1.00 20.00    -0.106 C 
HETATM    3  C4  UNL     1     -31.931   9.197   1.046  1.00 20.00     0.112 C 
ENDROOT
BRANCH   2   4
HETATM    4  C7  UNL     1     -32.709   6.184   3.767  1.00 20.00     0.105 C 
BRANCH   4   5
HETATM    5  C8  UNL     1     -34.117   6.267   4.374  1.00 20.00     0.062 C 
HETATM    6  C6  UNL     1     -35.105   5.340   3.662  1.00 20.00     0.018 C 
BRANCH   5   7
HETATM    7  C3  UNL     1     -34.103   6.013   5.884  1.00 20.00     0.127 C 
HETATM    8  C5  UNL     1     -33.643   7.148   6.764  1.00 20.00     0.091 C 
HETATM    9  O9  UNL     1     -34.462   4.944   6.376  1.00 20.00    -0.298 OA
ENDBRANCH   5   7
ENDBRANCH   4   5
ENDBRANCH   2   4
TORSDOF 3
ENDMDL
MODEL 3
REMARK VINA RESULT:      -4.6     11.136     11.749
REMARK  3 active torsions:
REMARK  status: ('A' for Active; 'I' for Inactive)
REMARK    1  A    between atoms: C2_2  and  C7_7 
REMARK    2  A    between atoms: C3_3  and  C8_8 
REMARK    3  A    between atoms: C7_7  and  C8_8 
ROOT
HETATM    1  C1  UNL     1     -34.660  16.735  -0.752  1.00 20.00    -0.111 C 
HETATM    2  C2  UNL     1     -34.419  16.189  -1.793  1.00 20.00    -0.106 C 
HETATM    3  C4  UNL     1     -34.957  17.400   0.516  1.00 20.00     0.112 C 
ENDROOT
BRANCH   2   4
HETATM    4  C7  UNL     1     -34.125  15.518  -3.069  1.00 20.00     0.105 C 
BRANCH   4   5
HETATM    5  C8  UNL     1     -35.182  14.477  -3.464  1.00 20.00     0.062 C 
HETATM    6  C6  UNL     1     -36.587  15.082  -3.531  1.00 20.00     0.018 C 
BRANCH   5   7
HETATM    7  C3  UNL     1     -34.820  13.764  -4.770  1.00 20.00     0.127 C 
HETATM    8  C5  UNL     1     -34.529  14.634  -5.967  1.00 20.00     0.091 C 
HETATM    9  O9  UNL     1     -34.748  12.539  -4.854  1.00 20.00    -0.298 OA
ENDBRANCH   5   7
ENDBRANCH   4   5
ENDBRANCH   2   4
TORSDOF 3
ENDMDL
MODEL 4
REMARK VINA RESULT:      -4.3     11.342     11.896
REMARK  3 active torsions:
REMARK  status: ('A' for Active; 'I' for Inactive)
REMARK    1  A    between atoms: C2_2  and  C7_7 
REMARK    2  A    between atoms: C3_3  and  C8_8 
REMARK    3  A    between atoms: C7_7  and  C8_8 
ROOT
HETATM    1  C1  UNL     1     -34.279  16.451  -1.628  1.00 20.00    -0.111 C 
HETATM    2  C2  UNL     1     -33.943  16.015  -2.695  1.00 20.00    -0.106 C 
HETATM    3  C4  UNL     1     -34.690  16.985  -0.330  1.00 20.00     0.112 C 
ENDROOT
BRANCH   2   4
HETATM    4  C7  UNL     1     -33.535  15.480  -4.002  1.00 20.00     0.105 C 
BRANCH   4   5
HETATM    5  C8  UNL     1     -34.720  15.177  -4.931  1.00 20.00     0.062 C 
HETATM    6  C6  UNL     1     -34.267  14.886  -6.363  1.00 20.00     0.018 C 
BRANCH   5   7
HETATM    7  C3  UNL     1     -35.599  14.049  -4.383  1.00 20.00     0.127 C 
HETATM    8  C5  UNL     1     -37.009  14.411  -3.989  1.00 20.00     0.091 C 
HETATM    9  O9  UNL     1     -35.196  12.891  -4.278  1.00 20.00    -0.298 OA
ENDBRANCH   5   7
ENDBRANCH   4   5
ENDBRANCH   2   4
TORSDOF 3
ENDMDL
MODEL 5
REMARK VINA RESULT:      -4.2      2.306      5.029
REMARK  3 active torsions:
REMARK  status: ('A' for Active; 'I' for Inactive)
REMARK    1  A    between atoms: C2_2  and  C7_7 
REMARK    2  A    between atoms: C3_3  and  C8_8 
REMARK    3  A    between atoms: C7_7  and  C8_8 
ROOT
HETATM    1  C1  UNL     1     -34.295   5.379   4.836  1.00 20.00    -0.111 C 
HETATM    2  C2  UNL     1     -33.681   5.840   3.914  1.00 20.00    -0.106 C 
HETATM    3  C4  UNL     1     -35.039   4.817   5.963  1.00 20.00     0.112 C 
ENDROOT
BRANCH   2   4
HETATM    4  C7  UNL     1     -32.929   6.407   2.784  1.00 20.00     0.105 C 
BRANCH   4   5
HETATM    5  C8  UNL     1     -32.334   7.790   3.085  1.00 20.00     0.062 C 
HETATM    6  C6  UNL     1     -31.058   7.697   3.925  1.00 20.00     0.018 C 
BRANCH   5   7
HETATM    7  C3  UNL     1     -32.103   8.601   1.807  1.00 20.00     0.127 C 
HETATM    8  C5  UNL     1     -32.714   9.979   1.751  1.00 20.00     0.091 C 
HETATM    9  O9  UNL     1     -31.437   8.173   0.865  1.00 20.00    -0.298 OA
ENDBRANCH   5   7
ENDBRANCH   4   5
ENDBRANCH   2   4
TORSDOF 3
ENDMDL
MODEL 6
REMARK VINA RESULT:      -4.2      1.515      1.799
REMARK  3 active torsions:
REMARK  status: ('A' for Active; 'I' for Inactive)
REMARK    1  A    between atoms: C2_2  and  C7_7 
REMARK    2  A    between atoms: C3_3  and  C8_8 
REMARK    3  A    between atoms: C7_7  and  C8_8 
ROOT
HETATM    1  C1  UNL     1     -32.413   8.283   2.122  1.00 20.00    -0.111 C 
HETATM    2  C2  UNL     1     -32.477   7.188   2.608  1.00 20.00    -0.106 C 
HETATM    3  C4  UNL     1     -32.333   9.616   1.526  1.00 20.00     0.112 C 
ENDROOT
BRANCH   2   4
HETATM    4  C7  UNL     1     -32.556   5.844   3.202  1.00 20.00     0.105 C 
BRANCH   4   5
HETATM    5  C8  UNL     1     -33.320   5.814   4.533  1.00 20.00     0.062 C 
HETATM    6  C6  UNL     1     -33.406   7.199   5.178  1.00 20.00     0.018 C 
BRANCH   5   7
HETATM    7  C3  UNL     1     -34.707   5.183   4.379  1.00 20.00     0.127 C 
HETATM    8  C5  UNL     1     -35.096   4.132   5.388  1.00 20.00     0.091 C 
HETATM    9  O9  UNL     1     -35.489   5.518   3.490  1.00 20.00    -0.298 OA
ENDBRANCH   5   7
ENDBRANCH   4   5
ENDBRANCH   2   4
TORSDOF 3
ENDMDL
MODEL 7
REMARK VINA RESULT:      -4.1     11.311     12.325
REMARK  3 active torsions:
REMARK  status: ('A' for Active; 'I' for Inactive)
REMARK    1  A    between atoms: C2_2  and  C7_7 
REMARK    2  A    between atoms: C3_3  and  C8_8 
REMARK    3  A    between atoms: C7_7  and  C8_8 
ROOT
HETATM    1  C1  UNL     1     -34.431  16.827  -1.118  1.00 20.00    -0.111 C 
HETATM    2  C2  UNL     1     -34.763  16.077  -1.995  1.00 20.00    -0.106 C 
HETATM    3  C4  UNL     1     -34.031  17.741  -0.049  1.00 20.00     0.112 C 
ENDROOT
BRANCH   2   4
HETATM    4  C7  UNL     1     -35.170  15.156  -3.067  1.00 20.00     0.105 C 
BRANCH   4   5
HETATM    5  C8  UNL     1     -33.998  14.688  -3.941  1.00 20.00     0.062 C 
HETATM    6  C6  UNL     1     -34.232  13.289  -4.514  1.00 20.00     0.018 C 
BRANCH   5   7
HETATM    7  C3  UNL     1     -33.672  15.696  -5.046  1.00 20.00     0.127 C 
HETATM    8  C5  UNL     1     -34.379  15.516  -6.366  1.00 20.00     0.091 C 
HETATM    9  O9  UNL     1     -32.886  16.627  -4.879  1.00 20.00    -0.298 OA
ENDBRANCH   5   7
ENDBRANCH   4   5
ENDBRANCH   2   4
TORSDOF 3
ENDMDL
MODEL 8
REMARK VINA RESULT:      -4.1     10.864     12.112
REMARK  3 active torsions:
REMARK  status: ('A' for Active; 'I' for Inactive)
REMARK    1  A    between atoms: C2_2  and  C7_7 
REMARK    2  A    between atoms: C3_3  and  C8_8 
REMARK    3  A    between atoms: C7_7  and  C8_8 
ROOT
HETATM    1  C1  UNL     1     -33.534  17.154  -5.494  1.00 20.00    -0.111 C 
HETATM    2  C2  UNL     1     -33.296  16.210  -4.793  1.00 20.00    -0.106 C 
HETATM    3  C4  UNL     1     -33.826  18.307  -6.346  1.00 20.00     0.112 C 
ENDROOT
BRANCH   2   4
HETATM    4  C7  UNL     1     -33.002  15.054  -3.931  1.00 20.00     0.105 C 
BRANCH   4   5
HETATM    5  C8  UNL     1     -34.212  14.587  -3.110  1.00 20.00     0.062 C 
HETATM    6  C6  UNL     1     -34.883  15.744  -2.367  1.00 20.00     0.018 C 
BRANCH   5   7
HETATM    7  C3  UNL     1     -35.219  13.816  -3.967  1.00 20.00     0.127 C 
HETATM    8  C5  UNL     1     -36.559  14.468  -4.202  1.00 20.00     0.091 C 
HETATM    9  O9  UNL     1     -34.960  12.720  -4.463  1.00 20.00    -0.298 OA
ENDBRANCH   5   7
ENDBRANCH   4   5
ENDBRANCH   2   4
TORSDOF 3
ENDMDL
MODEL 9
REMARK VINA RESULT:      -3.8     11.207     12.555
REMARK  3 active torsions:
REMARK  status: ('A' for Active; 'I' for Inactive)
REMARK    1  A    between atoms: C2_2  and  C7_7 
REMARK    2  A    between atoms: C3_3  and  C8_8 
REMARK    3  A    between atoms: C7_7  and  C8_8 
ROOT
HETATM    1  C1  UNL     1     -37.090  15.068  -3.544  1.00 20.00    -0.111 C 
HETATM    2  C2  UNL     1     -35.986  15.330  -3.151  1.00 20.00    -0.106 C 
HETATM    3  C4  UNL     1     -38.435  14.751  -4.020  1.00 20.00     0.112 C 
ENDROOT
BRANCH   2   4
HETATM    4  C7  UNL     1     -34.634  15.654  -2.671  1.00 20.00     0.105 C 
BRANCH   4   5
HETATM    5  C8  UNL     1     -33.525  15.198  -3.630  1.00 20.00     0.062 C 
HETATM    6  C6  UNL     1     -33.606  13.700  -3.931  1.00 20.00     0.018 C 
BRANCH   5   7
HETATM    7  C3  UNL     1     -33.509  16.025  -4.918  1.00 20.00     0.127 C 
HETATM    8  C5  UNL     1     -34.120  15.394  -6.144  1.00 20.00     0.091 C 
HETATM    9  O9  UNL     1     -33.040  17.162  -4.967  1.00 20.00    -0.298 OA
ENDBRANCH   5   7
ENDBRANCH   4   5
ENDBRANCH   2   4
TORSDOF 3
ENDMDL
