MODEL 1
REMARK VINA RESULT:      -4.6      0.000      0.000
REMARK  4 active torsions:
REMARK  status: ('A' for Active; 'I' for Inactive)
REMARK    1  A    between atoms: C2_2  and  C5_5 
REMARK    2  A    between atoms: C2_2  and  C9_9 
REMARK    3  A    between atoms: C7_7  and  C9_9 
REMARK    4  A    between atoms: C8_8  and  C9_9 
ROOT
HETATM    1  C1  UNL     1     -34.040  13.498  -4.178  1.00 20.00     0.059 C 
HETATM    2  C7  UNL     1     -33.047  14.421  -3.607  1.00 20.00     0.136 C 
HETATM    3  N10 UNL     1     -34.822  12.768  -4.628  1.00 20.00    -0.197 NA
ENDROOT
BRANCH   2   4
HETATM    4  C9  UNL     1     -33.476  15.897  -3.670  1.00 20.00     0.068 C 
BRANCH   4   5
HETATM    5  C2  UNL     1     -34.735  16.112  -2.835  1.00 20.00     0.136 C 
HETATM    6  O11 UNL     1     -35.871  16.129  -3.294  1.00 20.00    -0.297 OA
BRANCH   5   7
HETATM    7  C5  UNL     1     -34.525  16.336  -1.374  1.00 20.00     0.056 A 
HETATM    8  C3  UNL     1     -33.691  17.497  -0.944  1.00 20.00     0.013 A 
HETATM    9  C4  UNL     1     -35.175  17.517  -0.735  1.00 20.00     0.013 A 
ENDBRANCH   5   7
ENDBRANCH   4   5
BRANCH   4  10
HETATM   10  C8  UNL     1     -33.652  16.388  -5.118  1.00 20.00     0.008 C 
HETATM   11  C6  UNL     1     -33.524  17.902  -5.239  1.00 20.00     0.006 C 
ENDBRANCH   4  10
ENDBRANCH   2   4
TORSDOF 4
ENDMDL
MODEL 2
REMARK VINA RESULT:      -4.4      1.740      3.285
REMARK  4 active torsions:
REMARK  status: ('A' for Active; 'I' for Inactive)
REMARK    1  A    between atoms: C2_2  and  C5_5 
REMARK    2  A    between atoms: C2_2  and  C9_9 
REMARK    3  A    between atoms: C7_7  and  C9_9 
REMARK    4  A    between atoms: C8_8  and  C9_9 
ROOT
HETATM    1  C1  UNL     1     -34.210  13.510  -4.227  1.00 20.00     0.059 C 
HETATM    2  C7  UNL     1     -33.420  14.544  -3.541  1.00 20.00     0.136 C 
HETATM    3  N10 UNL     1     -34.832  12.692  -4.768  1.00 20.00    -0.197 NA
ENDROOT
BRANCH   2   4
HETATM    4  C9  UNL     1     -34.174  15.873  -3.364  1.00 20.00     0.068 C 
BRANCH   4   5
HETATM    5  C2  UNL     1     -34.074  16.704  -4.640  1.00 20.00     0.136 C 
HETATM    6  O11 UNL     1     -33.018  17.068  -5.144  1.00 20.00    -0.297 OA
BRANCH   5   7
HETATM    7  C5  UNL     1     -35.369  17.099  -5.270  1.00 20.00     0.056 A 
HETATM    8  C3  UNL     1     -36.055  16.120  -6.163  1.00 20.00     0.013 A 
HETATM    9  C4  UNL     1     -36.618  16.427  -4.809  1.00 20.00     0.013 A 
ENDBRANCH   5   7
ENDBRANCH   4   5
BRANCH   4  10
HETATM   10  C8  UNL     1     -33.692  16.652  -2.127  1.00 20.00     0.008 C 
HETATM   11  C6  UNL     1     -34.675  16.566  -0.966  1.00 20.00     0.006 C 
ENDBRANCH   4  10
ENDBRANCH   2   4
TORSDOF 4
ENDMDL
MODEL 3
REMARK VINA RESULT:      -4.4      2.288      3.766
REMARK  4 active torsions:
REMARK  status: ('A' for Active; 'I' for Inactive)
REMARK    1  A    between atoms: C2_2  and  C5_5 
REMARK    2  A    between atoms: C2_2  and  C9_9 
REMARK    3  A    between atoms: C7_7  and  C9_9 
REMARK    4  A    between atoms: C8_8  and  C9_9 
ROOT
HETATM    1  C1  UNL     1     -34.257  16.852  -1.606  1.00 20.00     0.059 C 
HETATM    2  C7  UNL     1     -33.672  17.286  -2.884  1.00 20.00     0.136 C 
HETATM    3  N10 UNL     1     -34.719  16.511  -0.597  1.00 20.00    -0.197 NA
ENDROOT
BRANCH   2   4
HETATM    4  C9  UNL     1     -33.938  16.310  -4.043  1.00 20.00     0.068 C 
BRANCH   4   5
HETATM    5  C2  UNL     1     -33.334  14.945  -3.726  1.00 20.00     0.136 C 
HETATM    6  O11 UNL     1     -32.131  14.730  -3.634  1.00 20.00    -0.297 OA
BRANCH   5   7
HETATM    7  C5  UNL     1     -34.302  13.823  -3.548  1.00 20.00     0.056 A 
HETATM    8  C3  UNL     1     -35.707  14.013  -4.015  1.00 20.00     0.013 A 
HETATM    9  C4  UNL     1     -34.782  13.099  -4.761  1.00 20.00     0.013 A 
ENDBRANCH   5   7
ENDBRANCH   4   5
BRANCH   4  10
HETATM   10  C8  UNL     1     -33.443  16.863  -5.391  1.00 20.00     0.008 C 
HETATM   11  C6  UNL     1     -34.139  16.209  -6.578  1.00 20.00     0.006 C 
ENDBRANCH   4  10
ENDBRANCH   2   4
TORSDOF 4
ENDMDL
MODEL 4
REMARK VINA RESULT:      -4.4      2.539      4.335
REMARK  4 active torsions:
REMARK  status: ('A' for Active; 'I' for Inactive)
REMARK    1  A    between atoms: C2_2  and  C5_5 
REMARK    2  A    between atoms: C2_2  and  C9_9 
REMARK    3  A    between atoms: C7_7  and  C9_9 
REMARK    4  A    between atoms: C8_8  and  C9_9 
ROOT
HETATM    1  C1  UNL     1     -37.363  14.738  -3.650  1.00 20.00     0.059 C 
HETATM    2  C7  UNL     1     -36.061  15.210  -3.152  1.00 20.00     0.136 C 
HETATM    3  N10 UNL     1     -38.390  14.366  -4.041  1.00 20.00    -0.197 NA
ENDROOT
BRANCH   2   4
HETATM    4  C9  UNL     1     -34.953  15.188  -4.219  1.00 20.00     0.068 C 
BRANCH   4   5
HETATM    5  C2  UNL     1     -34.922  13.829  -4.912  1.00 20.00     0.136 C 
HETATM    6  O11 UNL     1     -34.850  12.757  -4.322  1.00 20.00    -0.297 OA
BRANCH   5   7
HETATM    7  C5  UNL     1     -34.958  13.851  -6.404  1.00 20.00     0.056 A 
HETATM    8  C3  UNL     1     -35.929  14.762  -7.079  1.00 20.00     0.013 A 
HETATM    9  C4  UNL     1     -34.462  15.068  -7.109  1.00 20.00     0.013 A 
ENDBRANCH   5   7
ENDBRANCH   4   5
BRANCH   4  10
HETATM   10  C8  UNL     1     -33.581  15.572  -3.636  1.00 20.00     0.008 C 
HETATM   11  C6  UNL     1     -33.701  16.415  -2.373  1.00 20.00     0.006 C 
ENDBRANCH   4  10
ENDBRANCH   2   4
TORSDOF 4
ENDMDL
MODEL 5
REMARK VINA RESULT:      -4.4      2.002      2.833
REMARK  4 active torsions:
REMARK  status: ('A' for Active; 'I' for Inactive)
REMARK    1  A    between atoms: C2_2  and  C5_5 
REMARK    2  A    between atoms: C2_2  and  C9_9 
REMARK    3  A    between atoms: C7_7  and  C9_9 
REMARK    4  A    between atoms: C8_8  and  C9_9 
ROOT
HETATM    1  C1  UNL     1     -37.343  14.826  -3.938  1.00 20.00     0.059 C 
HETATM    2  C7  UNL     1     -36.035  15.406  -4.282  1.00 20.00     0.136 C 
HETATM    3  N10 UNL     1     -38.375  14.369  -3.669  1.00 20.00    -0.197 NA
ENDROOT
BRANCH   2   4
HETATM    4  C9  UNL     1     -34.929  15.066  -3.268  1.00 20.00     0.068 C 
BRANCH   4   5
HETATM    5  C2  UNL     1     -33.880  16.175  -3.246  1.00 20.00     0.136 C 
HETATM    6  O11 UNL     1     -33.179  16.478  -4.205  1.00 20.00    -0.297 OA
BRANCH   5   7
HETATM    7  C5  UNL     1     -33.713  16.895  -1.950  1.00 20.00     0.056 A 
HETATM    8  C3  UNL     1     -34.749  17.892  -1.550  1.00 20.00     0.013 A 
HETATM    9  C4  UNL     1     -34.651  16.579  -0.834  1.00 20.00     0.013 A 
ENDBRANCH   5   7
ENDBRANCH   4   5
BRANCH   4  10
HETATM   10  C8  UNL     1     -34.304  13.684  -3.534  1.00 20.00     0.008 C 
HETATM   11  C6  UNL     1     -34.466  13.242  -4.983  1.00 20.00     0.006 C 
ENDBRANCH   4  10
ENDBRANCH   2   4
TORSDOF 4
ENDMDL
MODEL 6
REMARK VINA RESULT:      -4.3      2.682      3.686
REMARK  4 active torsions:
REMARK  status: ('A' for Active; 'I' for Inactive)
REMARK    1  A    between atoms: C2_2  and  C5_5 
REMARK    2  A    between atoms: C2_2  and  C9_9 
REMARK    3  A    between atoms: C7_7  and  C9_9 
REMARK    4  A    between atoms: C8_8  and  C9_9 
ROOT
HETATM    1  C1  UNL     1     -37.459  14.803  -4.591  1.00 20.00     0.059 C 
HETATM    2  C7  UNL     1     -36.590  15.350  -5.645  1.00 20.00     0.136 C 
HETATM    3  N10 UNL     1     -38.146  14.373  -3.760  1.00 20.00    -0.197 NA
ENDROOT
BRANCH   2   4
HETATM    4  C9  UNL     1     -35.588  14.326  -6.205  1.00 20.00     0.068 C 
BRANCH   4   5
HETATM    5  C2  UNL     1     -34.687  13.809  -5.087  1.00 20.00     0.136 C 
HETATM    6  O11 UNL     1     -34.734  12.670  -4.636  1.00 20.00    -0.297 OA
BRANCH   5   7
HETATM    7  C5  UNL     1     -33.718  14.791  -4.516  1.00 20.00     0.056 A 
HETATM    8  C3  UNL     1     -33.877  15.203  -3.091  1.00 20.00     0.013 A 
HETATM    9  C4  UNL     1     -32.740  14.314  -3.495  1.00 20.00     0.013 A 
ENDBRANCH   5   7
ENDBRANCH   4   5
BRANCH   4  10
HETATM   10  C8  UNL     1     -34.777  14.894  -7.384  1.00 20.00     0.008 C 
HETATM   11  C6  UNL     1     -34.996  16.390  -7.573  1.00 20.00     0.006 C 
ENDBRANCH   4  10
ENDBRANCH   2   4
TORSDOF 4
ENDMDL
MODEL 7
REMARK VINA RESULT:      -4.3      0.932      3.143
REMARK  4 active torsions:
REMARK  status: ('A' for Active; 'I' for Inactive)
REMARK    1  A    between atoms: C2_2  and  C5_5 
REMARK    2  A    between atoms: C2_2  and  C9_9 
REMARK    3  A    between atoms: C7_7  and  C9_9 
REMARK    4  A    between atoms: C8_8  and  C9_9 
ROOT
HETATM    1  C1  UNL     1     -34.304  13.617  -4.063  1.00 20.00     0.059 C 
HETATM    2  C7  UNL     1     -33.544  14.749  -3.510  1.00 20.00     0.136 C 
HETATM    3  N10 UNL     1     -34.903  12.723  -4.499  1.00 20.00    -0.197 NA
ENDROOT
BRANCH   2   4
HETATM    4  C9  UNL     1     -34.434  15.900  -3.012  1.00 20.00     0.068 C 
BRANCH   4   5
HETATM    5  C2  UNL     1     -34.815  16.809  -4.176  1.00 20.00     0.136 C 
HETATM    6  O11 UNL     1     -35.967  17.108  -4.468  1.00 20.00    -0.297 OA
BRANCH   5   7
HETATM    7  C5  UNL     1     -33.685  17.329  -5.001  1.00 20.00     0.056 A 
HETATM    8  C3  UNL     1     -33.998  17.997  -6.299  1.00 20.00     0.013 A 
HETATM    9  C4  UNL     1     -33.519  18.806  -5.131  1.00 20.00     0.013 A 
ENDBRANCH   5   7
ENDBRANCH   4   5
BRANCH   4  10
HETATM   10  C8  UNL     1     -33.779  16.681  -1.858  1.00 20.00     0.008 C 
HETATM   11  C6  UNL     1     -34.674  16.762  -0.628  1.00 20.00     0.006 C 
ENDBRANCH   4  10
ENDBRANCH   2   4
TORSDOF 4
ENDMDL
MODEL 8
REMARK VINA RESULT:      -4.3      1.671      2.190
REMARK  4 active torsions:
REMARK  status: ('A' for Active; 'I' for Inactive)
REMARK    1  A    between atoms: C2_2  and  C5_5 
REMARK    2  A    between atoms: C2_2  and  C9_9 
REMARK    3  A    between atoms: C7_7  and  C9_9 
REMARK    4  A    between atoms: C8_8  and  C9_9 
ROOT
HETATM    1  C1  UNL     1     -34.529  13.631  -4.057  1.00 20.00     0.059 C 
HETATM    2  C7  UNL     1     -34.433  14.797  -3.165  1.00 20.00     0.136 C 
HETATM    3  N10 UNL     1     -34.602  12.710  -4.760  1.00 20.00    -0.197 NA
ENDROOT
BRANCH   2   4
HETATM    4  C9  UNL     1     -35.577  15.809  -3.355  1.00 20.00     0.068 C 
BRANCH   4   5
HETATM    5  C2  UNL     1     -35.551  16.844  -2.234  1.00 20.00     0.136 C 
HETATM    6  O11 UNL     1     -36.229  17.865  -2.225  1.00 20.00    -0.297 OA
BRANCH   5   7
HETATM    7  C5  UNL     1     -34.611  16.570  -1.108  1.00 20.00     0.056 A 
HETATM    8  C3  UNL     1     -33.700  17.664  -0.658  1.00 20.00     0.013 A 
HETATM    9  C4  UNL     1     -34.854  17.242   0.201  1.00 20.00     0.013 A 
ENDBRANCH   5   7
ENDBRANCH   4   5
BRANCH   4  10
HETATM   10  C8  UNL     1     -36.948  15.118  -3.473  1.00 20.00     0.008 C 
HETATM   11  C6  UNL     1     -37.672  15.481  -4.763  1.00 20.00     0.006 C 
ENDBRANCH   4  10
ENDBRANCH   2   4
TORSDOF 4
ENDMDL
MODEL 9
REMARK VINA RESULT:      -4.2      1.764      2.023
REMARK  4 active torsions:
REMARK  status: ('A' for Active; 'I' for Inactive)
REMARK    1  A    between atoms: C2_2  and  C5_5 
REMARK    2  A    between atoms: C2_2  and  C9_9 
REMARK    3  A    between atoms: C7_7  and  C9_9 
REMARK    4  A    between atoms: C8_8  and  C9_9 
ROOT
HETATM    1  C1  UNL     1     -36.436  14.277  -3.969  1.00 20.00     0.059 C 
HETATM    2  C7  UNL     1     -34.981  14.172  -4.156  1.00 20.00     0.136 C 
HETATM    3  N10 UNL     1     -37.585  14.358  -3.822  1.00 20.00    -0.197 NA
ENDROOT
BRANCH   2   4
HETATM    4  C9  UNL     1     -34.326  15.486  -4.615  1.00 20.00     0.068 C 
BRANCH   4   5
HETATM    5  C2  UNL     1     -34.547  16.575  -3.570  1.00 20.00     0.136 C 
HETATM    6  O11 UNL     1     -35.217  17.583  -3.758  1.00 20.00    -0.297 OA
BRANCH   5   7
HETATM    7  C5  UNL     1     -33.867  16.372  -2.256  1.00 20.00     0.056 A 
HETATM    8  C3  UNL     1     -33.678  17.552  -1.362  1.00 20.00     0.013 A 
HETATM    9  C4  UNL     1     -34.678  16.492  -1.010  1.00 20.00     0.013 A 
ENDBRANCH   5   7
ENDBRANCH   4   5
BRANCH   4  10
HETATM   10  C8  UNL     1     -34.811  15.917  -6.011  1.00 20.00     0.008 C 
HETATM   11  C6  UNL     1     -34.447  14.906  -7.092  1.00 20.00     0.006 C 
ENDBRANCH   4  10
ENDBRANCH   2   4
TORSDOF 4
ENDMDL
