MODEL 1
REMARK VINA RESULT:      -5.3      0.000      0.000
REMARK  2 active torsions:
REMARK  status: ('A' for Active; 'I' for Inactive)
REMARK    1  A    between atoms: C2_2  and  C11_11 
REMARK    2  A    between atoms: C7_7  and  C11_11 
ROOT
HETATM    1  C1  UNL     1     -34.911  17.308   0.404  1.00 20.00    -0.111 C 
HETATM    2  C2  UNL     1     -34.441  17.015  -0.661  1.00 20.00    -0.106 C 
HETATM    3  C9  UNL     1     -35.484  17.667   1.701  1.00 20.00     0.112 C 
ENDROOT
BRANCH   2   4
HETATM    4  C11 UNL     1     -33.865  16.665  -1.963  1.00 20.00     0.106 C 
BRANCH   4   5
HETATM    5  C7  UNL     1     -34.536  15.425  -2.544  1.00 20.00     0.067 C 
HETATM    6  C3  UNL     1     -33.636  14.714  -3.549  1.00 20.00     0.132 C 
HETATM    7  C4  UNL     1     -34.254  13.541  -4.277  1.00 20.00     0.079 C 
HETATM    8  O12 UNL     1     -32.451  15.004  -3.704  1.00 20.00    -0.298 OA
HETATM    9  C5  UNL     1     -35.583  13.939  -4.902  1.00 20.00     0.011 C 
HETATM   10  C8  UNL     1     -36.529  14.571  -3.871  1.00 20.00    -0.017 C 
HETATM   11  C6  UNL     1     -35.865  15.791  -3.216  1.00 20.00     0.017 C 
HETATM   12  C10 UNL     1     -37.851  14.967  -4.529  1.00 20.00     0.010 C 
ENDBRANCH   4   5
ENDBRANCH   2   4
TORSDOF 2
ENDMDL
MODEL 2
REMARK VINA RESULT:      -5.2      2.089      2.689
REMARK  2 active torsions:
REMARK  status: ('A' for Active; 'I' for Inactive)
REMARK    1  A    between atoms: C2_2  and  C11_11 
REMARK    2  A    between atoms: C7_7  and  C11_11 
ROOT
HETATM    1  C1  UNL     1     -32.781  18.411  -0.035  1.00 20.00    -0.111 C 
HETATM    2  C2  UNL     1     -33.548  17.711  -0.639  1.00 20.00    -0.106 C 
HETATM    3  C9  UNL     1     -31.848  19.263   0.701  1.00 20.00     0.112 C 
ENDROOT
BRANCH   2   4
HETATM    4  C11 UNL     1     -34.491  16.862  -1.373  1.00 20.00     0.106 C 
BRANCH   4   5
HETATM    5  C7  UNL     1     -33.844  16.279  -2.624  1.00 20.00     0.067 C 
HETATM    6  C3  UNL     1     -33.839  17.279  -3.776  1.00 20.00     0.132 C 
HETATM    7  C4  UNL     1     -33.331  16.760  -5.102  1.00 20.00     0.079 C 
HETATM    8  O12 UNL     1     -34.138  18.463  -3.631  1.00 20.00    -0.298 OA
HETATM    9  C5  UNL     1     -34.050  15.473  -5.483  1.00 20.00     0.011 C 
HETATM   10  C8  UNL     1     -33.976  14.428  -4.361  1.00 20.00    -0.017 C 
HETATM   11  C6  UNL     1     -34.564  14.998  -3.061  1.00 20.00     0.017 C 
HETATM   12  C10 UNL     1     -34.712  13.151  -4.768  1.00 20.00     0.010 C 
ENDBRANCH   4   5
ENDBRANCH   2   4
TORSDOF 2
ENDMDL
MODEL 3
REMARK VINA RESULT:      -5.1      2.024      2.447
REMARK  2 active torsions:
REMARK  status: ('A' for Active; 'I' for Inactive)
REMARK    1  A    between atoms: C2_2  and  C11_11 
REMARK    2  A    between atoms: C7_7  and  C11_11 
ROOT
HETATM    1  C1  UNL     1     -34.474  16.867  -0.858  1.00 20.00    -0.111 C 
HETATM    2  C2  UNL     1     -33.913  16.455  -1.836  1.00 20.00    -0.106 C 
HETATM    3  C9  UNL     1     -35.157  17.367   0.334  1.00 20.00     0.112 C 
ENDROOT
BRANCH   2   4
HETATM    4  C11 UNL     1     -33.229  15.944  -3.029  1.00 20.00     0.106 C 
BRANCH   4   5
HETATM    5  C7  UNL     1     -34.223  15.655  -4.148  1.00 20.00     0.067 C 
HETATM    6  C3  UNL     1     -34.185  14.191  -4.573  1.00 20.00     0.132 C 
HETATM    7  C4  UNL     1     -35.044  13.823  -5.762  1.00 20.00     0.079 C 
HETATM    8  O12 UNL     1     -33.572  13.330  -3.944  1.00 20.00    -0.298 OA
HETATM    9  C5  UNL     1     -34.761  14.752  -6.934  1.00 20.00     0.011 C 
HETATM   10  C8  UNL     1     -34.891  16.228  -6.533  1.00 20.00    -0.017 C 
HETATM   11  C6  UNL     1     -33.947  16.548  -5.363  1.00 20.00     0.017 C 
HETATM   12  C10 UNL     1     -34.593  17.136  -7.726  1.00 20.00     0.010 C 
ENDBRANCH   4   5
ENDBRANCH   2   4
TORSDOF 2
ENDMDL
MODEL 4
REMARK VINA RESULT:      -4.6      2.873      4.992
REMARK  2 active torsions:
REMARK  status: ('A' for Active; 'I' for Inactive)
REMARK    1  A    between atoms: C2_2  and  C11_11 
REMARK    2  A    between atoms: C7_7  and  C11_11 
ROOT
HETATM    1  C1  UNL     1     -37.681  15.606  -6.468  1.00 20.00    -0.111 C 
HETATM    2  C2  UNL     1     -36.660  15.022  -6.711  1.00 20.00    -0.106 C 
HETATM    3  C9  UNL     1     -38.924  16.316  -6.172  1.00 20.00     0.112 C 
ENDROOT
BRANCH   2   4
HETATM    4  C11 UNL     1     -35.416  14.309  -7.018  1.00 20.00     0.106 C 
BRANCH   4   5
HETATM    5  C7  UNL     1     -34.320  14.665  -6.019  1.00 20.00     0.067 C 
HETATM    6  C3  UNL     1     -34.298  13.701  -4.838  1.00 20.00     0.132 C 
HETATM    7  C4  UNL     1     -33.329  14.037  -3.727  1.00 20.00     0.079 C 
HETATM    8  O12 UNL     1     -34.952  12.659  -4.815  1.00 20.00    -0.298 OA
HETATM    9  C5  UNL     1     -33.519  15.477  -3.269  1.00 20.00     0.011 C 
HETATM   10  C8  UNL     1     -33.449  16.461  -4.445  1.00 20.00    -0.017 C 
HETATM   11  C6  UNL     1     -34.499  16.099  -5.507  1.00 20.00     0.017 C 
HETATM   12  C10 UNL     1     -33.651  17.895  -3.957  1.00 20.00     0.010 C 
ENDBRANCH   4   5
ENDBRANCH   2   4
TORSDOF 2
ENDMDL
MODEL 5
REMARK VINA RESULT:      -4.6     11.971     13.926
REMARK  2 active torsions:
REMARK  status: ('A' for Active; 'I' for Inactive)
REMARK    1  A    between atoms: C2_2  and  C11_11 
REMARK    2  A    between atoms: C7_7  and  C11_11 
ROOT
HETATM    1  C1  UNL     1     -42.084   1.329  -3.414  1.00 20.00    -0.111 C 
HETATM    2  C2  UNL     1     -42.518   2.229  -2.748  1.00 20.00    -0.106 C 
HETATM    3  C9  UNL     1     -41.555   0.232  -4.223  1.00 20.00     0.112 C 
ENDROOT
BRANCH   2   4
HETATM    4  C11 UNL     1     -43.044   3.325  -1.928  1.00 20.00     0.106 C 
BRANCH   4   5
HETATM    5  C7  UNL     1     -42.110   4.529  -1.959  1.00 20.00     0.067 C 
HETATM    6  C3  UNL     1     -41.702   4.964  -0.556  1.00 20.00     0.132 C 
HETATM    7  C4  UNL     1     -40.875   6.227  -0.467  1.00 20.00     0.079 C 
HETATM    8  O12 UNL     1     -41.943   4.293   0.446  1.00 20.00    -0.298 OA
HETATM    9  C5  UNL     1     -41.546   7.361  -1.231  1.00 20.00     0.011 C 
HETATM   10  C8  UNL     1     -41.874   6.957  -2.675  1.00 20.00    -0.017 C 
HETATM   11  C6  UNL     1     -42.766   5.707  -2.690  1.00 20.00     0.017 C 
HETATM   12  C10 UNL     1     -42.554   8.111  -3.413  1.00 20.00     0.010 C 
ENDBRANCH   4   5
ENDBRANCH   2   4
TORSDOF 2
ENDMDL
MODEL 6
REMARK VINA RESULT:      -4.6      1.935      2.685
REMARK  2 active torsions:
REMARK  status: ('A' for Active; 'I' for Inactive)
REMARK    1  A    between atoms: C2_2  and  C11_11 
REMARK    2  A    between atoms: C7_7  and  C11_11 
ROOT
HETATM    1  C1  UNL     1     -34.497  16.067  -1.837  1.00 20.00    -0.111 C 
HETATM    2  C2  UNL     1     -34.182  15.285  -2.691  1.00 20.00    -0.106 C 
HETATM    3  C9  UNL     1     -34.881  17.020  -0.797  1.00 20.00     0.112 C 
ENDROOT
BRANCH   2   4
HETATM    4  C11 UNL     1     -33.787  14.333  -3.735  1.00 20.00     0.106 C 
BRANCH   4   5
HETATM    5  C7  UNL     1     -34.411  14.702  -5.076  1.00 20.00     0.067 C 
HETATM    6  C3  UNL     1     -33.824  15.993  -5.636  1.00 20.00     0.132 C 
HETATM    7  C4  UNL     1     -34.462  16.515  -6.904  1.00 20.00     0.079 C 
HETATM    8  O12 UNL     1     -32.834  16.540  -5.153  1.00 20.00    -0.298 OA
HETATM    9  C5  UNL     1     -35.972  16.612  -6.743  1.00 20.00     0.011 C 
HETATM   10  C8  UNL     1     -36.580  15.285  -6.268  1.00 20.00    -0.017 C 
HETATM   11  C6  UNL     1     -35.932  14.845  -4.946  1.00 20.00     0.017 C 
HETATM   12  C10 UNL     1     -38.094  15.415  -6.107  1.00 20.00     0.010 C 
ENDBRANCH   4   5
ENDBRANCH   2   4
TORSDOF 2
ENDMDL
MODEL 7
REMARK VINA RESULT:      -4.5      1.626      5.176
REMARK  2 active torsions:
REMARK  status: ('A' for Active; 'I' for Inactive)
REMARK    1  A    between atoms: C2_2  and  C11_11 
REMARK    2  A    between atoms: C7_7  and  C11_11 
ROOT
HETATM    1  C1  UNL     1     -35.212  14.428  -6.519  1.00 20.00    -0.111 C 
HETATM    2  C2  UNL     1     -34.860  14.486  -5.373  1.00 20.00    -0.106 C 
HETATM    3  C9  UNL     1     -35.640  14.358  -7.915  1.00 20.00     0.112 C 
ENDROOT
BRANCH   2   4
HETATM    4  C11 UNL     1     -34.439  14.559  -3.970  1.00 20.00     0.106 C 
BRANCH   4   5
HETATM    5  C7  UNL     1     -34.690  15.949  -3.395  1.00 20.00     0.067 C 
HETATM    6  C3  UNL     1     -33.658  16.958  -3.887  1.00 20.00     0.132 C 
HETATM    7  C4  UNL     1     -33.741  18.340  -3.279  1.00 20.00     0.079 C 
HETATM    8  O12 UNL     1     -32.859  16.709  -4.788  1.00 20.00    -0.298 OA
HETATM    9  C5  UNL     1     -33.760  18.256  -1.759  1.00 20.00     0.011 C 
HETATM   10  C8  UNL     1     -34.860  17.312  -1.256  1.00 20.00    -0.017 C 
HETATM   11  C6  UNL     1     -34.680  15.912  -1.862  1.00 20.00     0.017 C 
HETATM   12  C10 UNL     1     -34.849  17.241   0.271  1.00 20.00     0.010 C 
ENDBRANCH   4   5
ENDBRANCH   2   4
TORSDOF 2
ENDMDL
MODEL 8
REMARK VINA RESULT:      -4.4      1.984      5.332
REMARK  2 active torsions:
REMARK  status: ('A' for Active; 'I' for Inactive)
REMARK    1  A    between atoms: C2_2  and  C11_11 
REMARK    2  A    between atoms: C7_7  and  C11_11 
ROOT
HETATM    1  C1  UNL     1     -34.372  14.269  -3.937  1.00 20.00    -0.111 C 
HETATM    2  C2  UNL     1     -34.074  15.218  -3.264  1.00 20.00    -0.106 C 
HETATM    3  C9  UNL     1     -34.734  13.114  -4.755  1.00 20.00     0.112 C 
ENDROOT
BRANCH   2   4
HETATM    4  C11 UNL     1     -33.705  16.371  -2.437  1.00 20.00     0.106 C 
BRANCH   4   5
HETATM    5  C7  UNL     1     -34.846  16.764  -1.503  1.00 20.00     0.067 C 
HETATM    6  C3  UNL     1     -35.713  17.866  -2.104  1.00 20.00     0.132 C 
HETATM    7  C4  UNL     1     -36.799  18.416  -1.207  1.00 20.00     0.079 C 
HETATM    8  O12 UNL     1     -35.609  18.232  -3.273  1.00 20.00    -0.298 OA
HETATM    9  C5  UNL     1     -36.223  18.829   0.140  1.00 20.00     0.011 C 
HETATM   10  C8  UNL     1     -35.427  17.690   0.791  1.00 20.00    -0.017 C 
HETATM   11  C6  UNL     1     -34.303  17.222  -0.145  1.00 20.00     0.017 C 
HETATM   12  C10 UNL     1     -34.855  18.137   2.136  1.00 20.00     0.010 C 
ENDBRANCH   4   5
ENDBRANCH   2   4
TORSDOF 2
ENDMDL
MODEL 9
REMARK VINA RESULT:      -4.3      2.297      2.824
REMARK  2 active torsions:
REMARK  status: ('A' for Active; 'I' for Inactive)
REMARK    1  A    between atoms: C2_2  and  C11_11 
REMARK    2  A    between atoms: C7_7  and  C11_11 
ROOT
HETATM    1  C1  UNL     1     -34.327  17.386  -1.467  1.00 20.00    -0.111 C 
HETATM    2  C2  UNL     1     -34.008  17.630  -2.599  1.00 20.00    -0.106 C 
HETATM    3  C9  UNL     1     -34.717  17.089  -0.090  1.00 20.00     0.112 C 
ENDROOT
BRANCH   2   4
HETATM    4  C11 UNL     1     -33.619  17.938  -3.979  1.00 20.00     0.106 C 
BRANCH   4   5
HETATM    5  C7  UNL     1     -33.552  16.670  -4.824  1.00 20.00     0.067 C 
HETATM    6  C3  UNL     1     -34.121  16.893  -6.222  1.00 20.00     0.132 C 
HETATM    7  C4  UNL     1     -34.217  15.667  -7.101  1.00 20.00     0.079 C 
HETATM    8  O12 UNL     1     -34.402  18.009  -6.656  1.00 20.00    -0.298 OA
HETATM    9  C5  UNL     1     -34.944  14.544  -6.375  1.00 20.00     0.011 C 
HETATM   10  C8  UNL     1     -34.316  14.252  -5.006  1.00 20.00    -0.017 C 
HETATM   11  C6  UNL     1     -34.306  15.523  -4.142  1.00 20.00     0.017 C 
HETATM   12  C10 UNL     1     -35.071  13.127  -4.298  1.00 20.00     0.010 C 
ENDBRANCH   4   5
ENDBRANCH   2   4
TORSDOF 2
ENDMDL
