MODEL 1
REMARK VINA RESULT:      -5.3      0.000      0.000
REMARK  2 active torsions:
REMARK  status: ('A' for Active; 'I' for Inactive)
REMARK    1  A    between atoms: C2_2  and  C11_11 
REMARK    2  A    between atoms: C7_7  and  C11_11 
ROOT
HETATM    1  C1  UNL     1     -34.675  16.601  -1.246  1.00 20.00    -0.111 C 
HETATM    2  C2  UNL     1     -34.322  15.832  -2.099  1.00 20.00    -0.106 C 
HETATM    3  C9  UNL     1     -35.103  17.537  -0.207  1.00 20.00     0.112 C 
ENDROOT
BRANCH   2   4
HETATM    4  C11 UNL     1     -33.886  14.890  -3.133  1.00 20.00     0.106 C 
BRANCH   4   5
HETATM    5  C7  UNL     1     -34.559  15.193  -4.469  1.00 20.00     0.067 C 
HETATM    6  C3  UNL     1     -34.807  13.921  -5.273  1.00 20.00     0.132 C 
HETATM    7  C4  UNL     1     -35.335  14.111  -6.678  1.00 20.00     0.079 C 
HETATM    8  O12 UNL     1     -34.682  12.794  -4.793  1.00 20.00    -0.298 OA
HETATM    9  C5  UNL     1     -34.474  15.104  -7.447  1.00 20.00     0.011 C 
HETATM   10  C8  UNL     1     -34.267  16.429  -6.699  1.00 20.00    -0.017 C 
HETATM   11  C6  UNL     1     -33.705  16.163  -5.293  1.00 20.00     0.017 C 
HETATM   12  C10 UNL     1     -35.544  17.271  -6.659  1.00 20.00     0.010 C 
ENDBRANCH   4   5
ENDBRANCH   2   4
TORSDOF 2
ENDMDL
MODEL 2
REMARK VINA RESULT:      -5.2      1.787      2.292
REMARK  2 active torsions:
REMARK  status: ('A' for Active; 'I' for Inactive)
REMARK    1  A    between atoms: C2_2  and  C11_11 
REMARK    2  A    between atoms: C7_7  and  C11_11 
ROOT
HETATM    1  C1  UNL     1     -34.785  17.148  -0.001  1.00 20.00    -0.111 C 
HETATM    2  C2  UNL     1     -34.296  16.789  -1.038  1.00 20.00    -0.106 C 
HETATM    3  C9  UNL     1     -35.381  17.585   1.261  1.00 20.00     0.112 C 
ENDROOT
BRANCH   2   4
HETATM    4  C11 UNL     1     -33.706  16.345  -2.303  1.00 20.00     0.106 C 
BRANCH   4   5
HETATM    5  C7  UNL     1     -34.647  15.400  -3.046  1.00 20.00     0.067 C 
HETATM    6  C3  UNL     1     -33.878  14.305  -3.778  1.00 20.00     0.132 C 
HETATM    7  C4  UNL     1     -34.697  13.397  -4.670  1.00 20.00     0.079 C 
HETATM    8  O12 UNL     1     -32.680  14.096  -3.595  1.00 20.00    -0.298 OA
HETATM    9  C5  UNL     1     -35.560  14.213  -5.622  1.00 20.00     0.011 C 
HETATM   10  C8  UNL     1     -36.408  15.276  -4.908  1.00 20.00    -0.017 C 
HETATM   11  C6  UNL     1     -35.511  16.178  -4.044  1.00 20.00     0.017 C 
HETATM   12  C10 UNL     1     -37.548  14.653  -4.099  1.00 20.00     0.010 C 
ENDBRANCH   4   5
ENDBRANCH   2   4
TORSDOF 2
ENDMDL
MODEL 3
REMARK VINA RESULT:      -5.0     11.334     13.168
REMARK  2 active torsions:
REMARK  status: ('A' for Active; 'I' for Inactive)
REMARK    1  A    between atoms: C2_2  and  C11_11 
REMARK    2  A    between atoms: C7_7  and  C11_11 
ROOT
HETATM    1  C1  UNL     1     -32.131   8.507   1.615  1.00 20.00    -0.111 C 
HETATM    2  C2  UNL     1     -32.086   7.998   2.702  1.00 20.00    -0.106 C 
HETATM    3  C9  UNL     1     -32.184   9.127   0.292  1.00 20.00     0.112 C 
ENDROOT
BRANCH   2   4
HETATM    4  C11 UNL     1     -32.034   7.385   4.032  1.00 20.00     0.106 C 
BRANCH   4   5
HETATM    5  C7  UNL     1     -33.387   6.792   4.416  1.00 20.00     0.067 C 
HETATM    6  C3  UNL     1     -33.525   6.644   5.928  1.00 20.00     0.132 C 
HETATM    7  C4  UNL     1     -34.766   5.930   6.418  1.00 20.00     0.079 C 
HETATM    8  O12 UNL     1     -32.734   7.151   6.722  1.00 20.00    -0.298 OA
HETATM    9  C5  UNL     1     -34.938   4.597   5.703  1.00 20.00     0.011 C 
HETATM   10  C8  UNL     1     -34.882   4.720   4.174  1.00 20.00    -0.017 C 
HETATM   11  C6  UNL     1     -33.586   5.428   3.745  1.00 20.00     0.017 C 
HETATM   12  C10 UNL     1     -36.127   5.405   3.607  1.00 20.00     0.010 C 
ENDBRANCH   4   5
ENDBRANCH   2   4
TORSDOF 2
ENDMDL
MODEL 4
REMARK VINA RESULT:      -5.0      2.374      3.641
REMARK  2 active torsions:
REMARK  status: ('A' for Active; 'I' for Inactive)
REMARK    1  A    between atoms: C2_2  and  C11_11 
REMARK    2  A    between atoms: C7_7  and  C11_11 
ROOT
HETATM    1  C1  UNL     1     -32.766  18.454   0.038  1.00 20.00    -0.111 C 
HETATM    2  C2  UNL     1     -33.608  17.845  -0.565  1.00 20.00    -0.106 C 
HETATM    3  C9  UNL     1     -31.742  19.196   0.772  1.00 20.00     0.112 C 
ENDROOT
BRANCH   2   4
HETATM    4  C11 UNL     1     -34.636  17.110  -1.306  1.00 20.00     0.106 C 
BRANCH   4   5
HETATM    5  C7  UNL     1     -34.019  16.298  -2.442  1.00 20.00     0.067 C 
HETATM    6  C3  UNL     1     -33.752  17.164  -3.668  1.00 20.00     0.132 C 
HETATM    7  C4  UNL     1     -33.277  16.437  -4.908  1.00 20.00     0.079 C 
HETATM    8  O12 UNL     1     -33.819  18.393  -3.645  1.00 20.00    -0.298 OA
HETATM    9  C5  UNL     1     -34.198  15.269  -5.233  1.00 20.00     0.011 C 
HETATM   10  C8  UNL     1     -34.429  14.331  -4.039  1.00 20.00    -0.017 C 
HETATM   11  C6  UNL     1     -34.934  15.130  -2.826  1.00 20.00     0.017 C 
HETATM   12  C10 UNL     1     -33.182  13.508  -3.707  1.00 20.00     0.010 C 
ENDBRANCH   4   5
ENDBRANCH   2   4
TORSDOF 2
ENDMDL
MODEL 5
REMARK VINA RESULT:      -4.5     11.757     13.410
REMARK  2 active torsions:
REMARK  status: ('A' for Active; 'I' for Inactive)
REMARK    1  A    between atoms: C2_2  and  C11_11 
REMARK    2  A    between atoms: C7_7  and  C11_11 
ROOT
HETATM    1  C1  UNL     1     -41.806   2.371  -3.481  1.00 20.00    -0.111 C 
HETATM    2  C2  UNL     1     -41.539   3.128  -2.588  1.00 20.00    -0.106 C 
HETATM    3  C9  UNL     1     -42.131   1.449  -4.569  1.00 20.00     0.112 C 
ENDROOT
BRANCH   2   4
HETATM    4  C11 UNL     1     -41.214   4.059  -1.504  1.00 20.00     0.106 C 
BRANCH   4   5
HETATM    5  C7  UNL     1     -41.524   5.499  -1.907  1.00 20.00     0.067 C 
HETATM    6  C3  UNL     1     -41.160   6.481  -0.798  1.00 20.00     0.132 C 
HETATM    7  C4  UNL     1     -41.559   7.923  -1.026  1.00 20.00     0.079 C 
HETATM    8  O12 UNL     1     -40.496   6.158   0.187  1.00 20.00    -0.298 OA
HETATM    9  C5  UNL     1     -43.031   8.020  -1.404  1.00 20.00     0.011 C 
HETATM   10  C8  UNL     1     -43.417   7.099  -2.570  1.00 20.00    -0.017 C 
HETATM   11  C6  UNL     1     -43.007   5.650  -2.261  1.00 20.00     0.017 C 
HETATM   12  C10 UNL     1     -42.843   7.588  -3.902  1.00 20.00     0.010 C 
ENDBRANCH   4   5
ENDBRANCH   2   4
TORSDOF 2
ENDMDL
MODEL 6
REMARK VINA RESULT:      -4.5      1.584      2.313
REMARK  2 active torsions:
REMARK  status: ('A' for Active; 'I' for Inactive)
REMARK    1  A    between atoms: C2_2  and  C11_11 
REMARK    2  A    between atoms: C7_7  and  C11_11 
ROOT
HETATM    1  C1  UNL     1     -34.512  15.917  -1.961  1.00 20.00    -0.111 C 
HETATM    2  C2  UNL     1     -34.305  15.176  -2.883  1.00 20.00    -0.106 C 
HETATM    3  C9  UNL     1     -34.763  16.819  -0.838  1.00 20.00     0.112 C 
ENDROOT
BRANCH   2   4
HETATM    4  C11 UNL     1     -34.051  14.265  -4.003  1.00 20.00     0.106 C 
BRANCH   4   5
HETATM    5  C7  UNL     1     -34.569  14.849  -5.314  1.00 20.00     0.067 C 
HETATM    6  C3  UNL     1     -33.827  16.128  -5.689  1.00 20.00     0.132 C 
HETATM    7  C4  UNL     1     -34.354  16.877  -6.893  1.00 20.00     0.079 C 
HETATM    8  O12 UNL     1     -32.800  16.495  -5.117  1.00 20.00    -0.298 OA
HETATM    9  C5  UNL     1     -35.853  17.112  -6.767  1.00 20.00     0.011 C 
HETATM   10  C8  UNL     1     -36.642  15.830  -6.466  1.00 20.00    -0.017 C 
HETATM   11  C6  UNL     1     -36.072  15.136  -5.218  1.00 20.00     0.017 C 
HETATM   12  C10 UNL     1     -36.694  14.891  -7.673  1.00 20.00     0.010 C 
ENDBRANCH   4   5
ENDBRANCH   2   4
TORSDOF 2
ENDMDL
MODEL 7
REMARK VINA RESULT:      -4.5     12.710     14.528
REMARK  2 active torsions:
REMARK  status: ('A' for Active; 'I' for Inactive)
REMARK    1  A    between atoms: C2_2  and  C11_11 
REMARK    2  A    between atoms: C7_7  and  C11_11 
ROOT
HETATM    1  C1  UNL     1     -42.172   1.309  -3.816  1.00 20.00    -0.111 C 
HETATM    2  C2  UNL     1     -42.687   2.394  -3.798  1.00 20.00    -0.106 C 
HETATM    3  C9  UNL     1     -41.546  -0.012  -3.838  1.00 20.00     0.112 C 
ENDROOT
BRANCH   2   4
HETATM    4  C11 UNL     1     -43.321   3.715  -3.769  1.00 20.00     0.106 C 
BRANCH   4   5
HETATM    5  C7  UNL     1     -42.905   4.496  -2.526  1.00 20.00     0.067 C 
HETATM    6  C3  UNL     1     -42.852   5.996  -2.798  1.00 20.00     0.132 C 
HETATM    7  C4  UNL     1     -42.308   6.858  -1.680  1.00 20.00     0.079 C 
HETATM    8  O12 UNL     1     -43.307   6.504  -3.822  1.00 20.00    -0.298 OA
HETATM    9  C5  UNL     1     -40.968   6.326  -1.192  1.00 20.00     0.011 C 
HETATM   10  C8  UNL     1     -41.004   4.833  -0.834  1.00 20.00    -0.017 C 
HETATM   11  C6  UNL     1     -41.540   4.016  -2.022  1.00 20.00     0.017 C 
HETATM   12  C10 UNL     1     -41.795   4.570   0.449  1.00 20.00     0.010 C 
ENDBRANCH   4   5
ENDBRANCH   2   4
TORSDOF 2
ENDMDL
MODEL 8
REMARK VINA RESULT:      -4.4     11.056     12.748
REMARK  2 active torsions:
REMARK  status: ('A' for Active; 'I' for Inactive)
REMARK    1  A    between atoms: C2_2  and  C11_11 
REMARK    2  A    between atoms: C7_7  and  C11_11 
ROOT
HETATM    1  C1  UNL     1     -42.061   8.804  -5.201  1.00 20.00    -0.111 C 
HETATM    2  C2  UNL     1     -42.667   8.215  -4.347  1.00 20.00    -0.106 C 
HETATM    3  C9  UNL     1     -41.323   9.521  -6.241  1.00 20.00     0.112 C 
ENDROOT
BRANCH   2   4
HETATM    4  C11 UNL     1     -43.413   7.495  -3.312  1.00 20.00     0.106 C 
BRANCH   4   5
HETATM    5  C7  UNL     1     -42.487   6.605  -2.487  1.00 20.00     0.067 C 
HETATM    6  C3  UNL     1     -42.690   5.130  -2.815  1.00 20.00     0.132 C 
HETATM    7  C4  UNL     1     -41.931   4.144  -1.954  1.00 20.00     0.079 C 
HETATM    8  O12 UNL     1     -43.351   4.746  -3.780  1.00 20.00    -0.298 OA
HETATM    9  C5  UNL     1     -42.164   4.429  -0.477  1.00 20.00     0.011 C 
HETATM   10  C8  UNL     1     -41.894   5.892  -0.094  1.00 20.00    -0.017 C 
HETATM   11  C6  UNL     1     -42.715   6.835  -0.989  1.00 20.00     0.017 C 
HETATM   12  C10 UNL     1     -40.401   6.227  -0.123  1.00 20.00     0.010 C 
ENDBRANCH   4   5
ENDBRANCH   2   4
TORSDOF 2
ENDMDL
MODEL 9
REMARK VINA RESULT:      -4.4      2.031      2.673
REMARK  2 active torsions:
REMARK  status: ('A' for Active; 'I' for Inactive)
REMARK    1  A    between atoms: C2_2  and  C11_11 
REMARK    2  A    between atoms: C7_7  and  C11_11 
ROOT
HETATM    1  C1  UNL     1     -34.804  17.102  -0.074  1.00 20.00    -0.111 C 
HETATM    2  C2  UNL     1     -34.339  16.739  -1.120  1.00 20.00    -0.106 C 
HETATM    3  C9  UNL     1     -35.371  17.544   1.200  1.00 20.00     0.112 C 
ENDROOT
BRANCH   2   4
HETATM    4  C11 UNL     1     -33.778  16.301  -2.401  1.00 20.00     0.106 C 
BRANCH   4   5
HETATM    5  C7  UNL     1     -34.872  15.779  -3.328  1.00 20.00     0.067 C 
HETATM    6  C3  UNL     1     -34.443  15.839  -4.790  1.00 20.00     0.132 C 
HETATM    7  C4  UNL     1     -35.502  15.486  -5.812  1.00 20.00     0.079 C 
HETATM    8  O12 UNL     1     -33.284  16.066  -5.136  1.00 20.00    -0.298 OA
HETATM    9  C5  UNL     1     -36.775  16.283  -5.566  1.00 20.00     0.011 C 
HETATM   10  C8  UNL     1     -37.280  16.183  -4.119  1.00 20.00    -0.017 C 
HETATM   11  C6  UNL     1     -36.165  16.580  -3.138  1.00 20.00     0.017 C 
HETATM   12  C10 UNL     1     -37.855  14.799  -3.807  1.00 20.00     0.010 C 
ENDBRANCH   4   5
ENDBRANCH   2   4
TORSDOF 2
ENDMDL
