MODEL 1
REMARK VINA RESULT:      -4.5      0.000      0.000
REMARK  4 active torsions:
REMARK  status: ('A' for Active; 'I' for Inactive)
REMARK    1  A    between atoms: C1_1  and  C3_3 
REMARK    2  A    between atoms: C4_4  and  C10_10 
REMARK    3  A    between atoms: C8_8  and  C10_10 
REMARK    4  A    between atoms: C9_9  and  C10_10 
ROOT
HETATM    1  C2  UNL     1     -33.267  16.096  -4.486  1.00 20.00     0.018 A 
HETATM    2  C3  UNL     1     -33.298  14.633  -4.123  1.00 20.00     0.060 A 
HETATM    3  C4  UNL     1     -33.495  15.685  -3.059  1.00 20.00     0.002 A 
ENDROOT
BRANCH   3   4
HETATM    4  C10 UNL     1     -34.854  15.932  -2.399  1.00 20.00    -0.010 C 
BRANCH   4   5
HETATM    5  C8  UNL     1     -35.721  16.901  -3.231  1.00 20.00     0.000 C 
HETATM    6  C6  UNL     1     -37.113  16.366  -3.543  1.00 20.00     0.005 C 
ENDBRANCH   4   5
BRANCH   4   7
HETATM    7  C9  UNL     1     -34.698  16.496  -0.971  1.00 20.00     0.000 C 
HETATM    8  C7  UNL     1     -33.658  17.602  -0.855  1.00 20.00     0.005 C 
ENDBRANCH   4   7
ENDBRANCH   3   4
BRANCH   2   9
HETATM    9  C1  UNL     1     -34.418  13.802  -4.580  1.00 20.00     0.127 C 
HETATM   10  C5  UNL     1     -35.093  14.219  -5.858  1.00 20.00     0.091 C 
HETATM   11  O11 UNL     1     -34.785  12.812  -3.949  1.00 20.00    -0.298 OA
ENDBRANCH   2   9
TORSDOF 4
ENDMDL
MODEL 2
REMARK VINA RESULT:      -4.3      1.613      2.544
REMARK  4 active torsions:
REMARK  status: ('A' for Active; 'I' for Inactive)
REMARK    1  A    between atoms: C1_1  and  C3_3 
REMARK    2  A    between atoms: C4_4  and  C10_10 
REMARK    3  A    between atoms: C8_8  and  C10_10 
REMARK    4  A    between atoms: C9_9  and  C10_10 
ROOT
HETATM    1  C2  UNL     1     -34.418  13.658  -5.073  1.00 20.00     0.018 A 
HETATM    2  C3  UNL     1     -35.529  13.645  -4.055  1.00 20.00     0.060 A 
HETATM    3  C4  UNL     1     -34.236  14.366  -3.762  1.00 20.00     0.002 A 
ENDROOT
BRANCH   3   4
HETATM    4  C10 UNL     1     -34.145  15.894  -3.722  1.00 20.00    -0.010 C 
BRANCH   4   5
HETATM    5  C8  UNL     1     -33.199  16.435  -4.815  1.00 20.00     0.000 C 
HETATM    6  C6  UNL     1     -33.836  17.487  -5.714  1.00 20.00     0.005 C 
ENDBRANCH   4   5
BRANCH   4   7
HETATM    7  C9  UNL     1     -33.666  16.400  -2.345  1.00 20.00     0.000 C 
HETATM    8  C7  UNL     1     -34.751  16.402  -1.277  1.00 20.00     0.005 C 
ENDBRANCH   4   7
ENDBRANCH   3   4
BRANCH   2   9
HETATM    9  C1  UNL     1     -36.764  14.390  -4.327  1.00 20.00     0.127 C 
HETATM   10  C5  UNL     1     -36.848  15.098  -5.652  1.00 20.00     0.091 C 
HETATM   11  O11 UNL     1     -37.684  14.432  -3.513  1.00 20.00    -0.298 OA
ENDBRANCH   2   9
TORSDOF 4
ENDMDL
MODEL 3
REMARK VINA RESULT:      -4.1      1.643      3.709
REMARK  4 active torsions:
REMARK  status: ('A' for Active; 'I' for Inactive)
REMARK    1  A    between atoms: C1_1  and  C3_3 
REMARK    2  A    between atoms: C4_4  and  C10_10 
REMARK    3  A    between atoms: C8_8  and  C10_10 
REMARK    4  A    between atoms: C9_9  and  C10_10 
ROOT
HETATM    1  C2  UNL     1     -36.147  17.148  -4.461  1.00 20.00     0.018 A 
HETATM    2  C3  UNL     1     -36.921  15.911  -4.839  1.00 20.00     0.060 A 
HETATM    3  C4  UNL     1     -35.448  15.820  -4.524  1.00 20.00     0.002 A 
ENDROOT
BRANCH   3   4
HETATM    4  C10 UNL     1     -34.927  15.167  -3.240  1.00 20.00    -0.010 C 
BRANCH   4   5
HETATM    5  C8  UNL     1     -34.061  16.144  -2.417  1.00 20.00     0.000 C 
HETATM    6  C6  UNL     1     -34.669  16.522  -1.072  1.00 20.00     0.005 C 
ENDBRANCH   4   5
BRANCH   4   7
HETATM    7  C9  UNL     1     -34.105  13.897  -3.542  1.00 20.00     0.000 C 
HETATM    8  C7  UNL     1     -34.556  13.153  -4.793  1.00 20.00     0.005 C 
ENDBRANCH   4   7
ENDBRANCH   3   4
BRANCH   2   9
HETATM    9  C1  UNL     1     -37.926  15.380  -3.910  1.00 20.00     0.127 C 
HETATM   10  C5  UNL     1     -38.727  16.387  -3.132  1.00 20.00     0.091 C 
HETATM   11  O11 UNL     1     -38.104  14.170  -3.776  1.00 20.00    -0.298 OA
ENDBRANCH   2   9
TORSDOF 4
ENDMDL
MODEL 4
REMARK VINA RESULT:      -4.1      1.693      3.720
REMARK  4 active torsions:
REMARK  status: ('A' for Active; 'I' for Inactive)
REMARK    1  A    between atoms: C1_1  and  C3_3 
REMARK    2  A    between atoms: C4_4  and  C10_10 
REMARK    3  A    between atoms: C8_8  and  C10_10 
REMARK    4  A    between atoms: C9_9  and  C10_10 
ROOT
HETATM    1  C2  UNL     1     -35.105  13.294  -4.361  1.00 20.00     0.018 A 
HETATM    2  C3  UNL     1     -34.498  14.220  -3.338  1.00 20.00     0.060 A 
HETATM    3  C4  UNL     1     -34.026  14.255  -4.771  1.00 20.00     0.002 A 
ENDROOT
BRANCH   3   4
HETATM    4  C10 UNL     1     -34.353  15.420  -5.709  1.00 20.00    -0.010 C 
BRANCH   4   5
HETATM    5  C8  UNL     1     -34.405  14.964  -7.183  1.00 20.00     0.000 C 
HETATM    6  C6  UNL     1     -35.811  14.665  -7.685  1.00 20.00     0.005 C 
ENDBRANCH   4   5
BRANCH   4   7
HETATM    7  C9  UNL     1     -33.328  16.565  -5.571  1.00 20.00     0.000 C 
HETATM    8  C7  UNL     1     -33.940  17.891  -5.140  1.00 20.00     0.005 C 
ENDBRANCH   4   7
ENDBRANCH   3   4
BRANCH   2   9
HETATM    9  C1  UNL     1     -35.309  15.311  -2.783  1.00 20.00     0.127 C 
HETATM   10  C5  UNL     1     -34.626  16.236  -1.814  1.00 20.00     0.091 C 
HETATM   11  O11 UNL     1     -36.489  15.461  -3.098  1.00 20.00    -0.298 OA
ENDBRANCH   2   9
TORSDOF 4
ENDMDL
MODEL 5
REMARK VINA RESULT:      -4.0      1.646      3.704
REMARK  4 active torsions:
REMARK  status: ('A' for Active; 'I' for Inactive)
REMARK    1  A    between atoms: C1_1  and  C3_3 
REMARK    2  A    between atoms: C4_4  and  C10_10 
REMARK    3  A    between atoms: C8_8  and  C10_10 
REMARK    4  A    between atoms: C9_9  and  C10_10 
ROOT
HETATM    1  C2  UNL     1     -34.525  15.962  -2.753  1.00 20.00     0.018 A 
HETATM    2  C3  UNL     1     -35.244  14.817  -3.420  1.00 20.00     0.060 A 
HETATM    3  C4  UNL     1     -35.102  16.142  -4.128  1.00 20.00     0.002 A 
ENDROOT
BRANCH   3   4
HETATM    4  C10 UNL     1     -34.172  16.329  -5.331  1.00 20.00    -0.010 C 
BRANCH   4   5
HETATM    5  C8  UNL     1     -33.473  17.705  -5.299  1.00 20.00     0.000 C 
HETATM    6  C6  UNL     1     -33.860  18.618  -6.454  1.00 20.00     0.005 C 
ENDBRANCH   4   5
BRANCH   4   7
HETATM    7  C9  UNL     1     -34.932  16.181  -6.665  1.00 20.00     0.000 C 
HETATM    8  C7  UNL     1     -34.622  14.890  -7.411  1.00 20.00     0.005 C 
ENDBRANCH   4   7
ENDBRANCH   3   4
BRANCH   2   9
HETATM    9  C1  UNL     1     -34.478  13.643  -3.855  1.00 20.00     0.127 C 
HETATM   10  C5  UNL     1     -33.007  13.641  -3.540  1.00 20.00     0.091 C 
HETATM   11  O11 UNL     1     -35.013  12.707  -4.446  1.00 20.00    -0.298 OA
ENDBRANCH   2   9
TORSDOF 4
ENDMDL
MODEL 6
REMARK VINA RESULT:      -4.0      1.237      2.237
REMARK  4 active torsions:
REMARK  status: ('A' for Active; 'I' for Inactive)
REMARK    1  A    between atoms: C1_1  and  C3_3 
REMARK    2  A    between atoms: C4_4  and  C10_10 
REMARK    3  A    between atoms: C8_8  and  C10_10 
REMARK    4  A    between atoms: C9_9  and  C10_10 
ROOT
HETATM    1  C2  UNL     1     -35.819  14.778  -6.226  1.00 20.00     0.018 A 
HETATM    2  C3  UNL     1     -34.491  14.670  -5.521  1.00 20.00     0.060 A 
HETATM    3  C4  UNL     1     -35.456  15.773  -5.161  1.00 20.00     0.002 A 
ENDROOT
BRANCH   3   4
HETATM    4  C10 UNL     1     -36.219  15.788  -3.833  1.00 20.00    -0.010 C 
BRANCH   4   5
HETATM    5  C8  UNL     1     -37.721  16.070  -4.046  1.00 20.00     0.000 C 
HETATM    6  C6  UNL     1     -38.618  14.871  -3.764  1.00 20.00     0.005 C 
ENDBRANCH   4   5
BRANCH   4   7
HETATM    7  C9  UNL     1     -35.642  16.835  -2.858  1.00 20.00     0.000 C 
HETATM    8  C7  UNL     1     -34.798  16.238  -1.740  1.00 20.00     0.005 C 
ENDBRANCH   4   7
ENDBRANCH   3   4
BRANCH   2   9
HETATM    9  C1  UNL     1     -34.251  13.548  -4.606  1.00 20.00     0.127 C 
HETATM   10  C5  UNL     1     -33.083  13.680  -3.666  1.00 20.00     0.091 C 
HETATM   11  O11 UNL     1     -34.970  12.551  -4.606  1.00 20.00    -0.298 OA
ENDBRANCH   2   9
TORSDOF 4
ENDMDL
MODEL 7
REMARK VINA RESULT:      -4.0      2.157      3.341
REMARK  4 active torsions:
REMARK  status: ('A' for Active; 'I' for Inactive)
REMARK    1  A    between atoms: C1_1  and  C3_3 
REMARK    2  A    between atoms: C4_4  and  C10_10 
REMARK    3  A    between atoms: C8_8  and  C10_10 
REMARK    4  A    between atoms: C9_9  and  C10_10 
ROOT
HETATM    1  C2  UNL     1     -33.574  17.847  -5.222  1.00 20.00     0.018 A 
HETATM    2  C3  UNL     1     -34.065  16.811  -6.201  1.00 20.00     0.060 A 
HETATM    3  C4  UNL     1     -33.320  16.390  -4.957  1.00 20.00     0.002 A 
ENDROOT
BRANCH   3   4
HETATM    4  C10 UNL     1     -34.018  15.690  -3.787  1.00 20.00    -0.010 C 
BRANCH   4   5
HETATM    5  C8  UNL     1     -33.613  16.309  -2.433  1.00 20.00     0.000 C 
HETATM    6  C6  UNL     1     -34.749  16.372  -1.421  1.00 20.00     0.005 C 
ENDBRANCH   4   5
BRANCH   4   7
HETATM    7  C9  UNL     1     -33.708  14.179  -3.764  1.00 20.00     0.000 C 
HETATM    8  C7  UNL     1     -34.882  13.302  -4.180  1.00 20.00     0.005 C 
ENDBRANCH   4   7
ENDBRANCH   3   4
BRANCH   2   9
HETATM    9  C1  UNL     1     -35.507  16.573  -6.335  1.00 20.00     0.127 C 
HETATM   10  C5  UNL     1     -35.921  15.355  -7.115  1.00 20.00     0.091 C 
HETATM   11  O11 UNL     1     -36.335  17.331  -5.833  1.00 20.00    -0.298 OA
ENDBRANCH   2   9
TORSDOF 4
ENDMDL
MODEL 8
REMARK VINA RESULT:      -4.0      1.572      2.894
REMARK  4 active torsions:
REMARK  status: ('A' for Active; 'I' for Inactive)
REMARK    1  A    between atoms: C1_1  and  C3_3 
REMARK    2  A    between atoms: C4_4  and  C10_10 
REMARK    3  A    between atoms: C8_8  and  C10_10 
REMARK    4  A    between atoms: C9_9  and  C10_10 
ROOT
HETATM    1  C2  UNL     1     -33.732  13.549  -4.288  1.00 20.00     0.018 A 
HETATM    2  C3  UNL     1     -34.905  13.624  -5.231  1.00 20.00     0.060 A 
HETATM    3  C4  UNL     1     -35.037  14.120  -3.811  1.00 20.00     0.002 A 
ENDROOT
BRANCH   3   4
HETATM    4  C10 UNL     1     -35.144  15.610  -3.475  1.00 20.00    -0.010 C 
BRANCH   4   5
HETATM    5  C8  UNL     1     -34.129  16.021  -2.388  1.00 20.00     0.000 C 
HETATM    6  C6  UNL     1     -34.770  16.608  -1.137  1.00 20.00     0.005 C 
ENDBRANCH   4   5
BRANCH   4   7
HETATM    7  C9  UNL     1     -36.565  15.985  -3.006  1.00 20.00     0.000 C 
HETATM    8  C7  UNL     1     -37.666  15.144  -3.638  1.00 20.00     0.005 C 
ENDBRANCH   4   7
ENDBRANCH   3   4
BRANCH   2   9
HETATM    9  C1  UNL     1     -34.864  14.563  -6.358  1.00 20.00     0.127 C 
HETATM   10  C5  UNL     1     -36.144  14.756  -7.124  1.00 20.00     0.091 C 
HETATM   11  O11 UNL     1     -33.834  15.163  -6.660  1.00 20.00    -0.298 OA
ENDBRANCH   2   9
TORSDOF 4
ENDMDL
MODEL 9
REMARK VINA RESULT:      -3.9      2.029      3.989
REMARK  4 active torsions:
REMARK  status: ('A' for Active; 'I' for Inactive)
REMARK    1  A    between atoms: C1_1  and  C3_3 
REMARK    2  A    between atoms: C4_4  and  C10_10 
REMARK    3  A    between atoms: C8_8  and  C10_10 
REMARK    4  A    between atoms: C9_9  and  C10_10 
ROOT
HETATM    1  C2  UNL     1     -34.005  14.141  -3.417  1.00 20.00     0.018 A 
HETATM    2  C3  UNL     1     -33.333  15.486  -3.525  1.00 20.00     0.060 A 
HETATM    3  C4  UNL     1     -34.129  14.938  -4.685  1.00 20.00     0.002 A 
ENDROOT
BRANCH   3   4
HETATM    4  C10 UNL     1     -35.484  15.523  -5.092  1.00 20.00    -0.010 C 
BRANCH   4   5
HETATM    5  C8  UNL     1     -36.647  14.582  -4.712  1.00 20.00     0.000 C 
HETATM    6  C6  UNL     1     -37.563  15.142  -3.631  1.00 20.00     0.005 C 
ENDBRANCH   4   5
BRANCH   4   7
HETATM    7  C9  UNL     1     -35.545  15.813  -6.607  1.00 20.00     0.000 C 
HETATM    8  C7  UNL     1     -34.707  14.862  -7.451  1.00 20.00     0.005 C 
ENDBRANCH   4   7
ENDBRANCH   3   4
BRANCH   2   9
HETATM    9  C1  UNL     1     -33.838  16.609  -2.727  1.00 20.00     0.127 C 
HETATM   10  C5  UNL     1     -34.641  16.261  -1.503  1.00 20.00     0.091 C 
HETATM   11  O11 UNL     1     -33.613  17.776  -3.042  1.00 20.00    -0.298 OA
ENDBRANCH   2   9
TORSDOF 4
ENDMDL
