MODEL 1
REMARK VINA RESULT:      -5.1      0.000      0.000
REMARK  6 active torsions:
REMARK  status: ('A' for Active; 'I' for Inactive)
REMARK    1  A    between atoms: C2_2  and  C5_5 
REMARK    2  A    between atoms: C5_5  and  C7_7 
REMARK    3  A    between atoms: C6_6  and  C8_8 
REMARK    4  A    between atoms: C7_7  and  C9_9 
REMARK    5  A    between atoms: C8_8  and  C9_9 
REMARK    6  A    between atoms: C9_9  and  O10_10 
ROOT
HETATM    1  C1  UNL     1     -32.234   8.580   1.794  1.00 20.00    -0.111 C 
HETATM    2  C2  UNL     1     -32.249   7.557   2.423  1.00 20.00    -0.107 C 
HETATM    3  C3  UNL     1     -32.214   9.827   1.032  1.00 20.00     0.112 C 
ENDROOT
BRANCH   2   4
HETATM    4  C5  UNL     1     -32.270   6.305   3.192  1.00 20.00     0.096 C 
BRANCH   4   5
HETATM    5  C7  UNL     1     -33.484   5.437   2.858  1.00 20.00     0.044 C 
BRANCH   5   6
HETATM    6  C9  UNL     1     -34.577   5.382   3.937  1.00 20.00     0.119 C 
BRANCH   6   7
HETATM    7  C8  UNL     1     -34.290   6.285   5.145  1.00 20.00     0.031 C 
BRANCH   7   8
HETATM    8  C6  UNL     1     -34.492   5.553   6.476  1.00 20.00    -0.002 C 
HETATM    9  C4  UNL     1     -35.049   4.155   6.261  1.00 20.00     0.005 C 
ENDBRANCH   7   8
ENDBRANCH   6   7
BRANCH   6  10
HETATM   10  O10 UNL     1     -35.810   5.779   3.331  1.00 20.00    -0.396 OA
HETATM   11  H26 UNL     1     -35.613   5.938   2.395  1.00 20.00     0.210 HD
ENDBRANCH   6  10
ENDBRANCH   5   6
ENDBRANCH   4   5
ENDBRANCH   2   4
TORSDOF 6
ENDMDL
MODEL 2
REMARK VINA RESULT:      -4.9      0.851      1.227
REMARK  6 active torsions:
REMARK  status: ('A' for Active; 'I' for Inactive)
REMARK    1  A    between atoms: C2_2  and  C5_5 
REMARK    2  A    between atoms: C5_5  and  C7_7 
REMARK    3  A    between atoms: C6_6  and  C8_8 
REMARK    4  A    between atoms: C7_7  and  C9_9 
REMARK    5  A    between atoms: C8_8  and  C9_9 
REMARK    6  A    between atoms: C9_9  and  O10_10 
ROOT
HETATM    1  C1  UNL     1     -32.305   8.367   1.975  1.00 20.00    -0.111 C 
HETATM    2  C2  UNL     1     -32.483   7.349   2.586  1.00 20.00    -0.107 C 
HETATM    3  C3  UNL     1     -32.088   9.605   1.227  1.00 20.00     0.112 C 
ENDROOT
BRANCH   2   4
HETATM    4  C5  UNL     1     -32.698   6.104   3.334  1.00 20.00     0.096 C 
BRANCH   4   5
HETATM    5  C7  UNL     1     -34.019   5.425   2.969  1.00 20.00     0.044 C 
BRANCH   5   6
HETATM    6  C9  UNL     1     -34.725   4.685   4.116  1.00 20.00     0.119 C 
BRANCH   6   7
HETATM    7  C8  UNL     1     -33.978   4.778   5.454  1.00 20.00     0.031 C 
BRANCH   7   8
HETATM    8  C6  UNL     1     -34.629   5.783   6.411  1.00 20.00    -0.002 C 
HETATM    9  C4  UNL     1     -33.741   6.997   6.630  1.00 20.00     0.005 C 
ENDBRANCH   7   8
ENDBRANCH   6   7
BRANCH   6  10
HETATM   10  O10 UNL     1     -36.031   5.248   4.261  1.00 20.00    -0.396 OA
HETATM   11  H26 UNL     1     -36.486   4.712   4.927  1.00 20.00     0.210 HD
ENDBRANCH   6  10
ENDBRANCH   5   6
ENDBRANCH   4   5
ENDBRANCH   2   4
TORSDOF 6
ENDMDL
MODEL 3
REMARK VINA RESULT:      -4.7     10.885     12.104
REMARK  6 active torsions:
REMARK  status: ('A' for Active; 'I' for Inactive)
REMARK    1  A    between atoms: C2_2  and  C5_5 
REMARK    2  A    between atoms: C5_5  and  C7_7 
REMARK    3  A    between atoms: C6_6  and  C8_8 
REMARK    4  A    between atoms: C7_7  and  C9_9 
REMARK    5  A    between atoms: C8_8  and  C9_9 
REMARK    6  A    between atoms: C9_9  and  O10_10 
ROOT
HETATM    1  C1  UNL     1     -34.332  16.630  -1.293  1.00 20.00    -0.111 C 
HETATM    2  C2  UNL     1     -33.870  16.187  -2.309  1.00 20.00    -0.107 C 
HETATM    3  C3  UNL     1     -34.898  17.170  -0.058  1.00 20.00     0.112 C 
ENDROOT
BRANCH   2   4
HETATM    4  C5  UNL     1     -33.305  15.647  -3.552  1.00 20.00     0.096 C 
BRANCH   4   5
HETATM    5  C7  UNL     1     -33.690  14.184  -3.781  1.00 20.00     0.044 C 
BRANCH   5   6
HETATM    6  C9  UNL     1     -35.190  13.917  -3.984  1.00 20.00     0.119 C 
BRANCH   6   7
HETATM    7  C8  UNL     1     -35.786  14.663  -5.186  1.00 20.00     0.031 C 
BRANCH   7   8
HETATM    8  C6  UNL     1     -35.135  14.244  -6.508  1.00 20.00    -0.002 C 
HETATM    9  C4  UNL     1     -34.478  15.426  -7.202  1.00 20.00     0.005 C 
ENDBRANCH   7   8
ENDBRANCH   6   7
BRANCH   6  10
HETATM   10  O10 UNL     1     -35.362  12.510  -4.166  1.00 20.00    -0.396 OA
HETATM   11  H26 UNL     1     -35.330  12.353  -5.122  1.00 20.00     0.210 HD
ENDBRANCH   6  10
ENDBRANCH   5   6
ENDBRANCH   4   5
ENDBRANCH   2   4
TORSDOF 6
ENDMDL
MODEL 4
REMARK VINA RESULT:      -4.6      1.164      1.336
REMARK  6 active torsions:
REMARK  status: ('A' for Active; 'I' for Inactive)
REMARK    1  A    between atoms: C2_2  and  C5_5 
REMARK    2  A    between atoms: C5_5  and  C7_7 
REMARK    3  A    between atoms: C6_6  and  C8_8 
REMARK    4  A    between atoms: C7_7  and  C9_9 
REMARK    5  A    between atoms: C8_8  and  C9_9 
REMARK    6  A    between atoms: C9_9  and  O10_10 
ROOT
HETATM    1  C1  UNL     1     -32.125   8.756   1.605  1.00 20.00    -0.111 C 
HETATM    2  C2  UNL     1     -32.041   7.802   2.329  1.00 20.00    -0.107 C 
HETATM    3  C3  UNL     1     -32.228   9.916   0.721  1.00 20.00     0.112 C 
ENDROOT
BRANCH   2   4
HETATM    4  C5  UNL     1     -31.934   6.635   3.214  1.00 20.00     0.096 C 
BRANCH   4   5
HETATM    5  C7  UNL     1     -33.180   5.749   3.164  1.00 20.00     0.044 C 
BRANCH   5   6
HETATM    6  C9  UNL     1     -34.355   6.206   4.043  1.00 20.00     0.119 C 
BRANCH   6   7
HETATM    7  C8  UNL     1     -35.407   5.112   4.274  1.00 20.00     0.031 C 
BRANCH   7   8
HETATM    8  C6  UNL     1     -34.899   4.007   5.205  1.00 20.00    -0.002 C 
HETATM    9  C4  UNL     1     -35.196   4.329   6.662  1.00 20.00     0.005 C 
ENDBRANCH   7   8
ENDBRANCH   6   7
BRANCH   6  10
HETATM   10  O10 UNL     1     -33.822   6.623   5.302  1.00 20.00    -0.396 OA
HETATM   11  H26 UNL     1     -34.558   7.019   5.792  1.00 20.00     0.210 HD
ENDBRANCH   6  10
ENDBRANCH   5   6
ENDBRANCH   4   5
ENDBRANCH   2   4
TORSDOF 6
ENDMDL
MODEL 5
REMARK VINA RESULT:      -4.6      1.133      4.247
REMARK  6 active torsions:
REMARK  status: ('A' for Active; 'I' for Inactive)
REMARK    1  A    between atoms: C2_2  and  C5_5 
REMARK    2  A    between atoms: C5_5  and  C7_7 
REMARK    3  A    between atoms: C6_6  and  C8_8 
REMARK    4  A    between atoms: C7_7  and  C9_9 
REMARK    5  A    between atoms: C8_8  and  C9_9 
REMARK    6  A    between atoms: C9_9  and  O10_10 
ROOT
HETATM    1  C1  UNL     1     -33.908   6.565   6.790  1.00 20.00    -0.111 C 
HETATM    2  C2  UNL     1     -34.398   5.531   6.424  1.00 20.00    -0.107 C 
HETATM    3  C3  UNL     1     -33.315   7.824   7.236  1.00 20.00     0.112 C 
ENDROOT
BRANCH   2   4
HETATM    4  C5  UNL     1     -34.997   4.268   5.974  1.00 20.00     0.096 C 
BRANCH   4   5
HETATM    5  C7  UNL     1     -35.173   4.215   4.455  1.00 20.00     0.044 C 
BRANCH   5   6
HETATM    6  C9  UNL     1     -34.958   5.546   3.715  1.00 20.00     0.119 C 
BRANCH   6   7
HETATM    7  C8  UNL     1     -33.789   5.509   2.721  1.00 20.00     0.031 C 
BRANCH   7   8
HETATM    8  C6  UNL     1     -32.525   6.162   3.289  1.00 20.00    -0.002 C 
HETATM    9  C4  UNL     1     -32.242   7.498   2.620  1.00 20.00     0.005 C 
ENDBRANCH   7   8
ENDBRANCH   6   7
BRANCH   6  10
HETATM   10  O10 UNL     1     -36.165   5.857   3.017  1.00 20.00    -0.396 OA
HETATM   11  H26 UNL     1     -35.898   6.288   2.191  1.00 20.00     0.210 HD
ENDBRANCH   6  10
ENDBRANCH   5   6
ENDBRANCH   4   5
ENDBRANCH   2   4
TORSDOF 6
ENDMDL
MODEL 6
REMARK VINA RESULT:      -4.6     10.911     11.761
REMARK  6 active torsions:
REMARK  status: ('A' for Active; 'I' for Inactive)
REMARK    1  A    between atoms: C2_2  and  C5_5 
REMARK    2  A    between atoms: C5_5  and  C7_7 
REMARK    3  A    between atoms: C6_6  and  C8_8 
REMARK    4  A    between atoms: C7_7  and  C9_9 
REMARK    5  A    between atoms: C8_8  and  C9_9 
REMARK    6  A    between atoms: C9_9  and  O10_10 
ROOT
HETATM    1  C1  UNL     1     -34.326  16.645  -1.321  1.00 20.00    -0.111 C 
HETATM    2  C2  UNL     1     -33.864  16.205  -2.339  1.00 20.00    -0.107 C 
HETATM    3  C3  UNL     1     -34.887  17.178  -0.081  1.00 20.00     0.112 C 
ENDROOT
BRANCH   2   4
HETATM    4  C5  UNL     1     -33.302  15.666  -3.584  1.00 20.00     0.096 C 
BRANCH   4   5
HETATM    5  C7  UNL     1     -33.670  14.198  -3.802  1.00 20.00     0.044 C 
BRANCH   5   6
HETATM    6  C9  UNL     1     -35.161  13.917  -4.054  1.00 20.00     0.119 C 
BRANCH   6   7
HETATM    7  C8  UNL     1     -35.703  14.592  -5.322  1.00 20.00     0.031 C 
BRANCH   7   8
HETATM    8  C6  UNL     1     -36.849  15.562  -5.016  1.00 20.00    -0.002 C 
HETATM    9  C4  UNL     1     -37.349  15.399  -3.589  1.00 20.00     0.005 C 
ENDBRANCH   7   8
ENDBRANCH   6   7
BRANCH   6  10
HETATM   10  O10 UNL     1     -35.326  12.502  -4.162  1.00 20.00    -0.396 OA
HETATM   11  H26 UNL     1     -34.866  12.236  -4.972  1.00 20.00     0.210 HD
ENDBRANCH   6  10
ENDBRANCH   5   6
ENDBRANCH   4   5
ENDBRANCH   2   4
TORSDOF 6
ENDMDL
MODEL 7
REMARK VINA RESULT:      -4.5     10.770     12.010
REMARK  6 active torsions:
REMARK  status: ('A' for Active; 'I' for Inactive)
REMARK    1  A    between atoms: C2_2  and  C5_5 
REMARK    2  A    between atoms: C5_5  and  C7_7 
REMARK    3  A    between atoms: C6_6  and  C8_8 
REMARK    4  A    between atoms: C7_7  and  C9_9 
REMARK    5  A    between atoms: C8_8  and  C9_9 
REMARK    6  A    between atoms: C9_9  and  O10_10 
ROOT
HETATM    1  C1  UNL     1     -34.768  17.090  -0.136  1.00 20.00    -0.111 C 
HETATM    2  C2  UNL     1     -34.367  16.705  -1.201  1.00 20.00    -0.107 C 
HETATM    3  C3  UNL     1     -35.255  17.562   1.159  1.00 20.00     0.112 C 
ENDROOT
BRANCH   2   4
HETATM    4  C5  UNL     1     -33.874  16.232  -2.501  1.00 20.00     0.096 C 
BRANCH   4   5
HETATM    5  C7  UNL     1     -34.709  15.078  -3.056  1.00 20.00     0.044 C 
BRANCH   5   6
HETATM    6  C9  UNL     1     -33.911  13.877  -3.590  1.00 20.00     0.119 C 
BRANCH   6   7
HETATM    7  C8  UNL     1     -34.481  13.295  -4.892  1.00 20.00     0.031 C 
BRANCH   7   8
HETATM    8  C6  UNL     1     -35.289  14.329  -5.683  1.00 20.00    -0.002 C 
HETATM    9  C4  UNL     1     -34.477  14.907  -6.832  1.00 20.00     0.005 C 
ENDBRANCH   7   8
ENDBRANCH   6   7
BRANCH   6  10
HETATM   10  O10 UNL     1     -32.567  14.311  -3.813  1.00 20.00    -0.396 OA
HETATM   11  H26 UNL     1     -32.227  14.597  -2.953  1.00 20.00     0.210 HD
ENDBRANCH   6  10
ENDBRANCH   5   6
ENDBRANCH   4   5
ENDBRANCH   2   4
TORSDOF 6
ENDMDL
MODEL 8
REMARK VINA RESULT:      -4.3     11.162     11.881
REMARK  6 active torsions:
REMARK  status: ('A' for Active; 'I' for Inactive)
REMARK    1  A    between atoms: C2_2  and  C5_5 
REMARK    2  A    between atoms: C5_5  and  C7_7 
REMARK    3  A    between atoms: C6_6  and  C8_8 
REMARK    4  A    between atoms: C7_7  and  C9_9 
REMARK    5  A    between atoms: C8_8  and  C9_9 
REMARK    6  A    between atoms: C9_9  and  O10_10 
ROOT
HETATM    1  C1  UNL     1     -37.109  14.506  -4.002  1.00 20.00    -0.111 C 
HETATM    2  C2  UNL     1     -36.061  13.954  -4.201  1.00 20.00    -0.107 C 
HETATM    3  C3  UNL     1     -38.384  15.177  -3.758  1.00 20.00     0.112 C 
ENDROOT
BRANCH   2   4
HETATM    4  C5  UNL     1     -34.780  13.277  -4.444  1.00 20.00     0.096 C 
BRANCH   4   5
HETATM    5  C7  UNL     1     -33.599  14.022  -3.821  1.00 20.00     0.044 C 
BRANCH   5   6
HETATM    6  C9  UNL     1     -33.654  15.555  -3.921  1.00 20.00     0.119 C 
BRANCH   6   7
HETATM    7  C8  UNL     1     -33.478  16.262  -2.570  1.00 20.00     0.031 C 
BRANCH   7   8
HETATM    8  C6  UNL     1     -34.772  16.271  -1.749  1.00 20.00    -0.002 C 
HETATM    9  C4  UNL     1     -34.583  16.993  -0.424  1.00 20.00     0.005 C 
ENDBRANCH   7   8
ENDBRANCH   6   7
BRANCH   6  10
HETATM   10  O10 UNL     1     -32.617  15.972  -4.813  1.00 20.00    -0.396 OA
HETATM   11  H26 UNL     1     -32.387  16.878  -4.558  1.00 20.00     0.210 HD
ENDBRANCH   6  10
ENDBRANCH   5   6
ENDBRANCH   4   5
ENDBRANCH   2   4
TORSDOF 6
ENDMDL
MODEL 9
REMARK VINA RESULT:      -4.2     10.951     12.146
REMARK  6 active torsions:
REMARK  status: ('A' for Active; 'I' for Inactive)
REMARK    1  A    between atoms: C2_2  and  C5_5 
REMARK    2  A    between atoms: C5_5  and  C7_7 
REMARK    3  A    between atoms: C6_6  and  C8_8 
REMARK    4  A    between atoms: C7_7  and  C9_9 
REMARK    5  A    between atoms: C8_8  and  C9_9 
REMARK    6  A    between atoms: C9_9  and  O10_10 
ROOT
HETATM    1  C1  UNL     1     -35.686  14.792  -6.660  1.00 20.00    -0.111 C 
HETATM    2  C2  UNL     1     -35.167  14.070  -5.853  1.00 20.00    -0.107 C 
HETATM    3  C3  UNL     1     -36.320  15.672  -7.640  1.00 20.00     0.112 C 
ENDROOT
BRANCH   2   4
HETATM    4  C5  UNL     1     -34.533  13.183  -4.868  1.00 20.00     0.096 C 
BRANCH   4   5
HETATM    5  C7  UNL     1     -33.985  13.949  -3.663  1.00 20.00     0.044 C 
BRANCH   5   6
HETATM    6  C9  UNL     1     -33.276  15.275  -3.985  1.00 20.00     0.119 C 
BRANCH   6   7
HETATM    7  C8  UNL     1     -33.659  16.418  -3.035  1.00 20.00     0.031 C 
BRANCH   7   8
HETATM    8  C6  UNL     1     -34.634  15.963  -1.945  1.00 20.00    -0.002 C 
HETATM    9  C4  UNL     1     -34.523  16.832  -0.702  1.00 20.00     0.005 C 
ENDBRANCH   7   8
ENDBRANCH   6   7
BRANCH   6  10
HETATM   10  O10 UNL     1     -31.867  15.046  -3.908  1.00 20.00    -0.396 OA
HETATM   11  H26 UNL     1     -31.749  14.084  -3.885  1.00 20.00     0.210 HD
ENDBRANCH   6  10
ENDBRANCH   5   6
ENDBRANCH   4   5
ENDBRANCH   2   4
TORSDOF 6
ENDMDL
