MODEL 1
REMARK VINA RESULT:      -5.2      0.000      0.000
REMARK  4 active torsions:
REMARK  status: ('A' for Active; 'I' for Inactive)
REMARK    1  A    between atoms: C2_2  and  C6_6 
REMARK    2  A    between atoms: C6_6  and  C7_7 
REMARK    3  A    between atoms: C7_7  and  C8_8 
REMARK    4  A    between atoms: C8_8  and  O9_9 
ROOT
HETATM    1  C1  UNL     1     -32.210   7.875   2.200  1.00 20.00    -0.111 C 
HETATM    2  C2  UNL     1     -32.571   7.237   3.151  1.00 20.00    -0.107 C 
HETATM    3  C3  UNL     1     -31.769   8.649   1.040  1.00 20.00     0.112 C 
ENDROOT
BRANCH   2   4
HETATM    4  C6  UNL     1     -33.011   6.458   4.318  1.00 20.00     0.100 C 
BRANCH   4   5
HETATM    5  C7  UNL     1     -33.946   5.287   3.959  1.00 20.00     0.021 C 
HETATM    6  C4  UNL     1     -34.552   5.478   2.559  1.00 20.00     0.013 C 
BRANCH   5   7
HETATM    7  C8  UNL     1     -35.053   5.018   5.005  1.00 20.00     0.118 C 
HETATM    8  C5  UNL     1     -34.657   5.406   6.425  1.00 20.00     0.040 C 
BRANCH   7   9
HETATM    9  O9  UNL     1     -35.347   3.618   4.999  1.00 20.00    -0.396 OA
HETATM   10  H23 UNL     1     -34.761   3.214   5.656  1.00 20.00     0.210 HD
ENDBRANCH   7   9
ENDBRANCH   5   7
ENDBRANCH   4   5
ENDBRANCH   2   4
TORSDOF 4
ENDMDL
MODEL 2
REMARK VINA RESULT:      -5.1      1.245      1.750
REMARK  4 active torsions:
REMARK  status: ('A' for Active; 'I' for Inactive)
REMARK    1  A    between atoms: C2_2  and  C6_6 
REMARK    2  A    between atoms: C6_6  and  C7_7 
REMARK    3  A    between atoms: C7_7  and  C8_8 
REMARK    4  A    between atoms: C8_8  and  O9_9 
ROOT
HETATM    1  C1  UNL     1     -32.193   8.055   2.075  1.00 20.00    -0.111 C 
HETATM    2  C2  UNL     1     -32.384   7.257   2.952  1.00 20.00    -0.107 C 
HETATM    3  C3  UNL     1     -31.957   9.028   1.010  1.00 20.00     0.112 C 
ENDROOT
BRANCH   2   4
HETATM    4  C6  UNL     1     -32.622   6.281   4.026  1.00 20.00     0.100 C 
BRANCH   4   5
HETATM    5  C7  UNL     1     -33.990   6.446   4.715  1.00 20.00     0.021 C 
HETATM    6  C4  UNL     1     -33.830   6.525   6.243  1.00 20.00     0.013 C 
BRANCH   5   7
HETATM    7  C8  UNL     1     -35.029   5.369   4.326  1.00 20.00     0.118 C 
HETATM    8  C5  UNL     1     -34.999   4.139   5.227  1.00 20.00     0.040 C 
BRANCH   7   9
HETATM    9  O9  UNL     1     -34.754   4.940   2.989  1.00 20.00    -0.396 OA
HETATM   10  H23 UNL     1     -35.570   4.532   2.662  1.00 20.00     0.210 HD
ENDBRANCH   7   9
ENDBRANCH   5   7
ENDBRANCH   4   5
ENDBRANCH   2   4
TORSDOF 4
ENDMDL
MODEL 3
REMARK VINA RESULT:      -4.8     11.069     11.820
REMARK  4 active torsions:
REMARK  status: ('A' for Active; 'I' for Inactive)
REMARK    1  A    between atoms: C2_2  and  C6_6 
REMARK    2  A    between atoms: C6_6  and  C7_7 
REMARK    3  A    between atoms: C7_7  and  C8_8 
REMARK    4  A    between atoms: C8_8  and  O9_9 
ROOT
HETATM    1  C1  UNL     1     -34.474  16.903  -0.945  1.00 20.00    -0.111 C 
HETATM    2  C2  UNL     1     -34.779  16.171  -1.848  1.00 20.00    -0.107 C 
HETATM    3  C3  UNL     1     -34.100  17.793   0.152  1.00 20.00     0.112 C 
ENDROOT
BRANCH   2   4
HETATM    4  C6  UNL     1     -35.154  15.273  -2.950  1.00 20.00     0.100 C 
BRANCH   4   5
HETATM    5  C7  UNL     1     -34.007  14.350  -3.408  1.00 20.00     0.021 C 
HETATM    6  C4  UNL     1     -32.740  15.163  -3.720  1.00 20.00     0.013 C 
BRANCH   5   7
HETATM    7  C8  UNL     1     -34.374  13.426  -4.593  1.00 20.00     0.118 C 
HETATM    8  C5  UNL     1     -34.893  14.178  -5.814  1.00 20.00     0.040 C 
BRANCH   7   9
HETATM    9  O9  UNL     1     -35.400  12.527  -4.163  1.00 20.00    -0.396 OA
HETATM   10  H23 UNL     1     -36.121  12.612  -4.803  1.00 20.00     0.210 HD
ENDBRANCH   7   9
ENDBRANCH   5   7
ENDBRANCH   4   5
ENDBRANCH   2   4
TORSDOF 4
ENDMDL
MODEL 4
REMARK VINA RESULT:      -4.7     10.793     11.590
REMARK  4 active torsions:
REMARK  status: ('A' for Active; 'I' for Inactive)
REMARK    1  A    between atoms: C2_2  and  C6_6 
REMARK    2  A    between atoms: C6_6  and  C7_7 
REMARK    3  A    between atoms: C7_7  and  C8_8 
REMARK    4  A    between atoms: C8_8  and  O9_9 
ROOT
HETATM    1  C1  UNL     1     -34.703  16.869  -0.663  1.00 20.00    -0.111 C 
HETATM    2  C2  UNL     1     -34.443  16.454  -1.760  1.00 20.00    -0.107 C 
HETATM    3  C3  UNL     1     -35.022  17.378   0.670  1.00 20.00     0.112 C 
ENDROOT
BRANCH   2   4
HETATM    4  C6  UNL     1     -34.120  15.945  -3.101  1.00 20.00     0.100 C 
BRANCH   4   5
HETATM    5  C7  UNL     1     -34.252  14.415  -3.227  1.00 20.00     0.021 C 
HETATM    6  C4  UNL     1     -32.893  13.771  -3.545  1.00 20.00     0.013 C 
BRANCH   5   7
HETATM    7  C8  UNL     1     -35.329  13.954  -4.237  1.00 20.00     0.118 C 
HETATM    8  C5  UNL     1     -36.716  14.521  -3.951  1.00 20.00     0.040 C 
BRANCH   7   9
HETATM    9  O9  UNL     1     -35.419  12.528  -4.181  1.00 20.00    -0.396 OA
HETATM   10  H23 UNL     1     -34.509  12.199  -4.151  1.00 20.00     0.210 HD
ENDBRANCH   7   9
ENDBRANCH   5   7
ENDBRANCH   4   5
ENDBRANCH   2   4
TORSDOF 4
ENDMDL
MODEL 5
REMARK VINA RESULT:      -4.4     11.384     12.683
REMARK  4 active torsions:
REMARK  status: ('A' for Active; 'I' for Inactive)
REMARK    1  A    between atoms: C2_2  and  C6_6 
REMARK    2  A    between atoms: C6_6  and  C7_7 
REMARK    3  A    between atoms: C7_7  and  C8_8 
REMARK    4  A    between atoms: C8_8  and  O9_9 
ROOT
HETATM    1  C1  UNL     1     -34.553  16.585  -1.410  1.00 20.00    -0.111 C 
HETATM    2  C2  UNL     1     -34.977  15.853  -2.264  1.00 20.00    -0.107 C 
HETATM    3  C3  UNL     1     -34.034  17.473  -0.372  1.00 20.00     0.112 C 
ENDROOT
BRANCH   2   4
HETATM    4  C6  UNL     1     -35.499  14.957  -3.306  1.00 20.00     0.100 C 
BRANCH   4   5
HETATM    5  C7  UNL     1     -34.451  14.576  -4.371  1.00 20.00     0.021 C 
HETATM    6  C4  UNL     1     -33.284  13.799  -3.739  1.00 20.00     0.013 C 
BRANCH   5   7
HETATM    7  C8  UNL     1     -33.931  15.772  -5.201  1.00 20.00     0.118 C 
HETATM    8  C5  UNL     1     -34.143  15.611  -6.702  1.00 20.00     0.040 C 
BRANCH   7   9
HETATM    9  O9  UNL     1     -32.525  15.905  -4.969  1.00 20.00    -0.396 OA
HETATM   10  H23 UNL     1     -32.085  15.519  -5.741  1.00 20.00     0.210 HD
ENDBRANCH   7   9
ENDBRANCH   5   7
ENDBRANCH   4   5
ENDBRANCH   2   4
TORSDOF 4
ENDMDL
MODEL 6
REMARK VINA RESULT:      -4.4     11.448     12.578
REMARK  4 active torsions:
REMARK  status: ('A' for Active; 'I' for Inactive)
REMARK    1  A    between atoms: C2_2  and  C6_6 
REMARK    2  A    between atoms: C6_6  and  C7_7 
REMARK    3  A    between atoms: C7_7  and  C8_8 
REMARK    4  A    between atoms: C8_8  and  O9_9 
ROOT
HETATM    1  C1  UNL     1     -34.735  17.369   0.348  1.00 20.00    -0.111 C 
HETATM    2  C2  UNL     1     -34.755  16.735  -0.671  1.00 20.00    -0.107 C 
HETATM    3  C3  UNL     1     -34.709  18.140   1.591  1.00 20.00     0.112 C 
ENDROOT
BRANCH   2   4
HETATM    4  C6  UNL     1     -34.783  15.957  -1.919  1.00 20.00     0.100 C 
BRANCH   4   5
HETATM    5  C7  UNL     1     -33.665  16.342  -2.908  1.00 20.00     0.021 C 
HETATM    6  C4  UNL     1     -33.812  17.804  -3.360  1.00 20.00     0.013 C 
BRANCH   5   7
HETATM    7  C8  UNL     1     -33.548  15.399  -4.128  1.00 20.00     0.118 C 
HETATM    8  C5  UNL     1     -33.375  13.931  -3.749  1.00 20.00     0.040 C 
BRANCH   7   9
HETATM    9  O9  UNL     1     -32.405  15.791  -4.893  1.00 20.00    -0.396 OA
HETATM   10  H23 UNL     1     -32.612  15.583  -5.816  1.00 20.00     0.210 HD
ENDBRANCH   7   9
ENDBRANCH   5   7
ENDBRANCH   4   5
ENDBRANCH   2   4
TORSDOF 4
ENDMDL
MODEL 7
REMARK VINA RESULT:      -4.3     11.494     12.016
REMARK  4 active torsions:
REMARK  status: ('A' for Active; 'I' for Inactive)
REMARK    1  A    between atoms: C2_2  and  C6_6 
REMARK    2  A    between atoms: C6_6  and  C7_7 
REMARK    3  A    between atoms: C7_7  and  C8_8 
REMARK    4  A    between atoms: C8_8  and  O9_9 
ROOT
HETATM    1  C1  UNL     1     -34.300  16.308  -1.680  1.00 20.00    -0.111 C 
HETATM    2  C2  UNL     1     -33.882  15.676  -2.612  1.00 20.00    -0.107 C 
HETATM    3  C3  UNL     1     -34.806  17.079  -0.546  1.00 20.00     0.112 C 
ENDROOT
BRANCH   2   4
HETATM    4  C6  UNL     1     -33.371  14.898  -3.751  1.00 20.00     0.100 C 
BRANCH   4   5
HETATM    5  C7  UNL     1     -34.337  14.859  -4.951  1.00 20.00     0.021 C 
HETATM    6  C4  UNL     1     -34.878  16.264  -5.266  1.00 20.00     0.013 C 
BRANCH   5   7
HETATM    7  C8  UNL     1     -35.495  13.846  -4.798  1.00 20.00     0.118 C 
HETATM    8  C5  UNL     1     -36.710  14.413  -4.070  1.00 20.00     0.040 C 
BRANCH   7   9
HETATM    9  O9  UNL     1     -35.018  12.726  -4.047  1.00 20.00    -0.396 OA
HETATM   10  H23 UNL     1     -34.079  12.633  -4.265  1.00 20.00     0.210 HD
ENDBRANCH   7   9
ENDBRANCH   5   7
ENDBRANCH   4   5
ENDBRANCH   2   4
TORSDOF 4
ENDMDL
MODEL 8
REMARK VINA RESULT:      -4.3     11.523     12.009
REMARK  4 active torsions:
REMARK  status: ('A' for Active; 'I' for Inactive)
REMARK    1  A    between atoms: C2_2  and  C6_6 
REMARK    2  A    between atoms: C6_6  and  C7_7 
REMARK    3  A    between atoms: C7_7  and  C8_8 
REMARK    4  A    between atoms: C8_8  and  O9_9 
ROOT
HETATM    1  C1  UNL     1     -34.640  16.764  -0.846  1.00 20.00    -0.111 C 
HETATM    2  C2  UNL     1     -34.237  16.184  -1.817  1.00 20.00    -0.107 C 
HETATM    3  C3  UNL     1     -35.134  17.467   0.337  1.00 20.00     0.112 C 
ENDROOT
BRANCH   2   4
HETATM    4  C6  UNL     1     -33.743  15.478  -3.009  1.00 20.00     0.100 C 
BRANCH   4   5
HETATM    5  C7  UNL     1     -34.850  15.139  -4.025  1.00 20.00     0.021 C 
HETATM    6  C4  UNL     1     -36.217  15.025  -3.330  1.00 20.00     0.013 C 
BRANCH   5   7
HETATM    7  C8  UNL     1     -34.561  13.883  -4.879  1.00 20.00     0.118 C 
HETATM    8  C5  UNL     1     -35.111  13.970  -6.299  1.00 20.00     0.040 C 
BRANCH   7   9
HETATM    9  O9  UNL     1     -35.169  12.755  -4.243  1.00 20.00    -0.396 OA
HETATM   10  H23 UNL     1     -35.291  12.086  -4.933  1.00 20.00     0.210 HD
ENDBRANCH   7   9
ENDBRANCH   5   7
ENDBRANCH   4   5
ENDBRANCH   2   4
TORSDOF 4
ENDMDL
MODEL 9
REMARK VINA RESULT:      -4.2     11.272     12.142
REMARK  4 active torsions:
REMARK  status: ('A' for Active; 'I' for Inactive)
REMARK    1  A    between atoms: C2_2  and  C6_6 
REMARK    2  A    between atoms: C6_6  and  C7_7 
REMARK    3  A    between atoms: C7_7  and  C8_8 
REMARK    4  A    between atoms: C8_8  and  O9_9 
ROOT
HETATM    1  C1  UNL     1     -34.781  17.134  -0.054  1.00 20.00    -0.111 C 
HETATM    2  C2  UNL     1     -34.392  16.790  -1.137  1.00 20.00    -0.107 C 
HETATM    3  C3  UNL     1     -35.257  17.549   1.265  1.00 20.00     0.112 C 
ENDROOT
BRANCH   2   4
HETATM    4  C6  UNL     1     -33.917  16.373  -2.465  1.00 20.00     0.100 C 
BRANCH   4   5
HETATM    5  C7  UNL     1     -34.526  15.041  -2.945  1.00 20.00     0.021 C 
HETATM    6  C4  UNL     1     -33.491  14.213  -3.724  1.00 20.00     0.013 C 
BRANCH   5   7
HETATM    7  C8  UNL     1     -35.830  15.200  -3.761  1.00 20.00     0.118 C 
HETATM    8  C5  UNL     1     -35.968  16.564  -4.430  1.00 20.00     0.040 C 
BRANCH   7   9
HETATM    9  O9  UNL     1     -36.940  15.032  -2.876  1.00 20.00    -0.396 OA
HETATM   10  H23 UNL     1     -37.542  15.771  -3.050  1.00 20.00     0.210 HD
ENDBRANCH   7   9
ENDBRANCH   5   7
ENDBRANCH   4   5
ENDBRANCH   2   4
TORSDOF 4
ENDMDL
