MODEL 1
REMARK VINA RESULT:      -5.2      0.000      0.000
REMARK  3 active torsions:
REMARK  status: ('A' for Active; 'I' for Inactive)
REMARK    1  A    between atoms: C2_2  and  C9_9 
REMARK    2  A    between atoms: C7_7  and  N10_10 
REMARK    3  A    between atoms: C9_9  and  N10_10 
ROOT
HETATM    1  C1  UNL     1     -32.188   8.593   1.545  1.00 20.00    -0.109 C 
HETATM    2  C2  UNL     1     -32.043   7.858   2.484  1.00 20.00    -0.077 C 
HETATM    3  C8  UNL     1     -32.365   9.486   0.400  1.00 20.00     0.112 C 
ENDROOT
BRANCH   2   4
HETATM    4  C9  UNL     1     -31.873   6.960   3.629  1.00 20.00     0.363 C 
BRANCH   4   5
HETATM    5  N10 UNL     1     -32.871   5.904   3.614  1.00 20.00     0.099 N 
HETATM    6  H26 UNL     1     -32.548   5.119   4.172  1.00 20.00     0.317 HD
BRANCH   5   7
HETATM    7  C7  UNL     1     -34.121   6.379   4.161  1.00 20.00     0.225 C 
HETATM    8  C3  UNL     1     -34.018   6.562   5.678  1.00 20.00     0.062 C 
HETATM    9  C5  UNL     1     -34.056   5.223   6.408  1.00 20.00     0.169 C 
HETATM   10  O11 UNL     1     -35.222   4.483   6.047  1.00 20.00    -0.391 OA
HETATM   11  C6  UNL     1     -35.249   4.166   4.656  1.00 20.00     0.169 C 
HETATM   12  C4  UNL     1     -35.274   5.436   3.810  1.00 20.00     0.062 C 
ENDBRANCH   5   7
ENDBRANCH   4   5
ENDBRANCH   2   4
TORSDOF 3
ENDMDL
MODEL 2
REMARK VINA RESULT:      -4.5     11.207     12.357
REMARK  3 active torsions:
REMARK  status: ('A' for Active; 'I' for Inactive)
REMARK    1  A    between atoms: C2_2  and  C9_9 
REMARK    2  A    between atoms: C7_7  and  N10_10 
REMARK    3  A    between atoms: C9_9  and  N10_10 
ROOT
HETATM    1  C1  UNL     1     -34.893  17.330   0.372  1.00 20.00    -0.109 C 
HETATM    2  C2  UNL     1     -34.466  17.154  -0.737  1.00 20.00    -0.077 C 
HETATM    3  C8  UNL     1     -35.411  17.546   1.723  1.00 20.00     0.112 C 
ENDROOT
BRANCH   2   4
HETATM    4  C9  UNL     1     -33.943  16.944  -2.089  1.00 20.00     0.363 C 
BRANCH   4   5
HETATM    5  N10 UNL     1     -34.272  15.614  -2.573  1.00 20.00     0.099 N 
HETATM    6  H26 UNL     1     -35.163  15.638  -3.061  1.00 20.00     0.317 HD
BRANCH   5   7
HETATM    7  C7  UNL     1     -33.256  15.139  -3.486  1.00 20.00     0.225 C 
HETATM    8  C3  UNL     1     -33.188  16.024  -4.733  1.00 20.00     0.062 C 
HETATM    9  C5  UNL     1     -34.352  15.750  -5.680  1.00 20.00     0.169 C 
HETATM   10  O11 UNL     1     -34.411  14.366  -6.021  1.00 20.00    -0.391 OA
HETATM   11  C6  UNL     1     -34.637  13.540  -4.880  1.00 20.00     0.169 C 
HETATM   12  C4  UNL     1     -33.498  13.679  -3.874  1.00 20.00     0.062 C 
ENDBRANCH   5   7
ENDBRANCH   4   5
ENDBRANCH   2   4
TORSDOF 3
ENDMDL
MODEL 3
REMARK VINA RESULT:      -4.4     10.895     11.897
REMARK  3 active torsions:
REMARK  status: ('A' for Active; 'I' for Inactive)
REMARK    1  A    between atoms: C2_2  and  C9_9 
REMARK    2  A    between atoms: C7_7  and  N10_10 
REMARK    3  A    between atoms: C9_9  and  N10_10 
ROOT
HETATM    1  C1  UNL     1     -35.070  17.407   0.711  1.00 20.00    -0.109 C 
HETATM    2  C2  UNL     1     -34.601  17.094  -0.350  1.00 20.00    -0.077 C 
HETATM    3  C8  UNL     1     -35.642  17.788   2.003  1.00 20.00     0.112 C 
ENDROOT
BRANCH   2   4
HETATM    4  C9  UNL     1     -34.030  16.719  -1.646  1.00 20.00     0.363 C 
BRANCH   4   5
HETATM    5  N10 UNL     1     -34.946  15.872  -2.391  1.00 20.00     0.099 N 
HETATM    6  H26 UNL     1     -35.881  16.267  -2.359  1.00 20.00     0.317 HD
BRANCH   5   7
HETATM    7  C7  UNL     1     -34.532  15.768  -3.772  1.00 20.00     0.225 C 
HETATM    8  C3  UNL     1     -35.523  14.922  -4.575  1.00 20.00     0.062 C 
HETATM    9  C5  UNL     1     -35.361  13.435  -4.279  1.00 20.00     0.169 C 
HETATM   10  O11 UNL     1     -34.014  13.019  -4.503  1.00 20.00    -0.391 OA
HETATM   11  C6  UNL     1     -33.094  13.688  -3.641  1.00 20.00     0.169 C 
HETATM   12  C4  UNL     1     -33.119  15.195  -3.886  1.00 20.00     0.062 C 
ENDBRANCH   5   7
ENDBRANCH   4   5
ENDBRANCH   2   4
TORSDOF 3
ENDMDL
MODEL 4
REMARK VINA RESULT:      -4.2     11.562     12.411
REMARK  3 active torsions:
REMARK  status: ('A' for Active; 'I' for Inactive)
REMARK    1  A    between atoms: C2_2  and  C9_9 
REMARK    2  A    between atoms: C7_7  and  N10_10 
REMARK    3  A    between atoms: C9_9  and  N10_10 
ROOT
HETATM    1  C1  UNL     1     -34.837  17.205   0.102  1.00 20.00    -0.109 C 
HETATM    2  C2  UNL     1     -34.402  16.933  -0.984  1.00 20.00    -0.077 C 
HETATM    3  C8  UNL     1     -35.366  17.536   1.425  1.00 20.00     0.112 C 
ENDROOT
BRANCH   2   4
HETATM    4  C9  UNL     1     -33.878  16.606  -2.312  1.00 20.00     0.363 C 
BRANCH   4   5
HETATM    5  N10 UNL     1     -34.270  15.263  -2.709  1.00 20.00     0.099 N 
HETATM    6  H26 UNL     1     -34.538  14.728  -1.888  1.00 20.00     0.317 HD
BRANCH   5   7
HETATM    7  C7  UNL     1     -35.391  15.309  -3.620  1.00 20.00     0.225 C 
HETATM    8  C3  UNL     1     -35.760  13.904  -4.101  1.00 20.00     0.062 C 
HETATM    9  C5  UNL     1     -34.770  13.389  -5.141  1.00 20.00     0.169 C 
HETATM   10  O11 UNL     1     -34.658  14.304  -6.230  1.00 20.00    -0.391 OA
HETATM   11  C6  UNL     1     -34.158  15.575  -5.815  1.00 20.00     0.169 C 
HETATM   12  C4  UNL     1     -35.102  16.228  -4.809  1.00 20.00     0.062 C 
ENDBRANCH   5   7
ENDBRANCH   4   5
ENDBRANCH   2   4
TORSDOF 3
ENDMDL
MODEL 5
REMARK VINA RESULT:      -4.0     12.161     13.284
REMARK  3 active torsions:
REMARK  status: ('A' for Active; 'I' for Inactive)
REMARK    1  A    between atoms: C2_2  and  C9_9 
REMARK    2  A    between atoms: C7_7  and  N10_10 
REMARK    3  A    between atoms: C9_9  and  N10_10 
ROOT
HETATM    1  C1  UNL     1     -34.172  16.395  -1.743  1.00 20.00    -0.109 C 
HETATM    2  C2  UNL     1     -33.663  15.864  -2.693  1.00 20.00    -0.077 C 
HETATM    3  C8  UNL     1     -34.792  17.043  -0.588  1.00 20.00     0.112 C 
ENDROOT
BRANCH   2   4
HETATM    4  C9  UNL     1     -33.047  15.218  -3.854  1.00 20.00     0.363 C 
BRANCH   4   5
HETATM    5  N10 UNL     1     -33.632  15.708  -5.092  1.00 20.00     0.099 N 
HETATM    6  H26 UNL     1     -32.896  16.038  -5.711  1.00 20.00     0.317 HD
BRANCH   5   7
HETATM    7  C7  UNL     1     -34.363  14.655  -5.760  1.00 20.00     0.225 C 
HETATM    8  C3  UNL     1     -34.503  14.954  -7.254  1.00 20.00     0.062 C 
HETATM    9  C5  UNL     1     -35.554  16.028  -7.516  1.00 20.00     0.169 C 
HETATM   10  O11 UNL     1     -36.805  15.664  -6.934  1.00 20.00    -0.391 OA
HETATM   11  C6  UNL     1     -36.722  15.541  -5.514  1.00 20.00     0.169 C 
HETATM   12  C4  UNL     1     -35.737  14.443  -5.121  1.00 20.00     0.062 C 
ENDBRANCH   5   7
ENDBRANCH   4   5
ENDBRANCH   2   4
TORSDOF 3
ENDMDL
MODEL 6
REMARK VINA RESULT:      -3.9     12.192     13.904
REMARK  3 active torsions:
REMARK  status: ('A' for Active; 'I' for Inactive)
REMARK    1  A    between atoms: C2_2  and  C9_9 
REMARK    2  A    between atoms: C7_7  and  N10_10 
REMARK    3  A    between atoms: C9_9  and  N10_10 
ROOT
HETATM    1  C1  UNL     1     -34.576  16.603  -1.137  1.00 20.00    -0.109 C 
HETATM    2  C2  UNL     1     -34.677  15.868  -2.082  1.00 20.00    -0.077 C 
HETATM    3  C8  UNL     1     -34.454  17.496   0.015  1.00 20.00     0.112 C 
ENDROOT
BRANCH   2   4
HETATM    4  C9  UNL     1     -34.800  14.967  -3.231  1.00 20.00     0.363 C 
BRANCH   4   5
HETATM    5  N10 UNL     1     -35.117  15.708  -4.440  1.00 20.00     0.099 N 
HETATM    6  H26 UNL     1     -35.405  16.652  -4.198  1.00 20.00     0.317 HD
BRANCH   5   7
HETATM    7  C7  UNL     1     -33.964  15.783  -5.308  1.00 20.00     0.225 C 
HETATM    8  C3  UNL     1     -33.326  17.173  -5.247  1.00 20.00     0.062 C 
HETATM    9  C5  UNL     1     -34.142  18.200  -6.026  1.00 20.00     0.169 C 
HETATM   10  O11 UNL     1     -34.339  17.772  -7.373  1.00 20.00    -0.391 OA
HETATM   11  C6  UNL     1     -35.077  16.553  -7.448  1.00 20.00     0.169 C 
HETATM   12  C4  UNL     1     -34.329  15.421  -6.749  1.00 20.00     0.062 C 
ENDBRANCH   5   7
ENDBRANCH   4   5
ENDBRANCH   2   4
TORSDOF 3
ENDMDL
MODEL 7
REMARK VINA RESULT:      -3.8      9.673     11.364
REMARK  3 active torsions:
REMARK  status: ('A' for Active; 'I' for Inactive)
REMARK    1  A    between atoms: C2_2  and  C9_9 
REMARK    2  A    between atoms: C7_7  and  N10_10 
REMARK    3  A    between atoms: C9_9  and  N10_10 
ROOT
HETATM    1  C1  UNL     1     -41.666   0.578  -3.823  1.00 20.00    -0.109 C 
HETATM    2  C2  UNL     1     -41.961   1.703  -3.521  1.00 20.00    -0.077 C 
HETATM    3  C8  UNL     1     -41.306  -0.791  -4.190  1.00 20.00     0.112 C 
ENDROOT
BRANCH   2   4
HETATM    4  C9  UNL     1     -42.315   3.076  -3.154  1.00 20.00     0.363 C 
BRANCH   4   5
HETATM    5  N10 UNL     1     -41.585   3.502  -1.971  1.00 20.00     0.099 N 
HETATM    6  H26 UNL     1     -40.744   4.001  -2.249  1.00 20.00     0.317 HD
BRANCH   5   7
HETATM    7  C7  UNL     1     -42.398   4.379  -1.160  1.00 20.00     0.225 C 
HETATM    8  C3  UNL     1     -42.884   5.580  -1.974  1.00 20.00     0.062 C 
HETATM    9  C5  UNL     1     -41.770   6.600  -2.190  1.00 20.00     0.169 C 
HETATM   10  O11 UNL     1     -41.206   7.004  -0.943  1.00 20.00    -0.391 OA
HETATM   11  C6  UNL     1     -40.604   5.914  -0.245  1.00 20.00     0.169 C 
HETATM   12  C4  UNL     1     -41.640   4.843   0.086  1.00 20.00     0.062 C 
ENDBRANCH   5   7
ENDBRANCH   4   5
ENDBRANCH   2   4
TORSDOF 3
ENDMDL
MODEL 8
REMARK VINA RESULT:      -3.8     11.053     12.898
REMARK  3 active torsions:
REMARK  status: ('A' for Active; 'I' for Inactive)
REMARK    1  A    between atoms: C2_2  and  C9_9 
REMARK    2  A    between atoms: C7_7  and  N10_10 
REMARK    3  A    between atoms: C9_9  and  N10_10 
ROOT
HETATM    1  C1  UNL     1     -34.329  18.372  -6.709  1.00 20.00    -0.109 C 
HETATM    2  C2  UNL     1     -33.904  17.844  -5.717  1.00 20.00    -0.077 C 
HETATM    3  C8  UNL     1     -34.845  19.014  -7.917  1.00 20.00     0.112 C 
ENDROOT
BRANCH   2   4
HETATM    4  C9  UNL     1     -33.390  17.194  -4.509  1.00 20.00     0.363 C 
BRANCH   4   5
HETATM    5  N10 UNL     1     -33.158  15.777  -4.740  1.00 20.00     0.099 N 
HETATM    6  H26 UNL     1     -32.170  15.617  -4.918  1.00 20.00     0.317 HD
BRANCH   5   7
HETATM    7  C7  UNL     1     -33.552  15.003  -3.585  1.00 20.00     0.225 C 
HETATM    8  C3  UNL     1     -33.540  13.506  -3.903  1.00 20.00     0.062 C 
HETATM    9  C5  UNL     1     -34.744  13.101  -4.749  1.00 20.00     0.169 C 
HETATM   10  O11 UNL     1     -35.961  13.493  -4.115  1.00 20.00    -0.391 OA
HETATM   11  C6  UNL     1     -36.055  14.908  -3.959  1.00 20.00     0.169 C 
HETATM   12  C4  UNL     1     -34.928  15.433  -3.073  1.00 20.00     0.062 C 
ENDBRANCH   5   7
ENDBRANCH   4   5
ENDBRANCH   2   4
TORSDOF 3
ENDMDL
MODEL 9
REMARK VINA RESULT:      -3.8     11.479     12.759
REMARK  3 active torsions:
REMARK  status: ('A' for Active; 'I' for Inactive)
REMARK    1  A    between atoms: C2_2  and  C9_9 
REMARK    2  A    between atoms: C7_7  and  N10_10 
REMARK    3  A    between atoms: C9_9  and  N10_10 
ROOT
HETATM    1  C1  UNL     1     -34.633  14.581  -6.190  1.00 20.00    -0.109 C 
HETATM    2  C2  UNL     1     -34.408  14.428  -5.020  1.00 20.00    -0.077 C 
HETATM    3  C8  UNL     1     -34.907  14.766  -7.615  1.00 20.00     0.112 C 
ENDROOT
BRANCH   2   4
HETATM    4  C9  UNL     1     -34.138  14.237  -3.593  1.00 20.00     0.363 C 
BRANCH   4   5
HETATM    5  N10 UNL     1     -33.658  15.467  -2.985  1.00 20.00     0.099 N 
HETATM    6  H26 UNL     1     -33.139  16.008  -3.671  1.00 20.00     0.317 HD
BRANCH   5   7
HETATM    7  C7  UNL     1     -34.765  16.263  -2.507  1.00 20.00     0.225 C 
HETATM    8  C3  UNL     1     -34.907  17.548  -3.326  1.00 20.00     0.062 C 
HETATM    9  C5  UNL     1     -33.840  18.572  -2.952  1.00 20.00     0.169 C 
HETATM   10  O11 UNL     1     -33.863  18.838  -1.550  1.00 20.00    -0.391 OA
HETATM   11  C6  UNL     1     -33.572  17.675  -0.777  1.00 20.00     0.169 C 
HETATM   12  C4  UNL     1     -34.614  16.587  -1.019  1.00 20.00     0.062 C 
ENDBRANCH   5   7
ENDBRANCH   4   5
ENDBRANCH   2   4
TORSDOF 3
ENDMDL
