MODEL 1
REMARK VINA RESULT:      -5.4      0.000      0.000
REMARK  4 active torsions:
REMARK  status: ('A' for Active; 'I' for Inactive)
REMARK    1  A    between atoms: C2_2  and  C7_7 
REMARK    2  A    between atoms: C5_5  and  C8_8 
REMARK    3  A    between atoms: C7_7  and  C8_8 
REMARK    4  A    between atoms: C8_8  and  O9_9 
ROOT
HETATM    1  C1  UNL     1     -32.260   8.408   1.900  1.00 20.00    -0.111 C 
HETATM    2  C2  UNL     1     -32.320   7.441   2.610  1.00 20.00    -0.104 C 
HETATM    3  C6  UNL     1     -32.186   9.585   1.035  1.00 20.00     0.112 C 
ENDROOT
BRANCH   2   4
HETATM    4  C7  UNL     1     -32.394   6.256   3.479  1.00 20.00     0.126 C 
BRANCH   4   5
HETATM    5  C8  UNL     1     -33.823   6.015   3.972  1.00 20.00     0.133 C 
BRANCH   5   6
HETATM    6  C5  UNL     1     -33.831   5.188   5.251  1.00 20.00     0.015 A 
HETATM    7  C3  UNL     1     -34.697   5.597   6.412  1.00 20.00     0.007 A 
HETATM    8  C4  UNL     1     -35.037   4.368   5.615  1.00 20.00     0.007 A 
ENDBRANCH   5   6
BRANCH   5   9
HETATM    9  O9  UNL     1     -34.541   5.301   2.967  1.00 20.00    -0.394 OA
HETATM   10  H21 UNL     1     -34.221   4.386   2.999  1.00 20.00     0.210 HD
ENDBRANCH   5   9
ENDBRANCH   4   5
ENDBRANCH   2   4
TORSDOF 4
ENDMDL
MODEL 2
REMARK VINA RESULT:      -4.4     10.762     12.094
REMARK  4 active torsions:
REMARK  status: ('A' for Active; 'I' for Inactive)
REMARK    1  A    between atoms: C2_2  and  C7_7 
REMARK    2  A    between atoms: C5_5  and  C8_8 
REMARK    3  A    between atoms: C7_7  and  C8_8 
REMARK    4  A    between atoms: C8_8  and  O9_9 
ROOT
HETATM    1  C1  UNL     1     -34.444  15.797  -2.311  1.00 20.00    -0.111 C 
HETATM    2  C2  UNL     1     -33.972  14.921  -2.983  1.00 20.00    -0.104 C 
HETATM    3  C6  UNL     1     -35.018  16.865  -1.493  1.00 20.00     0.112 C 
ENDROOT
BRANCH   2   4
HETATM    4  C7  UNL     1     -33.395  13.846  -3.806  1.00 20.00     0.126 C 
BRANCH   4   5
HETATM    5  C8  UNL     1     -34.387  13.361  -4.865  1.00 20.00     0.133 C 
BRANCH   5   6
HETATM    6  C5  UNL     1     -35.005  14.532  -5.617  1.00 20.00     0.015 A 
HETATM    7  C3  UNL     1     -34.284  15.148  -6.786  1.00 20.00     0.007 A 
HETATM    8  C4  UNL     1     -35.534  14.343  -7.011  1.00 20.00     0.007 A 
ENDBRANCH   5   6
BRANCH   5   9
HETATM    9  O9  UNL     1     -35.432  12.636  -4.218  1.00 20.00    -0.394 OA
HETATM   10  H21 UNL     1     -36.193  13.235  -4.173  1.00 20.00     0.210 HD
ENDBRANCH   5   9
ENDBRANCH   4   5
ENDBRANCH   2   4
TORSDOF 4
ENDMDL
MODEL 3
REMARK VINA RESULT:      -4.2     11.199     12.299
REMARK  4 active torsions:
REMARK  status: ('A' for Active; 'I' for Inactive)
REMARK    1  A    between atoms: C2_2  and  C7_7 
REMARK    2  A    between atoms: C5_5  and  C8_8 
REMARK    3  A    between atoms: C7_7  and  C8_8 
REMARK    4  A    between atoms: C8_8  and  O9_9 
ROOT
HETATM    1  C1  UNL     1     -35.057  14.256  -6.444  1.00 20.00    -0.111 C 
HETATM    2  C2  UNL     1     -34.509  14.010  -5.404  1.00 20.00    -0.104 C 
HETATM    3  C6  UNL     1     -35.723  14.557  -7.711  1.00 20.00     0.112 C 
ENDROOT
BRANCH   2   4
HETATM    4  C7  UNL     1     -33.838  13.706  -4.130  1.00 20.00     0.126 C 
BRANCH   4   5
HETATM    5  C8  UNL     1     -33.213  14.961  -3.517  1.00 20.00     0.133 C 
BRANCH   5   6
HETATM    6  C5  UNL     1     -34.285  15.947  -3.070  1.00 20.00     0.015 A 
HETATM    7  C3  UNL     1     -34.354  16.391  -1.634  1.00 20.00     0.007 A 
HETATM    8  C4  UNL     1     -33.911  17.355  -2.700  1.00 20.00     0.007 A 
ENDBRANCH   5   6
BRANCH   5   9
HETATM    9  O9  UNL     1     -32.396  15.595  -4.500  1.00 20.00    -0.394 OA
HETATM   10  H21 UNL     1     -32.674  15.238  -5.357  1.00 20.00     0.210 HD
ENDBRANCH   5   9
ENDBRANCH   4   5
ENDBRANCH   2   4
TORSDOF 4
ENDMDL
MODEL 4
REMARK VINA RESULT:      -4.2     11.435     12.743
REMARK  4 active torsions:
REMARK  status: ('A' for Active; 'I' for Inactive)
REMARK    1  A    between atoms: C2_2  and  C7_7 
REMARK    2  A    between atoms: C5_5  and  C8_8 
REMARK    3  A    between atoms: C7_7  and  C8_8 
REMARK    4  A    between atoms: C8_8  and  O9_9 
ROOT
HETATM    1  C1  UNL     1     -34.511  16.471  -1.319  1.00 20.00    -0.111 C 
HETATM    2  C2  UNL     1     -34.347  15.707  -2.230  1.00 20.00    -0.104 C 
HETATM    3  C6  UNL     1     -34.712  17.401  -0.207  1.00 20.00     0.112 C 
ENDROOT
BRANCH   2   4
HETATM    4  C7  UNL     1     -34.144  14.772  -3.348  1.00 20.00     0.126 C 
BRANCH   4   5
HETATM    5  C8  UNL     1     -34.041  15.513  -4.683  1.00 20.00     0.133 C 
BRANCH   5   6
HETATM    6  C5  UNL     1     -34.449  14.613  -5.843  1.00 20.00     0.015 A 
HETATM    7  C3  UNL     1     -35.714  14.892  -6.609  1.00 20.00     0.007 A 
HETATM    8  C4  UNL     1     -34.376  15.120  -7.256  1.00 20.00     0.007 A 
ENDBRANCH   5   6
BRANCH   5   9
HETATM    9  O9  UNL     1     -32.688  15.919  -4.880  1.00 20.00    -0.394 OA
HETATM   10  H21 UNL     1     -32.329  15.348  -5.577  1.00 20.00     0.210 HD
ENDBRANCH   5   9
ENDBRANCH   4   5
ENDBRANCH   2   4
TORSDOF 4
ENDMDL
MODEL 5
REMARK VINA RESULT:      -4.1     10.806     11.600
REMARK  4 active torsions:
REMARK  status: ('A' for Active; 'I' for Inactive)
REMARK    1  A    between atoms: C2_2  and  C7_7 
REMARK    2  A    between atoms: C5_5  and  C8_8 
REMARK    3  A    between atoms: C7_7  and  C8_8 
REMARK    4  A    between atoms: C8_8  and  O9_9 
ROOT
HETATM    1  C1  UNL     1     -34.815  17.371   0.419  1.00 20.00    -0.111 C 
HETATM    2  C2  UNL     1     -34.501  17.013  -0.684  1.00 20.00    -0.104 C 
HETATM    3  C6  UNL     1     -35.195  17.807   1.762  1.00 20.00     0.112 C 
ENDROOT
BRANCH   2   4
HETATM    4  C7  UNL     1     -34.119  16.575  -2.036  1.00 20.00     0.126 C 
BRANCH   4   5
HETATM    5  C8  UNL     1     -34.909  15.337  -2.465  1.00 20.00     0.133 C 
BRANCH   5   6
HETATM    6  C5  UNL     1     -34.395  14.791  -3.791  1.00 20.00     0.015 A 
HETATM    7  C3  UNL     1     -33.488  13.591  -3.816  1.00 20.00     0.007 A 
HETATM    8  C4  UNL     1     -34.901  13.476  -4.315  1.00 20.00     0.007 A 
ENDBRANCH   5   6
BRANCH   5   9
HETATM    9  O9  UNL     1     -36.279  15.699  -2.624  1.00 20.00    -0.394 OA
HETATM   10  H21 UNL     1     -36.323  16.265  -3.410  1.00 20.00     0.210 HD
ENDBRANCH   5   9
ENDBRANCH   4   5
ENDBRANCH   2   4
TORSDOF 4
ENDMDL
MODEL 6
REMARK VINA RESULT:      -4.1      1.510      5.106
REMARK  4 active torsions:
REMARK  status: ('A' for Active; 'I' for Inactive)
REMARK    1  A    between atoms: C2_2  and  C7_7 
REMARK    2  A    between atoms: C5_5  and  C8_8 
REMARK    3  A    between atoms: C7_7  and  C8_8 
REMARK    4  A    between atoms: C8_8  and  O9_9 
ROOT
HETATM    1  C1  UNL     1     -34.340   5.350   5.152  1.00 20.00    -0.111 C 
HETATM    2  C2  UNL     1     -33.733   5.687   4.172  1.00 20.00    -0.104 C 
HETATM    3  C6  UNL     1     -35.080   4.941   6.345  1.00 20.00     0.112 C 
ENDROOT
BRANCH   2   4
HETATM    4  C7  UNL     1     -32.988   6.098   2.971  1.00 20.00     0.126 C 
BRANCH   4   5
HETATM    5  C8  UNL     1     -32.560   7.565   3.055  1.00 20.00     0.133 C 
BRANCH   5   6
HETATM    6  C5  UNL     1     -32.642   8.240   1.693  1.00 20.00     0.015 A 
HETATM    7  C3  UNL     1     -32.505   9.734   1.577  1.00 20.00     0.007 A 
HETATM    8  C4  UNL     1     -31.412   8.837   1.068  1.00 20.00     0.007 A 
ENDBRANCH   5   6
BRANCH   5   9
HETATM    9  O9  UNL     1     -31.209   7.623   3.509  1.00 20.00    -0.394 OA
HETATM   10  H21 UNL     1     -30.652   7.430   2.739  1.00 20.00     0.210 HD
ENDBRANCH   5   9
ENDBRANCH   4   5
ENDBRANCH   2   4
TORSDOF 4
ENDMDL
MODEL 7
REMARK VINA RESULT:      -4.0     11.396     12.529
REMARK  4 active torsions:
REMARK  status: ('A' for Active; 'I' for Inactive)
REMARK    1  A    between atoms: C2_2  and  C7_7 
REMARK    2  A    between atoms: C5_5  and  C8_8 
REMARK    3  A    between atoms: C7_7  and  C8_8 
REMARK    4  A    between atoms: C8_8  and  O9_9 
ROOT
HETATM    1  C1  UNL     1     -34.306  17.030  -1.743  1.00 20.00    -0.111 C 
HETATM    2  C2  UNL     1     -33.999  17.144  -2.899  1.00 20.00    -0.104 C 
HETATM    3  C6  UNL     1     -34.682  16.891  -0.337  1.00 20.00     0.112 C 
ENDROOT
BRANCH   2   4
HETATM    4  C7  UNL     1     -33.620  17.283  -4.314  1.00 20.00     0.126 C 
BRANCH   4   5
HETATM    5  C8  UNL     1     -33.343  15.920  -4.953  1.00 20.00     0.133 C 
BRANCH   5   6
HETATM    6  C5  UNL     1     -34.505  14.962  -4.730  1.00 20.00     0.015 A 
HETATM    7  C3  UNL     1     -35.027  14.125  -5.866  1.00 20.00     0.007 A 
HETATM    8  C4  UNL     1     -34.274  13.477  -4.737  1.00 20.00     0.007 A 
ENDBRANCH   5   6
BRANCH   5   9
HETATM    9  O9  UNL     1     -32.174  15.362  -4.356  1.00 20.00    -0.394 OA
HETATM   10  H21 UNL     1     -31.466  16.012  -4.480  1.00 20.00     0.210 HD
ENDBRANCH   5   9
ENDBRANCH   4   5
ENDBRANCH   2   4
TORSDOF 4
ENDMDL
MODEL 8
REMARK VINA RESULT:      -3.9     11.617     13.345
REMARK  4 active torsions:
REMARK  status: ('A' for Active; 'I' for Inactive)
REMARK    1  A    between atoms: C2_2  and  C7_7 
REMARK    2  A    between atoms: C5_5  and  C8_8 
REMARK    3  A    between atoms: C7_7  and  C8_8 
REMARK    4  A    between atoms: C8_8  and  O9_9 
ROOT
HETATM    1  C1  UNL     1     -34.642  16.717  -0.787  1.00 20.00    -0.111 C 
HETATM    2  C2  UNL     1     -34.354  16.171  -1.817  1.00 20.00    -0.104 C 
HETATM    3  C6  UNL     1     -34.994  17.380   0.467  1.00 20.00     0.112 C 
ENDROOT
BRANCH   2   4
HETATM    4  C7  UNL     1     -33.999  15.502  -3.079  1.00 20.00     0.126 C 
BRANCH   4   5
HETATM    5  C8  UNL     1     -33.390  16.486  -4.080  1.00 20.00     0.133 C 
BRANCH   5   6
HETATM    6  C5  UNL     1     -34.463  17.091  -4.977  1.00 20.00     0.015 A 
HETATM    7  C3  UNL     1     -34.557  18.583  -5.145  1.00 20.00     0.007 A 
HETATM    8  C4  UNL     1     -34.086  17.725  -6.286  1.00 20.00     0.007 A 
ENDBRANCH   5   6
BRANCH   5   9
HETATM    9  O9  UNL     1     -32.455  15.788  -4.901  1.00 20.00    -0.394 OA
HETATM   10  H21 UNL     1     -32.860  15.718  -5.779  1.00 20.00     0.210 HD
ENDBRANCH   5   9
ENDBRANCH   4   5
ENDBRANCH   2   4
TORSDOF 4
ENDMDL
MODEL 9
REMARK VINA RESULT:      -3.9      9.783     10.488
REMARK  4 active torsions:
REMARK  status: ('A' for Active; 'I' for Inactive)
REMARK    1  A    between atoms: C2_2  and  C7_7 
REMARK    2  A    between atoms: C5_5  and  C8_8 
REMARK    3  A    between atoms: C7_7  and  C8_8 
REMARK    4  A    between atoms: C8_8  and  O9_9 
ROOT
HETATM    1  C1  UNL     1     -41.386   3.720  -2.086  1.00 20.00    -0.111 C 
HETATM    2  C2  UNL     1     -41.053   4.547  -1.281  1.00 20.00    -0.104 C 
HETATM    3  C6  UNL     1     -41.792   2.714  -3.066  1.00 20.00     0.112 C 
ENDROOT
BRANCH   2   4
HETATM    4  C7  UNL     1     -40.644   5.560  -0.295  1.00 20.00     0.126 C 
BRANCH   4   5
HETATM    5  C8  UNL     1     -41.159   6.950  -0.678  1.00 20.00     0.133 C 
BRANCH   5   6
HETATM    6  C5  UNL     1     -42.682   6.984  -0.699  1.00 20.00     0.015 A 
HETATM    7  C3  UNL     1     -43.410   8.301  -0.717  1.00 20.00     0.007 A 
HETATM    8  C4  UNL     1     -43.412   7.423  -1.937  1.00 20.00     0.007 A 
ENDBRANCH   5   6
BRANCH   5   9
HETATM    9  O9  UNL     1     -40.681   7.274  -1.982  1.00 20.00    -0.394 OA
HETATM   10  H21 UNL     1     -41.431   7.658  -2.462  1.00 20.00     0.210 HD
ENDBRANCH   5   9
ENDBRANCH   4   5
ENDBRANCH   2   4
TORSDOF 4
ENDMDL
