MODEL 1
REMARK VINA RESULT:      -5.6      0.000      0.000
REMARK  3 active torsions:
REMARK  status: ('A' for Active; 'I' for Inactive)
REMARK    1  A    between atoms: C2_2  and  C11_11 
REMARK    2  A    between atoms: C7_7  and  C11_11 
REMARK    3  A    between atoms: C8_8  and  C12_12 
ROOT
HETATM    1  C1  UNL     1     -34.388  16.907  -0.955  1.00 20.00    -0.111 C 
HETATM    2  C2  UNL     1     -34.786  16.151  -1.798  1.00 20.00    -0.106 C 
HETATM    3  C9  UNL     1     -33.904  17.829   0.073  1.00 20.00     0.112 C 
ENDROOT
BRANCH   2   4
HETATM    4  C11 UNL     1     -35.279  15.233  -2.828  1.00 20.00     0.106 C 
BRANCH   4   5
HETATM    5  C7  UNL     1     -34.129  14.654  -3.642  1.00 20.00     0.067 C 
HETATM    6  C3  UNL     1     -34.671  13.811  -4.783  1.00 20.00     0.132 C 
HETATM    7  C4  UNL     1     -35.063  14.524  -6.056  1.00 20.00     0.079 C 
HETATM    8  O13 UNL     1     -34.879  12.605  -4.641  1.00 20.00    -0.298 OA
HETATM    9  C5  UNL     1     -33.947  15.447  -6.520  1.00 20.00     0.012 C 
HETATM   10  C8  UNL     1     -33.500  16.439  -5.440  1.00 20.00    -0.014 C 
HETATM   11  C6  UNL     1     -33.126  15.700  -4.144  1.00 20.00     0.017 C 
BRANCH  10  12
HETATM   12  C12 UNL     1     -34.517  17.559  -5.227  1.00 20.00     0.000 C 
HETATM   13  C10 UNL     1     -33.937  18.689  -4.442  1.00 20.00     0.005 C 
ENDBRANCH  10  12
ENDBRANCH   4   5
ENDBRANCH   2   4
TORSDOF 3
ENDMDL
MODEL 2
REMARK VINA RESULT:      -5.2      1.055      1.105
REMARK  3 active torsions:
REMARK  status: ('A' for Active; 'I' for Inactive)
REMARK    1  A    between atoms: C2_2  and  C11_11 
REMARK    2  A    between atoms: C7_7  and  C11_11 
REMARK    3  A    between atoms: C8_8  and  C12_12 
ROOT
HETATM    1  C1  UNL     1     -33.669  17.534  -0.944  1.00 20.00    -0.111 C 
HETATM    2  C2  UNL     1     -34.074  16.688  -1.693  1.00 20.00    -0.106 C 
HETATM    3  C9  UNL     1     -33.174  18.565  -0.032  1.00 20.00     0.112 C 
ENDROOT
BRANCH   2   4
HETATM    4  C11 UNL     1     -34.562  15.651  -2.607  1.00 20.00     0.106 C 
BRANCH   4   5
HETATM    5  C7  UNL     1     -33.518  15.318  -3.666  1.00 20.00     0.067 C 
HETATM    6  C3  UNL     1     -33.832  13.976  -4.303  1.00 20.00     0.132 C 
HETATM    7  C4  UNL     1     -34.827  13.956  -5.441  1.00 20.00     0.079 C 
HETATM    8  O13 UNL     1     -33.371  12.930  -3.844  1.00 20.00    -0.298 OA
HETATM    9  C5  UNL     1     -34.471  15.004  -6.483  1.00 20.00     0.012 C 
HETATM   10  C8  UNL     1     -34.326  16.412  -5.895  1.00 20.00    -0.014 C 
HETATM   11  C6  UNL     1     -33.328  16.412  -4.725  1.00 20.00     0.017 C 
BRANCH  10  12
HETATM   12  C12 UNL     1     -35.676  17.032  -5.539  1.00 20.00     0.000 C 
HETATM   13  C10 UNL     1     -35.518  18.387  -4.931  1.00 20.00     0.005 C 
ENDBRANCH  10  12
ENDBRANCH   4   5
ENDBRANCH   2   4
TORSDOF 3
ENDMDL
MODEL 3
REMARK VINA RESULT:      -4.6      2.150      3.008
REMARK  3 active torsions:
REMARK  status: ('A' for Active; 'I' for Inactive)
REMARK    1  A    between atoms: C2_2  and  C11_11 
REMARK    2  A    between atoms: C7_7  and  C11_11 
REMARK    3  A    between atoms: C8_8  and  C12_12 
ROOT
HETATM    1  C1  UNL     1     -34.799  17.073  -0.125  1.00 20.00    -0.111 C 
HETATM    2  C2  UNL     1     -34.629  16.472  -1.150  1.00 20.00    -0.106 C 
HETATM    3  C9  UNL     1     -35.007  17.804   1.125  1.00 20.00     0.112 C 
ENDROOT
BRANCH   2   4
HETATM    4  C11 UNL     1     -34.430  15.736  -2.402  1.00 20.00     0.106 C 
BRANCH   4   5
HETATM    5  C7  UNL     1     -34.588  16.653  -3.609  1.00 20.00     0.067 C 
HETATM    6  C3  UNL     1     -33.876  16.058  -4.811  1.00 20.00     0.132 C 
HETATM    7  C4  UNL     1     -34.626  15.036  -5.634  1.00 20.00     0.079 C 
HETATM    8  O13 UNL     1     -32.697  16.324  -5.049  1.00 20.00    -0.298 OA
HETATM    9  C5  UNL     1     -36.010  15.549  -5.996  1.00 20.00     0.012 C 
HETATM   10  C8  UNL     1     -36.827  15.989  -4.776  1.00 20.00    -0.014 C 
HETATM   11  C6  UNL     1     -36.043  17.012  -3.938  1.00 20.00     0.017 C 
BRANCH  10  12
HETATM   12  C12 UNL     1     -37.335  14.800  -3.961  1.00 20.00     0.000 C 
HETATM   13  C10 UNL     1     -38.827  14.744  -3.940  1.00 20.00     0.005 C 
ENDBRANCH  10  12
ENDBRANCH   4   5
ENDBRANCH   2   4
TORSDOF 3
ENDMDL
MODEL 4
REMARK VINA RESULT:      -4.6      2.095      3.237
REMARK  3 active torsions:
REMARK  status: ('A' for Active; 'I' for Inactive)
REMARK    1  A    between atoms: C2_2  and  C11_11 
REMARK    2  A    between atoms: C7_7  and  C11_11 
REMARK    3  A    between atoms: C8_8  and  C12_12 
ROOT
HETATM    1  C1  UNL     1     -34.804  17.062  -0.121  1.00 20.00    -0.111 C 
HETATM    2  C2  UNL     1     -34.519  16.662  -1.216  1.00 20.00    -0.106 C 
HETATM    3  C9  UNL     1     -35.152  17.550   1.213  1.00 20.00     0.112 C 
ENDROOT
BRANCH   2   4
HETATM    4  C11 UNL     1     -34.177  16.177  -2.556  1.00 20.00     0.106 C 
BRANCH   4   5
HETATM    5  C7  UNL     1     -34.975  16.913  -3.626  1.00 20.00     0.067 C 
HETATM    6  C3  UNL     1     -34.043  17.744  -4.490  1.00 20.00     0.132 C 
HETATM    7  C4  UNL     1     -33.353  17.052  -5.643  1.00 20.00     0.079 C 
HETATM    8  O13 UNL     1     -33.780  18.913  -4.202  1.00 20.00    -0.298 OA
HETATM    9  C5  UNL     1     -34.358  16.278  -6.482  1.00 20.00     0.012 C 
HETATM   10  C8  UNL     1     -35.194  15.291  -5.659  1.00 20.00    -0.014 C 
HETATM   11  C6  UNL     1     -35.871  16.005  -4.477  1.00 20.00     0.017 C 
BRANCH  10  12
HETATM   12  C12 UNL     1     -34.391  14.059  -5.243  1.00 20.00     0.000 C 
HETATM   13  C10 UNL     1     -35.173  13.173  -4.330  1.00 20.00     0.005 C 
ENDBRANCH  10  12
ENDBRANCH   4   5
ENDBRANCH   2   4
TORSDOF 3
ENDMDL
MODEL 5
REMARK VINA RESULT:      -4.5      1.778      2.422
REMARK  3 active torsions:
REMARK  status: ('A' for Active; 'I' for Inactive)
REMARK    1  A    between atoms: C2_2  and  C11_11 
REMARK    2  A    between atoms: C7_7  and  C11_11 
REMARK    3  A    between atoms: C8_8  and  C12_12 
ROOT
HETATM    1  C1  UNL     1     -34.598  16.595  -1.034  1.00 20.00    -0.111 C 
HETATM    2  C2  UNL     1     -34.344  16.153  -2.121  1.00 20.00    -0.106 C 
HETATM    3  C9  UNL     1     -34.908  17.134   0.290  1.00 20.00     0.112 C 
ENDROOT
BRANCH   2   4
HETATM    4  C11 UNL     1     -34.041  15.616  -3.451  1.00 20.00     0.106 C 
BRANCH   4   5
HETATM    5  C7  UNL     1     -35.010  14.501  -3.826  1.00 20.00     0.067 C 
HETATM    6  C3  UNL     1     -36.425  15.047  -3.906  1.00 20.00     0.132 C 
HETATM    7  C4  UNL     1     -36.852  15.697  -5.202  1.00 20.00     0.079 C 
HETATM    8  O13 UNL     1     -37.164  15.049  -2.920  1.00 20.00    -0.298 OA
HETATM    9  C5  UNL     1     -36.526  14.801  -6.386  1.00 20.00     0.012 C 
HETATM   10  C8  UNL     1     -35.053  14.379  -6.433  1.00 20.00    -0.014 C 
HETATM   11  C6  UNL     1     -34.628  13.740  -5.101  1.00 20.00     0.017 C 
BRANCH  10  12
HETATM   12  C12 UNL     1     -34.139  15.521  -6.876  1.00 20.00     0.000 C 
HETATM   13  C10 UNL     1     -34.809  16.406  -7.875  1.00 20.00     0.005 C 
ENDBRANCH  10  12
ENDBRANCH   4   5
ENDBRANCH   2   4
TORSDOF 3
ENDMDL
MODEL 6
REMARK VINA RESULT:      -4.4      2.500      4.231
REMARK  3 active torsions:
REMARK  status: ('A' for Active; 'I' for Inactive)
REMARK    1  A    between atoms: C2_2  and  C11_11 
REMARK    2  A    between atoms: C7_7  and  C11_11 
REMARK    3  A    between atoms: C8_8  and  C12_12 
ROOT
HETATM    1  C1  UNL     1     -39.055  14.908  -4.960  1.00 20.00    -0.111 C 
HETATM    2  C2  UNL     1     -37.972  15.382  -5.168  1.00 20.00    -0.106 C 
HETATM    3  C9  UNL     1     -40.375  14.331  -4.706  1.00 20.00     0.112 C 
ENDROOT
BRANCH   2   4
HETATM    4  C11 UNL     1     -36.646  15.953  -5.418  1.00 20.00     0.106 C 
BRANCH   4   5
HETATM    5  C7  UNL     1     -35.567  14.879  -5.363  1.00 20.00     0.067 C 
HETATM    6  C3  UNL     1     -34.257  15.429  -5.898  1.00 20.00     0.132 C 
HETATM    7  C4  UNL     1     -33.377  16.200  -4.941  1.00 20.00     0.079 C 
HETATM    8  O13 UNL     1     -33.968  15.338  -7.093  1.00 20.00    -0.298 OA
HETATM    9  C5  UNL     1     -33.175  15.420  -3.652  1.00 20.00     0.012 C 
HETATM   10  C8  UNL     1     -34.493  15.005  -2.987  1.00 20.00    -0.014 C 
HETATM   11  C6  UNL     1     -35.385  14.242  -3.979  1.00 20.00     0.017 C 
BRANCH  10  12
HETATM   12  C12 UNL     1     -35.199  16.184  -2.320  1.00 20.00     0.000 C 
HETATM   13  C10 UNL     1     -34.539  16.567  -1.036  1.00 20.00     0.005 C 
ENDBRANCH  10  12
ENDBRANCH   4   5
ENDBRANCH   2   4
TORSDOF 3
ENDMDL
MODEL 7
REMARK VINA RESULT:      -4.3      2.045      3.309
REMARK  3 active torsions:
REMARK  status: ('A' for Active; 'I' for Inactive)
REMARK    1  A    between atoms: C2_2  and  C11_11 
REMARK    2  A    between atoms: C7_7  and  C11_11 
REMARK    3  A    between atoms: C8_8  and  C12_12 
ROOT
HETATM    1  C1  UNL     1     -34.160  16.973  -1.972  1.00 20.00    -0.111 C 
HETATM    2  C2  UNL     1     -33.934  16.970  -3.151  1.00 20.00    -0.106 C 
HETATM    3  C9  UNL     1     -34.437  16.976  -0.536  1.00 20.00     0.112 C 
ENDROOT
BRANCH   2   4
HETATM    4  C11 UNL     1     -33.663  16.973  -4.591  1.00 20.00     0.106 C 
BRANCH   4   5
HETATM    5  C7  UNL     1     -34.957  16.909  -5.393  1.00 20.00     0.067 C 
HETATM    6  C3  UNL     1     -34.649  16.941  -6.880  1.00 20.00     0.132 C 
HETATM    7  C4  UNL     1     -34.302  15.633  -7.552  1.00 20.00     0.079 C 
HETATM    8  O13 UNL     1     -34.587  18.007  -7.494  1.00 20.00    -0.298 OA
HETATM    9  C5  UNL     1     -35.331  14.566  -7.213  1.00 20.00     0.012 C 
HETATM   10  C8  UNL     1     -35.531  14.381  -5.704  1.00 20.00    -0.014 C 
HETATM   11  C6  UNL     1     -35.861  15.724  -5.032  1.00 20.00     0.017 C 
BRANCH  10  12
HETATM   12  C12 UNL     1     -34.360  13.649  -5.051  1.00 20.00     0.000 C 
HETATM   13  C10 UNL     1     -34.560  13.489  -3.580  1.00 20.00     0.005 C 
ENDBRANCH  10  12
ENDBRANCH   4   5
ENDBRANCH   2   4
TORSDOF 3
ENDMDL
MODEL 8
REMARK VINA RESULT:      -4.2      2.410      3.744
REMARK  3 active torsions:
REMARK  status: ('A' for Active; 'I' for Inactive)
REMARK    1  A    between atoms: C2_2  and  C11_11 
REMARK    2  A    between atoms: C7_7  and  C11_11 
REMARK    3  A    between atoms: C8_8  and  C12_12 
ROOT
HETATM    1  C1  UNL     1     -39.160  14.676  -4.646  1.00 20.00    -0.111 C 
HETATM    2  C2  UNL     1     -38.057  15.130  -4.514  1.00 20.00    -0.106 C 
HETATM    3  C9  UNL     1     -40.505  14.124  -4.807  1.00 20.00     0.112 C 
ENDROOT
BRANCH   2   4
HETATM    4  C11 UNL     1     -36.713  15.691  -4.350  1.00 20.00     0.106 C 
BRANCH   4   5
HETATM    5  C7  UNL     1     -35.904  14.892  -3.336  1.00 20.00     0.067 C 
HETATM    6  C3  UNL     1     -35.056  13.853  -4.049  1.00 20.00     0.132 C 
HETATM    7  C4  UNL     1     -33.719  14.296  -4.596  1.00 20.00     0.079 C 
HETATM    8  O13 UNL     1     -35.486  12.718  -4.263  1.00 20.00    -0.298 OA
HETATM    9  C5  UNL     1     -32.924  15.038  -3.533  1.00 20.00     0.012 C 
HETATM   10  C8  UNL     1     -33.692  16.215  -2.920  1.00 20.00    -0.014 C 
HETATM   11  C6  UNL     1     -35.059  15.753  -2.389  1.00 20.00     0.017 C 
BRANCH  10  12
HETATM   12  C12 UNL     1     -33.783  17.405  -3.873  1.00 20.00     0.000 C 
HETATM   13  C10 UNL     1     -33.933  18.693  -3.133  1.00 20.00     0.005 C 
ENDBRANCH  10  12
ENDBRANCH   4   5
ENDBRANCH   2   4
TORSDOF 3
ENDMDL
MODEL 9
REMARK VINA RESULT:      -4.2      2.597      4.152
REMARK  3 active torsions:
REMARK  status: ('A' for Active; 'I' for Inactive)
REMARK    1  A    between atoms: C2_2  and  C11_11 
REMARK    2  A    between atoms: C7_7  and  C11_11 
REMARK    3  A    between atoms: C8_8  and  C12_12 
ROOT
HETATM    1  C1  UNL     1     -38.968  14.711  -4.348  1.00 20.00    -0.111 C 
HETATM    2  C2  UNL     1     -37.811  14.669  -4.036  1.00 20.00    -0.106 C 
HETATM    3  C9  UNL     1     -40.380  14.764  -4.729  1.00 20.00     0.112 C 
ENDROOT
BRANCH   2   4
HETATM    4  C11 UNL     1     -36.399  14.614  -3.646  1.00 20.00     0.106 C 
BRANCH   4   5
HETATM    5  C7  UNL     1     -35.774  16.004  -3.652  1.00 20.00     0.067 C 
HETATM    6  C3  UNL     1     -34.444  15.980  -2.918  1.00 20.00     0.132 C 
HETATM    7  C4  UNL     1     -33.222  15.552  -3.697  1.00 20.00     0.079 C 
HETATM    8  O13 UNL     1     -34.381  16.204  -1.708  1.00 20.00    -0.298 OA
HETATM    9  C5  UNL     1     -33.127  16.315  -5.009  1.00 20.00     0.012 C 
HETATM   10  C8  UNL     1     -34.397  16.206  -5.861  1.00 20.00    -0.014 C 
HETATM   11  C6  UNL     1     -35.634  16.623  -5.048  1.00 20.00     0.017 C 
BRANCH  10  12
HETATM   12  C12 UNL     1     -34.538  14.833  -6.515  1.00 20.00     0.000 C 
HETATM   13  C10 UNL     1     -35.781  14.738  -7.336  1.00 20.00     0.005 C 
ENDBRANCH  10  12
ENDBRANCH   4   5
ENDBRANCH   2   4
TORSDOF 3
ENDMDL
