MODEL 1
REMARK VINA RESULT:      -3.7      0.000      0.000
REMARK  3 active torsions:
REMARK  status: ('A' for Active; 'I' for Inactive)
REMARK    1  A    between atoms: C1_1  and  C3_3 
REMARK    2  A    between atoms: C2_2  and  C4_4 
REMARK    3  A    between atoms: C4_4  and  S7_7 
ROOT
HETATM    1  C1  UNL     1     -33.021   6.255   3.102  1.00 20.00     0.081 C 
HETATM    2  C2  UNL     1     -34.036   6.281   3.978  1.00 20.00    -0.010 C 
ENDROOT
BRANCH   1   3
HETATM    3  C3  UNL     1     -32.059   7.440   2.937  1.00 20.00     0.198 C 
HETATM    4  O5  UNL     1     -32.128   8.088   1.856  1.00 20.00    -0.645 OA
HETATM    5  O6  UNL     1     -31.297   7.626   3.931  1.00 20.00    -0.645 OA
ENDBRANCH   1   3
BRANCH   2   6
HETATM    6  C4  UNL     1     -34.999   5.149   4.154  1.00 20.00     0.098 C 
BRANCH   6   7
HETATM    7  S7  UNL     1     -34.858   4.465   5.827  1.00 20.00    -0.178 SA
HETATM    8  H12 UNL     1     -34.479   5.606   6.419  1.00 20.00     0.101 HD
ENDBRANCH   6   7
ENDBRANCH   2   6
TORSDOF 3
ENDMDL
MODEL 2
REMARK VINA RESULT:      -3.7      0.033      1.220
REMARK  3 active torsions:
REMARK  status: ('A' for Active; 'I' for Inactive)
REMARK    1  A    between atoms: C1_1  and  C3_3 
REMARK    2  A    between atoms: C2_2  and  C4_4 
REMARK    3  A    between atoms: C4_4  and  S7_7 
ROOT
HETATM    1  C1  UNL     1     -33.028   6.262   3.108  1.00 20.00     0.081 C 
HETATM    2  C2  UNL     1     -34.024   6.270   4.006  1.00 20.00    -0.010 C 
ENDROOT
BRANCH   1   3
HETATM    3  C3  UNL     1     -32.047   7.436   2.972  1.00 20.00     0.198 C 
HETATM    4  O5  UNL     1     -31.267   7.646   3.941  1.00 20.00    -0.645 OA
HETATM    5  O6  UNL     1     -32.144   8.062   1.877  1.00 20.00    -0.645 OA
ENDBRANCH   1   3
BRANCH   2   6
HETATM    6  C4  UNL     1     -35.004   5.149   4.156  1.00 20.00     0.098 C 
BRANCH   6   7
HETATM    7  S7  UNL     1     -34.872   4.421   5.812  1.00 20.00    -0.178 SA
HETATM    8  H12 UNL     1     -33.952   5.280   6.274  1.00 20.00     0.101 HD
ENDBRANCH   6   7
ENDBRANCH   2   6
TORSDOF 3
ENDMDL
MODEL 3
REMARK VINA RESULT:      -3.6     10.537     11.275
REMARK  3 active torsions:
REMARK  status: ('A' for Active; 'I' for Inactive)
REMARK    1  A    between atoms: C1_1  and  C3_3 
REMARK    2  A    between atoms: C2_2  and  C4_4 
REMARK    3  A    between atoms: C4_4  and  S7_7 
ROOT
HETATM    1  C1  UNL     1     -34.509  14.766  -3.237  1.00 20.00     0.081 C 
HETATM    2  C2  UNL     1     -33.598  15.725  -3.021  1.00 20.00    -0.010 C 
ENDROOT
BRANCH   1   3
HETATM    3  C3  UNL     1     -34.129  13.403  -3.835  1.00 20.00     0.198 C 
HETATM    4  O5  UNL     1     -32.914  13.068  -3.770  1.00 20.00    -0.645 OA
HETATM    5  O6  UNL     1     -35.105  12.769  -4.331  1.00 20.00    -0.645 OA
ENDBRANCH   1   3
BRANCH   2   6
HETATM    6  C4  UNL     1     -33.937  17.067  -2.452  1.00 20.00     0.098 C 
BRANCH   6   7
HETATM    7  S7  UNL     1     -34.589  16.885  -0.770  1.00 20.00    -0.178 SA
HETATM    8  H12 UNL     1     -35.800  17.400  -1.027  1.00 20.00     0.101 HD
ENDBRANCH   6   7
ENDBRANCH   2   6
TORSDOF 3
ENDMDL
MODEL 4
REMARK VINA RESULT:      -3.6      3.619      4.394
REMARK  3 active torsions:
REMARK  status: ('A' for Active; 'I' for Inactive)
REMARK    1  A    between atoms: C1_1  and  C3_3 
REMARK    2  A    between atoms: C2_2  and  C4_4 
REMARK    3  A    between atoms: C4_4  and  S7_7 
ROOT
HETATM    1  C1  UNL     1     -33.812   6.001   4.546  1.00 20.00     0.081 C 
HETATM    2  C2  UNL     1     -33.087   6.198   3.436  1.00 20.00    -0.010 C 
ENDROOT
BRANCH   1   3
HETATM    3  C3  UNL     1     -35.021   5.053   4.570  1.00 20.00     0.198 C 
HETATM    4  O5  UNL     1     -34.962   4.070   5.359  1.00 20.00    -0.645 OA
HETATM    5  O6  UNL     1     -35.949   5.384   3.776  1.00 20.00    -0.645 OA
ENDBRANCH   1   3
BRANCH   2   6
HETATM    6  C4  UNL     1     -31.912   7.123   3.376  1.00 20.00     0.098 C 
BRANCH   6   7
HETATM    7  S7  UNL     1     -32.097   8.278   1.990  1.00 20.00    -0.178 SA
HETATM    8  H12 UNL     1     -32.593   9.292   2.712  1.00 20.00     0.101 HD
ENDBRANCH   6   7
ENDBRANCH   2   6
TORSDOF 3
ENDMDL
MODEL 5
REMARK VINA RESULT:      -3.6     10.543     11.248
REMARK  3 active torsions:
REMARK  status: ('A' for Active; 'I' for Inactive)
REMARK    1  A    between atoms: C1_1  and  C3_3 
REMARK    2  A    between atoms: C2_2  and  C4_4 
REMARK    3  A    between atoms: C4_4  and  S7_7 
ROOT
HETATM    1  C1  UNL     1     -34.566  14.819  -3.176  1.00 20.00     0.081 C 
HETATM    2  C2  UNL     1     -33.643  15.770  -2.972  1.00 20.00    -0.010 C 
ENDROOT
BRANCH   1   3
HETATM    3  C3  UNL     1     -34.208  13.457  -3.788  1.00 20.00     0.198 C 
HETATM    4  O5  UNL     1     -35.150  12.797  -4.308  1.00 20.00    -0.645 OA
HETATM    5  O6  UNL     1     -32.982  13.157  -3.693  1.00 20.00    -0.645 OA
ENDBRANCH   1   3
BRANCH   2   6
HETATM    6  C4  UNL     1     -33.961  17.112  -2.390  1.00 20.00     0.098 C 
BRANCH   6   7
HETATM    7  S7  UNL     1     -34.600  16.925  -0.704  1.00 20.00    -0.178 SA
HETATM    8  H12 UNL     1     -35.893  16.838  -1.048  1.00 20.00     0.101 HD
ENDBRANCH   6   7
ENDBRANCH   2   6
TORSDOF 3
ENDMDL
MODEL 6
REMARK VINA RESULT:      -3.5      3.511      4.217
REMARK  3 active torsions:
REMARK  status: ('A' for Active; 'I' for Inactive)
REMARK    1  A    between atoms: C1_1  and  C3_3 
REMARK    2  A    between atoms: C2_2  and  C4_4 
REMARK    3  A    between atoms: C4_4  and  S7_7 
ROOT
HETATM    1  C1  UNL     1     -34.028   5.633   4.398  1.00 20.00     0.081 C 
HETATM    2  C2  UNL     1     -32.977   6.390   4.054  1.00 20.00    -0.010 C 
ENDROOT
BRANCH   1   3
HETATM    3  C3  UNL     1     -34.535   5.556   5.846  1.00 20.00     0.198 C 
HETATM    4  O5  UNL     1     -35.248   4.561   6.152  1.00 20.00    -0.645 OA
HETATM    5  O6  UNL     1     -34.165   6.524   6.572  1.00 20.00    -0.645 OA
ENDBRANCH   1   3
BRANCH   2   6
HETATM    6  C4  UNL     1     -32.451   6.477   2.655  1.00 20.00     0.098 C 
BRANCH   6   7
HETATM    7  S7  UNL     1     -32.085   8.202   2.232  1.00 20.00    -0.178 SA
HETATM    8  H12 UNL     1     -32.447   8.720   3.414  1.00 20.00     0.101 HD
ENDBRANCH   6   7
ENDBRANCH   2   6
TORSDOF 3
ENDMDL
MODEL 7
REMARK VINA RESULT:      -3.3     11.131     11.831
REMARK  3 active torsions:
REMARK  status: ('A' for Active; 'I' for Inactive)
REMARK    1  A    between atoms: C1_1  and  C3_3 
REMARK    2  A    between atoms: C2_2  and  C4_4 
REMARK    3  A    between atoms: C4_4  and  S7_7 
ROOT
HETATM    1  C1  UNL     1     -34.562  14.835  -3.223  1.00 20.00     0.081 C 
HETATM    2  C2  UNL     1     -33.639  15.792  -3.047  1.00 20.00    -0.010 C 
ENDROOT
BRANCH   1   3
HETATM    3  C3  UNL     1     -34.202  13.453  -3.790  1.00 20.00     0.198 C 
HETATM    4  O5  UNL     1     -35.140  12.783  -4.303  1.00 20.00    -0.645 OA
HETATM    5  O6  UNL     1     -32.979  13.152  -3.671  1.00 20.00    -0.645 OA
ENDBRANCH   1   3
BRANCH   2   6
HETATM    6  C4  UNL     1     -33.959  17.152  -2.509  1.00 20.00     0.098 C 
BRANCH   6   7
HETATM    7  S7  UNL     1     -33.916  18.377  -3.845  1.00 20.00    -0.178 SA
HETATM    8  H12 UNL     1     -34.199  17.520  -4.837  1.00 20.00     0.101 HD
ENDBRANCH   6   7
ENDBRANCH   2   6
TORSDOF 3
ENDMDL
MODEL 8
REMARK VINA RESULT:      -3.3     11.272     12.135
REMARK  3 active torsions:
REMARK  status: ('A' for Active; 'I' for Inactive)
REMARK    1  A    between atoms: C1_1  and  C3_3 
REMARK    2  A    between atoms: C2_2  and  C4_4 
REMARK    3  A    between atoms: C4_4  and  S7_7 
ROOT
HETATM    1  C1  UNL     1     -34.222  14.909  -4.185  1.00 20.00     0.081 C 
HETATM    2  C2  UNL     1     -33.635  15.764  -3.335  1.00 20.00    -0.010 C 
ENDROOT
BRANCH   1   3
HETATM    3  C3  UNL     1     -34.015  13.391  -4.083  1.00 20.00     0.198 C 
HETATM    4  O5  UNL     1     -32.874  12.991  -3.720  1.00 20.00    -0.645 OA
HETATM    5  O6  UNL     1     -35.039  12.711  -4.383  1.00 20.00    -0.645 OA
ENDBRANCH   1   3
BRANCH   2   6
HETATM    6  C4  UNL     1     -33.806  17.249  -3.415  1.00 20.00     0.098 C 
BRANCH   6   7
HETATM    7  S7  UNL     1     -33.656  17.803  -5.135  1.00 20.00    -0.178 SA
HETATM    8  H12 UNL     1     -33.307  16.612  -5.641  1.00 20.00     0.101 HD
ENDBRANCH   6   7
ENDBRANCH   2   6
TORSDOF 3
ENDMDL
MODEL 9
REMARK VINA RESULT:      -3.2     11.789     12.682
REMARK  3 active torsions:
REMARK  status: ('A' for Active; 'I' for Inactive)
REMARK    1  A    between atoms: C1_1  and  C3_3 
REMARK    2  A    between atoms: C2_2  and  C4_4 
REMARK    3  A    between atoms: C4_4  and  S7_7 
ROOT
HETATM    1  C1  UNL     1     -34.214  14.847  -4.853  1.00 20.00     0.081 C 
HETATM    2  C2  UNL     1     -34.339  15.068  -6.169  1.00 20.00    -0.010 C 
ENDROOT
BRANCH   1   3
HETATM    3  C3  UNL     1     -34.136  13.428  -4.271  1.00 20.00     0.198 C 
HETATM    4  O5  UNL     1     -35.147  12.689  -4.425  1.00 20.00    -0.645 OA
HETATM    5  O6  UNL     1     -33.039  13.168  -3.695  1.00 20.00    -0.645 OA
ENDBRANCH   1   3
BRANCH   2   6
HETATM    6  C4  UNL     1     -34.431  16.437  -6.767  1.00 20.00     0.098 C 
BRANCH   6   7
HETATM    7  S7  UNL     1     -33.778  17.670  -5.608  1.00 20.00    -0.178 SA
HETATM    8  H12 UNL     1     -33.529  16.811  -4.609  1.00 20.00     0.101 HD
ENDBRANCH   6   7
ENDBRANCH   2   6
TORSDOF 3
ENDMDL
