MODEL 1
REMARK VINA RESULT:      -4.5      0.000      0.000
REMARK  3 active torsions:
REMARK  status: ('A' for Active; 'I' for Inactive)
REMARK    1  A    between atoms: C6_6  and  N10_10 
REMARK    2  A    between atoms: C7_7  and  C8_8 
REMARK    3  A    between atoms: C8_8  and  N10_10 
ROOT
HETATM    1  C1  UNL     1     -34.785  17.591   0.638  1.00 20.00     0.013 C 
HETATM    2  C2  UNL     1     -34.717  16.987  -0.397  1.00 20.00    -0.087 C 
HETATM    3  C6  UNL     1     -34.629  16.249  -1.659  1.00 20.00     0.364 C 
ENDROOT
BRANCH   3   4
HETATM    4  N10 UNL     1     -35.893  16.314  -2.384  1.00 20.00     0.117 N 
HETATM    5  H22 UNL     1     -36.060  17.281  -2.672  1.00 20.00     0.319 HD
BRANCH   4   6
HETATM    6  C8  UNL     1     -35.873  15.456  -3.553  1.00 20.00     0.241 C 
HETATM    7  C3  UNL     1     -37.189  14.800  -3.696  1.00 20.00     0.101 C 
HETATM    8  N9  UNL     1     -38.222  14.285  -3.812  1.00 20.00    -0.195 NA
HETATM    9  C5  UNL     1     -35.613  16.327  -4.791  1.00 20.00     0.066 C 
BRANCH   6  10
HETATM   10  C7  UNL     1     -34.749  14.402  -3.431  1.00 20.00     0.052 C 
HETATM   11  C4  UNL     1     -34.743  13.343  -4.531  1.00 20.00     0.009 C 
ENDBRANCH   6  10
ENDBRANCH   4   6
ENDBRANCH   3   4
TORSDOF 3
ENDMDL
MODEL 2
REMARK VINA RESULT:      -4.3      1.532      1.988
REMARK  3 active torsions:
REMARK  status: ('A' for Active; 'I' for Inactive)
REMARK    1  A    between atoms: C6_6  and  N10_10 
REMARK    2  A    between atoms: C7_7  and  C8_8 
REMARK    3  A    between atoms: C8_8  and  N10_10 
ROOT
HETATM    1  C1  UNL     1     -34.790  17.263  -0.030  1.00 20.00     0.013 C 
HETATM    2  C2  UNL     1     -34.685  16.625  -1.041  1.00 20.00    -0.087 C 
HETATM    3  C6  UNL     1     -34.551  15.848  -2.275  1.00 20.00     0.364 C 
ENDROOT
BRANCH   3   4
HETATM    4  N10 UNL     1     -35.863  15.505  -2.813  1.00 20.00     0.117 N 
HETATM    5  H22 UNL     1     -36.489  16.304  -2.692  1.00 20.00     0.319 HD
BRANCH   4   6
HETATM    6  C8  UNL     1     -35.780  15.163  -4.220  1.00 20.00     0.241 C 
HETATM    7  C3  UNL     1     -35.315  13.766  -4.353  1.00 20.00     0.101 C 
HETATM    8  N9  UNL     1     -34.952  12.669  -4.459  1.00 20.00    -0.195 NA
HETATM    9  C5  UNL     1     -37.183  15.281  -4.833  1.00 20.00     0.066 C 
BRANCH   6  10
HETATM   10  C7  UNL     1     -34.823  16.128  -4.957  1.00 20.00     0.052 C 
HETATM   11  C4  UNL     1     -34.412  15.677  -6.356  1.00 20.00     0.009 C 
ENDBRANCH   6  10
ENDBRANCH   4   6
ENDBRANCH   3   4
TORSDOF 3
ENDMDL
MODEL 3
REMARK VINA RESULT:      -4.2      1.204      1.371
REMARK  3 active torsions:
REMARK  status: ('A' for Active; 'I' for Inactive)
REMARK    1  A    between atoms: C6_6  and  N10_10 
REMARK    2  A    between atoms: C7_7  and  C8_8 
REMARK    3  A    between atoms: C8_8  and  N10_10 
ROOT
HETATM    1  C1  UNL     1     -34.754  16.976  -0.217  1.00 20.00     0.013 C 
HETATM    2  C2  UNL     1     -34.400  16.620  -1.307  1.00 20.00    -0.087 C 
HETATM    3  C6  UNL     1     -33.965  16.190  -2.638  1.00 20.00     0.364 C 
ENDROOT
BRANCH   3   4
HETATM    4  N10 UNL     1     -34.573  14.911  -2.991  1.00 20.00     0.117 N 
HETATM    5  H22 UNL     1     -35.205  14.627  -2.239  1.00 20.00     0.319 HD
BRANCH   4   6
HETATM    6  C8  UNL     1     -35.313  15.008  -4.235  1.00 20.00     0.241 C 
HETATM    7  C3  UNL     1     -36.721  14.632  -3.992  1.00 20.00     0.101 C 
HETATM    8  N9  UNL     1     -37.828  14.340  -3.803  1.00 20.00    -0.195 NA
HETATM    9  C5  UNL     1     -35.263  16.465  -4.719  1.00 20.00     0.066 C 
BRANCH   6  10
HETATM   10  C7  UNL     1     -34.683  14.095  -5.312  1.00 20.00     0.052 C 
HETATM   11  C4  UNL     1     -35.269  14.261  -6.712  1.00 20.00     0.009 C 
ENDBRANCH   6  10
ENDBRANCH   4   6
ENDBRANCH   3   4
TORSDOF 3
ENDMDL
MODEL 4
REMARK VINA RESULT:      -4.2      2.245      4.585
REMARK  3 active torsions:
REMARK  status: ('A' for Active; 'I' for Inactive)
REMARK    1  A    between atoms: C6_6  and  N10_10 
REMARK    2  A    between atoms: C7_7  and  C8_8 
REMARK    3  A    between atoms: C8_8  and  N10_10 
ROOT
HETATM    1  C1  UNL     1     -35.363  14.598  -7.917  1.00 20.00     0.013 C 
HETATM    2  C2  UNL     1     -34.725  15.141  -7.057  1.00 20.00    -0.087 C 
HETATM    3  C6  UNL     1     -33.941  15.802  -6.011  1.00 20.00     0.364 C 
ENDROOT
BRANCH   3   4
HETATM    4  N10 UNL     1     -34.760  16.042  -4.827  1.00 20.00     0.117 N 
HETATM    5  H22 UNL     1     -35.743  15.892  -5.069  1.00 20.00     0.319 HD
BRANCH   4   6
HETATM    6  C8  UNL     1     -34.387  15.156  -3.742  1.00 20.00     0.241 C 
HETATM    7  C3  UNL     1     -34.875  13.793  -4.039  1.00 20.00     0.101 C 
HETATM    8  N9  UNL     1     -35.256  12.722  -4.271  1.00 20.00    -0.195 NA
HETATM    9  C5  UNL     1     -32.854  15.125  -3.644  1.00 20.00     0.066 C 
BRANCH   6  10
HETATM   10  C7  UNL     1     -34.970  15.664  -2.403  1.00 20.00     0.052 C 
HETATM   11  C4  UNL     1     -34.085  16.661  -1.658  1.00 20.00     0.009 C 
ENDBRANCH   6  10
ENDBRANCH   4   6
ENDBRANCH   3   4
TORSDOF 3
ENDMDL
MODEL 5
REMARK VINA RESULT:      -4.2      2.043      2.704
REMARK  3 active torsions:
REMARK  status: ('A' for Active; 'I' for Inactive)
REMARK    1  A    between atoms: C6_6  and  N10_10 
REMARK    2  A    between atoms: C7_7  and  C8_8 
REMARK    3  A    between atoms: C8_8  and  N10_10 
ROOT
HETATM    1  C1  UNL     1     -34.801  16.916  -0.503  1.00 20.00     0.013 C 
HETATM    2  C2  UNL     1     -34.292  16.498  -1.506  1.00 20.00    -0.087 C 
HETATM    3  C6  UNL     1     -33.665  15.988  -2.727  1.00 20.00     0.364 C 
ENDROOT
BRANCH   3   4
HETATM    4  N10 UNL     1     -34.622  15.969  -3.828  1.00 20.00     0.117 N 
HETATM    5  H22 UNL     1     -34.346  16.671  -4.519  1.00 20.00     0.319 HD
BRANCH   4   6
HETATM    6  C8  UNL     1     -34.671  14.664  -4.458  1.00 20.00     0.241 C 
HETATM    7  C3  UNL     1     -34.492  14.821  -5.916  1.00 20.00     0.101 C 
HETATM    8  N9  UNL     1     -34.349  14.943  -7.061  1.00 20.00    -0.195 NA
HETATM    9  C5  UNL     1     -33.519  13.812  -3.904  1.00 20.00     0.066 C 
BRANCH   6  10
HETATM   10  C7  UNL     1     -36.014  13.963  -4.147  1.00 20.00     0.052 C 
HETATM   11  C4  UNL     1     -37.157  14.905  -3.777  1.00 20.00     0.009 C 
ENDBRANCH   6  10
ENDBRANCH   4   6
ENDBRANCH   3   4
TORSDOF 3
ENDMDL
MODEL 6
REMARK VINA RESULT:      -4.1      2.342      3.982
REMARK  3 active torsions:
REMARK  status: ('A' for Active; 'I' for Inactive)
REMARK    1  A    between atoms: C6_6  and  N10_10 
REMARK    2  A    between atoms: C7_7  and  C8_8 
REMARK    3  A    between atoms: C8_8  and  N10_10 
ROOT
HETATM    1  C1  UNL     1     -33.910  19.206  -6.080  1.00 20.00     0.013 C 
HETATM    2  C2  UNL     1     -33.651  18.087  -5.733  1.00 20.00    -0.087 C 
HETATM    3  C6  UNL     1     -33.330  16.721  -5.311  1.00 20.00     0.364 C 
ENDROOT
BRANCH   3   4
HETATM    4  N10 UNL     1     -34.538  16.009  -4.908  1.00 20.00     0.117 N 
HETATM    5  H22 UNL     1     -34.884  15.468  -5.703  1.00 20.00     0.319 HD
BRANCH   4   6
HETATM    6  C8  UNL     1     -34.275  15.120  -3.793  1.00 20.00     0.241 C 
HETATM    7  C3  UNL     1     -34.713  13.754  -4.149  1.00 20.00     0.101 C 
HETATM    8  N9  UNL     1     -35.053  12.680  -4.427  1.00 20.00    -0.195 NA
HETATM    9  C5  UNL     1     -32.761  15.104  -3.529  1.00 20.00     0.066 C 
BRANCH   6  10
HETATM   10  C7  UNL     1     -35.005  15.612  -2.523  1.00 20.00     0.052 C 
HETATM   11  C4  UNL     1     -34.186  16.547  -1.635  1.00 20.00     0.009 C 
ENDBRANCH   6  10
ENDBRANCH   4   6
ENDBRANCH   3   4
TORSDOF 3
ENDMDL
MODEL 7
REMARK VINA RESULT:      -4.1      1.762      4.218
REMARK  3 active torsions:
REMARK  status: ('A' for Active; 'I' for Inactive)
REMARK    1  A    between atoms: C6_6  and  N10_10 
REMARK    2  A    between atoms: C7_7  and  C8_8 
REMARK    3  A    between atoms: C8_8  and  N10_10 
ROOT
HETATM    1  C1  UNL     1     -35.007  14.824  -7.826  1.00 20.00     0.013 C 
HETATM    2  C2  UNL     1     -34.529  15.129  -6.768  1.00 20.00    -0.087 C 
HETATM    3  C6  UNL     1     -33.941  15.499  -5.478  1.00 20.00     0.364 C 
ENDROOT
BRANCH   3   4
HETATM    4  N10 UNL     1     -34.941  16.118  -4.615  1.00 20.00     0.117 N 
HETATM    5  H22 UNL     1     -35.782  16.306  -5.165  1.00 20.00     0.319 HD
BRANCH   4   6
HETATM    6  C8  UNL     1     -35.276  15.255  -3.498  1.00 20.00     0.241 C 
HETATM    7  C3  UNL     1     -36.647  14.735  -3.681  1.00 20.00     0.101 C 
HETATM    8  N9  UNL     1     -37.723  14.324  -3.824  1.00 20.00    -0.195 NA
HETATM    9  C5  UNL     1     -34.294  14.075  -3.483  1.00 20.00     0.066 C 
BRANCH   6  10
HETATM   10  C7  UNL     1     -35.160  16.027  -2.164  1.00 20.00     0.052 C 
HETATM   11  C4  UNL     1     -33.827  16.741  -1.951  1.00 20.00     0.009 C 
ENDBRANCH   6  10
ENDBRANCH   4   6
ENDBRANCH   3   4
TORSDOF 3
ENDMDL
MODEL 8
REMARK VINA RESULT:      -4.1      1.804      3.648
REMARK  3 active torsions:
REMARK  status: ('A' for Active; 'I' for Inactive)
REMARK    1  A    between atoms: C6_6  and  N10_10 
REMARK    2  A    between atoms: C7_7  and  C8_8 
REMARK    3  A    between atoms: C8_8  and  N10_10 
ROOT
HETATM    1  C1  UNL     1     -40.071  15.915  -3.004  1.00 20.00     0.013 C 
HETATM    2  C2  UNL     1     -39.030  15.451  -3.381  1.00 20.00    -0.087 C 
HETATM    3  C6  UNL     1     -37.763  14.882  -3.845  1.00 20.00     0.364 C 
ENDROOT
BRANCH   3   4
HETATM    4  N10 UNL     1     -36.671  15.261  -2.955  1.00 20.00     0.117 N 
HETATM    5  H22 UNL     1     -36.658  14.623  -2.156  1.00 20.00     0.319 HD
BRANCH   4   6
HETATM    6  C8  UNL     1     -35.394  15.207  -3.639  1.00 20.00     0.241 C 
HETATM    7  C3  UNL     1     -35.135  13.819  -4.075  1.00 20.00     0.101 C 
HETATM    8  N9  UNL     1     -34.932  12.730  -4.420  1.00 20.00    -0.195 NA
HETATM    9  C5  UNL     1     -35.466  16.112  -4.877  1.00 20.00     0.066 C 
BRANCH   6  10
HETATM   10  C7  UNL     1     -34.261  15.706  -2.712  1.00 20.00     0.052 C 
HETATM   11  C4  UNL     1     -34.736  16.400  -1.438  1.00 20.00     0.009 C 
ENDBRANCH   6  10
ENDBRANCH   4   6
ENDBRANCH   3   4
TORSDOF 3
ENDMDL
MODEL 9
REMARK VINA RESULT:      -3.9      1.415      1.591
REMARK  3 active torsions:
REMARK  status: ('A' for Active; 'I' for Inactive)
REMARK    1  A    between atoms: C6_6  and  N10_10 
REMARK    2  A    between atoms: C7_7  and  C8_8 
REMARK    3  A    between atoms: C8_8  and  N10_10 
ROOT
HETATM    1  C1  UNL     1     -35.256  17.621   1.022  1.00 20.00     0.013 C 
HETATM    2  C2  UNL     1     -34.860  17.136  -0.002  1.00 20.00    -0.087 C 
HETATM    3  C6  UNL     1     -34.370  16.546  -1.250  1.00 20.00     0.364 C 
ENDROOT
BRANCH   3   4
HETATM    4  N10 UNL     1     -35.484  16.165  -2.111  1.00 20.00     0.117 N 
HETATM    5  H22 UNL     1     -36.139  16.948  -2.172  1.00 20.00     0.319 HD
BRANCH   4   6
HETATM    6  C8  UNL     1     -35.024  15.814  -3.441  1.00 20.00     0.241 C 
HETATM    7  C3  UNL     1     -35.935  16.407  -4.442  1.00 20.00     0.101 C 
HETATM    8  N9  UNL     1     -36.647  16.873  -5.230  1.00 20.00    -0.195 NA
HETATM    9  C5  UNL     1     -33.617  16.399  -3.639  1.00 20.00     0.066 C 
BRANCH   6  10
HETATM   10  C7  UNL     1     -34.960  14.278  -3.604  1.00 20.00     0.052 C 
HETATM   11  C4  UNL     1     -33.563  13.720  -3.866  1.00 20.00     0.009 C 
ENDBRANCH   6  10
ENDBRANCH   4   6
ENDBRANCH   3   4
TORSDOF 3
ENDMDL
