MODEL 1
REMARK VINA RESULT:      -4.0      0.000      0.000
REMARK  2 active torsions:
REMARK  status: ('A' for Active; 'I' for Inactive)
REMARK    1  A    between atoms: C1_1  and  C3_3 
REMARK    2  A    between atoms: C2_2  and  C4_4 
ROOT
HETATM    1  C1  UNL     1     -33.593   5.897   2.956  1.00 20.00    -0.015 C 
HETATM    2  C2  UNL     1     -34.511   5.521   3.860  1.00 20.00    -0.015 C 
ENDROOT
BRANCH   1   3
HETATM    3  C3  UNL     1     -32.292   6.535   3.316  1.00 20.00     0.141 C 
HETATM    4 CL5  UNL     1     -32.016   7.963   2.297  1.00 20.00    -0.126 Cl
ENDBRANCH   1   3
BRANCH   2   5
HETATM    5  C4  UNL     1     -34.342   5.695   5.332  1.00 20.00     0.141 C 
HETATM    6 CL6  UNL     1     -35.073   4.322   6.192  1.00 20.00    -0.126 Cl
ENDBRANCH   2   5
TORSDOF 2
ENDMDL
MODEL 2
REMARK VINA RESULT:      -4.0      0.072      4.027
REMARK  2 active torsions:
REMARK  status: ('A' for Active; 'I' for Inactive)
REMARK    1  A    between atoms: C1_1  and  C3_3 
REMARK    2  A    between atoms: C2_2  and  C4_4 
ROOT
HETATM    1  C1  UNL     1     -34.523   5.436   3.855  1.00 20.00    -0.015 C 
HETATM    2  C2  UNL     1     -33.601   5.827   2.962  1.00 20.00    -0.015 C 
ENDROOT
BRANCH   1   3
HETATM    3  C3  UNL     1     -34.378   5.626   5.329  1.00 20.00     0.141 C 
HETATM    4 CL5  UNL     1     -35.127   4.266   6.191  1.00 20.00    -0.126 Cl
ENDBRANCH   1   3
BRANCH   2   5
HETATM    5  C4  UNL     1     -32.322   6.500   3.334  1.00 20.00     0.141 C 
HETATM    6 CL6  UNL     1     -32.057   7.915   2.292  1.00 20.00    -0.126 Cl
ENDBRANCH   2   5
TORSDOF 2
ENDMDL
MODEL 3
REMARK VINA RESULT:      -3.9      1.092      3.639
REMARK  2 active torsions:
REMARK  status: ('A' for Active; 'I' for Inactive)
REMARK    1  A    between atoms: C1_1  and  C3_3 
REMARK    2  A    between atoms: C2_2  and  C4_4 
ROOT
HETATM    1  C1  UNL     1     -34.902   5.286   4.162  1.00 20.00    -0.015 C 
HETATM    2  C2  UNL     1     -34.119   5.787   3.196  1.00 20.00    -0.015 C 
ENDROOT
BRANCH   1   3
HETATM    3  C3  UNL     1     -34.409   4.935   5.527  1.00 20.00     0.141 C 
HETATM    4 CL5  UNL     1     -34.179   6.412   6.486  1.00 20.00    -0.126 Cl
ENDBRANCH   1   3
BRANCH   2   5
HETATM    5  C4  UNL     1     -32.661   6.054   3.367  1.00 20.00     0.141 C 
HETATM    6 CL6  UNL     1     -32.226   7.580   2.566  1.00 20.00    -0.126 Cl
ENDBRANCH   2   5
TORSDOF 2
ENDMDL
MODEL 4
REMARK VINA RESULT:      -3.9      1.087      1.087
REMARK  2 active torsions:
REMARK  status: ('A' for Active; 'I' for Inactive)
REMARK    1  A    between atoms: C1_1  and  C3_3 
REMARK    2  A    between atoms: C2_2  and  C4_4 
ROOT
HETATM    1  C1  UNL     1     -34.073   5.789   3.181  1.00 20.00    -0.015 C 
HETATM    2  C2  UNL     1     -34.874   5.293   4.136  1.00 20.00    -0.015 C 
ENDROOT
BRANCH   1   3
HETATM    3  C3  UNL     1     -32.617   6.053   3.380  1.00 20.00     0.141 C 
HETATM    4 CL5  UNL     1     -32.168   7.584   2.599  1.00 20.00    -0.126 Cl
ENDBRANCH   1   3
BRANCH   2   5
HETATM    5  C4  UNL     1     -34.408   4.946   5.511  1.00 20.00     0.141 C 
HETATM    6 CL6  UNL     1     -34.159   6.429   6.458  1.00 20.00    -0.126 Cl
ENDBRANCH   2   5
TORSDOF 2
ENDMDL
MODEL 5
REMARK VINA RESULT:      -3.6      2.270      2.594
REMARK  2 active torsions:
REMARK  status: ('A' for Active; 'I' for Inactive)
REMARK    1  A    between atoms: C1_1  and  C3_3 
REMARK    2  A    between atoms: C2_2  and  C4_4 
ROOT
HETATM    1  C1  UNL     1     -34.874   4.223   4.643  1.00 20.00    -0.015 C 
HETATM    2  C2  UNL     1     -34.746   4.377   5.969  1.00 20.00    -0.015 C 
ENDROOT
BRANCH   1   3
HETATM    3  C3  UNL     1     -35.128   5.353   3.701  1.00 20.00     0.141 C 
HETATM    4 CL5  UNL     1     -33.605   5.868   2.948  1.00 20.00    -0.126 Cl
ENDBRANCH   1   3
BRANCH   2   5
HETATM    5  C4  UNL     1     -34.842   5.695   6.663  1.00 20.00     0.141 C 
HETATM    6 CL6  UNL     1     -33.369   6.644   6.367  1.00 20.00    -0.126 Cl
ENDBRANCH   2   5
TORSDOF 2
ENDMDL
MODEL 6
REMARK VINA RESULT:      -3.6      2.259      3.467
REMARK  2 active torsions:
REMARK  status: ('A' for Active; 'I' for Inactive)
REMARK    1  A    between atoms: C1_1  and  C3_3 
REMARK    2  A    between atoms: C2_2  and  C4_4 
ROOT
HETATM    1  C1  UNL     1     -34.740   4.382   5.964  1.00 20.00    -0.015 C 
HETATM    2  C2  UNL     1     -34.861   4.230   4.637  1.00 20.00    -0.015 C 
ENDROOT
BRANCH   1   3
HETATM    3  C3  UNL     1     -34.842   5.701   6.657  1.00 20.00     0.141 C 
HETATM    4 CL5  UNL     1     -33.367   6.649   6.376  1.00 20.00    -0.126 Cl
ENDBRANCH   1   3
BRANCH   2   5
HETATM    5  C4  UNL     1     -35.114   5.358   3.694  1.00 20.00     0.141 C 
HETATM    6 CL6  UNL     1     -33.585   5.886   2.958  1.00 20.00    -0.126 Cl
ENDBRANCH   2   5
TORSDOF 2
ENDMDL
MODEL 7
REMARK VINA RESULT:      -3.4      1.383      1.940
REMARK  2 active torsions:
REMARK  status: ('A' for Active; 'I' for Inactive)
REMARK    1  A    between atoms: C1_1  and  C3_3 
REMARK    2  A    between atoms: C2_2  and  C4_4 
ROOT
HETATM    1  C1  UNL     1     -33.539   6.668   5.333  1.00 20.00    -0.015 C 
HETATM    2  C2  UNL     1     -34.173   6.047   6.339  1.00 20.00    -0.015 C 
ENDROOT
BRANCH   1   3
HETATM    3  C3  UNL     1     -33.812   6.395   3.891  1.00 20.00     0.141 C 
HETATM    4 CL5  UNL     1     -32.281   6.181   3.016  1.00 20.00    -0.126 Cl
ENDBRANCH   1   3
BRANCH   2   5
HETATM    5  C4  UNL     1     -35.225   5.008   6.138  1.00 20.00     0.141 C 
HETATM    6 CL6  UNL     1     -34.494   3.521   5.496  1.00 20.00    -0.126 Cl
ENDBRANCH   2   5
TORSDOF 2
ENDMDL
MODEL 8
REMARK VINA RESULT:      -3.4      1.421      3.969
REMARK  2 active torsions:
REMARK  status: ('A' for Active; 'I' for Inactive)
REMARK    1  A    between atoms: C1_1  and  C3_3 
REMARK    2  A    between atoms: C2_2  and  C4_4 
ROOT
HETATM    1  C1  UNL     1     -34.212   6.034   6.343  1.00 20.00    -0.015 C 
HETATM    2  C2  UNL     1     -33.574   6.685   5.359  1.00 20.00    -0.015 C 
ENDROOT
BRANCH   1   3
HETATM    3  C3  UNL     1     -35.244   4.982   6.103  1.00 20.00     0.141 C 
HETATM    4 CL5  UNL     1     -34.475   3.518   5.454  1.00 20.00    -0.126 Cl
ENDBRANCH   1   3
BRANCH   2   5
HETATM    5  C4  UNL     1     -33.816   6.436   3.908  1.00 20.00     0.141 C 
HETATM    6 CL6  UNL     1     -32.277   6.099   3.086  1.00 20.00    -0.126 Cl
ENDBRANCH   2   5
TORSDOF 2
ENDMDL
MODEL 9
REMARK VINA RESULT:      -3.4      1.791      4.373
REMARK  2 active torsions:
REMARK  status: ('A' for Active; 'I' for Inactive)
REMARK    1  A    between atoms: C1_1  and  C3_3 
REMARK    2  A    between atoms: C2_2  and  C4_4 
ROOT
HETATM    1  C1  UNL     1     -32.550   6.610   3.671  1.00 20.00    -0.015 C 
HETATM    2  C2  UNL     1     -31.870   7.643   3.152  1.00 20.00    -0.015 C 
ENDROOT
BRANCH   1   3
HETATM    3  C3  UNL     1     -33.532   5.795   2.896  1.00 20.00     0.141 C 
HETATM    4 CL5  UNL     1     -34.948   5.431   3.906  1.00 20.00    -0.126 Cl
ENDBRANCH   1   3
BRANCH   2   5
HETATM    5  C4  UNL     1     -32.012   8.101   1.739  1.00 20.00     0.141 C 
HETATM    6 CL6  UNL     1     -32.527   9.802   1.703  1.00 20.00    -0.126 Cl
ENDBRANCH   2   5
TORSDOF 2
ENDMDL
