MODEL 1
REMARK VINA RESULT:      -4.8      0.000      0.000
REMARK  3 active torsions:
REMARK  status: ('A' for Active; 'I' for Inactive)
REMARK    1  A    between atoms: C2_2  and  C9_9 
REMARK    2  A    between atoms: C6_6  and  C9_9 
REMARK    3  A    between atoms: C7_7  and  O10_10 
ROOT
HETATM    1  C3  UNL     1     -34.461  13.552  -4.792  1.00 20.00     0.003 C 
HETATM    2  C4  UNL     1     -34.375  14.203  -3.410  1.00 20.00     0.008 C 
HETATM    3  C5  UNL     1     -34.359  14.687  -5.815  1.00 20.00     0.032 C 
HETATM    4  C6  UNL     1     -34.501  15.708  -3.664  1.00 20.00     0.022 C 
HETATM    5  C7  UNL     1     -33.836  15.885  -5.030  1.00 20.00     0.122 C 
ENDROOT
BRANCH   4   6
HETATM    6  C9  UNL     1     -33.895  16.545  -2.549  1.00 20.00     0.010 C 
HETATM    7  C8  UNL     1     -33.902  18.030  -2.920  1.00 20.00     0.014 C 
BRANCH   6   8
HETATM    8  C2  UNL     1     -34.648  16.332  -1.259  1.00 20.00    -0.032 C 
HETATM    9  C1  UNL     1     -34.612  17.175  -0.221  1.00 20.00     0.007 C 
ENDBRANCH   6   8
ENDBRANCH   4   6
BRANCH   5  10
HETATM   10  O10 UNL     1     -32.420  15.807  -4.921  1.00 20.00    -0.395 OA
HETATM   11  H26 UNL     1     -32.223  15.007  -4.407  1.00 20.00     0.210 HD
ENDBRANCH   5  10
TORSDOF 3
ENDMDL
MODEL 2
REMARK VINA RESULT:      -4.2      1.807      2.449
REMARK  3 active torsions:
REMARK  status: ('A' for Active; 'I' for Inactive)
REMARK    1  A    between atoms: C2_2  and  C9_9 
REMARK    2  A    between atoms: C6_6  and  C9_9 
REMARK    3  A    between atoms: C7_7  and  O10_10 
ROOT
HETATM    1  C3  UNL     1     -36.581  15.275  -6.024  1.00 20.00     0.003 C 
HETATM    2  C4  UNL     1     -35.997  15.670  -4.665  1.00 20.00     0.008 C 
HETATM    3  C5  UNL     1     -35.528  14.402  -6.712  1.00 20.00     0.032 C 
HETATM    4  C6  UNL     1     -34.527  15.248  -4.719  1.00 20.00     0.022 C 
HETATM    5  C7  UNL     1     -34.557  14.003  -5.606  1.00 20.00     0.122 C 
ENDROOT
BRANCH   4   6
HETATM    6  C9  UNL     1     -33.927  15.031  -3.339  1.00 20.00     0.010 C 
HETATM    7  C8  UNL     1     -32.472  14.567  -3.446  1.00 20.00     0.014 C 
BRANCH   6   8
HETATM    8  C2  UNL     1     -34.006  16.298  -2.523  1.00 20.00    -0.032 C 
HETATM    9  C1  UNL     1     -34.585  16.380  -1.319  1.00 20.00     0.007 C 
ENDBRANCH   6   8
ENDBRANCH   4   6
BRANCH   5  10
HETATM   10  O10 UNL     1     -35.072  12.883  -4.896  1.00 20.00    -0.395 OA
HETATM   11  H26 UNL     1     -34.320  12.295  -4.719  1.00 20.00     0.210 HD
ENDBRANCH   5  10
TORSDOF 3
ENDMDL
MODEL 3
REMARK VINA RESULT:      -4.2      1.080      2.243
REMARK  3 active torsions:
REMARK  status: ('A' for Active; 'I' for Inactive)
REMARK    1  A    between atoms: C2_2  and  C9_9 
REMARK    2  A    between atoms: C6_6  and  C9_9 
REMARK    3  A    between atoms: C7_7  and  O10_10 
ROOT
HETATM    1  C3  UNL     1     -34.560  15.074  -7.256  1.00 20.00     0.003 C 
HETATM    2  C4  UNL     1     -34.789  14.292  -5.961  1.00 20.00     0.008 C 
HETATM    3  C5  UNL     1     -34.286  16.524  -6.847  1.00 20.00     0.032 C 
HETATM    4  C6  UNL     1     -34.913  15.354  -4.865  1.00 20.00     0.022 C 
HETATM    5  C7  UNL     1     -33.983  16.465  -5.354  1.00 20.00     0.122 C 
ENDROOT
BRANCH   4   6
HETATM    6  C9  UNL     1     -34.585  14.812  -3.483  1.00 20.00     0.010 C 
HETATM    7  C8  UNL     1     -33.557  13.681  -3.573  1.00 20.00     0.014 C 
BRANCH   6   8
HETATM    8  C2  UNL     1     -34.062  15.914  -2.593  1.00 20.00    -0.032 C 
HETATM    9  C1  UNL     1     -34.664  16.318  -1.468  1.00 20.00     0.007 C 
ENDBRANCH   6   8
ENDBRANCH   4   6
BRANCH   5  10
HETATM   10  O10 UNL     1     -32.619  16.113  -5.153  1.00 20.00    -0.395 OA
HETATM   11  H26 UNL     1     -32.212  16.843  -4.660  1.00 20.00     0.210 HD
ENDBRANCH   5  10
TORSDOF 3
ENDMDL
MODEL 4
REMARK VINA RESULT:      -4.2      1.669      4.054
REMARK  3 active torsions:
REMARK  status: ('A' for Active; 'I' for Inactive)
REMARK    1  A    between atoms: C2_2  and  C9_9 
REMARK    2  A    between atoms: C6_6  and  C9_9 
REMARK    3  A    between atoms: C7_7  and  O10_10 
ROOT
HETATM    1  C3  UNL     1     -34.453  17.393  -0.110  1.00 20.00     0.003 C 
HETATM    2  C4  UNL     1     -34.744  16.338  -1.179  1.00 20.00     0.008 C 
HETATM    3  C5  UNL     1     -33.541  18.436  -0.764  1.00 20.00     0.032 C 
HETATM    4  C6  UNL     1     -33.781  16.650  -2.327  1.00 20.00     0.022 C 
HETATM    5  C7  UNL     1     -33.646  18.172  -2.262  1.00 20.00     0.122 C 
ENDROOT
BRANCH   4   6
HETATM    6  C9  UNL     1     -34.266  16.111  -3.663  1.00 20.00     0.010 C 
HETATM    7  C8  UNL     1     -33.216  16.341  -4.754  1.00 20.00     0.014 C 
BRANCH   6   8
HETATM    8  C2  UNL     1     -34.585  14.640  -3.556  1.00 20.00    -0.032 C 
HETATM    9  C1  UNL     1     -33.705  13.662  -3.800  1.00 20.00     0.007 C 
ENDBRANCH   6   8
ENDBRANCH   4   6
BRANCH   5  10
HETATM   10  O10 UNL     1     -34.808  18.808  -2.781  1.00 20.00    -0.395 OA
HETATM   11  H26 UNL     1     -34.518  19.656  -3.154  1.00 20.00     0.210 HD
ENDBRANCH   5  10
TORSDOF 3
ENDMDL
MODEL 5
REMARK VINA RESULT:      -4.2      1.602      2.335
REMARK  3 active torsions:
REMARK  status: ('A' for Active; 'I' for Inactive)
REMARK    1  A    between atoms: C2_2  and  C9_9 
REMARK    2  A    between atoms: C6_6  and  C9_9 
REMARK    3  A    between atoms: C7_7  and  O10_10 
ROOT
HETATM    1  C3  UNL     1     -33.809  13.720  -4.289  1.00 20.00     0.003 C 
HETATM    2  C4  UNL     1     -33.470  14.922  -3.405  1.00 20.00     0.008 C 
HETATM    3  C5  UNL     1     -35.328  13.541  -4.216  1.00 20.00     0.032 C 
HETATM    4  C6  UNL     1     -34.756  15.232  -2.634  1.00 20.00     0.022 C 
HETATM    5  C7  UNL     1     -35.854  14.844  -3.625  1.00 20.00     0.122 C 
ENDROOT
BRANCH   4   6
HETATM    6  C9  UNL     1     -34.816  16.671  -2.149  1.00 20.00     0.010 C 
HETATM    7  C8  UNL     1     -34.672  16.737  -0.626  1.00 20.00     0.014 C 
BRANCH   6   8
HETATM    8  C2  UNL     1     -33.737  17.497  -2.805  1.00 20.00    -0.032 C 
HETATM    9  C1  UNL     1     -33.968  18.608  -3.513  1.00 20.00     0.007 C 
ENDBRANCH   6   8
ENDBRANCH   4   6
BRANCH   5  10
HETATM   10  O10 UNL     1     -35.982  15.821  -4.652  1.00 20.00    -0.395 OA
HETATM   11  H26 UNL     1     -35.157  15.799  -5.161  1.00 20.00     0.210 HD
ENDBRANCH   5  10
TORSDOF 3
ENDMDL
MODEL 6
REMARK VINA RESULT:      -4.1      2.581      3.284
REMARK  3 active torsions:
REMARK  status: ('A' for Active; 'I' for Inactive)
REMARK    1  A    between atoms: C2_2  and  C9_9 
REMARK    2  A    between atoms: C6_6  and  C9_9 
REMARK    3  A    between atoms: C7_7  and  O10_10 
ROOT
HETATM    1  C3  UNL     1     -36.965  16.530  -5.507  1.00 20.00     0.003 C 
HETATM    2  C4  UNL     1     -35.611  16.372  -4.812  1.00 20.00     0.008 C 
HETATM    3  C5  UNL     1     -37.744  15.239  -5.243  1.00 20.00     0.032 C 
HETATM    4  C6  UNL     1     -35.538  14.899  -4.402  1.00 20.00     0.022 C 
HETATM    5  C7  UNL     1     -36.996  14.549  -4.106  1.00 20.00     0.122 C 
ENDROOT
BRANCH   4   6
HETATM    6  C9  UNL     1     -34.579  14.658  -3.246  1.00 20.00     0.010 C 
HETATM    7  C8  UNL     1     -33.365  13.848  -3.708  1.00 20.00     0.014 C 
BRANCH   6   8
HETATM    8  C2  UNL     1     -34.128  15.970  -2.651  1.00 20.00    -0.032 C 
HETATM    9  C1  UNL     1     -34.441  16.380  -1.417  1.00 20.00     0.007 C 
ENDBRANCH   6   8
ENDBRANCH   4   6
BRANCH   5  10
HETATM   10  O10 UNL     1     -37.409  15.096  -2.859  1.00 20.00    -0.395 OA
HETATM   11  H26 UNL     1     -38.379  15.084  -2.856  1.00 20.00     0.210 HD
ENDBRANCH   5  10
TORSDOF 3
ENDMDL
MODEL 7
REMARK VINA RESULT:      -4.1     11.310     12.496
REMARK  3 active torsions:
REMARK  status: ('A' for Active; 'I' for Inactive)
REMARK    1  A    between atoms: C2_2  and  C9_9 
REMARK    2  A    between atoms: C6_6  and  C9_9 
REMARK    3  A    between atoms: C7_7  and  O10_10 
ROOT
HETATM    1  C3  UNL     1     -35.346   4.790   4.436  1.00 20.00     0.003 C 
HETATM    2  C4  UNL     1     -34.662   5.786   3.496  1.00 20.00     0.008 C 
HETATM    3  C5  UNL     1     -34.457   4.683   5.678  1.00 20.00     0.032 C 
HETATM    4  C6  UNL     1     -33.271   6.015   4.094  1.00 20.00     0.022 C 
HETATM    5  C7  UNL     1     -33.514   5.879   5.598  1.00 20.00     0.122 C 
ENDROOT
BRANCH   4   6
HETATM    6  C9  UNL     1     -32.660   7.339   3.666  1.00 20.00     0.010 C 
HETATM    7  C8  UNL     1     -31.328   7.579   4.384  1.00 20.00     0.014 C 
BRANCH   6   8
HETATM    8  C2  UNL     1     -32.453   7.368   2.172  1.00 20.00    -0.032 C 
HETATM    9  C1  UNL     1     -31.990   8.429   1.499  1.00 20.00     0.007 C 
ENDBRANCH   6   8
ENDBRANCH   4   6
BRANCH   5  10
HETATM   10  O10 UNL     1     -34.161   7.035   6.116  1.00 20.00    -0.395 OA
HETATM   11  H26 UNL     1     -33.799   7.796   5.634  1.00 20.00     0.210 HD
ENDBRANCH   5  10
TORSDOF 3
ENDMDL
MODEL 8
REMARK VINA RESULT:      -4.0      1.925      2.828
REMARK  3 active torsions:
REMARK  status: ('A' for Active; 'I' for Inactive)
REMARK    1  A    between atoms: C2_2  and  C9_9 
REMARK    2  A    between atoms: C6_6  and  C9_9 
REMARK    3  A    between atoms: C7_7  and  O10_10 
ROOT
HETATM    1  C3  UNL     1     -33.765  15.708  -4.409  1.00 20.00     0.003 C 
HETATM    2  C4  UNL     1     -33.592  16.973  -3.565  1.00 20.00     0.008 C 
HETATM    3  C5  UNL     1     -34.429  14.667  -3.503  1.00 20.00     0.032 C 
HETATM    4  C6  UNL     1     -33.905  16.545  -2.128  1.00 20.00     0.022 C 
HETATM    5  C7  UNL     1     -34.965  15.458  -2.315  1.00 20.00     0.122 C 
ENDROOT
BRANCH   4   6
HETATM    6  C9  UNL     1     -34.336  17.709  -1.250  1.00 20.00     0.010 C 
HETATM    7  C8  UNL     1     -34.788  17.212   0.126  1.00 20.00     0.014 C 
BRANCH   6   8
HETATM    8  C2  UNL     1     -33.208  18.700  -1.095  1.00 20.00    -0.032 C 
HETATM    9  C1  UNL     1     -32.439  18.797  -0.005  1.00 20.00     0.007 C 
ENDBRANCH   6   8
ENDBRANCH   4   6
BRANCH   5  10
HETATM   10  O10 UNL     1     -36.226  16.028  -2.645  1.00 20.00    -0.395 OA
HETATM   11  H26 UNL     1     -36.202  16.952  -2.348  1.00 20.00     0.210 HD
ENDBRANCH   5  10
TORSDOF 3
ENDMDL
MODEL 9
REMARK VINA RESULT:      -3.9      1.897      3.979
REMARK  3 active torsions:
REMARK  status: ('A' for Active; 'I' for Inactive)
REMARK    1  A    between atoms: C2_2  and  C9_9 
REMARK    2  A    between atoms: C6_6  and  C9_9 
REMARK    3  A    between atoms: C7_7  and  O10_10 
ROOT
HETATM    1  C3  UNL     1     -34.768  17.144  -0.543  1.00 20.00     0.003 C 
HETATM    2  C4  UNL     1     -34.032  16.355  -1.628  1.00 20.00     0.008 C 
HETATM    3  C5  UNL     1     -35.821  17.993  -1.260  1.00 20.00     0.032 C 
HETATM    4  C6  UNL     1     -34.489  16.970  -2.954  1.00 20.00     0.022 C 
HETATM    5  C7  UNL     1     -35.928  17.396  -2.659  1.00 20.00     0.122 C 
ENDROOT
BRANCH   4   6
HETATM    6  C9  UNL     1     -34.337  16.015  -4.127  1.00 20.00     0.010 C 
HETATM    7  C8  UNL     1     -33.305  16.544  -5.126  1.00 20.00     0.014 C 
BRANCH   6   8
HETATM    8  C2  UNL     1     -33.932  14.643  -3.644  1.00 20.00    -0.032 C 
HETATM    9  C1  UNL     1     -34.599  13.520  -3.931  1.00 20.00     0.007 C 
ENDBRANCH   6   8
ENDBRANCH   4   6
BRANCH   5  10
HETATM   10  O10 UNL     1     -36.798  16.271  -2.637  1.00 20.00    -0.395 OA
HETATM   11  H26 UNL     1     -37.119  16.185  -1.724  1.00 20.00     0.210 HD
ENDBRANCH   5  10
TORSDOF 3
ENDMDL
