MODEL 1
REMARK VINA RESULT:      -4.4      0.000      0.000
REMARK  1 active torsions:
REMARK  status: ('A' for Active; 'I' for Inactive)
REMARK    1  A    between atoms: C1_1  and  C6_6 
ROOT
HETATM    1  C2  UNL     1     -34.658  15.597  -2.250  1.00 20.00     0.021 C 
HETATM    2  C3  UNL     1     -33.079  15.785  -4.299  1.00 20.00     0.027 A 
HETATM    3  C4  UNL     1     -34.774  16.932  -1.540  1.00 20.00     0.075 C 
HETATM    4  C5  UNL     1     -35.354  17.030  -4.166  1.00 20.00     0.084 C 
HETATM    5  C6  UNL     1     -34.142  14.798  -4.709  1.00 20.00     0.097 A 
HETATM    6  C7  UNL     1     -34.466  15.901  -3.713  1.00 20.00    -0.017 A 
HETATM    7  S10 UNL     1     -35.791  17.937  -2.648  1.00 20.00    -0.168 SA
ENDROOT
BRANCH   5   8
HETATM    8  C1  UNL     1     -34.016  13.435  -4.231  1.00 20.00     0.177 C 
HETATM    9  O8  UNL     1     -32.880  13.125  -3.777  1.00 20.00    -0.648 OA
HETATM   10  O9  UNL     1     -35.065  12.740  -4.334  1.00 20.00    -0.648 OA
ENDBRANCH   5   8
TORSDOF 1
ENDMDL
MODEL 2
REMARK VINA RESULT:      -4.4      1.579      2.440
REMARK  1 active torsions:
REMARK  status: ('A' for Active; 'I' for Inactive)
REMARK    1  A    between atoms: C1_1  and  C6_6 
ROOT
HETATM    1  C2  UNL     1     -34.076  15.701  -5.719  1.00 20.00     0.021 C 
HETATM    2  C3  UNL     1     -35.673  15.351  -3.705  1.00 20.00     0.027 A 
HETATM    3  C4  UNL     1     -34.341  17.038  -6.385  1.00 20.00     0.075 C 
HETATM    4  C5  UNL     1     -33.854  17.204  -3.743  1.00 20.00     0.084 C 
HETATM    5  C6  UNL     1     -34.376  14.698  -3.299  1.00 20.00     0.097 A 
HETATM    6  C7  UNL     1     -34.370  15.883  -4.253  1.00 20.00    -0.017 A 
HETATM    7  S10 UNL     1     -33.675  18.252  -5.221  1.00 20.00    -0.168 SA
ENDROOT
BRANCH   5   8
HETATM    8  C1  UNL     1     -34.095  13.375  -3.821  1.00 20.00     0.177 C 
HETATM    9  O8  UNL     1     -32.887  13.015  -3.755  1.00 20.00    -0.648 OA
HETATM   10  O9  UNL     1     -35.100  12.761  -4.275  1.00 20.00    -0.648 OA
ENDBRANCH   5   8
TORSDOF 1
ENDMDL
MODEL 3
REMARK VINA RESULT:      -4.4      1.627      2.690
REMARK  1 active torsions:
REMARK  status: ('A' for Active; 'I' for Inactive)
REMARK    1  A    between atoms: C1_1  and  C6_6 
ROOT
HETATM    1  C2  UNL     1     -34.099  15.645  -5.803  1.00 20.00     0.021 C 
HETATM    2  C3  UNL     1     -35.663  15.365  -3.753  1.00 20.00     0.027 A 
HETATM    3  C4  UNL     1     -34.368  16.963  -6.505  1.00 20.00     0.075 C 
HETATM    4  C5  UNL     1     -33.836  17.206  -3.877  1.00 20.00     0.084 C 
HETATM    5  C6  UNL     1     -34.363  14.718  -3.349  1.00 20.00     0.097 A 
HETATM    6  C7  UNL     1     -34.367  15.873  -4.338  1.00 20.00    -0.017 A 
HETATM    7  S10 UNL     1     -33.676  18.208  -5.390  1.00 20.00    -0.168 SA
ENDROOT
BRANCH   5   8
HETATM    8  C1  UNL     1     -34.097  13.378  -3.835  1.00 20.00     0.177 C 
HETATM    9  O8  UNL     1     -35.104  12.753  -4.271  1.00 20.00    -0.648 OA
HETATM   10  O9  UNL     1     -32.890  13.017  -3.755  1.00 20.00    -0.648 OA
ENDBRANCH   5   8
TORSDOF 1
ENDMDL
MODEL 4
REMARK VINA RESULT:      -4.4      1.244      1.387
REMARK  1 active torsions:
REMARK  status: ('A' for Active; 'I' for Inactive)
REMARK    1  A    between atoms: C1_1  and  C6_6 
ROOT
HETATM    1  C2  UNL     1     -34.766  15.880  -2.045  1.00 20.00     0.021 C 
HETATM    2  C3  UNL     1     -33.039  14.913  -3.722  1.00 20.00     0.027 A 
HETATM    3  C4  UNL     1     -34.114  16.908  -1.139  1.00 20.00     0.075 C 
HETATM    4  C5  UNL     1     -33.793  17.398  -3.766  1.00 20.00     0.084 C 
HETATM    5  C6  UNL     1     -34.341  14.961  -4.479  1.00 20.00     0.097 A 
HETATM    6  C7  UNL     1     -34.063  15.969  -3.374  1.00 20.00    -0.017 A 
HETATM    7  S10 UNL     1     -33.855  18.343  -2.210  1.00 20.00    -0.168 SA
ENDROOT
BRANCH   5   8
HETATM    8  C1  UNL     1     -35.301  13.902  -4.237  1.00 20.00     0.177 C 
HETATM    9  O8  UNL     1     -34.804  12.762  -4.024  1.00 20.00    -0.648 OA
HETATM   10  O9  UNL     1     -36.510  14.266  -4.275  1.00 20.00    -0.648 OA
ENDBRANCH   5   8
TORSDOF 1
ENDMDL
MODEL 5
REMARK VINA RESULT:      -4.2      1.270      2.133
REMARK  1 active torsions:
REMARK  status: ('A' for Active; 'I' for Inactive)
REMARK    1  A    between atoms: C1_1  and  C6_6 
ROOT
HETATM    1  C2  UNL     1     -33.568  16.492  -3.959  1.00 20.00     0.021 C 
HETATM    2  C3  UNL     1     -35.800  15.223  -3.588  1.00 20.00     0.027 A 
HETATM    3  C4  UNL     1     -33.741  17.972  -3.677  1.00 20.00     0.075 C 
HETATM    4  C5  UNL     1     -34.505  16.371  -1.652  1.00 20.00     0.084 C 
HETATM    5  C6  UNL     1     -34.723  14.263  -3.154  1.00 20.00     0.097 A 
HETATM    6  C7  UNL     1     -34.504  15.763  -3.030  1.00 20.00    -0.017 A 
HETATM    7  S10 UNL     1     -33.879  18.067  -1.876  1.00 20.00    -0.168 SA
ENDROOT
BRANCH   5   8
HETATM    8  C1  UNL     1     -34.014  13.532  -4.186  1.00 20.00     0.177 C 
HETATM    9  O8  UNL     1     -34.583  13.501  -5.312  1.00 20.00    -0.648 OA
HETATM   10  O9  UNL     1     -32.919  13.023  -3.817  1.00 20.00    -0.648 OA
ENDBRANCH   5   8
TORSDOF 1
ENDMDL
MODEL 6
REMARK VINA RESULT:      -4.1      2.372      3.443
REMARK  1 active torsions:
REMARK  status: ('A' for Active; 'I' for Inactive)
REMARK    1  A    between atoms: C1_1  and  C6_6 
ROOT
HETATM    1  C2  UNL     1     -34.574  14.561  -6.414  1.00 20.00     0.021 C 
HETATM    2  C3  UNL     1     -35.552  13.389  -4.317  1.00 20.00     0.027 A 
HETATM    3  C4  UNL     1     -35.589  14.576  -7.541  1.00 20.00     0.075 C 
HETATM    4  C5  UNL     1     -36.492  15.629  -5.234  1.00 20.00     0.084 C 
HETATM    5  C6  UNL     1     -34.668  14.485  -3.781  1.00 20.00     0.097 A 
HETATM    6  C7  UNL     1     -35.354  14.647  -5.129  1.00 20.00    -0.017 A 
HETATM    7  S10 UNL     1     -36.813  15.802  -7.019  1.00 20.00    -0.168 SA
ENDROOT
BRANCH   5   8
HETATM    8  C1  UNL     1     -33.240  14.242  -3.745  1.00 20.00     0.177 C 
HETATM    9  O8  UNL     1     -32.517  15.277  -3.719  1.00 20.00    -0.648 OA
HETATM   10  O9  UNL     1     -32.910  13.023  -3.745  1.00 20.00    -0.648 OA
ENDBRANCH   5   8
TORSDOF 1
ENDMDL
MODEL 7
REMARK VINA RESULT:      -3.9      3.169      3.962
REMARK  1 active torsions:
REMARK  status: ('A' for Active; 'I' for Inactive)
REMARK    1  A    between atoms: C1_1  and  C6_6 
ROOT
HETATM    1  C2  UNL     1     -35.821  15.369  -3.384  1.00 20.00     0.021 C 
HETATM    2  C3  UNL     1     -33.754  16.889  -3.769  1.00 20.00     0.027 A 
HETATM    3  C4  UNL     1     -36.116  14.544  -4.622  1.00 20.00     0.075 C 
HETATM    4  C5  UNL     1     -33.594  14.298  -3.713  1.00 20.00     0.084 C 
HETATM    5  C6  UNL     1     -33.684  16.487  -2.318  1.00 20.00     0.097 A 
HETATM    6  C7  UNL     1     -34.327  15.559  -3.338  1.00 20.00    -0.017 A 
HETATM    7  S10 UNL     1     -34.797  13.306  -4.655  1.00 20.00    -0.168 SA
ENDROOT
BRANCH   5   8
HETATM    8  C1  UNL     1     -34.532  17.195  -1.380  1.00 20.00     0.177 C 
HETATM    9  O8  UNL     1     -34.946  18.322  -1.771  1.00 20.00    -0.648 OA
HETATM   10  O9  UNL     1     -34.743  16.587  -0.294  1.00 20.00    -0.648 OA
ENDBRANCH   5   8
TORSDOF 1
ENDMDL
MODEL 8
REMARK VINA RESULT:      -3.9      3.211      4.153
REMARK  1 active torsions:
REMARK  status: ('A' for Active; 'I' for Inactive)
REMARK    1  A    between atoms: C1_1  and  C6_6 
ROOT
HETATM    1  C2  UNL     1     -33.323  15.500  -3.582  1.00 20.00     0.021 C 
HETATM    2  C3  UNL     1     -34.654  16.242  -1.482  1.00 20.00     0.027 A 
HETATM    3  C4  UNL     1     -33.302  13.987  -3.694  1.00 20.00     0.075 C 
HETATM    4  C5  UNL     1     -35.771  15.040  -3.495  1.00 20.00     0.084 C 
HETATM    5  C6  UNL     1     -34.934  17.298  -2.521  1.00 20.00     0.097 A 
HETATM    6  C7  UNL     1     -34.639  15.867  -2.946  1.00 20.00    -0.017 A 
HETATM    7  S10 UNL     1     -34.984  13.557  -4.201  1.00 20.00    -0.168 SA
ENDROOT
BRANCH   5   8
HETATM    8  C1  UNL     1     -33.925  18.316  -2.736  1.00 20.00     0.177 C 
HETATM    9  O8  UNL     1     -33.908  18.823  -3.893  1.00 20.00    -0.648 OA
HETATM   10  O9  UNL     1     -33.196  18.558  -1.734  1.00 20.00    -0.648 OA
ENDBRANCH   5   8
TORSDOF 1
ENDMDL
MODEL 9
REMARK VINA RESULT:      -3.8      2.565      2.932
REMARK  1 active torsions:
REMARK  status: ('A' for Active; 'I' for Inactive)
REMARK    1  A    between atoms: C1_1  and  C6_6 
ROOT
HETATM    1  C2  UNL     1     -36.401  15.801  -4.823  1.00 20.00     0.021 C 
HETATM    2  C3  UNL     1     -34.313  15.498  -6.333  1.00 20.00     0.027 A 
HETATM    3  C4  UNL     1     -37.205  17.011  -5.258  1.00 20.00     0.075 C 
HETATM    4  C5  UNL     1     -36.737  15.236  -7.228  1.00 20.00     0.084 C 
HETATM    5  C6  UNL     1     -34.758  14.100  -5.988  1.00 20.00     0.097 A 
HETATM    6  C7  UNL     1     -35.776  15.227  -6.068  1.00 20.00    -0.017 A 
HETATM    7  S10 UNL     1     -37.989  16.491  -6.804  1.00 20.00    -0.168 SA
ENDROOT
BRANCH   5   8
HETATM    8  C1  UNL     1     -34.390  13.577  -4.687  1.00 20.00     0.177 C 
HETATM    9  O8  UNL     1     -33.423  14.162  -4.125  1.00 20.00    -0.648 OA
HETATM   10  O9  UNL     1     -35.088  12.602  -4.292  1.00 20.00    -0.648 OA
ENDBRANCH   5   8
TORSDOF 1
ENDMDL
