MODEL 1
REMARK VINA RESULT:      -5.3      0.000      0.000
REMARK  1 active torsions:
REMARK  status: ('A' for Active; 'I' for Inactive)
REMARK    1  A    between atoms: C3_3  and  C8_8 
ROOT
HETATM    1  C1  UNL     1     -32.073   8.424   1.768  1.00 20.00     0.087 C 
HETATM    2  C2  UNL     1     -32.199   7.389   2.732  1.00 20.00     0.090 C 
HETATM    3  C3  UNL     1     -33.395   7.011   3.204  1.00 20.00    -0.011 C 
HETATM    4  N9  UNL     1     -31.965   9.269   0.979  1.00 20.00    -0.192 NA
ENDROOT
BRANCH   3   5
HETATM    5  C8  UNL     1     -33.583   5.914   4.232  1.00 20.00     0.013 C 
HETATM    6  C4  UNL     1     -33.836   6.566   5.585  1.00 20.00     0.035 C 
HETATM    7  C6  UNL     1     -34.272   5.521   6.605  1.00 20.00     0.168 C 
HETATM    8  O10 UNL     1     -35.420   4.809   6.141  1.00 20.00    -0.391 OA
HETATM    9  C7  UNL     1     -35.159   4.100   4.928  1.00 20.00     0.168 C 
HETATM   10  C5  UNL     1     -34.776   5.064   3.812  1.00 20.00     0.035 C 
ENDBRANCH   3   5
TORSDOF 1
ENDMDL
MODEL 2
REMARK VINA RESULT:      -4.8     11.299     11.772
REMARK  1 active torsions:
REMARK  status: ('A' for Active; 'I' for Inactive)
REMARK    1  A    between atoms: C3_3  and  C8_8 
ROOT
HETATM    1  C1  UNL     1     -34.337  17.428  -0.160  1.00 20.00     0.087 C 
HETATM    2  C2  UNL     1     -34.748  16.605  -1.241  1.00 20.00     0.090 C 
HETATM    3  C3  UNL     1     -33.953  16.385  -2.298  1.00 20.00    -0.011 C 
HETATM    4  N9  UNL     1     -34.005  18.100   0.727  1.00 20.00    -0.192 NA
ENDROOT
BRANCH   3   5
HETATM    5  C8  UNL     1     -34.345  15.516  -3.476  1.00 20.00     0.013 C 
HETATM    6  C4  UNL     1     -33.396  14.325  -3.527  1.00 20.00     0.035 C 
HETATM    7  C6  UNL     1     -33.890  13.296  -4.537  1.00 20.00     0.168 C 
HETATM    8  O10 UNL     1     -35.226  12.891  -4.235  1.00 20.00    -0.391 OA
HETATM    9  C7  UNL     1     -36.145  13.983  -4.294  1.00 20.00     0.168 C 
HETATM   10  C5  UNL     1     -35.782  15.051  -3.270  1.00 20.00     0.035 C 
ENDBRANCH   3   5
TORSDOF 1
ENDMDL
MODEL 3
REMARK VINA RESULT:      -4.6     11.416     12.403
REMARK  1 active torsions:
REMARK  status: ('A' for Active; 'I' for Inactive)
REMARK    1  A    between atoms: C3_3  and  C8_8 
ROOT
HETATM    1  C1  UNL     1     -34.724  16.854  -0.576  1.00 20.00     0.087 C 
HETATM    2  C2  UNL     1     -34.709  16.065  -1.756  1.00 20.00     0.090 C 
HETATM    3  C3  UNL     1     -33.665  16.075  -2.595  1.00 20.00    -0.011 C 
HETATM    4  N9  UNL     1     -34.739  17.499   0.390  1.00 20.00    -0.192 NA
ENDROOT
BRANCH   3   5
HETATM    5  C8  UNL     1     -33.601  15.251  -3.866  1.00 20.00     0.013 C 
HETATM    6  C4  UNL     1     -34.362  13.952  -3.631  1.00 20.00     0.035 C 
HETATM    7  C6  UNL     1     -34.540  13.197  -4.943  1.00 20.00     0.168 C 
HETATM    8  O10 UNL     1     -35.187  14.017  -5.916  1.00 20.00    -0.391 OA
HETATM    9  C7  UNL     1     -34.425  15.186  -6.227  1.00 20.00     0.168 C 
HETATM   10  C5  UNL     1     -34.243  16.056  -4.990  1.00 20.00     0.035 C 
ENDBRANCH   3   5
TORSDOF 1
ENDMDL
MODEL 4
REMARK VINA RESULT:      -4.5     11.329     12.430
REMARK  1 active torsions:
REMARK  status: ('A' for Active; 'I' for Inactive)
REMARK    1  A    between atoms: C3_3  and  C8_8 
ROOT
HETATM    1  C1  UNL     1     -34.642  13.683  -3.849  1.00 20.00     0.087 C 
HETATM    2  C2  UNL     1     -34.341  14.854  -3.106  1.00 20.00     0.090 C 
HETATM    3  C3  UNL     1     -35.266  15.796  -2.872  1.00 20.00    -0.011 C 
HETATM    4  N9  UNL     1     -34.885  12.723  -4.456  1.00 20.00    -0.192 NA
ENDROOT
BRANCH   3   5
HETATM    5  C8  UNL     1     -34.995  17.063  -2.086  1.00 20.00     0.013 C 
HETATM    6  C4  UNL     1     -34.626  16.670  -0.661  1.00 20.00     0.035 C 
HETATM    7  C6  UNL     1     -34.108  17.881   0.106  1.00 20.00     0.168 C 
HETATM    8  O10 UNL     1     -33.005  18.478  -0.577  1.00 20.00    -0.391 OA
HETATM    9  C7  UNL     1     -33.369  18.953  -1.875  1.00 20.00     0.168 C 
HETATM   10  C5  UNL     1     -33.843  17.803  -2.756  1.00 20.00     0.035 C 
ENDBRANCH   3   5
TORSDOF 1
ENDMDL
MODEL 5
REMARK VINA RESULT:      -4.5     11.441     12.486
REMARK  1 active torsions:
REMARK  status: ('A' for Active; 'I' for Inactive)
REMARK    1  A    between atoms: C3_3  and  C8_8 
ROOT
HETATM    1  C1  UNL     1     -34.753  13.617  -4.008  1.00 20.00     0.087 C 
HETATM    2  C2  UNL     1     -34.722  14.681  -3.069  1.00 20.00     0.090 C 
HETATM    3  C3  UNL     1     -33.747  15.601  -3.081  1.00 20.00    -0.011 C 
HETATM    4  N9  UNL     1     -34.783  12.746  -4.775  1.00 20.00    -0.192 NA
ENDROOT
BRANCH   3   5
HETATM    5  C8  UNL     1     -33.669  16.755  -2.101  1.00 20.00     0.013 C 
HETATM    6  C4  UNL     1     -34.006  18.039  -2.848  1.00 20.00     0.035 C 
HETATM    7  C6  UNL     1     -34.181  19.192  -1.868  1.00 20.00     0.168 C 
HETATM    8  O10 UNL     1     -35.172  18.878  -0.889  1.00 20.00    -0.391 OA
HETATM    9  C7  UNL     1     -34.812  17.739  -0.105  1.00 20.00     0.168 C 
HETATM   10  C5  UNL     1     -34.674  16.502  -0.984  1.00 20.00     0.035 C 
ENDBRANCH   3   5
TORSDOF 1
ENDMDL
MODEL 6
REMARK VINA RESULT:      -4.5     11.839     12.687
REMARK  1 active torsions:
REMARK  status: ('A' for Active; 'I' for Inactive)
REMARK    1  A    between atoms: C3_3  and  C8_8 
ROOT
HETATM    1  C1  UNL     1     -35.027  17.489   0.479  1.00 20.00     0.087 C 
HETATM    2  C2  UNL     1     -34.263  17.101  -0.652  1.00 20.00     0.090 C 
HETATM    3  C3  UNL     1     -34.728  16.216  -1.545  1.00 20.00    -0.011 C 
HETATM    4  N9  UNL     1     -35.650  17.809   1.406  1.00 20.00    -0.192 NA
ENDROOT
BRANCH   3   5
HETATM    5  C8  UNL     1     -33.951  15.769  -2.767  1.00 20.00     0.013 C 
HETATM    6  C4  UNL     1     -34.723  14.638  -3.435  1.00 20.00     0.035 C 
HETATM    7  C6  UNL     1     -34.119  14.316  -4.797  1.00 20.00     0.168 C 
HETATM    8  O10 UNL     1     -34.077  15.481  -5.620  1.00 20.00    -0.391 OA
HETATM    9  C7  UNL     1     -33.262  16.511  -5.055  1.00 20.00     0.168 C 
HETATM   10  C5  UNL     1     -33.818  16.960  -3.709  1.00 20.00     0.035 C 
ENDBRANCH   3   5
TORSDOF 1
ENDMDL
MODEL 7
REMARK VINA RESULT:      -4.4     11.515     12.239
REMARK  1 active torsions:
REMARK  status: ('A' for Active; 'I' for Inactive)
REMARK    1  A    between atoms: C3_3  and  C8_8 
ROOT
HETATM    1  C1  UNL     1     -34.083  17.484  -0.339  1.00 20.00     0.087 C 
HETATM    2  C2  UNL     1     -34.757  16.533  -1.148  1.00 20.00     0.090 C 
HETATM    3  C3  UNL     1     -34.226  16.081  -2.293  1.00 20.00    -0.011 C 
HETATM    4  N9  UNL     1     -33.534  18.263   0.326  1.00 20.00    -0.192 NA
ENDROOT
BRANCH   3   5
HETATM    5  C8  UNL     1     -34.905  15.067  -3.191  1.00 20.00     0.013 C 
HETATM    6  C4  UNL     1     -35.526  15.811  -4.367  1.00 20.00     0.035 C 
HETATM    7  C6  UNL     1     -36.009  14.824  -5.423  1.00 20.00     0.168 C 
HETATM    8  O10 UNL     1     -34.944  13.971  -5.844  1.00 20.00    -0.391 OA
HETATM    9  C7  UNL     1     -34.428  13.185  -4.768  1.00 20.00     0.168 C 
HETATM   10  C5  UNL     1     -33.852  14.076  -3.675  1.00 20.00     0.035 C 
ENDBRANCH   3   5
TORSDOF 1
ENDMDL
MODEL 8
REMARK VINA RESULT:      -4.2     10.277     11.391
REMARK  1 active torsions:
REMARK  status: ('A' for Active; 'I' for Inactive)
REMARK    1  A    between atoms: C3_3  and  C8_8 
ROOT
HETATM    1  C1  UNL     1     -41.874   1.375  -4.239  1.00 20.00     0.087 C 
HETATM    2  C2  UNL     1     -41.644   2.420  -3.305  1.00 20.00     0.090 C 
HETATM    3  C3  UNL     1     -42.575   3.349  -3.049  1.00 20.00    -0.011 C 
HETATM    4  N9  UNL     1     -42.058   0.518  -5.001  1.00 20.00    -0.192 NA
ENDROOT
BRANCH   3   5
HETATM    5  C8  UNL     1     -42.379   4.484  -2.063  1.00 20.00     0.013 C 
HETATM    6  C4  UNL     1     -40.995   4.342  -1.442  1.00 20.00     0.035 C 
HETATM    7  C6  UNL     1     -40.648   5.584  -0.630  1.00 20.00     0.168 C 
HETATM    8  O10 UNL     1     -40.746   6.759  -1.435  1.00 20.00    -0.391 OA
HETATM    9  C7  UNL     1     -42.070   6.963  -1.932  1.00 20.00     0.168 C 
HETATM   10  C5  UNL     1     -42.498   5.801  -2.820  1.00 20.00     0.035 C 
ENDBRANCH   3   5
TORSDOF 1
ENDMDL
MODEL 9
REMARK VINA RESULT:      -4.0     11.973     12.965
REMARK  1 active torsions:
REMARK  status: ('A' for Active; 'I' for Inactive)
REMARK    1  A    between atoms: C3_3  and  C8_8 
ROOT
HETATM    1  C1  UNL     1     -35.259  17.733   1.566  1.00 20.00     0.087 C 
HETATM    2  C2  UNL     1     -34.613  17.771   0.302  1.00 20.00     0.090 C 
HETATM    3  C3  UNL     1     -34.636  16.721  -0.530  1.00 20.00    -0.011 C 
HETATM    4  N9  UNL     1     -35.786  17.707   2.600  1.00 20.00    -0.192 NA
ENDROOT
BRANCH   3   5
HETATM    5  C8  UNL     1     -33.963  16.711  -1.888  1.00 20.00     0.013 C 
HETATM    6  C4  UNL     1     -34.490  15.516  -2.674  1.00 20.00     0.035 C 
HETATM    7  C6  UNL     1     -34.036  15.594  -4.126  1.00 20.00     0.168 C 
HETATM    8  O10 UNL     1     -34.438  16.830  -4.716  1.00 20.00    -0.391 OA
HETATM    9  C7  UNL     1     -33.858  17.957  -4.055  1.00 20.00     0.168 C 
HETATM   10  C5  UNL     1     -34.303  18.016  -2.599  1.00 20.00     0.035 C 
ENDBRANCH   3   5
TORSDOF 1
ENDMDL
