MODEL 1
REMARK VINA RESULT:      -4.5      0.000      0.000
REMARK  2 active torsions:
REMARK  status: ('A' for Active; 'I' for Inactive)
REMARK    1  A    between atoms: C4_4  and  N9_9 
REMARK    2  A    between atoms: C7_7  and  N9_9 
ROOT
HETATM    1  C1  UNL     1     -32.177   7.888   2.364  1.00 20.00     0.094 C 
HETATM    2  C6  UNL     1     -31.985   5.472   2.820  1.00 20.00     0.059 C 
HETATM    3  C7  UNL     1     -32.319   6.845   3.388  1.00 20.00     0.322 C 
HETATM    4  N8  UNL     1     -32.063   8.712   1.555  1.00 20.00    -0.195 NA
ENDROOT
BRANCH   3   5
HETATM    5  N9  UNL     1     -33.667   6.864   3.930  1.00 20.00     0.106 N 
HETATM    6  H21 UNL     1     -33.631   7.033   4.932  1.00 20.00     0.318 HD
BRANCH   5   7
HETATM    7  C4  UNL     1     -34.336   5.581   3.694  1.00 20.00     0.226 A 
HETATM    8  C2  UNL     1     -35.824   5.460   3.896  1.00 20.00     0.042 A 
HETATM    9  C3  UNL     1     -34.882   4.753   4.832  1.00 20.00     0.016 A 
HETATM   10  C5  UNL     1     -34.773   5.189   6.253  1.00 20.00     0.012 C 
ENDBRANCH   5   7
ENDBRANCH   3   5
TORSDOF 2
ENDMDL
MODEL 2
REMARK VINA RESULT:      -4.2     11.087     12.023
REMARK  2 active torsions:
REMARK  status: ('A' for Active; 'I' for Inactive)
REMARK    1  A    between atoms: C4_4  and  N9_9 
REMARK    2  A    between atoms: C7_7  and  N9_9 
ROOT
HETATM    1  C1  UNL     1     -35.617  13.656  -4.230  1.00 20.00     0.094 C 
HETATM    2  C6  UNL     1     -36.521  15.767  -5.130  1.00 20.00     0.059 C 
HETATM    3  C7  UNL     1     -36.522  14.783  -3.968  1.00 20.00     0.322 C 
HETATM    4  N8  UNL     1     -34.904  12.765  -4.439  1.00 20.00    -0.195 NA
ENDROOT
BRANCH   3   5
HETATM    5  N9  UNL     1     -36.141  15.447  -2.733  1.00 20.00     0.106 N 
HETATM    6  H21 UNL     1     -36.948  15.921  -2.335  1.00 20.00     0.318 HD
BRANCH   5   7
HETATM    7  C4  UNL     1     -35.090  16.437  -2.981  1.00 20.00     0.226 A 
HETATM    8  C2  UNL     1     -33.654  16.107  -2.666  1.00 20.00     0.042 A 
HETATM    9  C3  UNL     1     -34.381  17.139  -1.849  1.00 20.00     0.016 A 
HETATM   10  C5  UNL     1     -34.706  16.868  -0.419  1.00 20.00     0.012 C 
ENDBRANCH   5   7
ENDBRANCH   3   5
TORSDOF 2
ENDMDL
MODEL 3
REMARK VINA RESULT:      -4.0      1.552      4.479
REMARK  2 active torsions:
REMARK  status: ('A' for Active; 'I' for Inactive)
REMARK    1  A    between atoms: C4_4  and  N9_9 
REMARK    2  A    between atoms: C7_7  and  N9_9 
ROOT
HETATM    1  C1  UNL     1     -34.643   4.769   4.950  1.00 20.00     0.094 C 
HETATM    2  C6  UNL     1     -33.964   6.730   6.284  1.00 20.00     0.059 C 
HETATM    3  C7  UNL     1     -33.688   5.882   5.050  1.00 20.00     0.322 C 
HETATM    4  N8  UNL     1     -35.395   3.890   4.873  1.00 20.00    -0.195 NA
ENDROOT
BRANCH   3   5
HETATM    5  N9  UNL     1     -33.747   6.693   3.845  1.00 20.00     0.106 N 
HETATM    6  H21 UNL     1     -34.477   6.340   3.231  1.00 20.00     0.318 HD
BRANCH   5   7
HETATM    7  C4  UNL     1     -32.469   6.649   3.130  1.00 20.00     0.226 A 
HETATM    8  C2  UNL     1     -31.322   7.514   3.586  1.00 20.00     0.042 A 
HETATM    9  C3  UNL     1     -32.001   7.802   2.275  1.00 20.00     0.016 A 
HETATM   10  C5  UNL     1     -32.809   9.045   2.108  1.00 20.00     0.012 C 
ENDBRANCH   5   7
ENDBRANCH   3   5
TORSDOF 2
ENDMDL
MODEL 4
REMARK VINA RESULT:      -4.0     10.878     13.327
REMARK  2 active torsions:
REMARK  status: ('A' for Active; 'I' for Inactive)
REMARK    1  A    between atoms: C4_4  and  N9_9 
REMARK    2  A    between atoms: C7_7  and  N9_9 
ROOT
HETATM    1  C1  UNL     1     -34.114  13.769  -4.002  1.00 20.00     0.094 C 
HETATM    2  C6  UNL     1     -33.942  15.848  -2.687  1.00 20.00     0.059 C 
HETATM    3  C7  UNL     1     -33.291  14.956  -3.735  1.00 20.00     0.322 C 
HETATM    4  N8  UNL     1     -34.763  12.830  -4.211  1.00 20.00    -0.195 NA
ENDROOT
BRANCH   3   5
HETATM    5  N9  UNL     1     -33.069  15.692  -4.969  1.00 20.00     0.106 N 
HETATM    6  H21 UNL     1     -32.579  16.559  -4.767  1.00 20.00     0.318 HD
BRANCH   5   7
HETATM    7  C4  UNL     1     -34.345  16.012  -5.616  1.00 20.00     0.226 A 
HETATM    8  C2  UNL     1     -34.395  16.257  -7.102  1.00 20.00     0.042 A 
HETATM    9  C3  UNL     1     -34.637  17.394  -6.147  1.00 20.00     0.016 A 
HETATM   10  C5  UNL     1     -33.650  18.508  -6.046  1.00 20.00     0.012 C 
ENDBRANCH   5   7
ENDBRANCH   3   5
TORSDOF 2
ENDMDL
MODEL 5
REMARK VINA RESULT:      -4.0      1.176      1.670
REMARK  2 active torsions:
REMARK  status: ('A' for Active; 'I' for Inactive)
REMARK    1  A    between atoms: C4_4  and  N9_9 
REMARK    2  A    between atoms: C7_7  and  N9_9 
ROOT
HETATM    1  C1  UNL     1     -32.421   7.358   2.527  1.00 20.00     0.094 C 
HETATM    2  C6  UNL     1     -34.137   5.587   2.483  1.00 20.00     0.059 C 
HETATM    3  C7  UNL     1     -32.761   6.003   2.984  1.00 20.00     0.322 C 
HETATM    4  N8  UNL     1     -32.151   8.426   2.164  1.00 20.00    -0.195 NA
ENDROOT
BRANCH   3   5
HETATM    5  N9  UNL     1     -32.702   5.942   4.435  1.00 20.00     0.106 N 
HETATM    6  H21 UNL     1     -32.522   4.985   4.730  1.00 20.00     0.318 HD
BRANCH   5   7
HETATM    7  C4  UNL     1     -33.969   6.384   5.023  1.00 20.00     0.226 A 
HETATM    8  C2  UNL     1     -34.104   6.504   6.519  1.00 20.00     0.042 A 
HETATM    9  C3  UNL     1     -34.863   5.434   5.782  1.00 20.00     0.016 A 
HETATM   10  C5  UNL     1     -34.511   3.998   5.977  1.00 20.00     0.012 C 
ENDBRANCH   5   7
ENDBRANCH   3   5
TORSDOF 2
ENDMDL
MODEL 6
REMARK VINA RESULT:      -4.0     11.017     12.151
REMARK  2 active torsions:
REMARK  status: ('A' for Active; 'I' for Inactive)
REMARK    1  A    between atoms: C4_4  and  N9_9 
REMARK    2  A    between atoms: C7_7  and  N9_9 
ROOT
HETATM    1  C1  UNL     1     -36.593  14.563  -3.920  1.00 20.00     0.094 C 
HETATM    2  C6  UNL     1     -34.250  13.864  -3.595  1.00 20.00     0.059 C 
HETATM    3  C7  UNL     1     -35.188  14.930  -4.145  1.00 20.00     0.322 C 
HETATM    4  N8  UNL     1     -37.702  14.272  -3.744  1.00 20.00    -0.195 NA
ENDROOT
BRANCH   3   5
HETATM    5  N9  UNL     1     -34.911  16.222  -3.540  1.00 20.00     0.106 N 
HETATM    6  H21 UNL     1     -34.317  16.769  -4.159  1.00 20.00     0.318 HD
BRANCH   5   7
HETATM    7  C4  UNL     1     -34.225  16.054  -2.256  1.00 20.00     0.226 A 
HETATM    8  C2  UNL     1     -34.848  16.590  -0.994  1.00 20.00     0.042 A 
HETATM    9  C3  UNL     1     -33.597  17.223  -1.537  1.00 20.00     0.016 A 
HETATM   10  C5  UNL     1     -33.637  18.608  -2.088  1.00 20.00     0.012 C 
ENDBRANCH   5   7
ENDBRANCH   3   5
TORSDOF 2
ENDMDL
MODEL 7
REMARK VINA RESULT:      -3.8     11.271     12.335
REMARK  2 active torsions:
REMARK  status: ('A' for Active; 'I' for Inactive)
REMARK    1  A    between atoms: C4_4  and  N9_9 
REMARK    2  A    between atoms: C7_7  and  N9_9 
ROOT
HETATM    1  C1  UNL     1     -34.987  13.988  -4.515  1.00 20.00     0.094 C 
HETATM    2  C6  UNL     1     -33.760  15.963  -5.336  1.00 20.00     0.059 C 
HETATM    3  C7  UNL     1     -35.077  15.428  -4.793  1.00 20.00     0.322 C 
HETATM    4  N8  UNL     1     -34.917  12.851  -4.299  1.00 20.00    -0.195 NA
ENDROOT
BRANCH   3   5
HETATM    5  N9  UNL     1     -35.464  16.141  -3.587  1.00 20.00     0.106 N 
HETATM    6  H21 UNL     1     -35.527  17.137  -3.783  1.00 20.00     0.318 HD
BRANCH   5   7
HETATM    7  C4  UNL     1     -34.477  15.933  -2.525  1.00 20.00     0.226 A 
HETATM    8  C2  UNL     1     -34.767  16.405  -1.124  1.00 20.00     0.042 A 
HETATM    9  C3  UNL     1     -33.696  17.082  -1.935  1.00 20.00     0.016 A 
HETATM   10  C5  UNL     1     -33.882  18.488  -2.396  1.00 20.00     0.012 C 
ENDBRANCH   5   7
ENDBRANCH   3   5
TORSDOF 2
ENDMDL
MODEL 8
REMARK VINA RESULT:      -3.8     11.615     13.755
REMARK  2 active torsions:
REMARK  status: ('A' for Active; 'I' for Inactive)
REMARK    1  A    between atoms: C4_4  and  N9_9 
REMARK    2  A    between atoms: C7_7  and  N9_9 
ROOT
HETATM    1  C1  UNL     1     -34.713  13.739  -5.168  1.00 20.00     0.094 C 
HETATM    2  C6  UNL     1     -34.845  14.761  -7.408  1.00 20.00     0.059 C 
HETATM    3  C7  UNL     1     -34.637  14.999  -5.919  1.00 20.00     0.322 C 
HETATM    4  N8  UNL     1     -34.776  12.744  -4.575  1.00 20.00    -0.195 NA
ENDROOT
BRANCH   3   5
HETATM    5  N9  UNL     1     -33.357  15.643  -5.675  1.00 20.00     0.106 N 
HETATM    6  H21 UNL     1     -32.672  14.947  -5.394  1.00 20.00     0.318 HD
BRANCH   5   7
HETATM    7  C4  UNL     1     -33.477  16.642  -4.609  1.00 20.00     0.226 A 
HETATM    8  C2  UNL     1     -34.795  17.332  -4.369  1.00 20.00     0.042 A 
HETATM    9  C3  UNL     1     -33.631  18.112  -4.916  1.00 20.00     0.016 A 
HETATM   10  C5  UNL     1     -33.669  18.631  -6.314  1.00 20.00     0.012 C 
ENDBRANCH   5   7
ENDBRANCH   3   5
TORSDOF 2
ENDMDL
MODEL 9
REMARK VINA RESULT:      -3.7     10.918     12.059
REMARK  2 active torsions:
REMARK  status: ('A' for Active; 'I' for Inactive)
REMARK    1  A    between atoms: C4_4  and  N9_9 
REMARK    2  A    between atoms: C7_7  and  N9_9 
ROOT
HETATM    1  C1  UNL     1     -34.204  15.477  -5.392  1.00 20.00     0.094 C 
HETATM    2  C6  UNL     1     -34.437  13.696  -3.701  1.00 20.00     0.059 C 
HETATM    3  C7  UNL     1     -33.605  14.872  -4.194  1.00 20.00     0.322 C 
HETATM    4  N8  UNL     1     -34.676  15.953  -6.338  1.00 20.00    -0.195 NA
ENDROOT
BRANCH   3   5
HETATM    5  N9  UNL     1     -33.462  15.874  -3.152  1.00 20.00     0.106 N 
HETATM    6  H21 UNL     1     -32.614  15.697  -2.621  1.00 20.00     0.318 HD
BRANCH   5   7
HETATM    7  C4  UNL     1     -34.606  15.834  -2.237  1.00 20.00     0.226 A 
HETATM    8  C2  UNL     1     -35.583  16.981  -2.202  1.00 20.00     0.042 A 
HETATM    9  C3  UNL     1     -34.681  16.731  -1.025  1.00 20.00     0.016 A 
HETATM   10  C5  UNL     1     -33.601  17.703  -0.690  1.00 20.00     0.012 C 
ENDBRANCH   5   7
ENDBRANCH   3   5
TORSDOF 2
ENDMDL
