MODEL 1
REMARK VINA RESULT:      -3.9      0.000      0.000
REMARK  1 active torsions:
REMARK  status: ('A' for Active; 'I' for Inactive)
REMARK    1  A    between atoms: C4_4  and  N6_6 
ROOT
HETATM    1  C1  UNL     1     -32.591   6.836   3.277  1.00 20.00     0.158 C 
HETATM    2  N6  UNL     1     -33.024   6.023   4.010  1.00 20.00    -0.270 NA
HETATM    3  S7  UNL     1     -31.986   7.926   2.285  1.00 20.00    -0.055 SA
ENDROOT
BRANCH   2   4
HETATM    4  C4  UNL     1     -34.406   6.233   4.422  1.00 20.00     0.114 A 
HETATM    5  C2  UNL     1     -35.447   5.290   3.882  1.00 20.00     0.034 A 
HETATM    6  C3  UNL     1     -35.064   5.229   5.335  1.00 20.00     0.008 A 
HETATM    7  C5  UNL     1     -34.326   4.048   5.865  1.00 20.00     0.012 C 
ENDBRANCH   2   4
TORSDOF 1
ENDMDL
MODEL 2
REMARK VINA RESULT:      -3.7      1.081      1.372
REMARK  1 active torsions:
REMARK  status: ('A' for Active; 'I' for Inactive)
REMARK    1  A    between atoms: C4_4  and  N6_6 
ROOT
HETATM    1  C1  UNL     1     -33.054   6.883   3.247  1.00 20.00     0.158 C 
HETATM    2  N6  UNL     1     -33.826   6.222   3.841  1.00 20.00    -0.270 NA
HETATM    3  S7  UNL     1     -32.023   7.778   2.426  1.00 20.00    -0.055 SA
ENDROOT
BRANCH   2   4
HETATM    4  C4  UNL     1     -33.431   5.879   5.202  1.00 20.00     0.114 A 
HETATM    5  C2  UNL     1     -34.379   6.237   6.314  1.00 20.00     0.034 A 
HETATM    6  C3  UNL     1     -34.179   4.795   5.935  1.00 20.00     0.008 A 
HETATM    7  C5  UNL     1     -35.284   4.029   5.293  1.00 20.00     0.012 C 
ENDBRANCH   2   4
TORSDOF 1
ENDMDL
MODEL 3
REMARK VINA RESULT:      -3.2      1.452      1.946
REMARK  1 active torsions:
REMARK  status: ('A' for Active; 'I' for Inactive)
REMARK    1  A    between atoms: C4_4  and  N6_6 
ROOT
HETATM    1  C1  UNL     1     -33.911   5.907   3.500  1.00 20.00     0.158 C 
HETATM    2  N6  UNL     1     -35.053   5.744   3.737  1.00 20.00    -0.270 NA
HETATM    3  S7  UNL     1     -32.372   6.141   3.165  1.00 20.00    -0.055 SA
ENDROOT
BRANCH   2   4
HETATM    4  C4  UNL     1     -35.335   4.806   4.817  1.00 20.00     0.114 A 
HETATM    5  C2  UNL     1     -34.171   4.076   5.429  1.00 20.00     0.034 A 
HETATM    6  C3  UNL     1     -34.887   5.138   6.218  1.00 20.00     0.008 A 
HETATM    7  C5  UNL     1     -34.201   6.420   6.541  1.00 20.00     0.012 C 
ENDBRANCH   2   4
TORSDOF 1
ENDMDL
MODEL 4
REMARK VINA RESULT:      -3.2     12.307     13.001
REMARK  1 active torsions:
REMARK  status: ('A' for Active; 'I' for Inactive)
REMARK    1  A    between atoms: C4_4  and  N6_6 
ROOT
HETATM    1  C1  UNL     1     -33.432  17.203  -4.926  1.00 20.00     0.158 C 
HETATM    2  N6  UNL     1     -33.228  16.046  -5.008  1.00 20.00    -0.270 NA
HETATM    3  S7  UNL     1     -33.707  18.769  -4.835  1.00 20.00    -0.055 SA
ENDROOT
BRANCH   2   4
HETATM    4  C4  UNL     1     -33.178  15.333  -3.738  1.00 20.00     0.114 A 
HETATM    5  C2  UNL     1     -34.466  15.174  -2.976  1.00 20.00     0.034 A 
HETATM    6  C3  UNL     1     -33.829  13.977  -3.628  1.00 20.00     0.008 A 
HETATM    7  C5  UNL     1     -34.485  13.323  -4.795  1.00 20.00     0.012 C 
ENDBRANCH   2   4
TORSDOF 1
ENDMDL
MODEL 5
REMARK VINA RESULT:      -3.2     11.740     12.370
REMARK  1 active torsions:
REMARK  status: ('A' for Active; 'I' for Inactive)
REMARK    1  A    between atoms: C4_4  and  N6_6 
ROOT
HETATM    1  C1  UNL     1     -34.767  14.452  -3.592  1.00 20.00     0.158 C 
HETATM    2  N6  UNL     1     -34.895  15.250  -2.736  1.00 20.00    -0.270 NA
HETATM    3  S7  UNL     1     -34.611  13.365  -4.746  1.00 20.00    -0.055 SA
ENDROOT
BRANCH   2   4
HETATM    4  C4  UNL     1     -33.795  16.195  -2.598  1.00 20.00     0.114 A 
HETATM    5  C2  UNL     1     -34.113  17.660  -2.727  1.00 20.00     0.034 A 
HETATM    6  C3  UNL     1     -33.739  17.091  -1.386  1.00 20.00     0.008 A 
HETATM    7  C5  UNL     1     -34.755  17.007  -0.300  1.00 20.00     0.012 C 
ENDBRANCH   2   4
TORSDOF 1
ENDMDL
MODEL 6
REMARK VINA RESULT:      -3.2     11.750     12.364
REMARK  1 active torsions:
REMARK  status: ('A' for Active; 'I' for Inactive)
REMARK    1  A    between atoms: C4_4  and  N6_6 
ROOT
HETATM    1  C1  UNL     1     -33.866  15.896  -2.672  1.00 20.00     0.158 C 
HETATM    2  N6  UNL     1     -33.411  15.350  -3.611  1.00 20.00    -0.270 NA
HETATM    3  S7  UNL     1     -34.469  16.651  -1.406  1.00 20.00    -0.055 SA
ENDROOT
BRANCH   2   4
HETATM    4  C4  UNL     1     -33.930  14.011  -3.862  1.00 20.00     0.114 A 
HETATM    5  C2  UNL     1     -35.419  13.857  -4.014  1.00 20.00     0.034 A 
HETATM    6  C3  UNL     1     -34.523  13.692  -5.211  1.00 20.00     0.008 A 
HETATM    7  C5  UNL     1     -34.555  14.694  -6.313  1.00 20.00     0.012 C 
ENDBRANCH   2   4
TORSDOF 1
ENDMDL
MODEL 7
REMARK VINA RESULT:      -3.1     11.943     12.387
REMARK  1 active torsions:
REMARK  status: ('A' for Active; 'I' for Inactive)
REMARK    1  A    between atoms: C4_4  and  N6_6 
ROOT
HETATM    1  C1  UNL     1     -37.236  14.882  -3.730  1.00 20.00     0.158 C 
HETATM    2  N6  UNL     1     -36.074  14.853  -3.544  1.00 20.00    -0.270 NA
HETATM    3  S7  UNL     1     -38.809  14.940  -3.972  1.00 20.00    -0.055 SA
ENDROOT
BRANCH   2   4
HETATM    4  C4  UNL     1     -35.388  13.684  -4.079  1.00 20.00     0.114 A 
HETATM    5  C2  UNL     1     -34.695  13.828  -5.406  1.00 20.00     0.034 A 
HETATM    6  C3  UNL     1     -33.882  13.680  -4.149  1.00 20.00     0.008 A 
HETATM    7  C5  UNL     1     -33.069  14.822  -3.644  1.00 20.00     0.012 C 
ENDBRANCH   2   4
TORSDOF 1
ENDMDL
MODEL 8
REMARK VINA RESULT:      -3.1     11.652     12.112
REMARK  1 active torsions:
REMARK  status: ('A' for Active; 'I' for Inactive)
REMARK    1  A    between atoms: C4_4  and  N6_6 
ROOT
HETATM    1  C1  UNL     1     -34.352  16.480  -1.624  1.00 20.00     0.158 C 
HETATM    2  N6  UNL     1     -34.649  15.613  -2.364  1.00 20.00    -0.270 NA
HETATM    3  S7  UNL     1     -33.966  17.646  -0.611  1.00 20.00    -0.055 SA
ENDROOT
BRANCH   2   4
HETATM    4  C4  UNL     1     -33.811  15.495  -3.550  1.00 20.00     0.114 A 
HETATM    5  C2  UNL     1     -32.816  14.367  -3.592  1.00 20.00     0.034 A 
HETATM    6  C3  UNL     1     -34.022  14.335  -4.490  1.00 20.00     0.008 A 
HETATM    7  C5  UNL     1     -35.095  13.326  -4.265  1.00 20.00     0.012 C 
ENDBRANCH   2   4
TORSDOF 1
ENDMDL
MODEL 9
REMARK VINA RESULT:      -3.1      9.520     10.083
REMARK  1 active torsions:
REMARK  status: ('A' for Active; 'I' for Inactive)
REMARK    1  A    between atoms: C4_4  and  N6_6 
ROOT
HETATM    1  C1  UNL     1     -41.841   3.468  -2.710  1.00 20.00     0.158 C 
HETATM    2  N6  UNL     1     -41.984   4.504  -2.169  1.00 20.00    -0.270 NA
HETATM    3  S7  UNL     1     -41.664   2.071  -3.454  1.00 20.00    -0.055 SA
ENDROOT
BRANCH   2   4
HETATM    4  C4  UNL     1     -40.986   4.818  -1.155  1.00 20.00     0.114 A 
HETATM    5  C2  UNL     1     -40.854   6.255  -0.727  1.00 20.00     0.034 A 
HETATM    6  C3  UNL     1     -41.439   5.243   0.219  1.00 20.00     0.008 A 
HETATM    7  C5  UNL     1     -42.882   5.308   0.586  1.00 20.00     0.012 C 
ENDBRANCH   2   4
TORSDOF 1
ENDMDL
