MODEL 1
REMARK VINA RESULT:      -5.2      0.000      0.000
REMARK  2 active torsions:
REMARK  status: ('A' for Active; 'I' for Inactive)
REMARK    1  A    between atoms: C5_5  and  N8_8 
REMARK    2  A    between atoms: C7_7  and  N8_8 
ROOT
HETATM    1  C1  UNL     1     -32.148   8.898   1.168  1.00 20.00     0.013 C 
HETATM    2  C2  UNL     1     -32.049   8.135   2.090  1.00 20.00    -0.087 C 
HETATM    3  C7  UNL     1     -31.926   7.207   3.216  1.00 20.00     0.362 C 
ENDROOT
BRANCH   3   4
HETATM    4  N8  UNL     1     -32.859   6.102   3.077  1.00 20.00     0.099 N 
HETATM    5  H19 UNL     1     -33.237   6.089   2.134  1.00 20.00     0.317 HD
BRANCH   4   6
HETATM    6  C5  UNL     1     -33.967   6.242   4.027  1.00 20.00     0.225 A 
HETATM    7  C3  UNL     1     -35.229   5.437   3.846  1.00 20.00     0.042 A 
HETATM    8  C4  UNL     1     -34.296   5.125   4.984  1.00 20.00     0.016 A 
HETATM    9  C6  UNL     1     -34.696   5.433   6.386  1.00 20.00     0.012 C 
ENDBRANCH   4   6
ENDBRANCH   3   4
TORSDOF 2
ENDMDL
MODEL 2
REMARK VINA RESULT:      -4.6      0.759      4.527
REMARK  2 active torsions:
REMARK  status: ('A' for Active; 'I' for Inactive)
REMARK    1  A    between atoms: C5_5  and  N8_8 
REMARK    2  A    between atoms: C7_7  and  N8_8 
ROOT
HETATM    1  C1  UNL     1     -34.798   4.716   6.155  1.00 20.00     0.013 C 
HETATM    2  C2  UNL     1     -34.862   5.048   5.003  1.00 20.00    -0.087 C 
HETATM    3  C7  UNL     1     -34.944   5.453   3.598  1.00 20.00     0.362 C 
ENDROOT
BRANCH   3   4
HETATM    4  N8  UNL     1     -33.615   5.604   3.028  1.00 20.00     0.099 N 
HETATM    5  H19 UNL     1     -32.968   4.978   3.498  1.00 20.00     0.317 HD
BRANCH   4   6
HETATM    6  C5  UNL     1     -33.140   6.982   3.190  1.00 20.00     0.225 A 
HETATM    7  C3  UNL     1     -31.730   7.249   3.653  1.00 20.00     0.042 A 
HETATM    8  C4  UNL     1     -32.124   7.554   2.234  1.00 20.00     0.016 A 
HETATM    9  C6  UNL     1     -32.240   8.967   1.776  1.00 20.00     0.012 C 
ENDBRANCH   4   6
ENDBRANCH   3   4
TORSDOF 2
ENDMDL
MODEL 3
REMARK VINA RESULT:      -4.3      1.916      3.989
REMARK  2 active torsions:
REMARK  status: ('A' for Active; 'I' for Inactive)
REMARK    1  A    between atoms: C5_5  and  N8_8 
REMARK    2  A    between atoms: C7_7  and  N8_8 
ROOT
HETATM    1  C1  UNL     1     -33.696   7.005   6.804  1.00 20.00     0.013 C 
HETATM    2  C2  UNL     1     -34.305   6.020   6.486  1.00 20.00    -0.087 C 
HETATM    3  C7  UNL     1     -35.048   4.818   6.102  1.00 20.00     0.362 C 
ENDROOT
BRANCH   3   4
HETATM    4  N8  UNL     1     -35.452   4.887   4.707  1.00 20.00     0.099 N 
HETATM    5  H19 UNL     1     -36.011   4.071   4.472  1.00 20.00     0.317 HD
BRANCH   4   6
HETATM    6  C5  UNL     1     -34.276   4.920   3.832  1.00 20.00     0.225 A 
HETATM    7  C3  UNL     1     -34.425   5.268   2.373  1.00 20.00     0.042 A 
HETATM    8  C4  UNL     1     -33.751   6.233   3.310  1.00 20.00     0.016 A 
HETATM    9  C6  UNL     1     -32.283   6.469   3.215  1.00 20.00     0.012 C 
ENDBRANCH   4   6
ENDBRANCH   3   4
TORSDOF 2
ENDMDL
MODEL 4
REMARK VINA RESULT:      -4.3      1.673      2.333
REMARK  2 active torsions:
REMARK  status: ('A' for Active; 'I' for Inactive)
REMARK    1  A    between atoms: C5_5  and  N8_8 
REMARK    2  A    between atoms: C7_7  and  N8_8 
ROOT
HETATM    1  C1  UNL     1     -32.047   6.827   3.270  1.00 20.00     0.013 C 
HETATM    2  C2  UNL     1     -33.059   6.224   3.038  1.00 20.00    -0.087 C 
HETATM    3  C7  UNL     1     -34.293   5.490   2.751  1.00 20.00     0.362 C 
ENDROOT
BRANCH   3   4
HETATM    4  N8  UNL     1     -34.624   4.592   3.845  1.00 20.00     0.099 N 
HETATM    5  H19 UNL     1     -35.404   3.999   3.577  1.00 20.00     0.317 HD
BRANCH   4   6
HETATM    6  C5  UNL     1     -35.002   5.355   5.039  1.00 20.00     0.225 A 
HETATM    7  C3  UNL     1     -35.135   4.662   6.372  1.00 20.00     0.042 A 
HETATM    8  C4  UNL     1     -33.993   5.612   6.130  1.00 20.00     0.016 A 
HETATM    9  C6  UNL     1     -33.957   6.931   6.821  1.00 20.00     0.012 C 
ENDBRANCH   4   6
ENDBRANCH   3   4
TORSDOF 2
ENDMDL
MODEL 5
REMARK VINA RESULT:      -3.9      1.659      4.213
REMARK  2 active torsions:
REMARK  status: ('A' for Active; 'I' for Inactive)
REMARK    1  A    between atoms: C5_5  and  N8_8 
REMARK    2  A    between atoms: C7_7  and  N8_8 
ROOT
HETATM    1  C1  UNL     1     -35.148   4.115   5.959  1.00 20.00     0.013 C 
HETATM    2  C2  UNL     1     -34.674   5.196   6.178  1.00 20.00    -0.087 C 
HETATM    3  C7  UNL     1     -34.097   6.515   6.449  1.00 20.00     0.362 C 
ENDROOT
BRANCH   3   4
HETATM    4  N8  UNL     1     -33.026   6.811   5.512  1.00 20.00     0.099 N 
HETATM    5  H19 UNL     1     -32.635   7.726   5.717  1.00 20.00     0.317 HD
BRANCH   4   6
HETATM    6  C5  UNL     1     -33.533   6.813   4.136  1.00 20.00     0.225 A 
HETATM    7  C3  UNL     1     -32.591   7.037   2.981  1.00 20.00     0.042 A 
HETATM    8  C4  UNL     1     -33.199   5.679   3.201  1.00 20.00     0.016 A 
HETATM    9  C6  UNL     1     -34.229   5.158   2.258  1.00 20.00     0.012 C 
ENDBRANCH   4   6
ENDBRANCH   3   4
TORSDOF 2
ENDMDL
MODEL 6
REMARK VINA RESULT:      -3.8     11.525     13.086
REMARK  2 active torsions:
REMARK  status: ('A' for Active; 'I' for Inactive)
REMARK    1  A    between atoms: C5_5  and  N8_8 
REMARK    2  A    between atoms: C7_7  and  N8_8 
ROOT
HETATM    1  C1  UNL     1     -34.506  16.324  -1.875  1.00 20.00     0.013 C 
HETATM    2  C2  UNL     1     -33.822  15.772  -2.693  1.00 20.00    -0.087 C 
HETATM    3  C7  UNL     1     -32.988  15.094  -3.688  1.00 20.00     0.362 C 
ENDROOT
BRANCH   3   4
HETATM    4  N8  UNL     1     -32.911  15.874  -4.912  1.00 20.00     0.099 N 
HETATM    5  H19 UNL     1     -32.688  16.839  -4.690  1.00 20.00     0.317 HD
BRANCH   4   6
HETATM    6  C5  UNL     1     -34.192  15.839  -5.625  1.00 20.00     0.225 A 
HETATM    7  C3  UNL     1     -34.423  16.736  -6.815  1.00 20.00     0.042 A 
HETATM    8  C4  UNL     1     -34.277  15.251  -7.011  1.00 20.00     0.016 A 
HETATM    9  C6  UNL     1     -35.455  14.428  -7.404  1.00 20.00     0.012 C 
ENDBRANCH   4   6
ENDBRANCH   3   4
TORSDOF 2
ENDMDL
MODEL 7
REMARK VINA RESULT:      -3.8     11.094     11.930
REMARK  2 active torsions:
REMARK  status: ('A' for Active; 'I' for Inactive)
REMARK    1  A    between atoms: C5_5  and  N8_8 
REMARK    2  A    between atoms: C7_7  and  N8_8 
ROOT
HETATM    1  C1  UNL     1     -34.743  16.974  -0.356  1.00 20.00     0.013 C 
HETATM    2  C2  UNL     1     -34.353  16.589  -1.424  1.00 20.00    -0.087 C 
HETATM    3  C7  UNL     1     -33.875  16.123  -2.728  1.00 20.00     0.362 C 
ENDROOT
BRANCH   3   4
HETATM    4  N8  UNL     1     -34.354  14.778  -3.000  1.00 20.00     0.099 N 
HETATM    5  H19 UNL     1     -33.941  14.127  -2.339  1.00 20.00     0.317 HD
BRANCH   4   6
HETATM    6  C5  UNL     1     -33.984  14.367  -4.358  1.00 20.00     0.225 A 
HETATM    7  C3  UNL     1     -34.672  13.194  -5.010  1.00 20.00     0.042 A 
HETATM    8  C4  UNL     1     -34.934  14.589  -5.507  1.00 20.00     0.016 A 
HETATM    9  C6  UNL     1     -34.416  15.021  -6.835  1.00 20.00     0.012 C 
ENDBRANCH   4   6
ENDBRANCH   3   4
TORSDOF 2
ENDMDL
MODEL 8
REMARK VINA RESULT:      -3.8      1.290      4.700
REMARK  2 active torsions:
REMARK  status: ('A' for Active; 'I' for Inactive)
REMARK    1  A    between atoms: C5_5  and  N8_8 
REMARK    2  A    between atoms: C7_7  and  N8_8 
ROOT
HETATM    1  C1  UNL     1     -34.638   5.826   4.000  1.00 20.00     0.013 C 
HETATM    2  C2  UNL     1     -33.507   6.004   3.640  1.00 20.00    -0.087 C 
HETATM    3  C7  UNL     1     -32.127   6.218   3.200  1.00 20.00     0.362 C 
ENDROOT
BRANCH   3   4
HETATM    4  N8  UNL     1     -31.820   7.638   3.140  1.00 20.00     0.099 N 
HETATM    5  H19 UNL     1     -32.058   8.077   4.024  1.00 20.00     0.317 HD
BRANCH   4   6
HETATM    6  C5  UNL     1     -32.587   8.285   2.070  1.00 20.00     0.225 A 
HETATM    7  C3  UNL     1     -32.484   9.773   1.856  1.00 20.00     0.042 A 
HETATM    8  C4  UNL     1     -31.885   8.827   0.851  1.00 20.00     0.016 A 
HETATM    9  C6  UNL     1     -32.503   8.678  -0.497  1.00 20.00     0.012 C 
ENDBRANCH   4   6
ENDBRANCH   3   4
TORSDOF 2
ENDMDL
MODEL 9
REMARK VINA RESULT:      -3.8      9.032     10.627
REMARK  2 active torsions:
REMARK  status: ('A' for Active; 'I' for Inactive)
REMARK    1  A    between atoms: C5_5  and  N8_8 
REMARK    2  A    between atoms: C7_7  and  N8_8 
ROOT
HETATM    1  C1  UNL     1     -41.489   1.406  -3.805  1.00 20.00     0.013 C 
HETATM    2  C2  UNL     1     -41.750   2.456  -3.284  1.00 20.00    -0.087 C 
HETATM    3  C7  UNL     1     -42.072   3.737  -2.651  1.00 20.00     0.362 C 
ENDROOT
BRANCH   3   4
HETATM    4  N8  UNL     1     -41.184   3.994  -1.529  1.00 20.00     0.099 N 
HETATM    5  H19 UNL     1     -41.199   3.203  -0.892  1.00 20.00     0.317 HD
BRANCH   4   6
HETATM    6  C5  UNL     1     -41.610   5.193  -0.801  1.00 20.00     0.225 A 
HETATM    7  C3  UNL     1     -40.604   6.014  -0.034  1.00 20.00     0.042 A 
HETATM    8  C4  UNL     1     -41.218   6.563  -1.293  1.00 20.00     0.016 A 
HETATM    9  C6  UNL     1     -42.189   7.691  -1.222  1.00 20.00     0.012 C 
ENDBRANCH   4   6
ENDBRANCH   3   4
TORSDOF 2
ENDMDL
