MODEL 1
REMARK VINA RESULT:      -4.5      0.000      0.000
REMARK  1 active torsions:
REMARK  status: ('A' for Active; 'I' for Inactive)
REMARK    1  A    between atoms: C8_8  and  N10_10 
ROOT
HETATM    1  C1  UNL     1     -34.809  13.613  -4.244  1.00 20.00     0.130 C 
HETATM    2  C2  UNL     1     -33.536  14.202  -3.683  1.00 20.00     0.108 C 
HETATM    3  C3  UNL     1     -36.081  14.382  -3.974  1.00 20.00     0.108 C 
HETATM    4  C5  UNL     1     -33.475  15.704  -3.950  1.00 20.00     0.280 C 
HETATM    5  C6  UNL     1     -35.872  15.874  -4.226  1.00 20.00     0.280 C 
HETATM    6  N10 UNL     1     -34.687  16.441  -3.569  1.00 20.00     0.094 N 
HETATM    7  O11 UNL     1     -34.825  12.511  -4.790  1.00 20.00    -0.298 OA
ENDROOT
BRANCH   6   8
HETATM    8  C8  UNL     1     -34.847  16.541  -2.121  1.00 20.00     0.227 A 
HETATM    9  C4  UNL     1     -33.724  17.071  -1.267  1.00 20.00     0.042 A 
HETATM   10  C7  UNL     1     -34.971  17.890  -1.460  1.00 20.00     0.017 A 
HETATM   11  C9  UNL     1     -35.921  18.084  -0.329  1.00 20.00     0.012 C 
ENDBRANCH   6   8
TORSDOF 1
ENDMDL
MODEL 2
REMARK VINA RESULT:      -4.4      1.310      1.373
REMARK  1 active torsions:
REMARK  status: ('A' for Active; 'I' for Inactive)
REMARK    1  A    between atoms: C8_8  and  N10_10 
ROOT
HETATM    1  C1  UNL     1     -34.623  13.601  -4.629  1.00 20.00     0.130 C 
HETATM    2  C2  UNL     1     -33.727  13.844  -3.437  1.00 20.00     0.108 C 
HETATM    3  C3  UNL     1     -35.265  14.821  -5.247  1.00 20.00     0.108 C 
HETATM    4  C5  UNL     1     -32.796  15.026  -3.697  1.00 20.00     0.280 C 
HETATM    5  C6  UNL     1     -34.243  15.945  -5.403  1.00 20.00     0.280 C 
HETATM    6  N10 UNL     1     -33.468  16.235  -4.190  1.00 20.00     0.094 N 
HETATM    7  O11 UNL     1     -34.906  12.463  -5.003  1.00 20.00    -0.298 OA
ENDROOT
BRANCH   6   8
HETATM    8  C8  UNL     1     -34.272  16.886  -3.158  1.00 20.00     0.227 A 
HETATM    9  C4  UNL     1     -33.736  17.031  -1.757  1.00 20.00     0.042 A 
HETATM   10  C7  UNL     1     -33.882  18.244  -2.634  1.00 20.00     0.017 A 
HETATM   11  C9  UNL     1     -34.931  19.261  -2.337  1.00 20.00     0.012 C 
ENDBRANCH   6   8
TORSDOF 1
ENDMDL
MODEL 3
REMARK VINA RESULT:      -4.4      1.444      2.017
REMARK  1 active torsions:
REMARK  status: ('A' for Active; 'I' for Inactive)
REMARK    1  A    between atoms: C8_8  and  N10_10 
ROOT
HETATM    1  C1  UNL     1     -34.921  14.661  -5.668  1.00 20.00     0.130 C 
HETATM    2  C2  UNL     1     -35.200  14.122  -4.284  1.00 20.00     0.108 C 
HETATM    3  C3  UNL     1     -34.216  15.996  -5.739  1.00 20.00     0.108 C 
HETATM    4  C5  UNL     1     -33.972  14.275  -3.390  1.00 20.00     0.280 C 
HETATM    5  C6  UNL     1     -33.044  16.039  -4.761  1.00 20.00     0.280 C 
HETATM    6  N10 UNL     1     -33.378  15.618  -3.394  1.00 20.00     0.094 N 
HETATM    7  O11 UNL     1     -35.346  14.101  -6.677  1.00 20.00    -0.298 OA
ENDROOT
BRANCH   6   8
HETATM    8  C8  UNL     1     -34.209  16.597  -2.697  1.00 20.00     0.227 A 
HETATM    9  C4  UNL     1     -34.700  16.319  -1.300  1.00 20.00     0.042 A 
HETATM   10  C7  UNL     1     -33.653  17.374  -1.531  1.00 20.00     0.017 A 
HETATM   11  C9  UNL     1     -33.992  18.815  -1.362  1.00 20.00     0.012 C 
ENDBRANCH   6   8
TORSDOF 1
ENDMDL
MODEL 4
REMARK VINA RESULT:      -4.1      2.667      4.528
REMARK  1 active torsions:
REMARK  status: ('A' for Active; 'I' for Inactive)
REMARK    1  A    between atoms: C8_8  and  N10_10 
ROOT
HETATM    1  C1  UNL     1     -34.483  16.314  -2.136  1.00 20.00     0.130 C 
HETATM    2  C2  UNL     1     -34.671  17.560  -2.968  1.00 20.00     0.108 C 
HETATM    3  C3  UNL     1     -34.193  15.038  -2.891  1.00 20.00     0.108 C 
HETATM    4  C5  UNL     1     -33.593  17.656  -4.045  1.00 20.00     0.280 C 
HETATM    5  C6  UNL     1     -33.141  15.281  -3.971  1.00 20.00     0.280 C 
HETATM    6  N10 UNL     1     -33.415  16.433  -4.839  1.00 20.00     0.094 N 
HETATM    7  O11 UNL     1     -34.670  16.315  -0.919  1.00 20.00    -0.298 OA
ENDROOT
BRANCH   6   8
HETATM    8  C8  UNL     1     -34.532  16.192  -5.750  1.00 20.00     0.227 A 
HETATM    9  C4  UNL     1     -34.661  16.990  -7.021  1.00 20.00     0.042 A 
HETATM   10  C7  UNL     1     -34.296  15.532  -7.084  1.00 20.00     0.017 A 
HETATM   11  C9  UNL     1     -35.274  14.538  -7.610  1.00 20.00     0.012 C 
ENDBRANCH   6   8
TORSDOF 1
ENDMDL
MODEL 5
REMARK VINA RESULT:      -4.1      2.607      4.412
REMARK  1 active torsions:
REMARK  status: ('A' for Active; 'I' for Inactive)
REMARK    1  A    between atoms: C8_8  and  N10_10 
ROOT
HETATM    1  C1  UNL     1     -34.654  15.830  -2.380  1.00 20.00     0.130 C 
HETATM    2  C2  UNL     1     -33.510  15.541  -3.323  1.00 20.00     0.108 C 
HETATM    3  C3  UNL     1     -36.046  15.699  -2.953  1.00 20.00     0.108 C 
HETATM    4  C5  UNL     1     -33.782  14.271  -4.127  1.00 20.00     0.280 C 
HETATM    5  C6  UNL     1     -36.171  14.419  -3.776  1.00 20.00     0.280 C 
HETATM    6  N10 UNL     1     -35.104  14.227  -4.766  1.00 20.00     0.094 N 
HETATM    7  O11 UNL     1     -34.462  16.259  -1.243  1.00 20.00    -0.298 OA
ENDROOT
BRANCH   6   8
HETATM    8  C8  UNL     1     -35.211  15.155  -5.889  1.00 20.00     0.227 A 
HETATM    9  C4  UNL     1     -34.387  14.942  -7.132  1.00 20.00     0.042 A 
HETATM   10  C7  UNL     1     -35.874  14.723  -7.172  1.00 20.00     0.017 A 
HETATM   11  C9  UNL     1     -36.750  15.670  -7.918  1.00 20.00     0.012 C 
ENDBRANCH   6   8
TORSDOF 1
ENDMDL
MODEL 6
REMARK VINA RESULT:      -4.1      1.556      2.446
REMARK  1 active torsions:
REMARK  status: ('A' for Active; 'I' for Inactive)
REMARK    1  A    between atoms: C8_8  and  N10_10 
ROOT
HETATM    1  C1  UNL     1     -35.494  14.564  -5.961  1.00 20.00     0.130 C 
HETATM    2  C2  UNL     1     -36.605  15.340  -5.294  1.00 20.00     0.108 C 
HETATM    3  C3  UNL     1     -34.216  14.407  -5.170  1.00 20.00     0.108 C 
HETATM    4  C5  UNL     1     -36.772  14.899  -3.842  1.00 20.00     0.280 C 
HETATM    5  C6  UNL     1     -34.522  14.019  -3.725  1.00 20.00     0.280 C 
HETATM    6  N10 UNL     1     -35.524  14.867  -3.067  1.00 20.00     0.094 N 
HETATM    7  O11 UNL     1     -35.582  14.182  -7.127  1.00 20.00    -0.298 OA
ENDROOT
BRANCH   6   8
HETATM    8  C8  UNL     1     -35.016  16.205  -2.774  1.00 20.00     0.227 A 
HETATM    9  C4  UNL     1     -35.918  17.242  -2.156  1.00 20.00     0.042 A 
HETATM   10  C7  UNL     1     -34.802  16.641  -1.347  1.00 20.00     0.017 A 
HETATM   11  C9  UNL     1     -33.612  17.463  -0.986  1.00 20.00     0.012 C 
ENDBRANCH   6   8
TORSDOF 1
ENDMDL
MODEL 7
REMARK VINA RESULT:      -4.0      1.891      2.330
REMARK  1 active torsions:
REMARK  status: ('A' for Active; 'I' for Inactive)
REMARK    1  A    between atoms: C8_8  and  N10_10 
ROOT
HETATM    1  C1  UNL     1     -34.665  13.746  -4.780  1.00 20.00     0.130 C 
HETATM    2  C2  UNL     1     -34.454  14.721  -5.914  1.00 20.00     0.108 C 
HETATM    3  C3  UNL     1     -34.798  14.341  -3.397  1.00 20.00     0.108 C 
HETATM    4  C5  UNL     1     -35.410  15.905  -5.789  1.00 20.00     0.280 C 
HETATM    5  C6  UNL     1     -35.736  15.546  -3.419  1.00 20.00     0.280 C 
HETATM    6  N10 UNL     1     -35.431  16.534  -4.462  1.00 20.00     0.094 N 
HETATM    7  O11 UNL     1     -34.614  12.529  -4.957  1.00 20.00    -0.298 OA
ENDROOT
BRANCH   6   8
HETATM    8  C8  UNL     1     -34.209  17.283  -4.180  1.00 20.00     0.227 A 
HETATM    9  C4  UNL     1     -33.741  18.357  -5.127  1.00 20.00     0.042 A 
HETATM   10  C7  UNL     1     -34.281  18.733  -3.775  1.00 20.00     0.017 A 
HETATM   11  C9  UNL     1     -33.367  19.263  -2.724  1.00 20.00     0.012 C 
ENDBRANCH   6   8
TORSDOF 1
ENDMDL
MODEL 8
REMARK VINA RESULT:      -4.0      2.293      3.633
REMARK  1 active torsions:
REMARK  status: ('A' for Active; 'I' for Inactive)
REMARK    1  A    between atoms: C8_8  and  N10_10 
ROOT
HETATM    1  C1  UNL     1     -33.923  13.791  -3.841  1.00 20.00     0.130 C 
HETATM    2  C2  UNL     1     -34.480  14.966  -3.073  1.00 20.00     0.108 C 
HETATM    3  C3  UNL     1     -34.824  13.188  -4.894  1.00 20.00     0.108 C 
HETATM    4  C5  UNL     1     -35.152  15.958  -4.020  1.00 20.00     0.280 C 
HETATM    5  C6  UNL     1     -35.474  14.284  -5.736  1.00 20.00     0.280 C 
HETATM    6  N10 UNL     1     -36.109  15.354  -4.956  1.00 20.00     0.094 N 
HETATM    7  O11 UNL     1     -32.843  13.280  -3.547  1.00 20.00    -0.298 OA
ENDROOT
BRANCH   6   8
HETATM    8  C8  UNL     1     -37.332  14.909  -4.293  1.00 20.00     0.227 A 
HETATM    9  C4  UNL     1     -38.149  15.876  -3.476  1.00 20.00     0.042 A 
HETATM   10  C7  UNL     1     -38.678  15.371  -4.790  1.00 20.00     0.017 A 
HETATM   11  C9  UNL     1     -39.830  14.426  -4.819  1.00 20.00     0.012 C 
ENDBRANCH   6   8
TORSDOF 1
ENDMDL
MODEL 9
REMARK VINA RESULT:      -4.0      1.857      3.466
REMARK  1 active torsions:
REMARK  status: ('A' for Active; 'I' for Inactive)
REMARK    1  A    between atoms: C8_8  and  N10_10 
ROOT
HETATM    1  C1  UNL     1     -33.617  13.763  -3.868  1.00 20.00     0.130 C 
HETATM    2  C2  UNL     1     -34.846  13.399  -4.668  1.00 20.00     0.108 C 
HETATM    3  C3  UNL     1     -33.449  15.225  -3.523  1.00 20.00     0.108 C 
HETATM    4  C5  UNL     1     -36.082  14.095  -4.102  1.00 20.00     0.280 C 
HETATM    5  C6  UNL     1     -34.766  15.814  -3.023  1.00 20.00     0.280 C 
HETATM    6  N10 UNL     1     -35.922  15.539  -3.886  1.00 20.00     0.094 N 
HETATM    7  O11 UNL     1     -32.744  12.935  -3.613  1.00 20.00    -0.298 OA
ENDROOT
BRANCH   6   8
HETATM    8  C8  UNL     1     -35.873  16.289  -5.138  1.00 20.00     0.227 A 
HETATM    9  C4  UNL     1     -36.937  16.088  -6.186  1.00 20.00     0.042 A 
HETATM   10  C7  UNL     1     -36.878  17.377  -5.414  1.00 20.00     0.017 A 
HETATM   11  C9  UNL     1     -36.454  18.636  -6.089  1.00 20.00     0.012 C 
ENDBRANCH   6   8
TORSDOF 1
ENDMDL
