MODEL 1
REMARK VINA RESULT:      -4.4      0.000      0.000
REMARK  2 active torsions:
REMARK  status: ('A' for Active; 'I' for Inactive)
REMARK    1  A    between atoms: C4_4  and  N9_9 
REMARK    2  A    between atoms: C7_7  and  N9_9 
ROOT
HETATM    1  C1  UNL     1     -32.185   7.992   2.242  1.00 20.00     0.094 C 
HETATM    2  C6  UNL     1     -32.215   5.553   2.604  1.00 20.00     0.059 C 
HETATM    3  C7  UNL     1     -32.265   6.929   3.253  1.00 20.00     0.322 C 
HETATM    4  N8  UNL     1     -32.120   8.831   1.443  1.00 20.00    -0.195 NA
ENDROOT
BRANCH   3   5
HETATM    5  N9  UNL     1     -33.477   7.084   4.039  1.00 20.00     0.106 N 
HETATM    6  H21 UNL     1     -33.471   7.990   4.501  1.00 20.00     0.318 HD
BRANCH   5   7
HETATM    7  C4  UNL     1     -33.566   6.036   5.060  1.00 20.00     0.226 A 
HETATM    8  C2  UNL     1     -34.233   6.317   6.381  1.00 20.00     0.042 A 
HETATM    9  C3  UNL     1     -34.894   5.402   5.388  1.00 20.00     0.016 A 
HETATM   10  C5  UNL     1     -34.979   3.940   5.658  1.00 20.00     0.012 C 
ENDBRANCH   5   7
ENDBRANCH   3   5
TORSDOF 2
ENDMDL
MODEL 2
REMARK VINA RESULT:      -4.2     11.056     13.259
REMARK  2 active torsions:
REMARK  status: ('A' for Active; 'I' for Inactive)
REMARK    1  A    between atoms: C4_4  and  N9_9 
REMARK    2  A    between atoms: C7_7  and  N9_9 
ROOT
HETATM    1  C1  UNL     1     -34.108  13.770  -3.967  1.00 20.00     0.094 C 
HETATM    2  C6  UNL     1     -33.961  15.902  -2.735  1.00 20.00     0.059 C 
HETATM    3  C7  UNL     1     -33.292  14.970  -3.737  1.00 20.00     0.322 C 
HETATM    4  N8  UNL     1     -34.752  12.821  -4.146  1.00 20.00    -0.195 NA
ENDROOT
BRANCH   3   5
HETATM    5  N9  UNL     1     -33.053  15.654  -4.996  1.00 20.00     0.106 N 
HETATM    6  H21 UNL     1     -32.720  16.597  -4.815  1.00 20.00     0.318 HD
BRANCH   5   7
HETATM    7  C4  UNL     1     -34.288  15.734  -5.781  1.00 20.00     0.226 A 
HETATM    8  C2  UNL     1     -34.404  16.718  -6.917  1.00 20.00     0.042 A 
HETATM    9  C3  UNL     1     -34.318  15.245  -7.207  1.00 20.00     0.016 A 
HETATM   10  C5  UNL     1     -35.507  14.512  -7.723  1.00 20.00     0.012 C 
ENDBRANCH   5   7
ENDBRANCH   3   5
TORSDOF 2
ENDMDL
MODEL 3
REMARK VINA RESULT:      -4.2      1.681      4.341
REMARK  2 active torsions:
REMARK  status: ('A' for Active; 'I' for Inactive)
REMARK    1  A    between atoms: C4_4  and  N9_9 
REMARK    2  A    between atoms: C7_7  and  N9_9 
ROOT
HETATM    1  C1  UNL     1     -34.150   6.343   5.701  1.00 20.00     0.094 C 
HETATM    2  C6  UNL     1     -35.056   4.310   4.638  1.00 20.00     0.059 C 
HETATM    3  C7  UNL     1     -34.571   5.739   4.430  1.00 20.00     0.322 C 
HETATM    4  N8  UNL     1     -33.819   6.821   6.706  1.00 20.00    -0.195 NA
ENDROOT
BRANCH   3   5
HETATM    5  N9  UNL     1     -33.475   5.776   3.477  1.00 20.00     0.106 N 
HETATM    6  H21 UNL     1     -32.715   5.187   3.806  1.00 20.00     0.318 HD
BRANCH   5   7
HETATM    7  C4  UNL     1     -32.975   7.145   3.322  1.00 20.00     0.226 A 
HETATM    8  C2  UNL     1     -31.529   7.463   3.602  1.00 20.00     0.042 A 
HETATM    9  C3  UNL     1     -32.041   7.492   2.189  1.00 20.00     0.016 A 
HETATM   10  C5  UNL     1     -32.184   8.789   1.471  1.00 20.00     0.012 C 
ENDBRANCH   5   7
ENDBRANCH   3   5
TORSDOF 2
ENDMDL
MODEL 4
REMARK VINA RESULT:      -4.0     11.473     12.262
REMARK  2 active torsions:
REMARK  status: ('A' for Active; 'I' for Inactive)
REMARK    1  A    between atoms: C4_4  and  N9_9 
REMARK    2  A    between atoms: C7_7  and  N9_9 
ROOT
HETATM    1  C1  UNL     1     -34.617  13.863  -4.765  1.00 20.00     0.094 C 
HETATM    2  C6  UNL     1     -34.021  15.809  -6.158  1.00 20.00     0.059 C 
HETATM    3  C7  UNL     1     -34.467  15.324  -4.785  1.00 20.00     0.322 C 
HETATM    4  N8  UNL     1     -34.737  12.709  -4.751  1.00 20.00    -0.195 NA
ENDROOT
BRANCH   3   5
HETATM    5  N9  UNL     1     -33.524  15.739  -3.761  1.00 20.00     0.106 N 
HETATM    6  H21 UNL     1     -33.228  14.930  -3.221  1.00 20.00     0.318 HD
BRANCH   5   7
HETATM    7  C4  UNL     1     -34.143  16.710  -2.854  1.00 20.00     0.226 A 
HETATM    8  C2  UNL     1     -35.629  16.679  -2.606  1.00 20.00     0.042 A 
HETATM    9  C3  UNL     1     -34.679  16.269  -1.516  1.00 20.00     0.016 A 
HETATM   10  C5  UNL     1     -34.499  17.132  -0.315  1.00 20.00     0.012 C 
ENDBRANCH   5   7
ENDBRANCH   3   5
TORSDOF 2
ENDMDL
MODEL 5
REMARK VINA RESULT:      -3.9     11.413     12.162
REMARK  2 active torsions:
REMARK  status: ('A' for Active; 'I' for Inactive)
REMARK    1  A    between atoms: C4_4  and  N9_9 
REMARK    2  A    between atoms: C7_7  and  N9_9 
ROOT
HETATM    1  C1  UNL     1     -37.262  14.449  -4.110  1.00 20.00     0.094 C 
HETATM    2  C6  UNL     1     -35.072  13.328  -4.288  1.00 20.00     0.059 C 
HETATM    3  C7  UNL     1     -35.919  14.526  -4.699  1.00 20.00     0.322 C 
HETATM    4  N8  UNL     1     -38.324  14.386  -3.646  1.00 20.00    -0.195 NA
ENDROOT
BRANCH   3   5
HETATM    5  N9  UNL     1     -35.277  15.768  -4.307  1.00 20.00     0.106 N 
HETATM    6  H21 UNL     1     -34.555  16.008  -4.981  1.00 20.00     0.318 HD
BRANCH   5   7
HETATM    7  C4  UNL     1     -34.659  15.633  -2.984  1.00 20.00     0.226 A 
HETATM    8  C2  UNL     1     -33.287  16.201  -2.725  1.00 20.00     0.042 A 
HETATM    9  C3  UNL     1     -34.494  16.839  -2.094  1.00 20.00     0.016 A 
HETATM   10  C5  UNL     1     -34.721  16.722  -0.626  1.00 20.00     0.012 C 
ENDBRANCH   5   7
ENDBRANCH   3   5
TORSDOF 2
ENDMDL
MODEL 6
REMARK VINA RESULT:      -3.8      1.559      4.642
REMARK  2 active torsions:
REMARK  status: ('A' for Active; 'I' for Inactive)
REMARK    1  A    between atoms: C4_4  and  N9_9 
REMARK    2  A    between atoms: C7_7  and  N9_9 
ROOT
HETATM    1  C1  UNL     1     -34.643   4.581   5.223  1.00 20.00     0.094 C 
HETATM    2  C6  UNL     1     -33.991   6.674   6.352  1.00 20.00     0.059 C 
HETATM    3  C7  UNL     1     -33.803   5.783   5.132  1.00 20.00     0.322 C 
HETATM    4  N8  UNL     1     -35.305   3.631   5.297  1.00 20.00    -0.195 NA
ENDROOT
BRANCH   3   5
HETATM    5  N9  UNL     1     -34.111   6.510   3.912  1.00 20.00     0.106 N 
HETATM    6  H21 UNL     1     -34.219   5.855   3.142  1.00 20.00     0.318 HD
BRANCH   5   7
HETATM    7  C4  UNL     1     -33.033   7.448   3.585  1.00 20.00     0.226 A 
HETATM    8  C2  UNL     1     -31.615   6.957   3.447  1.00 20.00     0.042 A 
HETATM    9  C3  UNL     1     -32.374   7.409   2.230  1.00 20.00     0.016 A 
HETATM   10  C5  UNL     1     -32.000   8.676   1.542  1.00 20.00     0.012 C 
ENDBRANCH   5   7
ENDBRANCH   3   5
TORSDOF 2
ENDMDL
MODEL 7
REMARK VINA RESULT:      -3.7     10.487     11.139
REMARK  2 active torsions:
REMARK  status: ('A' for Active; 'I' for Inactive)
REMARK    1  A    between atoms: C4_4  and  N9_9 
REMARK    2  A    between atoms: C7_7  and  N9_9 
ROOT
HETATM    1  C1  UNL     1     -41.683   1.921  -3.461  1.00 20.00     0.094 C 
HETATM    2  C6  UNL     1     -43.186   3.872  -3.335  1.00 20.00     0.059 C 
HETATM    3  C7  UNL     1     -42.274   2.926  -2.567  1.00 20.00     0.322 C 
HETATM    4  N8  UNL     1     -41.219   1.126  -4.168  1.00 20.00    -0.195 NA
ENDROOT
BRANCH   3   5
HETATM    5  N9  UNL     1     -41.222   3.663  -1.888  1.00 20.00     0.106 N 
HETATM    6  H21 UNL     1     -40.806   3.079  -1.167  1.00 20.00     0.318 HD
BRANCH   5   7
HETATM    7  C4  UNL     1     -41.763   4.872  -1.260  1.00 20.00     0.226 A 
HETATM    8  C2  UNL     1     -41.650   5.071   0.229  1.00 20.00     0.042 A 
HETATM    9  C3  UNL     1     -40.836   5.923  -0.705  1.00 20.00     0.016 A 
HETATM   10  C5  UNL     1     -41.157   7.368  -0.872  1.00 20.00     0.012 C 
ENDBRANCH   5   7
ENDBRANCH   3   5
TORSDOF 2
ENDMDL
MODEL 8
REMARK VINA RESULT:      -3.6     11.087     12.086
REMARK  2 active torsions:
REMARK  status: ('A' for Active; 'I' for Inactive)
REMARK    1  A    between atoms: C4_4  and  N9_9 
REMARK    2  A    between atoms: C7_7  and  N9_9 
ROOT
HETATM    1  C1  UNL     1     -33.221  16.115  -4.398  1.00 20.00     0.094 C 
HETATM    2  C6  UNL     1     -33.499  13.718  -3.889  1.00 20.00     0.059 C 
HETATM    3  C7  UNL     1     -33.371  15.125  -3.322  1.00 20.00     0.322 C 
HETATM    4  N8  UNL     1     -33.100  16.896  -5.247  1.00 20.00    -0.195 NA
ENDROOT
BRANCH   3   5
HETATM    5  N9  UNL     1     -34.524  15.457  -2.502  1.00 20.00     0.106 N 
HETATM    6  H21 UNL     1     -35.366  15.434  -3.071  1.00 20.00     0.318 HD
BRANCH   5   7
HETATM    7  C4  UNL     1     -34.379  16.798  -1.929  1.00 20.00     0.226 A 
HETATM    8  C2  UNL     1     -35.596  17.642  -1.652  1.00 20.00     0.042 A 
HETATM    9  C3  UNL     1     -34.805  17.070  -0.508  1.00 20.00     0.016 A 
HETATM   10  C5  UNL     1     -33.990  17.964   0.360  1.00 20.00     0.012 C 
ENDBRANCH   5   7
ENDBRANCH   3   5
TORSDOF 2
ENDMDL
MODEL 9
REMARK VINA RESULT:      -3.6     11.021     11.960
REMARK  2 active torsions:
REMARK  status: ('A' for Active; 'I' for Inactive)
REMARK    1  A    between atoms: C4_4  and  N9_9 
REMARK    2  A    between atoms: C7_7  and  N9_9 
ROOT
HETATM    1  C1  UNL     1     -34.818  17.173  -0.104  1.00 20.00     0.094 C 
HETATM    2  C6  UNL     1     -34.856  18.060  -2.405  1.00 20.00     0.059 C 
HETATM    3  C7  UNL     1     -34.469  16.896  -1.504  1.00 20.00     0.322 C 
HETATM    4  N8  UNL     1     -35.092  17.394   1.001  1.00 20.00    -0.195 NA
ENDROOT
BRANCH   3   5
HETATM    5  N9  UNL     1     -35.114  15.670  -1.941  1.00 20.00     0.106 N 
HETATM    6  H21 UNL     1     -34.889  14.916  -1.297  1.00 20.00     0.318 HD
BRANCH   5   7
HETATM    7  C4  UNL     1     -34.655  15.296  -3.282  1.00 20.00     0.226 A 
HETATM    8  C2  UNL     1     -33.211  14.936  -3.519  1.00 20.00     0.042 A 
HETATM    9  C3  UNL     1     -34.270  13.870  -3.587  1.00 20.00     0.016 A 
HETATM   10  C5  UNL     1     -34.635  13.259  -4.895  1.00 20.00     0.012 C 
ENDBRANCH   5   7
ENDBRANCH   3   5
TORSDOF 2
ENDMDL
