MODEL 1
REMARK VINA RESULT:      -5.1      0.000      0.000
REMARK  3 active torsions:
REMARK  status: ('A' for Active; 'I' for Inactive)
REMARK    1  A    between atoms: C2_2  and  C8_8 
REMARK    2  A    between atoms: C5_5  and  N9_9 
REMARK    3  A    between atoms: C8_8  and  N9_9 
ROOT
HETATM    1  C1  UNL     1     -32.220   8.525   1.837  1.00 20.00    -0.109 C 
HETATM    2  C2  UNL     1     -32.201   7.529   2.508  1.00 20.00    -0.077 C 
HETATM    3  C6  UNL     1     -32.245   9.738   1.021  1.00 20.00     0.112 C 
ENDROOT
BRANCH   2   4
HETATM    4  C8  UNL     1     -32.181   6.309   3.321  1.00 20.00     0.363 C 
BRANCH   4   5
HETATM    5  N9  UNL     1     -32.950   6.486   4.541  1.00 20.00     0.099 N 
HETATM    6  H22 UNL     1     -32.793   7.419   4.912  1.00 20.00     0.317 HD
BRANCH   5   7
HETATM    7  C5  UNL     1     -34.383   6.321   4.276  1.00 20.00     0.225 A 
HETATM    8  C3  UNL     1     -34.877   5.167   3.443  1.00 20.00     0.042 A 
HETATM    9  C4  UNL     1     -35.200   5.223   4.911  1.00 20.00     0.016 A 
HETATM   10  C7  UNL     1     -34.607   4.224   5.846  1.00 20.00     0.012 C 
ENDBRANCH   5   7
ENDBRANCH   4   5
ENDBRANCH   2   4
TORSDOF 3
ENDMDL
MODEL 2
REMARK VINA RESULT:      -4.5      1.282      1.680
REMARK  3 active torsions:
REMARK  status: ('A' for Active; 'I' for Inactive)
REMARK    1  A    between atoms: C2_2  and  C8_8 
REMARK    2  A    between atoms: C5_5  and  N9_9 
REMARK    3  A    between atoms: C8_8  and  N9_9 
ROOT
HETATM    1  C1  UNL     1     -32.277   7.802   2.195  1.00 20.00    -0.109 C 
HETATM    2  C2  UNL     1     -32.713   6.866   2.808  1.00 20.00    -0.077 C 
HETATM    3  C6  UNL     1     -31.747   8.944   1.451  1.00 20.00     0.112 C 
ENDROOT
BRANCH   2   4
HETATM    4  C8  UNL     1     -33.249   5.721   3.551  1.00 20.00     0.363 C 
BRANCH   4   5
HETATM    5  N9  UNL     1     -34.690   5.832   3.705  1.00 20.00     0.099 N 
HETATM    6  H22 UNL     1     -35.150   5.516   2.857  1.00 20.00     0.317 HD
BRANCH   5   7
HETATM    7  C5  UNL     1     -35.154   5.009   4.827  1.00 20.00     0.225 A 
HETATM    8  C3  UNL     1     -34.177   4.183   5.623  1.00 20.00     0.042 A 
HETATM    9  C4  UNL     1     -34.858   5.361   6.263  1.00 20.00     0.016 A 
HETATM   10  C7  UNL     1     -34.067   6.567   6.644  1.00 20.00     0.012 C 
ENDBRANCH   5   7
ENDBRANCH   4   5
ENDBRANCH   2   4
TORSDOF 3
ENDMDL
MODEL 3
REMARK VINA RESULT:      -4.0     11.263     12.577
REMARK  3 active torsions:
REMARK  status: ('A' for Active; 'I' for Inactive)
REMARK    1  A    between atoms: C2_2  and  C8_8 
REMARK    2  A    between atoms: C5_5  and  N9_9 
REMARK    3  A    between atoms: C8_8  and  N9_9 
ROOT
HETATM    1  C1  UNL     1     -34.160  16.739  -2.342  1.00 20.00    -0.109 C 
HETATM    2  C2  UNL     1     -33.797  16.944  -3.468  1.00 20.00    -0.077 C 
HETATM    3  C6  UNL     1     -34.599  16.489  -0.969  1.00 20.00     0.112 C 
ENDROOT
BRANCH   2   4
HETATM    4  C8  UNL     1     -33.361  17.190  -4.846  1.00 20.00     0.363 C 
BRANCH   4   5
HETATM    5  N9  UNL     1     -33.348  15.955  -5.613  1.00 20.00     0.099 N 
HETATM    6  H22 UNL     1     -32.945  15.209  -5.054  1.00 20.00     0.317 HD
BRANCH   5   7
HETATM    7  C5  UNL     1     -34.711  15.572  -5.998  1.00 20.00     0.225 A 
HETATM    8  C3  UNL     1     -34.939  14.488  -7.019  1.00 20.00     0.042 A 
HETATM    9  C4  UNL     1     -35.327  14.259  -5.584  1.00 20.00     0.016 A 
HETATM   10  C7  UNL     1     -34.593  13.255  -4.762  1.00 20.00     0.012 C 
ENDBRANCH   5   7
ENDBRANCH   4   5
ENDBRANCH   2   4
TORSDOF 3
ENDMDL
MODEL 4
REMARK VINA RESULT:      -3.9      1.154      4.913
REMARK  3 active torsions:
REMARK  status: ('A' for Active; 'I' for Inactive)
REMARK    1  A    between atoms: C2_2  and  C8_8 
REMARK    2  A    between atoms: C5_5  and  N9_9 
REMARK    3  A    between atoms: C8_8  and  N9_9 
ROOT
HETATM    1  C1  UNL     1     -34.874   4.903   5.258  1.00 20.00    -0.109 C 
HETATM    2  C2  UNL     1     -34.656   5.139   4.101  1.00 20.00    -0.077 C 
HETATM    3  C6  UNL     1     -35.143   4.617   6.667  1.00 20.00     0.112 C 
ENDROOT
BRANCH   2   4
HETATM    4  C8  UNL     1     -34.383   5.431   2.690  1.00 20.00     0.363 C 
BRANCH   4   5
HETATM    5  N9  UNL     1     -33.008   5.865   2.508  1.00 20.00     0.099 N 
HETATM    6  H22 UNL     1     -32.825   6.017   1.520  1.00 20.00     0.317 HD
BRANCH   5   7
HETATM    7  C5  UNL     1     -32.762   7.118   3.230  1.00 20.00     0.225 A 
HETATM    8  C3  UNL     1     -31.354   7.565   3.526  1.00 20.00     0.042 A 
HETATM    9  C4  UNL     1     -32.197   8.342   2.553  1.00 20.00     0.016 A 
HETATM   10  C7  UNL     1     -31.842   8.363   1.105  1.00 20.00     0.012 C 
ENDBRANCH   5   7
ENDBRANCH   4   5
ENDBRANCH   2   4
TORSDOF 3
ENDMDL
MODEL 5
REMARK VINA RESULT:      -3.9     10.673     11.597
REMARK  3 active torsions:
REMARK  status: ('A' for Active; 'I' for Inactive)
REMARK    1  A    between atoms: C2_2  and  C8_8 
REMARK    2  A    between atoms: C5_5  and  N9_9 
REMARK    3  A    between atoms: C8_8  and  N9_9 
ROOT
HETATM    1  C1  UNL     1     -34.406  17.272  -0.374  1.00 20.00    -0.109 C 
HETATM    2  C2  UNL     1     -34.706  16.576  -1.305  1.00 20.00    -0.077 C 
HETATM    3  C6  UNL     1     -34.043  18.118   0.762  1.00 20.00     0.112 C 
ENDROOT
BRANCH   2   4
HETATM    4  C8  UNL     1     -35.074  15.731  -2.446  1.00 20.00     0.363 C 
BRANCH   4   5
HETATM    5  N9  UNL     1     -33.891  15.262  -3.147  1.00 20.00     0.099 N 
HETATM    6  H22 UNL     1     -33.108  15.212  -2.501  1.00 20.00     0.317 HD
BRANCH   5   7
HETATM    7  C5  UNL     1     -34.120  13.928  -3.712  1.00 20.00     0.225 A 
HETATM    8  C3  UNL     1     -35.498  13.516  -4.162  1.00 20.00     0.042 A 
HETATM    9  C4  UNL     1     -34.405  13.710  -5.177  1.00 20.00     0.016 A 
HETATM   10  C7  UNL     1     -34.481  14.835  -6.153  1.00 20.00     0.012 C 
ENDBRANCH   5   7
ENDBRANCH   4   5
ENDBRANCH   2   4
TORSDOF 3
ENDMDL
MODEL 6
REMARK VINA RESULT:      -3.8     11.525     12.442
REMARK  3 active torsions:
REMARK  status: ('A' for Active; 'I' for Inactive)
REMARK    1  A    between atoms: C2_2  and  C8_8 
REMARK    2  A    between atoms: C5_5  and  N9_9 
REMARK    3  A    between atoms: C8_8  and  N9_9 
ROOT
HETATM    1  C1  UNL     1     -34.210  16.387  -1.823  1.00 20.00    -0.109 C 
HETATM    2  C2  UNL     1     -33.620  15.824  -2.704  1.00 20.00    -0.077 C 
HETATM    3  C6  UNL     1     -34.928  17.075  -0.751  1.00 20.00     0.112 C 
ENDROOT
BRANCH   2   4
HETATM    4  C8  UNL     1     -32.896  15.132  -3.775  1.00 20.00     0.363 C 
BRANCH   4   5
HETATM    5  N9  UNL     1     -33.524  15.370  -5.063  1.00 20.00     0.099 N 
HETATM    6  H22 UNL     1     -32.830  15.298  -5.801  1.00 20.00     0.317 HD
BRANCH   5   7
HETATM    7  C5  UNL     1     -34.580  14.383  -5.313  1.00 20.00     0.225 A 
HETATM    8  C3  UNL     1     -36.011  14.823  -5.484  1.00 20.00     0.042 A 
HETATM    9  C4  UNL     1     -35.259  14.248  -6.653  1.00 20.00     0.016 A 
HETATM   10  C7  UNL     1     -34.910  15.113  -7.817  1.00 20.00     0.012 C 
ENDBRANCH   5   7
ENDBRANCH   4   5
ENDBRANCH   2   4
TORSDOF 3
ENDMDL
MODEL 7
REMARK VINA RESULT:      -3.8     10.684     11.989
REMARK  3 active torsions:
REMARK  status: ('A' for Active; 'I' for Inactive)
REMARK    1  A    between atoms: C2_2  and  C8_8 
REMARK    2  A    between atoms: C5_5  and  N9_9 
REMARK    3  A    between atoms: C8_8  and  N9_9 
ROOT
HETATM    1  C1  UNL     1     -34.835  14.428  -6.548  1.00 20.00    -0.109 C 
HETATM    2  C2  UNL     1     -34.557  14.079  -5.433  1.00 20.00    -0.077 C 
HETATM    3  C6  UNL     1     -35.175  14.856  -7.904  1.00 20.00     0.112 C 
ENDROOT
BRANCH   2   4
HETATM    4  C8  UNL     1     -34.222  13.646  -4.073  1.00 20.00     0.363 C 
BRANCH   4   5
HETATM    5  N9  UNL     1     -34.658  14.627  -3.094  1.00 20.00     0.099 N 
HETATM    6  H22 UNL     1     -34.663  14.209  -2.168  1.00 20.00     0.317 HD
BRANCH   5   7
HETATM    7  C5  UNL     1     -33.755  15.783  -3.083  1.00 20.00     0.225 A 
HETATM    8  C3  UNL     1     -34.293  17.175  -3.293  1.00 20.00     0.042 A 
HETATM    9  C4  UNL     1     -33.735  16.782  -1.953  1.00 20.00     0.016 A 
HETATM   10  C7  UNL     1     -34.638  16.669  -0.771  1.00 20.00     0.012 C 
ENDBRANCH   5   7
ENDBRANCH   4   5
ENDBRANCH   2   4
TORSDOF 3
ENDMDL
MODEL 8
REMARK VINA RESULT:      -3.8     10.888     11.640
REMARK  3 active torsions:
REMARK  status: ('A' for Active; 'I' for Inactive)
REMARK    1  A    between atoms: C2_2  and  C8_8 
REMARK    2  A    between atoms: C5_5  and  N9_9 
REMARK    3  A    between atoms: C8_8  and  N9_9 
ROOT
HETATM    1  C1  UNL     1     -34.328  16.697  -1.208  1.00 20.00    -0.109 C 
HETATM    2  C2  UNL     1     -33.860  16.278  -2.232  1.00 20.00    -0.077 C 
HETATM    3  C6  UNL     1     -34.896  17.208   0.038  1.00 20.00     0.112 C 
ENDROOT
BRANCH   2   4
HETATM    4  C8  UNL     1     -33.289  15.759  -3.479  1.00 20.00     0.363 C 
BRANCH   4   5
HETATM    5  N9  UNL     1     -34.218  15.928  -4.583  1.00 20.00     0.099 N 
HETATM    6  H22 UNL     1     -33.754  16.405  -5.351  1.00 20.00     0.317 HD
BRANCH   5   7
HETATM    7  C5  UNL     1     -34.697  14.626  -5.059  1.00 20.00     0.225 A 
HETATM    8  C3  UNL     1     -34.787  13.454  -4.116  1.00 20.00     0.042 A 
HETATM    9  C4  UNL     1     -36.044  14.069  -4.668  1.00 20.00     0.016 A 
HETATM   10  C7  UNL     1     -36.979  14.799  -3.764  1.00 20.00     0.012 C 
ENDBRANCH   5   7
ENDBRANCH   4   5
ENDBRANCH   2   4
TORSDOF 3
ENDMDL
MODEL 9
REMARK VINA RESULT:      -3.8     11.065     11.589
REMARK  3 active torsions:
REMARK  status: ('A' for Active; 'I' for Inactive)
REMARK    1  A    between atoms: C2_2  and  C8_8 
REMARK    2  A    between atoms: C5_5  and  N9_9 
REMARK    3  A    between atoms: C8_8  and  N9_9 
ROOT
HETATM    1  C1  UNL     1     -34.619  17.057  -0.402  1.00 20.00    -0.109 C 
HETATM    2  C2  UNL     1     -34.189  16.747  -1.480  1.00 20.00    -0.077 C 
HETATM    3  C6  UNL     1     -35.143  17.432   0.911  1.00 20.00     0.112 C 
ENDROOT
BRANCH   2   4
HETATM    4  C8  UNL     1     -33.668  16.376  -2.799  1.00 20.00     0.363 C 
BRANCH   4   5
HETATM    5  N9  UNL     1     -34.753  16.133  -3.736  1.00 20.00     0.099 N 
HETATM    6  H22 UNL     1     -34.373  15.954  -4.661  1.00 20.00     0.317 HD
BRANCH   5   7
HETATM    7  C5  UNL     1     -35.543  14.970  -3.319  1.00 20.00     0.225 A 
HETATM    8  C3  UNL     1     -36.772  14.566  -4.091  1.00 20.00     0.042 A 
HETATM    9  C4  UNL     1     -35.557  13.680  -4.101  1.00 20.00     0.016 A 
HETATM   10  C7  UNL     1     -34.773  13.499  -5.357  1.00 20.00     0.012 C 
ENDBRANCH   5   7
ENDBRANCH   4   5
ENDBRANCH   2   4
TORSDOF 3
ENDMDL
