MODEL 1
REMARK VINA RESULT:      -4.2      0.000      0.000
REMARK  3 active torsions:
REMARK  status: ('A' for Active; 'I' for Inactive)
REMARK    1  A    between atoms: C4_4  and  N10_10 
REMARK    2  A    between atoms: C7_7  and  C8_8 
REMARK    3  A    between atoms: C7_7  and  N10_10 
ROOT
HETATM    1  C1  UNL     1     -34.344  13.820  -3.861  1.00 20.00     0.065 C 
HETATM    2  C6  UNL     1     -34.717  15.743  -2.358  1.00 20.00     0.027 C 
HETATM    3  C8  UNL     1     -33.724  15.022  -3.271  1.00 20.00     0.116 C 
HETATM    4  N9  UNL     1     -34.830  12.873  -4.326  1.00 20.00    -0.197 NA
ENDROOT
BRANCH   3   5
HETATM    5  C7  UNL     1     -33.155  15.950  -4.352  1.00 20.00     0.288 C 
BRANCH   5   6
HETATM    6  N10 UNL     1     -33.538  15.524  -5.689  1.00 20.00     0.089 N 
HETATM    7  H24 UNL     1     -32.745  15.621  -6.318  1.00 20.00     0.316 HD
BRANCH   6   8
HETATM    8  C4  UNL     1     -34.642  16.345  -6.194  1.00 20.00     0.224 A 
HETATM    9  C2  UNL     1     -34.621  16.866  -7.608  1.00 20.00     0.042 A 
HETATM   10  C3  UNL     1     -35.634  15.829  -7.208  1.00 20.00     0.016 A 
HETATM   11  C5  UNL     1     -35.558  14.450  -7.770  1.00 20.00     0.012 C 
ENDBRANCH   6   8
ENDBRANCH   5   6
ENDBRANCH   3   5
TORSDOF 3
ENDMDL
MODEL 2
REMARK VINA RESULT:      -4.1      1.236      3.548
REMARK  3 active torsions:
REMARK  status: ('A' for Active; 'I' for Inactive)
REMARK    1  A    between atoms: C4_4  and  N10_10 
REMARK    2  A    between atoms: C7_7  and  C8_8 
REMARK    3  A    between atoms: C7_7  and  N10_10 
ROOT
HETATM    1  C1  UNL     1     -34.965  13.700  -5.391  1.00 20.00     0.065 C 
HETATM    2  C6  UNL     1     -35.537  14.342  -7.705  1.00 20.00     0.027 C 
HETATM    3  C8  UNL     1     -35.223  14.838  -6.293  1.00 20.00     0.116 C 
HETATM    4  N9  UNL     1     -34.763  12.805  -4.678  1.00 20.00    -0.197 NA
ENDROOT
BRANCH   3   5
HETATM    5  C7  UNL     1     -34.064  15.842  -6.277  1.00 20.00     0.288 C 
BRANCH   5   6
HETATM    6  N10 UNL     1     -33.284  15.754  -5.053  1.00 20.00     0.089 N 
HETATM    7  H24 UNL     1     -33.637  14.994  -4.478  1.00 20.00     0.316 HD
BRANCH   6   8
HETATM    8  C4  UNL     1     -33.379  17.003  -4.291  1.00 20.00     0.224 A 
HETATM    9  C2  UNL     1     -34.715  17.667  -4.078  1.00 20.00     0.042 A 
HETATM   10  C3  UNL     1     -33.983  17.063  -2.910  1.00 20.00     0.016 A 
HETATM   11  C5  UNL     1     -34.530  15.858  -2.224  1.00 20.00     0.012 C 
ENDBRANCH   6   8
ENDBRANCH   5   6
ENDBRANCH   3   5
TORSDOF 3
ENDMDL
MODEL 3
REMARK VINA RESULT:      -4.1      2.808      4.943
REMARK  3 active torsions:
REMARK  status: ('A' for Active; 'I' for Inactive)
REMARK    1  A    between atoms: C4_4  and  N10_10 
REMARK    2  A    between atoms: C7_7  and  C8_8 
REMARK    3  A    between atoms: C7_7  and  N10_10 
ROOT
HETATM    1  C1  UNL     1     -37.137  14.540  -4.081  1.00 20.00     0.065 C 
HETATM    2  C6  UNL     1     -34.895  13.569  -4.438  1.00 20.00     0.027 C 
HETATM    3  C8  UNL     1     -35.763  14.825  -4.539  1.00 20.00     0.116 C 
HETATM    4  N9  UNL     1     -38.219  14.317  -3.722  1.00 20.00    -0.197 NA
ENDROOT
BRANCH   3   5
HETATM    5  C7  UNL     1     -35.154  16.012  -3.783  1.00 20.00     0.288 C 
BRANCH   5   6
HETATM    6  N10 UNL     1     -35.752  16.184  -2.469  1.00 20.00     0.089 N 
HETATM    7  H24 UNL     1     -36.240  17.075  -2.430  1.00 20.00     0.316 HD
BRANCH   6   8
HETATM    8  C4  UNL     1     -34.720  16.166  -1.427  1.00 20.00     0.224 A 
HETATM    9  C2  UNL     1     -33.719  17.288  -1.326  1.00 20.00     0.042 A 
HETATM   10  C3  UNL     1     -34.749  17.104  -0.245  1.00 20.00     0.016 A 
HETATM   11  C5  UNL     1     -35.826  18.118  -0.056  1.00 20.00     0.012 C 
ENDBRANCH   6   8
ENDBRANCH   5   6
ENDBRANCH   3   5
TORSDOF 3
ENDMDL
MODEL 4
REMARK VINA RESULT:      -4.1     11.414     13.497
REMARK  3 active torsions:
REMARK  status: ('A' for Active; 'I' for Inactive)
REMARK    1  A    between atoms: C4_4  and  N10_10 
REMARK    2  A    between atoms: C7_7  and  C8_8 
REMARK    3  A    between atoms: C7_7  and  N10_10 
ROOT
HETATM    1  C1  UNL     1     -34.339   6.209   6.299  1.00 20.00     0.065 C 
HETATM    2  C6  UNL     1     -34.514   3.787   5.854  1.00 20.00     0.027 C 
HETATM    3  C8  UNL     1     -35.046   5.180   5.513  1.00 20.00     0.116 C 
HETATM    4  N9  UNL     1     -33.785   7.021   6.918  1.00 20.00    -0.197 NA
ENDROOT
BRANCH   3   5
HETATM    5  C7  UNL     1     -34.973   5.473   4.009  1.00 20.00     0.288 C 
BRANCH   5   6
HETATM    6  N10 UNL     1     -34.235   6.694   3.728  1.00 20.00     0.089 N 
HETATM    7  H24 UNL     1     -34.515   7.062   2.823  1.00 20.00     0.316 HD
BRANCH   6   8
HETATM    8  C4  UNL     1     -32.793   6.428   3.703  1.00 20.00     0.224 A 
HETATM    9  C2  UNL     1     -32.150   5.826   2.480  1.00 20.00     0.042 A 
HETATM   10  C3  UNL     1     -31.836   7.245   2.869  1.00 20.00     0.016 A 
HETATM   11  C5  UNL     1     -32.290   8.375   2.009  1.00 20.00     0.012 C 
ENDBRANCH   6   8
ENDBRANCH   5   6
ENDBRANCH   3   5
TORSDOF 3
ENDMDL
MODEL 5
REMARK VINA RESULT:      -4.1      2.004      3.679
REMARK  3 active torsions:
REMARK  status: ('A' for Active; 'I' for Inactive)
REMARK    1  A    between atoms: C4_4  and  N10_10 
REMARK    2  A    between atoms: C7_7  and  C8_8 
REMARK    3  A    between atoms: C7_7  and  N10_10 
ROOT
HETATM    1  C1  UNL     1     -35.988  14.121  -4.260  1.00 20.00     0.065 C 
HETATM    2  C6  UNL     1     -33.621  13.534  -3.875  1.00 20.00     0.027 C 
HETATM    3  C8  UNL     1     -34.640  14.110  -4.860  1.00 20.00     0.116 C 
HETATM    4  N9  UNL     1     -37.050  14.128  -3.790  1.00 20.00    -0.197 NA
ENDROOT
BRANCH   3   5
HETATM    5  C7  UNL     1     -34.237  15.502  -5.361  1.00 20.00     0.288 C 
BRANCH   5   6
HETATM    6  N10 UNL     1     -34.802  16.561  -4.539  1.00 20.00     0.089 N 
HETATM    7  H24 UNL     1     -35.230  17.264  -5.135  1.00 20.00     0.316 HD
BRANCH   6   8
HETATM    8  C4  UNL     1     -33.757  17.199  -3.732  1.00 20.00     0.224 A 
HETATM    9  C2  UNL     1     -34.083  18.387  -2.864  1.00 20.00     0.042 A 
HETATM   10  C3  UNL     1     -33.709  17.075  -2.229  1.00 20.00     0.016 A 
HETATM   11  C5  UNL     1     -34.722  16.299  -1.459  1.00 20.00     0.012 C 
ENDBRANCH   6   8
ENDBRANCH   5   6
ENDBRANCH   3   5
TORSDOF 3
ENDMDL
MODEL 6
REMARK VINA RESULT:      -4.0      2.686      5.273
REMARK  3 active torsions:
REMARK  status: ('A' for Active; 'I' for Inactive)
REMARK    1  A    between atoms: C4_4  and  N10_10 
REMARK    2  A    between atoms: C7_7  and  C8_8 
REMARK    3  A    between atoms: C7_7  and  N10_10 
ROOT
HETATM    1  C1  UNL     1     -33.507  15.983  -4.274  1.00 20.00     0.065 C 
HETATM    2  C6  UNL     1     -33.950  13.602  -3.791  1.00 20.00     0.027 C 
HETATM    3  C8  UNL     1     -34.058  15.040  -3.281  1.00 20.00     0.116 C 
HETATM    4  N9  UNL     1     -33.073  16.726  -5.053  1.00 20.00    -0.197 NA
ENDROOT
BRANCH   3   5
HETATM    5  C7  UNL     1     -35.496  15.409  -2.893  1.00 20.00     0.288 C 
BRANCH   5   6
HETATM    6  N10 UNL     1     -35.551  16.634  -2.112  1.00 20.00     0.089 N 
HETATM    7  H24 UNL     1     -35.243  17.416  -2.682  1.00 20.00     0.316 HD
BRANCH   6   8
HETATM    8  C4  UNL     1     -34.678  16.534  -0.937  1.00 20.00     0.224 A 
HETATM    9  C2  UNL     1     -33.768  17.676  -0.565  1.00 20.00     0.042 A 
HETATM   10  C3  UNL     1     -34.930  17.324   0.324  1.00 20.00     0.016 A 
HETATM   11  C5  UNL     1     -36.079  18.262   0.463  1.00 20.00     0.012 C 
ENDBRANCH   6   8
ENDBRANCH   5   6
ENDBRANCH   3   5
TORSDOF 3
ENDMDL
MODEL 7
REMARK VINA RESULT:      -3.9      1.571      3.812
REMARK  3 active torsions:
REMARK  status: ('A' for Active; 'I' for Inactive)
REMARK    1  A    between atoms: C4_4  and  N10_10 
REMARK    2  A    between atoms: C7_7  and  C8_8 
REMARK    3  A    between atoms: C7_7  and  N10_10 
ROOT
HETATM    1  C1  UNL     1     -35.946  17.131  -5.582  1.00 20.00     0.065 C 
HETATM    2  C6  UNL     1     -34.401  16.029  -7.162  1.00 20.00     0.027 C 
HETATM    3  C8  UNL     1     -34.573  17.138  -6.123  1.00 20.00     0.116 C 
HETATM    4  N9  UNL     1     -37.026  17.128  -5.156  1.00 20.00    -0.197 NA
ENDROOT
BRANCH   3   5
HETATM    5  C7  UNL     1     -33.528  17.048  -5.003  1.00 20.00     0.288 C 
BRANCH   5   6
HETATM    6  N10 UNL     1     -32.849  15.762  -4.997  1.00 20.00     0.089 N 
HETATM    7  H24 UNL     1     -33.219  15.177  -5.740  1.00 20.00     0.316 HD
BRANCH   6   8
HETATM    8  C4  UNL     1     -33.051  15.080  -3.714  1.00 20.00     0.224 A 
HETATM    9  C2  UNL     1     -34.377  15.169  -3.004  1.00 20.00     0.042 A 
HETATM   10  C3  UNL     1     -33.923  13.856  -3.580  1.00 20.00     0.016 A 
HETATM   11  C5  UNL     1     -34.643  13.257  -4.740  1.00 20.00     0.012 C 
ENDBRANCH   6   8
ENDBRANCH   5   6
ENDBRANCH   3   5
TORSDOF 3
ENDMDL
MODEL 8
REMARK VINA RESULT:      -3.9     10.985     13.389
REMARK  3 active torsions:
REMARK  status: ('A' for Active; 'I' for Inactive)
REMARK    1  A    between atoms: C4_4  and  N10_10 
REMARK    2  A    between atoms: C7_7  and  C8_8 
REMARK    3  A    between atoms: C7_7  and  N10_10 
ROOT
HETATM    1  C1  UNL     1     -32.137   8.403   1.782  1.00 20.00     0.065 C 
HETATM    2  C6  UNL     1     -30.930   7.691   3.815  1.00 20.00     0.027 C 
HETATM    3  C8  UNL     1     -32.279   7.745   3.095  1.00 20.00     0.116 C 
HETATM    4  N9  UNL     1     -32.028   8.923   0.749  1.00 20.00    -0.197 NA
ENDROOT
BRANCH   3   5
HETATM    5  C7  UNL     1     -32.920   6.358   2.962  1.00 20.00     0.288 C 
BRANCH   5   6
HETATM    6  N10 UNL     1     -34.030   6.182   3.884  1.00 20.00     0.089 N 
HETATM    7  H24 UNL     1     -34.597   7.025   3.901  1.00 20.00     0.316 HD
BRANCH   6   8
HETATM    8  C4  UNL     1     -33.537   5.917   5.239  1.00 20.00     0.224 A 
HETATM    9  C2  UNL     1     -34.353   6.320   6.440  1.00 20.00     0.042 A 
HETATM   10  C3  UNL     1     -34.148   4.862   6.129  1.00 20.00     0.016 A 
HETATM   11  C5  UNL     1     -35.299   4.020   5.695  1.00 20.00     0.012 C 
ENDBRANCH   6   8
ENDBRANCH   5   6
ENDBRANCH   3   5
TORSDOF 3
ENDMDL
MODEL 9
REMARK VINA RESULT:      -3.8      2.210      2.840
REMARK  3 active torsions:
REMARK  status: ('A' for Active; 'I' for Inactive)
REMARK    1  A    between atoms: C4_4  and  N10_10 
REMARK    2  A    between atoms: C7_7  and  C8_8 
REMARK    3  A    between atoms: C7_7  and  N10_10 
ROOT
HETATM    1  C1  UNL     1     -34.303  16.497  -1.435  1.00 20.00     0.065 C 
HETATM    2  C6  UNL     1     -33.864  17.194  -3.763  1.00 20.00     0.027 C 
HETATM    3  C8  UNL     1     -33.673  16.102  -2.710  1.00 20.00     0.116 C 
HETATM    4  N9  UNL     1     -34.796  16.807  -0.431  1.00 20.00    -0.197 NA
ENDROOT
BRANCH   3   5
HETATM    5  C7  UNL     1     -34.186  14.738  -3.191  1.00 20.00     0.288 C 
BRANCH   5   6
HETATM    6  N10 UNL     1     -33.642  14.381  -4.491  1.00 20.00     0.089 N 
HETATM    7  H24 UNL     1     -33.236  15.203  -4.929  1.00 20.00     0.316 HD
BRANCH   6   8
HETATM    8  C4  UNL     1     -34.696  13.854  -5.363  1.00 20.00     0.224 A 
HETATM    9  C2  UNL     1     -35.993  14.604  -5.530  1.00 20.00     0.042 A 
HETATM   10  C3  UNL     1     -35.040  14.489  -6.689  1.00 20.00     0.016 A 
HETATM   11  C5  UNL     1     -34.335  15.698  -7.202  1.00 20.00     0.012 C 
ENDBRANCH   6   8
ENDBRANCH   5   6
ENDBRANCH   3   5
TORSDOF 3
ENDMDL
