MODEL 1
REMARK VINA RESULT:      -5.7      0.000      0.000
REMARK  1 active torsions:
REMARK  status: ('A' for Active; 'I' for Inactive)
REMARK    1  A    between atoms: C5_5  and  C6_6 
ROOT
HETATM    1  C1  UNL     1     -34.574   3.826   5.201  1.00 20.00     0.014 A 
HETATM    2  C2  UNL     1     -34.333   6.036   6.599  1.00 20.00     0.275 C 
HETATM    3  C3  UNL     1     -35.172   4.950   6.006  1.00 20.00     0.021 A 
HETATM    4  C4  UNL     1     -35.093   5.074   4.531  1.00 20.00     0.034 A 
HETATM    5  C5  UNL     1     -34.225   6.262   4.231  1.00 20.00     0.331 C 
HETATM    6  N7  UNL     1     -33.495   6.509   5.487  1.00 20.00     0.097 N 
HETATM    7  H18 UNL     1     -33.270   7.498   5.592  1.00 20.00     0.316 HD
ENDROOT
BRANCH   5   8
HETATM    8  C6  UNL     1     -33.265   6.015   3.081  1.00 20.00     0.418 C 
HETATM    9  F8  UNL     1     -32.994   7.166   2.441  1.00 20.00    -0.169 F 
HETATM   10  F9  UNL     1     -32.111   5.497   3.535  1.00 20.00    -0.169 F 
HETATM   11  F10 UNL     1     -33.802   5.154   2.199  1.00 20.00    -0.169 F 
ENDBRANCH   5   8
TORSDOF 1
ENDMDL
MODEL 2
REMARK VINA RESULT:      -4.5      1.414      2.226
REMARK  1 active torsions:
REMARK  status: ('A' for Active; 'I' for Inactive)
REMARK    1  A    between atoms: C5_5  and  C6_6 
ROOT
HETATM    1  C1  UNL     1     -34.286   6.403   6.287  1.00 20.00     0.014 A 
HETATM    2  C2  UNL     1     -35.561   4.848   4.598  1.00 20.00     0.275 C 
HETATM    3  C3  UNL     1     -34.762   5.044   5.846  1.00 20.00     0.021 A 
HETATM    4  C4  UNL     1     -33.411   5.506   5.447  1.00 20.00     0.034 A 
HETATM    5  C5  UNL     1     -33.385   5.561   3.947  1.00 20.00     0.331 C 
HETATM    6  N7  UNL     1     -34.805   5.558   3.555  1.00 20.00     0.097 N 
HETATM    7  H18 UNL     1     -34.933   5.118   2.645  1.00 20.00     0.316 HD
ENDROOT
BRANCH   5   8
HETATM    8  C6  UNL     1     -32.674   6.793   3.415  1.00 20.00     0.418 C 
HETATM    9  F8  UNL     1     -31.946   6.481   2.328  1.00 20.00    -0.169 F 
HETATM   10  F9  UNL     1     -33.565   7.740   3.075  1.00 20.00    -0.169 F 
HETATM   11  F10 UNL     1     -31.849   7.299   4.350  1.00 20.00    -0.169 F 
ENDBRANCH   5   8
TORSDOF 1
ENDMDL
MODEL 3
REMARK VINA RESULT:      -4.5      2.576      3.448
REMARK  1 active torsions:
REMARK  status: ('A' for Active; 'I' for Inactive)
REMARK    1  A    between atoms: C5_5  and  C6_6 
ROOT
HETATM    1  C1  UNL     1     -35.754   5.852   3.392  1.00 20.00     0.014 A 
HETATM    2  C2  UNL     1     -33.211   6.441   3.110  1.00 20.00     0.275 C 
HETATM    3  C3  UNL     1     -34.416   5.641   2.734  1.00 20.00     0.021 A 
HETATM    4  C4  UNL     1     -34.789   4.812   3.904  1.00 20.00     0.034 A 
HETATM    5  C5  UNL     1     -33.784   5.090   4.984  1.00 20.00     0.331 C 
HETATM    6  N7  UNL     1     -33.148   6.356   4.576  1.00 20.00     0.097 N 
HETATM    7  H18 UNL     1     -32.185   6.404   4.906  1.00 20.00     0.316 HD
ENDROOT
BRANCH   5   8
HETATM    8  C6  UNL     1     -34.416   5.214   6.359  1.00 20.00     0.418 C 
HETATM    9  F8  UNL     1     -33.697   4.533   7.268  1.00 20.00    -0.169 F 
HETATM   10  F9  UNL     1     -34.470   6.503   6.736  1.00 20.00    -0.169 F 
HETATM   11  F10 UNL     1     -35.667   4.720   6.347  1.00 20.00    -0.169 F 
ENDBRANCH   5   8
TORSDOF 1
ENDMDL
MODEL 4
REMARK VINA RESULT:      -4.4      2.514      3.650
REMARK  1 active torsions:
REMARK  status: ('A' for Active; 'I' for Inactive)
REMARK    1  A    between atoms: C5_5  and  C6_6 
ROOT
HETATM    1  C1  UNL     1     -32.318   6.158   3.714  1.00 20.00     0.014 A 
HETATM    2  C2  UNL     1     -34.452   5.101   2.607  1.00 20.00     0.275 C 
HETATM    3  C3  UNL     1     -33.490   6.233   2.771  1.00 20.00     0.021 A 
HETATM    4  C4  UNL     1     -33.635   6.750   4.153  1.00 20.00     0.034 A 
HETATM    5  C5  UNL     1     -34.712   5.943   4.818  1.00 20.00     0.331 C 
HETATM    6  N7  UNL     1     -34.841   4.739   3.979  1.00 20.00     0.097 N 
HETATM    7  H18 UNL     1     -35.792   4.374   4.006  1.00 20.00     0.316 HD
ENDROOT
BRANCH   5   8
HETATM    8  C6  UNL     1     -34.373   5.576   6.252  1.00 20.00     0.418 C 
HETATM    9  F8  UNL     1     -35.494   5.470   6.987  1.00 20.00    -0.169 F 
HETATM   10  F9  UNL     1     -33.722   4.400   6.294  1.00 20.00    -0.169 F 
HETATM   11  F10 UNL     1     -33.588   6.518   6.804  1.00 20.00    -0.169 F 
ENDBRANCH   5   8
TORSDOF 1
ENDMDL
MODEL 5
REMARK VINA RESULT:      -4.4     11.817     12.947
REMARK  1 active torsions:
REMARK  status: ('A' for Active; 'I' for Inactive)
REMARK    1  A    between atoms: C5_5  and  C6_6 
ROOT
HETATM    1  C1  UNL     1     -33.762  16.618  -2.341  1.00 20.00     0.014 A 
HETATM    2  C2  UNL     1     -33.395  17.325  -4.843  1.00 20.00     0.275 C 
HETATM    3  C3  UNL     1     -34.193  17.358  -3.579  1.00 20.00     0.021 A 
HETATM    4  C4  UNL     1     -34.706  15.989  -3.335  1.00 20.00     0.034 A 
HETATM    5  C5  UNL     1     -34.239  15.130  -4.475  1.00 20.00     0.331 C 
HETATM    6  N7  UNL     1     -33.141  15.897  -5.087  1.00 20.00     0.097 N 
HETATM    7  H18 UNL     1     -33.069  15.703  -6.085  1.00 20.00     0.316 HD
ENDROOT
BRANCH   5   8
HETATM    8  C6  UNL     1     -33.764  13.760  -4.024  1.00 20.00     0.418 C 
HETATM    9  F8  UNL     1     -32.470  13.809  -3.663  1.00 20.00    -0.169 F 
HETATM   10  F9  UNL     1     -34.485  13.336  -2.972  1.00 20.00    -0.169 F 
HETATM   11  F10 UNL     1     -33.895  12.866  -5.020  1.00 20.00    -0.169 F 
ENDBRANCH   5   8
TORSDOF 1
ENDMDL
MODEL 6
REMARK VINA RESULT:      -4.2      1.538      2.365
REMARK  1 active torsions:
REMARK  status: ('A' for Active; 'I' for Inactive)
REMARK    1  A    between atoms: C5_5  and  C6_6 
ROOT
HETATM    1  C1  UNL     1     -34.265   6.549   6.249  1.00 20.00     0.014 A 
HETATM    2  C2  UNL     1     -35.270   4.124   6.340  1.00 20.00     0.275 C 
HETATM    3  C3  UNL     1     -34.184   5.102   6.659  1.00 20.00     0.021 A 
HETATM    4  C4  UNL     1     -33.573   5.529   5.377  1.00 20.00     0.034 A 
HETATM    5  C5  UNL     1     -34.275   4.782   4.280  1.00 20.00     0.331 C 
HETATM    6  N7  UNL     1     -35.521   4.300   4.902  1.00 20.00     0.097 N 
HETATM    7  H18 UNL     1     -35.830   3.429   4.474  1.00 20.00     0.316 HD
ENDROOT
BRANCH   5   8
HETATM    8  C6  UNL     1     -34.569   5.652   3.071  1.00 20.00     0.418 C 
HETATM    9  F8  UNL     1     -34.281   4.989   1.936  1.00 20.00    -0.169 F 
HETATM   10  F9  UNL     1     -35.867   5.998   3.045  1.00 20.00    -0.169 F 
HETATM   11  F10 UNL     1     -33.828   6.774   3.108  1.00 20.00    -0.169 F 
ENDBRANCH   5   8
TORSDOF 1
ENDMDL
MODEL 7
REMARK VINA RESULT:      -4.2     12.011     12.954
REMARK  1 active torsions:
REMARK  status: ('A' for Active; 'I' for Inactive)
REMARK    1  A    between atoms: C5_5  and  C6_6 
ROOT
HETATM    1  C1  UNL     1     -34.186  15.604  -5.756  1.00 20.00     0.014 A 
HETATM    2  C2  UNL     1     -34.602  13.196  -4.795  1.00 20.00     0.275 C 
HETATM    3  C3  UNL     1     -35.009  14.347  -5.658  1.00 20.00     0.021 A 
HETATM    4  C4  UNL     1     -35.320  15.490  -4.767  1.00 20.00     0.034 A 
HETATM    5  C5  UNL     1     -35.128  15.017  -3.355  1.00 20.00     0.331 C 
HETATM    6  N7  UNL     1     -34.313  13.796  -3.484  1.00 20.00     0.097 N 
HETATM    7  H18 UNL     1     -34.513  13.142  -2.729  1.00 20.00     0.316 HD
ENDROOT
BRANCH   5   8
HETATM    8  C6  UNL     1     -34.436  16.046  -2.479  1.00 20.00     0.418 C 
HETATM    9  F8  UNL     1     -33.101  15.922  -2.576  1.00 20.00    -0.169 F 
HETATM   10  F9  UNL     1     -34.778  17.290  -2.855  1.00 20.00    -0.169 F 
HETATM   11  F10 UNL     1     -34.787  15.878  -1.192  1.00 20.00    -0.169 F 
ENDBRANCH   5   8
TORSDOF 1
ENDMDL
MODEL 8
REMARK VINA RESULT:      -4.2     12.893     13.785
REMARK  1 active torsions:
REMARK  status: ('A' for Active; 'I' for Inactive)
REMARK    1  A    between atoms: C5_5  and  C6_6 
ROOT
HETATM    1  C1  UNL     1     -34.720  13.310  -4.593  1.00 20.00     0.014 A 
HETATM    2  C2  UNL     1     -32.937  15.000  -3.665  1.00 20.00     0.275 C 
HETATM    3  C3  UNL     1     -34.225  14.253  -3.529  1.00 20.00     0.021 A 
HETATM    4  C4  UNL     1     -35.149  14.756  -4.573  1.00 20.00     0.034 A 
HETATM    5  C5  UNL     1     -34.424  15.834  -5.326  1.00 20.00     0.331 C 
HETATM    6  N7  UNL     1     -33.004  15.621  -4.996  1.00 20.00     0.097 N 
HETATM    7  H18 UNL     1     -32.487  16.499  -5.018  1.00 20.00     0.316 HD
ENDROOT
BRANCH   5   8
HETATM    8  C6  UNL     1     -34.654  15.762  -6.824  1.00 20.00     0.418 C 
HETATM    9  F8  UNL     1     -34.350  16.938  -7.402  1.00 20.00    -0.169 F 
HETATM   10  F9  UNL     1     -33.885  14.806  -7.372  1.00 20.00    -0.169 F 
HETATM   11  F10 UNL     1     -35.942  15.478  -7.089  1.00 20.00    -0.169 F 
ENDBRANCH   5   8
TORSDOF 1
ENDMDL
MODEL 9
REMARK VINA RESULT:      -4.1     12.113     13.281
REMARK  1 active torsions:
REMARK  status: ('A' for Active; 'I' for Inactive)
REMARK    1  A    between atoms: C5_5  and  C6_6 
ROOT
HETATM    1  C1  UNL     1     -36.287  15.962  -4.878  1.00 20.00     0.014 A 
HETATM    2  C2  UNL     1     -35.227  14.992  -7.076  1.00 20.00     0.275 C 
HETATM    3  C3  UNL     1     -36.356  15.085  -6.100  1.00 20.00     0.021 A 
HETATM    4  C4  UNL     1     -35.890  14.508  -4.817  1.00 20.00     0.034 A 
HETATM    5  C5  UNL     1     -34.480  14.037  -5.027  1.00 20.00     0.331 C 
HETATM    6  N7  UNL     1     -34.039  14.732  -6.249  1.00 20.00     0.097 N 
HETATM    7  H18 UNL     1     -33.351  14.178  -6.758  1.00 20.00     0.316 HD
ENDROOT
BRANCH   5   8
HETATM    8  C6  UNL     1     -33.570  14.359  -3.856  1.00 20.00     0.418 C 
HETATM    9  F8  UNL     1     -32.698  13.357  -3.649  1.00 20.00    -0.169 F 
HETATM   10  F9  UNL     1     -32.877  15.486  -4.095  1.00 20.00    -0.169 F 
HETATM   11  F10 UNL     1     -34.292  14.533  -2.735  1.00 20.00    -0.169 F 
ENDBRANCH   5   8
TORSDOF 1
ENDMDL
