MODEL 1
REMARK VINA RESULT:      -5.0      0.000      0.000
REMARK  4 active torsions:
REMARK  status: ('A' for Active; 'I' for Inactive)
REMARK    1  A    between atoms: C1_1  and  C3_3 
REMARK    2  A    between atoms: C2_2  and  C6_6 
REMARK    3  A    between atoms: C6_6  and  C7_7 
REMARK    4  A    between atoms: C7_7  and  O8_8 
ROOT
HETATM    1  C1  UNL     1     -33.091   6.476   3.875  1.00 20.00    -0.079 C 
HETATM    2  C2  UNL     1     -33.721   6.127   4.836  1.00 20.00    -0.100 C 
ENDROOT
BRANCH   2   3
HETATM    3  C6  UNL     1     -34.495   5.700   6.011  1.00 20.00     0.120 C 
BRANCH   3   4
HETATM    4  C7  UNL     1     -34.727   4.196   6.010  1.00 20.00     0.176 C 
BRANCH   4   5
HETATM    5  O8  UNL     1     -35.464   3.826   4.850  1.00 20.00    -0.400 OA
HETATM    6  H18 UNL     1     -36.367   4.161   4.974  1.00 20.00     0.209 HD
ENDBRANCH   4   5
ENDBRANCH   3   4
ENDBRANCH   2   3
BRANCH   1   7
HETATM    7  C3  UNL     1     -32.343   6.893   2.742  1.00 20.00     0.060 C 
HETATM    8  C4  UNL     1     -32.418   8.145   2.271  1.00 20.00    -0.022 C 
HETATM    9  C5  UNL     1     -31.652   8.629   1.084  1.00 20.00     0.036 C 
ENDBRANCH   1   7
TORSDOF 4
ENDMDL
MODEL 2
REMARK VINA RESULT:      -4.6      2.869      5.378
REMARK  4 active torsions:
REMARK  status: ('A' for Active; 'I' for Inactive)
REMARK    1  A    between atoms: C1_1  and  C3_3 
REMARK    2  A    between atoms: C2_2  and  C6_6 
REMARK    3  A    between atoms: C6_6  and  C7_7 
REMARK    4  A    between atoms: C7_7  and  O8_8 
ROOT
HETATM    1  C1  UNL     1     -32.977   6.729   3.240  1.00 20.00    -0.079 C 
HETATM    2  C2  UNL     1     -32.357   7.480   2.537  1.00 20.00    -0.100 C 
ENDROOT
BRANCH   2   3
HETATM    3  C6  UNL     1     -31.603   8.402   1.675  1.00 20.00     0.120 C 
BRANCH   3   4
HETATM    4  C7  UNL     1     -32.495   9.502   1.118  1.00 20.00     0.176 C 
BRANCH   4   5
HETATM    5  O8  UNL     1     -32.829   9.207  -0.233  1.00 20.00    -0.400 OA
HETATM    6  H18 UNL     1     -32.068   9.472  -0.774  1.00 20.00     0.209 HD
ENDBRANCH   4   5
ENDBRANCH   3   4
ENDBRANCH   2   3
BRANCH   1   7
HETATM    7  C3  UNL     1     -33.708   5.837   4.069  1.00 20.00     0.060 C 
HETATM    8  C4  UNL     1     -33.991   6.134   5.345  1.00 20.00    -0.022 C 
HETATM    9  C5  UNL     1     -34.756   5.229   6.254  1.00 20.00     0.036 C 
ENDBRANCH   1   7
TORSDOF 4
ENDMDL
MODEL 3
REMARK VINA RESULT:      -4.5      1.278      1.304
REMARK  4 active torsions:
REMARK  status: ('A' for Active; 'I' for Inactive)
REMARK    1  A    between atoms: C1_1  and  C3_3 
REMARK    2  A    between atoms: C2_2  and  C6_6 
REMARK    3  A    between atoms: C6_6  and  C7_7 
REMARK    4  A    between atoms: C7_7  and  O8_8 
ROOT
HETATM    1  C1  UNL     1     -33.302   6.329   3.429  1.00 20.00    -0.079 C 
HETATM    2  C2  UNL     1     -34.170   5.673   3.938  1.00 20.00    -0.100 C 
ENDROOT
BRANCH   2   3
HETATM    3  C6  UNL     1     -35.229   4.866   4.561  1.00 20.00     0.120 C 
BRANCH   3   4
HETATM    4  C7  UNL     1     -34.960   4.641   6.042  1.00 20.00     0.176 C 
BRANCH   4   5
HETATM    5  O8  UNL     1     -34.593   5.872   6.654  1.00 20.00    -0.400 OA
HETATM    6  H18 UNL     1     -35.416   6.363   6.810  1.00 20.00     0.209 HD
ENDBRANCH   4   5
ENDBRANCH   3   4
ENDBRANCH   2   3
BRANCH   1   7
HETATM    7  C3  UNL     1     -32.279   7.106   2.823  1.00 20.00     0.060 C 
HETATM    8  C4  UNL     1     -32.561   8.085   1.953  1.00 20.00    -0.022 C 
HETATM    9  C5  UNL     1     -31.521   8.928   1.291  1.00 20.00     0.036 C 
ENDBRANCH   1   7
TORSDOF 4
ENDMDL
MODEL 4
REMARK VINA RESULT:      -4.2     11.142     11.764
REMARK  4 active torsions:
REMARK  status: ('A' for Active; 'I' for Inactive)
REMARK    1  A    between atoms: C1_1  and  C3_3 
REMARK    2  A    between atoms: C2_2  and  C6_6 
REMARK    3  A    between atoms: C6_6  and  C7_7 
REMARK    4  A    between atoms: C7_7  and  O8_8 
ROOT
HETATM    1  C1  UNL     1     -34.490  15.840  -2.343  1.00 20.00    -0.079 C 
HETATM    2  C2  UNL     1     -34.036  14.980  -3.048  1.00 20.00    -0.100 C 
ENDROOT
BRANCH   2   3
HETATM    3  C6  UNL     1     -33.484  13.926  -3.912  1.00 20.00     0.120 C 
BRANCH   3   4
HETATM    4  C7  UNL     1     -34.544  13.354  -4.842  1.00 20.00     0.176 C 
BRANCH   4   5
HETATM    5  O8  UNL     1     -35.421  12.511  -4.104  1.00 20.00    -0.400 OA
HETATM    6  H18 UNL     1     -36.322  12.714  -4.403  1.00 20.00     0.209 HD
ENDBRANCH   4   5
ENDBRANCH   3   4
ENDBRANCH   2   3
BRANCH   1   7
HETATM    7  C3  UNL     1     -35.027  16.855  -1.507  1.00 20.00     0.060 C 
HETATM    8  C4  UNL     1     -34.713  16.934  -0.207  1.00 20.00    -0.022 C 
HETATM    9  C5  UNL     1     -35.251  17.982   0.712  1.00 20.00     0.036 C 
ENDBRANCH   1   7
TORSDOF 4
ENDMDL
MODEL 5
REMARK VINA RESULT:      -3.9     11.739     12.324
REMARK  4 active torsions:
REMARK  status: ('A' for Active; 'I' for Inactive)
REMARK    1  A    between atoms: C1_1  and  C3_3 
REMARK    2  A    between atoms: C2_2  and  C6_6 
REMARK    3  A    between atoms: C6_6  and  C7_7 
REMARK    4  A    between atoms: C7_7  and  O8_8 
ROOT
HETATM    1  C1  UNL     1     -34.163  15.541  -2.691  1.00 20.00    -0.079 C 
HETATM    2  C2  UNL     1     -34.295  14.618  -3.449  1.00 20.00    -0.100 C 
ENDROOT
BRANCH   2   3
HETATM    3  C6  UNL     1     -34.457  13.487  -4.374  1.00 20.00     0.120 C 
BRANCH   3   4
HETATM    4  C7  UNL     1     -34.949  13.948  -5.738  1.00 20.00     0.176 C 
BRANCH   4   5
HETATM    5  O8  UNL     1     -33.989  14.821  -6.322  1.00 20.00    -0.400 OA
HETATM    6  H18 UNL     1     -33.121  14.546  -5.988  1.00 20.00     0.209 HD
ENDBRANCH   4   5
ENDBRANCH   3   4
ENDBRANCH   2   3
BRANCH   1   7
HETATM    7  C3  UNL     1     -34.003  16.632  -1.796  1.00 20.00     0.060 C 
HETATM    8  C4  UNL     1     -34.664  16.691  -0.632  1.00 20.00    -0.022 C 
HETATM    9  C5  UNL     1     -34.528  17.816   0.340  1.00 20.00     0.036 C 
ENDBRANCH   1   7
TORSDOF 4
ENDMDL
MODEL 6
REMARK VINA RESULT:      -3.8     10.722     11.060
REMARK  4 active torsions:
REMARK  status: ('A' for Active; 'I' for Inactive)
REMARK    1  A    between atoms: C1_1  and  C3_3 
REMARK    2  A    between atoms: C2_2  and  C6_6 
REMARK    3  A    between atoms: C6_6  and  C7_7 
REMARK    4  A    between atoms: C7_7  and  O8_8 
ROOT
HETATM    1  C1  UNL     1     -41.676   3.877  -2.080  1.00 20.00    -0.079 C 
HETATM    2  C2  UNL     1     -41.226   4.729  -1.363  1.00 20.00    -0.100 C 
ENDROOT
BRANCH   2   3
HETATM    3  C6  UNL     1     -40.672   5.773  -0.488  1.00 20.00     0.120 C 
BRANCH   3   4
HETATM    4  C7  UNL     1     -41.144   7.158  -0.904  1.00 20.00     0.176 C 
BRANCH   4   5
HETATM    5  O8  UNL     1     -40.956   7.326  -2.305  1.00 20.00    -0.400 OA
HETATM    6  H18 UNL     1     -40.730   6.453  -2.663  1.00 20.00     0.209 HD
ENDBRANCH   4   5
ENDBRANCH   3   4
ENDBRANCH   2   3
BRANCH   1   7
HETATM    7  C3  UNL     1     -42.208   2.865  -2.924  1.00 20.00     0.060 C 
HETATM    8  C4  UNL     1     -41.415   2.008  -3.580  1.00 20.00    -0.022 C 
HETATM    9  C5  UNL     1     -41.926   0.930  -4.478  1.00 20.00     0.036 C 
ENDBRANCH   1   7
TORSDOF 4
ENDMDL
MODEL 7
REMARK VINA RESULT:      -3.8     11.816     12.383
REMARK  4 active torsions:
REMARK  status: ('A' for Active; 'I' for Inactive)
REMARK    1  A    between atoms: C1_1  and  C3_3 
REMARK    2  A    between atoms: C2_2  and  C6_6 
REMARK    3  A    between atoms: C6_6  and  C7_7 
REMARK    4  A    between atoms: C7_7  and  O8_8 
ROOT
HETATM    1  C1  UNL     1     -34.381  16.686  -1.192  1.00 20.00    -0.079 C 
HETATM    2  C2  UNL     1     -34.408  15.949  -2.139  1.00 20.00    -0.100 C 
ENDROOT
BRANCH   2   3
HETATM    3  C6  UNL     1     -34.438  15.048  -3.301  1.00 20.00     0.120 C 
BRANCH   3   4
HETATM    4  C7  UNL     1     -33.034  14.682  -3.759  1.00 20.00     0.176 C 
BRANCH   4   5
HETATM    5  O8  UNL     1     -32.502  15.733  -4.557  1.00 20.00    -0.400 OA
HETATM    6  H18 UNL     1     -33.222  16.042  -5.129  1.00 20.00     0.209 HD
ENDBRANCH   4   5
ENDBRANCH   3   4
ENDBRANCH   2   3
BRANCH   1   7
HETATM    7  C3  UNL     1     -34.354  17.560  -0.072  1.00 20.00     0.060 C 
HETATM    8  C4  UNL     1     -35.190  17.404   0.963  1.00 20.00    -0.022 C 
HETATM    9  C5  UNL     1     -35.198  18.296   2.161  1.00 20.00     0.036 C 
ENDBRANCH   1   7
TORSDOF 4
ENDMDL
MODEL 8
REMARK VINA RESULT:      -3.8     11.488     11.999
REMARK  4 active torsions:
REMARK  status: ('A' for Active; 'I' for Inactive)
REMARK    1  A    between atoms: C1_1  and  C3_3 
REMARK    2  A    between atoms: C2_2  and  C6_6 
REMARK    3  A    between atoms: C6_6  and  C7_7 
REMARK    4  A    between atoms: C7_7  and  O8_8 
ROOT
HETATM    1  C1  UNL     1     -34.462  15.967  -2.098  1.00 20.00    -0.079 C 
HETATM    2  C2  UNL     1     -34.738  15.106  -2.889  1.00 20.00    -0.100 C 
ENDROOT
BRANCH   2   3
HETATM    3  C6  UNL     1     -35.073  14.055  -3.861  1.00 20.00     0.120 C 
BRANCH   3   4
HETATM    4  C7  UNL     1     -36.357  14.378  -4.612  1.00 20.00     0.176 C 
BRANCH   4   5
HETATM    5  O8  UNL     1     -37.472  14.213  -3.744  1.00 20.00    -0.400 OA
HETATM    6  H18 UNL     1     -37.648  15.081  -3.345  1.00 20.00     0.209 HD
ENDBRANCH   4   5
ENDBRANCH   3   4
ENDBRANCH   2   3
BRANCH   1   7
HETATM    7  C3  UNL     1     -34.142  16.985  -1.161  1.00 20.00     0.060 C 
HETATM    8  C4  UNL     1     -34.797  17.103   0.002  1.00 20.00    -0.022 C 
HETATM    9  C5  UNL     1     -34.495  18.155   1.018  1.00 20.00     0.036 C 
ENDBRANCH   1   7
TORSDOF 4
ENDMDL
MODEL 9
REMARK VINA RESULT:      -3.7     11.513     12.015
REMARK  4 active torsions:
REMARK  status: ('A' for Active; 'I' for Inactive)
REMARK    1  A    between atoms: C1_1  and  C3_3 
REMARK    2  A    between atoms: C2_2  and  C6_6 
REMARK    3  A    between atoms: C6_6  and  C7_7 
REMARK    4  A    between atoms: C7_7  and  O8_8 
ROOT
HETATM    1  C1  UNL     1     -34.395  16.008  -1.994  1.00 20.00    -0.079 C 
HETATM    2  C2  UNL     1     -34.635  16.590  -0.971  1.00 20.00    -0.100 C 
ENDROOT
BRANCH   2   3
HETATM    3  C6  UNL     1     -34.933  17.303   0.280  1.00 20.00     0.120 C 
BRANCH   3   4
HETATM    4  C7  UNL     1     -35.949  18.414   0.060  1.00 20.00     0.176 C 
BRANCH   4   5
HETATM    5  O8  UNL     1     -37.116  17.880  -0.554  1.00 20.00    -0.400 OA
HETATM    6  H18 UNL     1     -37.124  16.929  -0.361  1.00 20.00     0.209 HD
ENDBRANCH   4   5
ENDBRANCH   3   4
ENDBRANCH   2   3
BRANCH   1   7
HETATM    7  C3  UNL     1     -34.107  15.323  -3.205  1.00 20.00     0.060 C 
HETATM    8  C4  UNL     1     -34.657  14.135  -3.489  1.00 20.00    -0.022 C 
HETATM    9  C5  UNL     1     -34.385  13.377  -4.747  1.00 20.00     0.036 C 
ENDBRANCH   1   7
TORSDOF 4
ENDMDL
