MODEL 1
REMARK VINA RESULT:      -4.9      0.000      0.000
REMARK  3 active torsions:
REMARK  status: ('A' for Active; 'I' for Inactive)
REMARK    1  A    between atoms: C4_4  and  C6_6 
REMARK    2  A    between atoms: C6_6  and  C7_7 
REMARK    3  A    between atoms: C7_7  and  C8_8 
ROOT
HETATM    1  C1  UNL     1     -35.457   5.111   4.445  1.00 20.00     0.029 C 
HETATM    2  C2  UNL     1     -34.466   5.281   3.321  1.00 20.00     0.034 C 
HETATM    3  C3  UNL     1     -34.595   5.361   5.664  1.00 20.00     0.168 C 
HETATM    4  C4  UNL     1     -33.618   6.431   3.838  1.00 20.00     0.121 C 
HETATM    5  O9  UNL     1     -33.565   6.279   5.267  1.00 20.00    -0.386 OA
ENDROOT
BRANCH   4   6
HETATM    6  C6  UNL     1     -32.212   6.449   3.271  1.00 20.00     0.033 C 
BRANCH   6   7
HETATM    7  C7  UNL     1     -31.740   7.880   2.995  1.00 20.00     0.022 C 
BRANCH   7   8
HETATM    8  C8  UNL     1     -32.413   8.516   1.771  1.00 20.00     0.078 C 
HETATM    9  C5  UNL     1     -32.720   9.989   2.016  1.00 20.00     0.026 C 
HETATM   10 CL10 UNL     1     -31.375   8.377   0.320  1.00 20.00    -0.125 Cl
ENDBRANCH   7   8
ENDBRANCH   6   7
ENDBRANCH   4   6
TORSDOF 3
ENDMDL
MODEL 2
REMARK VINA RESULT:      -4.7      1.292      1.809
REMARK  3 active torsions:
REMARK  status: ('A' for Active; 'I' for Inactive)
REMARK    1  A    between atoms: C4_4  and  C6_6 
REMARK    2  A    between atoms: C6_6  and  C7_7 
REMARK    3  A    between atoms: C7_7  and  C8_8 
ROOT
HETATM    1  C1  UNL     1     -35.186   4.569   6.160  1.00 20.00     0.029 C 
HETATM    2  C2  UNL     1     -34.976   4.241   4.703  1.00 20.00     0.034 C 
HETATM    3  C3  UNL     1     -34.204   5.702   6.371  1.00 20.00     0.168 C 
HETATM    4  C4  UNL     1     -34.765   5.623   4.110  1.00 20.00     0.121 C 
HETATM    5  O9  UNL     1     -34.088   6.393   5.118  1.00 20.00    -0.386 OA
ENDROOT
BRANCH   4   6
HETATM    6  C6  UNL     1     -33.947   5.616   2.832  1.00 20.00     0.033 C 
BRANCH   6   7
HETATM    7  C7  UNL     1     -32.493   6.016   3.099  1.00 20.00     0.022 C 
BRANCH   7   8
HETATM    8  C8  UNL     1     -32.269   7.534   3.086  1.00 20.00     0.078 C 
HETATM    9  C5  UNL     1     -31.148   7.932   4.040  1.00 20.00     0.026 C 
HETATM   10 CL10 UNL     1     -31.859   8.111   1.442  1.00 20.00    -0.125 Cl
ENDBRANCH   7   8
ENDBRANCH   6   7
ENDBRANCH   4   6
TORSDOF 3
ENDMDL
MODEL 3
REMARK VINA RESULT:      -4.2     10.606     11.153
REMARK  3 active torsions:
REMARK  status: ('A' for Active; 'I' for Inactive)
REMARK    1  A    between atoms: C4_4  and  C6_6 
REMARK    2  A    between atoms: C6_6  and  C7_7 
REMARK    3  A    between atoms: C7_7  and  C8_8 
ROOT
HETATM    1  C1  UNL     1     -35.154  13.454  -4.409  1.00 20.00     0.029 C 
HETATM    2  C2  UNL     1     -33.995  14.029  -3.634  1.00 20.00     0.034 C 
HETATM    3  C3  UNL     1     -36.312  14.293  -3.909  1.00 20.00     0.168 C 
HETATM    4  C4  UNL     1     -34.343  15.507  -3.622  1.00 20.00     0.121 C 
HETATM    5  O9  UNL     1     -35.778  15.581  -3.568  1.00 20.00    -0.386 OA
ENDROOT
BRANCH   4   6
HETATM    6  C6  UNL     1     -33.745  16.261  -2.450  1.00 20.00     0.033 C 
BRANCH   6   7
HETATM    7  C7  UNL     1     -34.733  16.353  -1.283  1.00 20.00     0.022 C 
BRANCH   7   8
HETATM    8  C8  UNL     1     -34.629  17.669  -0.501  1.00 20.00     0.078 C 
HETATM    9  C5  UNL     1     -35.138  17.502   0.927  1.00 20.00     0.026 C 
HETATM   10 CL10 UNL     1     -32.939  18.254  -0.445  1.00 20.00    -0.125 Cl
ENDBRANCH   7   8
ENDBRANCH   6   7
ENDBRANCH   4   6
TORSDOF 3
ENDMDL
MODEL 4
REMARK VINA RESULT:      -4.2     10.863     11.595
REMARK  3 active torsions:
REMARK  status: ('A' for Active; 'I' for Inactive)
REMARK    1  A    between atoms: C4_4  and  C6_6 
REMARK    2  A    between atoms: C6_6  and  C7_7 
REMARK    3  A    between atoms: C7_7  and  C8_8 
ROOT
HETATM    1  C1  UNL     1     -34.690  17.065  -0.354  1.00 20.00     0.029 C 
HETATM    2  C2  UNL     1     -34.653  16.178  -1.573  1.00 20.00     0.034 C 
HETATM    3  C3  UNL     1     -33.533  18.005  -0.616  1.00 20.00     0.168 C 
HETATM    4  C4  UNL     1     -34.283  17.172  -2.659  1.00 20.00     0.121 C 
HETATM    5  O9  UNL     1     -33.415  18.138  -2.040  1.00 20.00    -0.386 OA
ENDROOT
BRANCH   4   6
HETATM    6  C6  UNL     1     -33.584  16.540  -3.847  1.00 20.00     0.033 C 
BRANCH   6   7
HETATM    7  C7  UNL     1     -33.354  15.042  -3.626  1.00 20.00     0.022 C 
BRANCH   7   8
HETATM    8  C8  UNL     1     -34.010  14.162  -4.699  1.00 20.00     0.078 C 
HETATM    9  C5  UNL     1     -35.308  13.547  -4.187  1.00 20.00     0.026 C 
HETATM   10 CL10 UNL     1     -34.364  15.105  -6.178  1.00 20.00    -0.125 Cl
ENDBRANCH   7   8
ENDBRANCH   6   7
ENDBRANCH   4   6
TORSDOF 3
ENDMDL
MODEL 5
REMARK VINA RESULT:      -4.2     10.683     11.241
REMARK  3 active torsions:
REMARK  status: ('A' for Active; 'I' for Inactive)
REMARK    1  A    between atoms: C4_4  and  C6_6 
REMARK    2  A    between atoms: C6_6  and  C7_7 
REMARK    3  A    between atoms: C7_7  and  C8_8 
ROOT
HETATM    1  C1  UNL     1     -34.688  13.296  -4.645  1.00 20.00     0.029 C 
HETATM    2  C2  UNL     1     -33.665  13.941  -3.744  1.00 20.00     0.034 C 
HETATM    3  C3  UNL     1     -35.943  14.069  -4.300  1.00 20.00     0.168 C 
HETATM    4  C4  UNL     1     -34.094  15.397  -3.794  1.00 20.00     0.121 C 
HETATM    5  O9  UNL     1     -35.528  15.388  -3.913  1.00 20.00    -0.386 OA
ENDROOT
BRANCH   4   6
HETATM    6  C6  UNL     1     -33.685  16.191  -2.568  1.00 20.00     0.033 C 
BRANCH   6   7
HETATM    7  C7  UNL     1     -34.812  16.236  -1.532  1.00 20.00     0.022 C 
BRANCH   7   8
HETATM    8  C8  UNL     1     -34.486  17.117  -0.318  1.00 20.00     0.078 C 
HETATM    9  C5  UNL     1     -33.315  18.048  -0.613  1.00 20.00     0.026 C 
HETATM   10 CL10 UNL     1     -35.900  18.103   0.161  1.00 20.00    -0.125 Cl
ENDBRANCH   7   8
ENDBRANCH   6   7
ENDBRANCH   4   6
TORSDOF 3
ENDMDL
MODEL 6
REMARK VINA RESULT:      -4.0     10.608     11.735
REMARK  3 active torsions:
REMARK  status: ('A' for Active; 'I' for Inactive)
REMARK    1  A    between atoms: C4_4  and  C6_6 
REMARK    2  A    between atoms: C6_6  and  C7_7 
REMARK    3  A    between atoms: C7_7  and  C8_8 
ROOT
HETATM    1  C1  UNL     1     -34.063  16.500  -2.221  1.00 20.00     0.029 C 
HETATM    2  C2  UNL     1     -33.300  15.556  -3.116  1.00 20.00     0.034 C 
HETATM    3  C3  UNL     1     -35.484  16.319  -2.713  1.00 20.00     0.168 C 
HETATM    4  C4  UNL     1     -34.273  14.395  -3.230  1.00 20.00     0.121 C 
HETATM    5  O9  UNL     1     -35.591  14.972  -3.197  1.00 20.00    -0.386 OA
ENDROOT
BRANCH   4   6
HETATM    6  C6  UNL     1     -34.100  13.582  -4.498  1.00 20.00     0.033 C 
BRANCH   6   7
HETATM    7  C7  UNL     1     -35.188  13.911  -5.525  1.00 20.00     0.022 C 
BRANCH   7   8
HETATM    8  C8  UNL     1     -34.651  14.630  -6.770  1.00 20.00     0.078 C 
HETATM    9  C5  UNL     1     -35.656  14.573  -7.914  1.00 20.00     0.026 C 
HETATM   10 CL10 UNL     1     -34.279  16.344  -6.414  1.00 20.00    -0.125 Cl
ENDBRANCH   7   8
ENDBRANCH   6   7
ENDBRANCH   4   6
TORSDOF 3
ENDMDL
MODEL 7
REMARK VINA RESULT:      -4.0     10.532     11.890
REMARK  3 active torsions:
REMARK  status: ('A' for Active; 'I' for Inactive)
REMARK    1  A    between atoms: C4_4  and  C6_6 
REMARK    2  A    between atoms: C6_6  and  C7_7 
REMARK    3  A    between atoms: C7_7  and  C8_8 
ROOT
HETATM    1  C1  UNL     1     -36.477  15.126  -6.525  1.00 20.00     0.029 C 
HETATM    2  C2  UNL     1     -36.397  14.833  -5.048  1.00 20.00     0.034 C 
HETATM    3  C3  UNL     1     -35.015  15.154  -6.919  1.00 20.00     0.168 C 
HETATM    4  C4  UNL     1     -35.237  13.853  -4.997  1.00 20.00     0.121 C 
HETATM    5  O9  UNL     1     -34.327  14.255  -6.035  1.00 20.00    -0.386 OA
ENDROOT
BRANCH   4   6
HETATM    6  C6  UNL     1     -34.517  13.835  -3.662  1.00 20.00     0.033 C 
BRANCH   6   7
HETATM    7  C7  UNL     1     -33.259  14.707  -3.695  1.00 20.00     0.022 C 
BRANCH   7   8
HETATM    8  C8  UNL     1     -33.437  16.058  -2.989  1.00 20.00     0.078 C 
HETATM    9  C5  UNL     1     -33.720  17.169  -3.993  1.00 20.00     0.026 C 
HETATM   10 CL10 UNL     1     -34.778  15.995  -1.806  1.00 20.00    -0.125 Cl
ENDBRANCH   7   8
ENDBRANCH   6   7
ENDBRANCH   4   6
TORSDOF 3
ENDMDL
MODEL 8
REMARK VINA RESULT:      -3.9     10.604     11.652
REMARK  3 active torsions:
REMARK  status: ('A' for Active; 'I' for Inactive)
REMARK    1  A    between atoms: C4_4  and  C6_6 
REMARK    2  A    between atoms: C6_6  and  C7_7 
REMARK    3  A    between atoms: C7_7  and  C8_8 
ROOT
HETATM    1  C1  UNL     1     -34.619  13.197  -4.917  1.00 20.00     0.029 C 
HETATM    2  C2  UNL     1     -34.352  13.782  -3.553  1.00 20.00     0.034 C 
HETATM    3  C3  UNL     1     -34.747  14.440  -5.772  1.00 20.00     0.168 C 
HETATM    4  C4  UNL     1     -33.459  14.961  -3.900  1.00 20.00     0.121 C 
HETATM    5  O9  UNL     1     -33.912  15.444  -5.177  1.00 20.00    -0.386 OA
ENDROOT
BRANCH   4   6
HETATM    6  C6  UNL     1     -33.510  16.081  -2.879  1.00 20.00     0.033 C 
BRANCH   6   7
HETATM    7  C7  UNL     1     -34.791  16.014  -2.041  1.00 20.00     0.022 C 
BRANCH   7   8
HETATM    8  C8  UNL     1     -35.868  17.006  -2.498  1.00 20.00     0.078 C 
HETATM    9  C5  UNL     1     -35.251  18.178  -3.254  1.00 20.00     0.026 C 
HETATM   10 CL10 UNL     1     -37.072  16.209  -3.555  1.00 20.00    -0.125 Cl
ENDBRANCH   7   8
ENDBRANCH   6   7
ENDBRANCH   4   6
TORSDOF 3
ENDMDL
MODEL 9
REMARK VINA RESULT:      -3.9     10.482     11.543
REMARK  3 active torsions:
REMARK  status: ('A' for Active; 'I' for Inactive)
REMARK    1  A    between atoms: C4_4  and  C6_6 
REMARK    2  A    between atoms: C6_6  and  C7_7 
REMARK    3  A    between atoms: C7_7  and  C8_8 
ROOT
HETATM    1  C1  UNL     1     -38.461  16.318  -3.489  1.00 20.00     0.029 C 
HETATM    2  C2  UNL     1     -37.019  16.318  -3.930  1.00 20.00     0.034 C 
HETATM    3  C3  UNL     1     -38.906  14.922  -3.873  1.00 20.00     0.168 C 
HETATM    4  C4  UNL     1     -36.595  14.903  -3.575  1.00 20.00     0.121 C 
HETATM    5  O9  UNL     1     -37.752  14.074  -3.779  1.00 20.00    -0.386 OA
ENDROOT
BRANCH   4   6
HETATM    6  C6  UNL     1     -35.440  14.389  -4.413  1.00 20.00     0.033 C 
BRANCH   6   7
HETATM    7  C7  UNL     1     -34.194  14.144  -3.555  1.00 20.00     0.022 C 
BRANCH   7   8
HETATM    8  C8  UNL     1     -33.265  15.363  -3.472  1.00 20.00     0.078 C 
HETATM    9  C5  UNL     1     -33.263  16.143  -4.782  1.00 20.00     0.026 C 
HETATM   10 CL10 UNL     1     -33.759  16.461  -2.148  1.00 20.00    -0.125 Cl
ENDBRANCH   7   8
ENDBRANCH   6   7
ENDBRANCH   4   6
TORSDOF 3
ENDMDL
