MODEL 1
REMARK VINA RESULT:      -4.9      0.000      0.000
REMARK  3 active torsions:
REMARK  status: ('A' for Active; 'I' for Inactive)
REMARK    1  A    between atoms: C4_4  and  C6_6 
REMARK    2  A    between atoms: C6_6  and  C7_7 
REMARK    3  A    between atoms: C7_7  and  C8_8 
ROOT
HETATM    1  C1  UNL     1     -35.434   5.065   4.446  1.00 20.00     0.029 C 
HETATM    2  C2  UNL     1     -34.449   5.212   3.313  1.00 20.00     0.034 C 
HETATM    3  C3  UNL     1     -34.577   5.389   5.651  1.00 20.00     0.168 C 
HETATM    4  C4  UNL     1     -33.629   6.403   3.778  1.00 20.00     0.121 C 
HETATM    5  O9  UNL     1     -33.570   6.312   5.212  1.00 20.00    -0.386 OA
ENDROOT
BRANCH   4   6
HETATM    6  C6  UNL     1     -32.225   6.430   3.207  1.00 20.00     0.033 C 
BRANCH   6   7
HETATM    7  C7  UNL     1     -31.739   7.867   2.991  1.00 20.00     0.022 C 
BRANCH   7   8
HETATM    8  C8  UNL     1     -32.414   8.563   1.802  1.00 20.00     0.078 C 
HETATM    9  C5  UNL     1     -31.541   8.491   0.554  1.00 20.00     0.026 C 
HETATM   10 CL10 UNL     1     -32.752  10.282   2.170  1.00 20.00    -0.125 Cl
ENDBRANCH   7   8
ENDBRANCH   6   7
ENDBRANCH   4   6
TORSDOF 3
ENDMDL
MODEL 2
REMARK VINA RESULT:      -4.7      1.396      1.854
REMARK  3 active torsions:
REMARK  status: ('A' for Active; 'I' for Inactive)
REMARK    1  A    between atoms: C4_4  and  C6_6 
REMARK    2  A    between atoms: C6_6  and  C7_7 
REMARK    3  A    between atoms: C7_7  and  C8_8 
ROOT
HETATM    1  C1  UNL     1     -35.160   4.627   6.200  1.00 20.00     0.029 C 
HETATM    2  C2  UNL     1     -34.973   4.259   4.749  1.00 20.00     0.034 C 
HETATM    3  C3  UNL     1     -34.173   5.763   6.365  1.00 20.00     0.168 C 
HETATM    4  C4  UNL     1     -34.768   5.625   4.115  1.00 20.00     0.121 C 
HETATM    5  O9  UNL     1     -34.073   6.418   5.092  1.00 20.00    -0.386 OA
ENDROOT
BRANCH   4   6
HETATM    6  C6  UNL     1     -33.969   5.580   2.827  1.00 20.00     0.033 C 
BRANCH   6   7
HETATM    7  C7  UNL     1     -32.515   6.005   3.059  1.00 20.00     0.022 C 
BRANCH   7   8
HETATM    8  C8  UNL     1     -32.321   7.526   3.070  1.00 20.00     0.078 C 
HETATM    9  C5  UNL     1     -31.951   8.044   1.686  1.00 20.00     0.026 C 
HETATM   10 CL10 UNL     1     -31.041   8.004   4.226  1.00 20.00    -0.125 Cl
ENDBRANCH   7   8
ENDBRANCH   6   7
ENDBRANCH   4   6
TORSDOF 3
ENDMDL
MODEL 3
REMARK VINA RESULT:      -4.1     10.469     11.408
REMARK  3 active torsions:
REMARK  status: ('A' for Active; 'I' for Inactive)
REMARK    1  A    between atoms: C4_4  and  C6_6 
REMARK    2  A    between atoms: C6_6  and  C7_7 
REMARK    3  A    between atoms: C7_7  and  C8_8 
ROOT
HETATM    1  C1  UNL     1     -34.546  13.265  -4.759  1.00 20.00     0.029 C 
HETATM    2  C2  UNL     1     -34.400  13.973  -3.436  1.00 20.00     0.034 C 
HETATM    3  C3  UNL     1     -34.587  14.424  -5.732  1.00 20.00     0.168 C 
HETATM    4  C4  UNL     1     -33.473  15.118  -3.806  1.00 20.00     0.121 C 
HETATM    5  O9  UNL     1     -33.806  15.481  -5.157  1.00 20.00    -0.386 OA
ENDROOT
BRANCH   4   6
HETATM    6  C6  UNL     1     -33.613  16.327  -2.901  1.00 20.00     0.033 C 
BRANCH   6   7
HETATM    7  C7  UNL     1     -34.747  16.136  -1.888  1.00 20.00     0.022 C 
BRANCH   7   8
HETATM    8  C8  UNL     1     -34.533  16.914  -0.583  1.00 20.00     0.078 C 
HETATM    9  C5  UNL     1     -35.738  17.791  -0.263  1.00 20.00     0.026 C 
HETATM   10 CL10 UNL     1     -33.077  17.949  -0.683  1.00 20.00    -0.125 Cl
ENDBRANCH   7   8
ENDBRANCH   6   7
ENDBRANCH   4   6
TORSDOF 3
ENDMDL
MODEL 4
REMARK VINA RESULT:      -4.1     11.028     11.613
REMARK  3 active torsions:
REMARK  status: ('A' for Active; 'I' for Inactive)
REMARK    1  A    between atoms: C4_4  and  C6_6 
REMARK    2  A    between atoms: C6_6  and  C7_7 
REMARK    3  A    between atoms: C7_7  and  C8_8 
ROOT
HETATM    1  C1  UNL     1     -34.722  16.994  -0.397  1.00 20.00     0.029 C 
HETATM    2  C2  UNL     1     -34.684  16.171  -1.660  1.00 20.00     0.034 C 
HETATM    3  C3  UNL     1     -33.548  17.928  -0.596  1.00 20.00     0.168 C 
HETATM    4  C4  UNL     1     -34.284  17.215  -2.689  1.00 20.00     0.121 C 
HETATM    5  O9  UNL     1     -33.410  18.132  -2.009  1.00 20.00    -0.386 OA
ENDROOT
BRANCH   4   6
HETATM    6  C6  UNL     1     -33.578  16.633  -3.898  1.00 20.00     0.033 C 
BRANCH   6   7
HETATM    7  C7  UNL     1     -33.337  15.129  -3.732  1.00 20.00     0.022 C 
BRANCH   7   8
HETATM    8  C8  UNL     1     -34.054  14.278  -4.788  1.00 20.00     0.078 C 
HETATM    9  C5  UNL     1     -34.401  15.107  -6.019  1.00 20.00     0.026 C 
HETATM   10 CL10 UNL     1     -35.559  13.568  -4.128  1.00 20.00    -0.125 Cl
ENDBRANCH   7   8
ENDBRANCH   6   7
ENDBRANCH   4   6
TORSDOF 3
ENDMDL
MODEL 5
REMARK VINA RESULT:      -4.0      2.284      4.736
REMARK  3 active torsions:
REMARK  status: ('A' for Active; 'I' for Inactive)
REMARK    1  A    between atoms: C4_4  and  C6_6 
REMARK    2  A    between atoms: C6_6  and  C7_7 
REMARK    3  A    between atoms: C7_7  and  C8_8 
ROOT
HETATM    1  C1  UNL     1     -31.954   9.478   0.743  1.00 20.00     0.029 C 
HETATM    2  C2  UNL     1     -31.851   7.985   0.932  1.00 20.00     0.034 C 
HETATM    3  C3  UNL     1     -32.902   9.870   1.856  1.00 20.00     0.168 C 
HETATM    4  C4  UNL     1     -31.860   7.871   2.446  1.00 20.00     0.121 C 
HETATM    5  O9  UNL     1     -32.706   8.931   2.923  1.00 20.00    -0.386 OA
ENDROOT
BRANCH   4   6
HETATM    6  C6  UNL     1     -32.376   6.536   2.949  1.00 20.00     0.033 C 
BRANCH   6   7
HETATM    7  C7  UNL     1     -33.733   6.690   3.644  1.00 20.00     0.022 C 
BRANCH   7   8
HETATM    8  C8  UNL     1     -33.951   5.683   4.780  1.00 20.00     0.078 C 
HETATM    9  C5  UNL     1     -35.250   4.910   4.589  1.00 20.00     0.026 C 
HETATM   10 CL10 UNL     1     -33.998   6.506   6.369  1.00 20.00    -0.125 Cl
ENDBRANCH   7   8
ENDBRANCH   6   7
ENDBRANCH   4   6
TORSDOF 3
ENDMDL
MODEL 6
REMARK VINA RESULT:      -3.9     10.651     11.923
REMARK  3 active torsions:
REMARK  status: ('A' for Active; 'I' for Inactive)
REMARK    1  A    between atoms: C4_4  and  C6_6 
REMARK    2  A    between atoms: C6_6  and  C7_7 
REMARK    3  A    between atoms: C7_7  and  C8_8 
ROOT
HETATM    1  C1  UNL     1     -36.440  15.184  -6.596  1.00 20.00     0.029 C 
HETATM    2  C2  UNL     1     -36.409  14.867  -5.121  1.00 20.00     0.034 C 
HETATM    3  C3  UNL     1     -34.966  15.198  -6.943  1.00 20.00     0.168 C 
HETATM    4  C4  UNL     1     -35.263  13.872  -5.049  1.00 20.00     0.121 C 
HETATM    5  O9  UNL     1     -34.317  14.279  -6.053  1.00 20.00    -0.386 OA
ENDROOT
BRANCH   4   6
HETATM    6  C6  UNL     1     -34.586  13.827  -3.693  1.00 20.00     0.033 C 
BRANCH   6   7
HETATM    7  C7  UNL     1     -33.294  14.651  -3.688  1.00 20.00     0.022 C 
BRANCH   7   8
HETATM    8  C8  UNL     1     -33.454  16.025  -3.025  1.00 20.00     0.078 C 
HETATM    9  C5  UNL     1     -34.625  16.034  -2.051  1.00 20.00     0.026 C 
HETATM   10 CL10 UNL     1     -33.713  17.304  -4.250  1.00 20.00    -0.125 Cl
ENDBRANCH   7   8
ENDBRANCH   6   7
ENDBRANCH   4   6
TORSDOF 3
ENDMDL
MODEL 7
REMARK VINA RESULT:      -3.9     10.365     11.264
REMARK  3 active torsions:
REMARK  status: ('A' for Active; 'I' for Inactive)
REMARK    1  A    between atoms: C4_4  and  C6_6 
REMARK    2  A    between atoms: C6_6  and  C7_7 
REMARK    3  A    between atoms: C7_7  and  C8_8 
ROOT
HETATM    1  C1  UNL     1     -33.852  18.343   0.370  1.00 20.00     0.029 C 
HETATM    2  C2  UNL     1     -33.489  18.339  -1.094  1.00 20.00     0.034 C 
HETATM    3  C3  UNL     1     -35.024  17.385   0.404  1.00 20.00     0.168 C 
HETATM    4  C4  UNL     1     -33.716  16.882  -1.458  1.00 20.00     0.121 C 
HETATM    5  O9  UNL     1     -34.819  16.435  -0.652  1.00 20.00    -0.386 OA
ENDROOT
BRANCH   4   6
HETATM    6  C6  UNL     1     -34.032  16.667  -2.926  1.00 20.00     0.033 C 
BRANCH   6   7
HETATM    7  C7  UNL     1     -33.455  15.341  -3.431  1.00 20.00     0.022 C 
BRANCH   7   8
HETATM    8  C8  UNL     1     -34.489  14.209  -3.481  1.00 20.00     0.078 C 
HETATM    9  C5  UNL     1     -34.314  13.360  -4.735  1.00 20.00     0.026 C 
HETATM   10 CL10 UNL     1     -36.156  14.858  -3.452  1.00 20.00    -0.125 Cl
ENDBRANCH   7   8
ENDBRANCH   6   7
ENDBRANCH   4   6
TORSDOF 3
ENDMDL
MODEL 8
REMARK VINA RESULT:      -3.8     10.632     12.022
REMARK  3 active torsions:
REMARK  status: ('A' for Active; 'I' for Inactive)
REMARK    1  A    between atoms: C4_4  and  C6_6 
REMARK    2  A    between atoms: C6_6  and  C7_7 
REMARK    3  A    between atoms: C7_7  and  C8_8 
ROOT
HETATM    1  C1  UNL     1     -34.939  14.781  -7.129  1.00 20.00     0.029 C 
HETATM    2  C2  UNL     1     -35.271  14.030  -5.864  1.00 20.00     0.034 C 
HETATM    3  C3  UNL     1     -34.285  16.034  -6.587  1.00 20.00     0.168 C 
HETATM    4  C4  UNL     1     -34.060  14.341  -5.001  1.00 20.00     0.121 C 
HETATM    5  O9  UNL     1     -33.652  15.674  -5.351  1.00 20.00    -0.386 OA
ENDROOT
BRANCH   4   6
HETATM    6  C6  UNL     1     -34.342  14.263  -3.513  1.00 20.00     0.033 C 
BRANCH   6   7
HETATM    7  C7  UNL     1     -33.941  15.560  -2.802  1.00 20.00     0.022 C 
BRANCH   7   8
HETATM    8  C8  UNL     1     -35.114  16.253  -2.097  1.00 20.00     0.078 C 
HETATM    9  C5  UNL     1     -35.567  17.487  -2.868  1.00 20.00     0.026 C 
HETATM   10 CL10 UNL     1     -34.666  16.744  -0.435  1.00 20.00    -0.125 Cl
ENDBRANCH   7   8
ENDBRANCH   6   7
ENDBRANCH   4   6
TORSDOF 3
ENDMDL
MODEL 9
REMARK VINA RESULT:      -3.8     10.930     11.818
REMARK  3 active torsions:
REMARK  status: ('A' for Active; 'I' for Inactive)
REMARK    1  A    between atoms: C4_4  and  C6_6 
REMARK    2  A    between atoms: C6_6  and  C7_7 
REMARK    3  A    between atoms: C7_7  and  C8_8 
ROOT
HETATM    1  C1  UNL     1     -33.723  17.667  -0.591  1.00 20.00     0.029 C 
HETATM    2  C2  UNL     1     -34.621  16.551  -1.063  1.00 20.00     0.034 C 
HETATM    3  C3  UNL     1     -33.551  18.485  -1.853  1.00 20.00     0.168 C 
HETATM    4  C4  UNL     1     -35.544  17.289  -2.018  1.00 20.00     0.121 C 
HETATM    5  O9  UNL     1     -34.748  18.321  -2.625  1.00 20.00    -0.386 OA
ENDROOT
BRANCH   4   6
HETATM    6  C6  UNL     1     -36.139  16.399  -3.092  1.00 20.00     0.033 C 
BRANCH   6   7
HETATM    7  C7  UNL     1     -35.422  15.046  -3.155  1.00 20.00     0.022 C 
BRANCH   7   8
HETATM    8  C8  UNL     1     -34.560  14.874  -4.412  1.00 20.00     0.078 C 
HETATM    9  C5  UNL     1     -34.300  13.400  -4.702  1.00 20.00     0.026 C 
HETATM   10 CL10 UNL     1     -32.989  15.712  -4.235  1.00 20.00    -0.125 Cl
ENDBRANCH   7   8
ENDBRANCH   6   7
ENDBRANCH   4   6
TORSDOF 3
ENDMDL
