MODEL 1
REMARK VINA RESULT:      -5.0      0.000      0.000
REMARK  5 active torsions:
REMARK  status: ('A' for Active; 'I' for Inactive)
REMARK    1  A    between atoms: C1_1  and  C6_6 
REMARK    2  A    between atoms: C1_1  and  C9_9 
REMARK    3  A    between atoms: C6_6  and  C10_10 
REMARK    4  A    between atoms: C7_7  and  C8_8 
REMARK    5  A    between atoms: C8_8  and  C10_10 
ROOT
HETATM    1  C6  UNL     1     -33.797   6.948   4.013  1.00 20.00     0.082 C 
ENDROOT
BRANCH   1   2
HETATM    2  C1  UNL     1     -34.846   5.851   4.160  1.00 20.00     0.130 C 
HETATM    3  O11 UNL     1     -35.472   5.415   3.194  1.00 20.00    -0.298 OA
BRANCH   2   4
HETATM    4  C9  UNL     1     -35.038   5.281   5.566  1.00 20.00     0.047 C 
HETATM    5  C3  UNL     1     -34.687   3.795   5.611  1.00 20.00     0.017 C 
HETATM    6  C4  UNL     1     -34.197   6.064   6.568  1.00 20.00     0.017 C 
ENDBRANCH   2   4
ENDBRANCH   1   2
BRANCH   1   7
HETATM    7  C10 UNL     1     -32.792   6.688   2.877  1.00 20.00    -0.012 C 
HETATM    8  C5  UNL     1     -32.055   5.360   3.082  1.00 20.00     0.010 C 
BRANCH   7   9
HETATM    9  C8  UNL     1     -31.809   7.867   2.712  1.00 20.00     0.004 C 
BRANCH   9  10
HETATM   10  C7  UNL     1     -31.806   8.529   1.332  1.00 20.00    -0.004 C 
HETATM   11  C2  UNL     1     -32.536   9.864   1.361  1.00 20.00     0.005 C 
ENDBRANCH   9  10
ENDBRANCH   7   9
ENDBRANCH   1   7
TORSDOF 5
ENDMDL
MODEL 2
REMARK VINA RESULT:      -4.8      0.490      1.145
REMARK  5 active torsions:
REMARK  status: ('A' for Active; 'I' for Inactive)
REMARK    1  A    between atoms: C1_1  and  C6_6 
REMARK    2  A    between atoms: C1_1  and  C9_9 
REMARK    3  A    between atoms: C6_6  and  C10_10 
REMARK    4  A    between atoms: C7_7  and  C8_8 
REMARK    5  A    between atoms: C8_8  and  C10_10 
ROOT
HETATM    1  C6  UNL     1     -33.859   7.041   3.772  1.00 20.00     0.082 C 
ENDROOT
BRANCH   1   2
HETATM    2  C1  UNL     1     -34.550   5.787   4.298  1.00 20.00     0.130 C 
HETATM    3  O11 UNL     1     -35.335   5.138   3.606  1.00 20.00    -0.298 OA
BRANCH   2   4
HETATM    4  C9  UNL     1     -34.170   5.346   5.711  1.00 20.00     0.047 C 
HETATM    5  C3  UNL     1     -34.019   6.547   6.642  1.00 20.00     0.017 C 
HETATM    6  C4  UNL     1     -35.211   4.372   6.252  1.00 20.00     0.017 C 
ENDBRANCH   2   4
ENDBRANCH   1   2
BRANCH   1   7
HETATM    7  C10 UNL     1     -32.758   6.748   2.738  1.00 20.00    -0.012 C 
HETATM    8  C5  UNL     1     -32.006   5.458   3.080  1.00 20.00     0.010 C 
BRANCH   7   9
HETATM    9  C8  UNL     1     -31.796   7.946   2.583  1.00 20.00     0.004 C 
BRANCH   9  10
HETATM   10  C7  UNL     1     -31.759   8.581   1.191  1.00 20.00    -0.004 C 
HETATM   11  C2  UNL     1     -32.484   9.919   1.177  1.00 20.00     0.005 C 
ENDBRANCH   9  10
ENDBRANCH   7   9
ENDBRANCH   1   7
TORSDOF 5
ENDMDL
MODEL 3
REMARK VINA RESULT:      -4.6     11.048     12.133
REMARK  5 active torsions:
REMARK  status: ('A' for Active; 'I' for Inactive)
REMARK    1  A    between atoms: C1_1  and  C6_6 
REMARK    2  A    between atoms: C1_1  and  C9_9 
REMARK    3  A    between atoms: C6_6  and  C10_10 
REMARK    4  A    between atoms: C7_7  and  C8_8 
REMARK    5  A    between atoms: C8_8  and  C10_10 
ROOT
HETATM    1  C6  UNL     1     -34.995  14.722  -3.491  1.00 20.00     0.082 C 
ENDROOT
BRANCH   1   2
HETATM    2  C1  UNL     1     -35.134  13.816  -4.711  1.00 20.00     0.130 C 
HETATM    3  O11 UNL     1     -34.890  12.611  -4.656  1.00 20.00    -0.298 OA
BRANCH   2   4
HETATM    4  C9  UNL     1     -35.647  14.475  -5.991  1.00 20.00     0.047 C 
HETATM    5  C3  UNL     1     -36.524  15.685  -5.674  1.00 20.00     0.017 C 
HETATM    6  C4  UNL     1     -34.475  14.876  -6.880  1.00 20.00     0.017 C 
ENDBRANCH   2   4
ENDBRANCH   1   2
BRANCH   1   7
HETATM    7  C10 UNL     1     -33.725  15.590  -3.511  1.00 20.00    -0.012 C 
HETATM    8  C5  UNL     1     -32.462  14.722  -3.567  1.00 20.00     0.010 C 
BRANCH   7   9
HETATM    9  C8  UNL     1     -33.692  16.570  -2.319  1.00 20.00     0.004 C 
BRANCH   9  10
HETATM   10  C7  UNL     1     -34.772  16.347  -1.257  1.00 20.00    -0.004 C 
HETATM   11  C2  UNL     1     -34.602  17.308  -0.089  1.00 20.00     0.005 C 
ENDBRANCH   9  10
ENDBRANCH   7   9
ENDBRANCH   1   7
TORSDOF 5
ENDMDL
MODEL 4
REMARK VINA RESULT:      -4.5     11.196     12.558
REMARK  5 active torsions:
REMARK  status: ('A' for Active; 'I' for Inactive)
REMARK    1  A    between atoms: C1_1  and  C6_6 
REMARK    2  A    between atoms: C1_1  and  C9_9 
REMARK    3  A    between atoms: C6_6  and  C10_10 
REMARK    4  A    between atoms: C7_7  and  C8_8 
REMARK    5  A    between atoms: C8_8  and  C10_10 
ROOT
HETATM    1  C6  UNL     1     -35.589  14.794  -3.536  1.00 20.00     0.082 C 
ENDROOT
BRANCH   1   2
HETATM    2  C1  UNL     1     -35.299  13.901  -4.738  1.00 20.00     0.130 C 
HETATM    3  O11 UNL     1     -34.765  12.798  -4.615  1.00 20.00    -0.298 OA
BRANCH   2   4
HETATM    4  C9  UNL     1     -35.759  14.423  -6.099  1.00 20.00     0.047 C 
HETATM    5  C3  UNL     1     -36.606  15.685  -5.948  1.00 20.00     0.017 C 
HETATM    6  C4  UNL     1     -34.553  14.687  -6.994  1.00 20.00     0.017 C 
ENDBRANCH   2   4
ENDBRANCH   1   2
BRANCH   1   7
HETATM    7  C10 UNL     1     -34.321  15.317  -2.839  1.00 20.00    -0.012 C 
HETATM    8  C5  UNL     1     -34.673  16.186  -1.627  1.00 20.00     0.010 C 
BRANCH   7   9
HETATM    9  C8  UNL     1     -33.399  16.061  -3.828  1.00 20.00     0.004 C 
BRANCH   9  10
HETATM   10  C7  UNL     1     -33.748  17.532  -4.069  1.00 20.00    -0.004 C 
HETATM   11  C2  UNL     1     -33.570  17.906  -5.534  1.00 20.00     0.005 C 
ENDBRANCH   9  10
ENDBRANCH   7   9
ENDBRANCH   1   7
TORSDOF 5
ENDMDL
MODEL 5
REMARK VINA RESULT:      -4.4      1.732      5.072
REMARK  5 active torsions:
REMARK  status: ('A' for Active; 'I' for Inactive)
REMARK    1  A    between atoms: C1_1  and  C6_6 
REMARK    2  A    between atoms: C1_1  and  C9_9 
REMARK    3  A    between atoms: C6_6  and  C10_10 
REMARK    4  A    between atoms: C7_7  and  C8_8 
REMARK    5  A    between atoms: C8_8  and  C10_10 
ROOT
HETATM    1  C6  UNL     1     -32.385   6.042   2.958  1.00 20.00     0.082 C 
ENDROOT
BRANCH   1   2
HETATM    2  C1  UNL     1     -31.992   7.515   2.998  1.00 20.00     0.130 C 
HETATM    3  O11 UNL     1     -31.250   7.967   3.870  1.00 20.00    -0.298 OA
BRANCH   2   4
HETATM    4  C9  UNL     1     -32.522   8.390   1.862  1.00 20.00     0.047 C 
HETATM    5  C3  UNL     1     -32.767   9.821   2.335  1.00 20.00     0.017 C 
HETATM    6  C4  UNL     1     -31.550   8.369   0.688  1.00 20.00     0.017 C 
ENDBRANCH   2   4
ENDBRANCH   1   2
BRANCH   1   7
HETATM    7  C10 UNL     1     -33.627   5.715   3.805  1.00 20.00    -0.012 C 
HETATM    8  C5  UNL     1     -34.908   5.802   2.968  1.00 20.00     0.010 C 
BRANCH   7   9
HETATM    9  C8  UNL     1     -33.703   6.607   5.063  1.00 20.00     0.004 C 
BRANCH   9  10
HETATM   10  C7  UNL     1     -34.347   5.956   6.290  1.00 20.00    -0.004 C 
HETATM   11  C2  UNL     1     -34.560   4.464   6.072  1.00 20.00     0.005 C 
ENDBRANCH   9  10
ENDBRANCH   7   9
ENDBRANCH   1   7
TORSDOF 5
ENDMDL
MODEL 6
REMARK VINA RESULT:      -4.4      1.740      5.269
REMARK  5 active torsions:
REMARK  status: ('A' for Active; 'I' for Inactive)
REMARK    1  A    between atoms: C1_1  and  C6_6 
REMARK    2  A    between atoms: C1_1  and  C9_9 
REMARK    3  A    between atoms: C6_6  and  C10_10 
REMARK    4  A    between atoms: C7_7  and  C8_8 
REMARK    5  A    between atoms: C8_8  and  C10_10 
ROOT
HETATM    1  C6  UNL     1     -32.895   6.311   3.154  1.00 20.00     0.082 C 
ENDROOT
BRANCH   1   2
HETATM    2  C1  UNL     1     -32.075   7.575   2.916  1.00 20.00     0.130 C 
HETATM    3  O11 UNL     1     -31.089   7.849   3.600  1.00 20.00    -0.298 OA
BRANCH   2   4
HETATM    4  C9  UNL     1     -32.510   8.455   1.744  1.00 20.00     0.047 C 
HETATM    5  C3  UNL     1     -32.748   9.895   2.193  1.00 20.00     0.017 C 
HETATM    6  C4  UNL     1     -31.466   8.402   0.634  1.00 20.00     0.017 C 
ENDBRANCH   2   4
ENDBRANCH   1   2
BRANCH   1   7
HETATM    7  C10 UNL     1     -34.106   6.529   4.078  1.00 20.00    -0.012 C 
HETATM    8  C5  UNL     1     -33.668   6.685   5.538  1.00 20.00     0.010 C 
BRANCH   7   9
HETATM    9  C8  UNL     1     -35.152   5.407   3.911  1.00 20.00     0.004 C 
BRANCH   9  10
HETATM   10  C7  UNL     1     -34.838   4.104   4.651  1.00 20.00    -0.004 C 
HETATM   11  C2  UNL     1     -35.234   4.195   6.118  1.00 20.00     0.005 C 
ENDBRANCH   9  10
ENDBRANCH   7   9
ENDBRANCH   1   7
TORSDOF 5
ENDMDL
MODEL 7
REMARK VINA RESULT:      -4.4      1.514      1.881
REMARK  5 active torsions:
REMARK  status: ('A' for Active; 'I' for Inactive)
REMARK    1  A    between atoms: C1_1  and  C6_6 
REMARK    2  A    between atoms: C1_1  and  C9_9 
REMARK    3  A    between atoms: C6_6  and  C10_10 
REMARK    4  A    between atoms: C7_7  and  C8_8 
REMARK    5  A    between atoms: C8_8  and  C10_10 
ROOT
HETATM    1  C6  UNL     1     -33.657   7.199   4.104  1.00 20.00     0.082 C 
ENDROOT
BRANCH   1   2
HETATM    2  C1  UNL     1     -33.879   6.330   5.338  1.00 20.00     0.130 C 
HETATM    3  O11 UNL     1     -33.626   6.734   6.473  1.00 20.00    -0.298 OA
BRANCH   2   4
HETATM    4  C9  UNL     1     -34.489   4.949   5.094  1.00 20.00     0.047 C 
HETATM    5  C3  UNL     1     -35.090   4.378   6.377  1.00 20.00     0.017 C 
HETATM    6  C4  UNL     1     -35.541   5.029   3.994  1.00 20.00     0.017 C 
ENDBRANCH   2   4
ENDBRANCH   1   2
BRANCH   1   7
HETATM    7  C10 UNL     1     -32.312   6.938   3.404  1.00 20.00    -0.012 C 
HETATM    8  C5  UNL     1     -31.168   7.679   4.105  1.00 20.00     0.010 C 
BRANCH   7   9
HETATM    9  C8  UNL     1     -32.381   7.285   1.901  1.00 20.00     0.004 C 
BRANCH   9  10
HETATM   10  C7  UNL     1     -31.631   8.553   1.487  1.00 20.00    -0.004 C 
HETATM   11  C2  UNL     1     -32.569   9.750   1.419  1.00 20.00     0.005 C 
ENDBRANCH   9  10
ENDBRANCH   7   9
ENDBRANCH   1   7
TORSDOF 5
ENDMDL
MODEL 8
REMARK VINA RESULT:      -4.4     11.205     12.467
REMARK  5 active torsions:
REMARK  status: ('A' for Active; 'I' for Inactive)
REMARK    1  A    between atoms: C1_1  and  C6_6 
REMARK    2  A    between atoms: C1_1  and  C9_9 
REMARK    3  A    between atoms: C6_6  and  C10_10 
REMARK    4  A    between atoms: C7_7  and  C8_8 
REMARK    5  A    between atoms: C8_8  and  C10_10 
ROOT
HETATM    1  C6  UNL     1     -33.735  14.823  -4.292  1.00 20.00     0.082 C 
ENDROOT
BRANCH   1   2
HETATM    2  C1  UNL     1     -34.705  13.835  -4.932  1.00 20.00     0.130 C 
HETATM    3  O11 UNL     1     -35.051  12.801  -4.361  1.00 20.00    -0.298 OA
BRANCH   2   4
HETATM    4  C9  UNL     1     -35.269  14.227  -6.297  1.00 20.00     0.047 C 
HETATM    5  C3  UNL     1     -36.593  14.976  -6.153  1.00 20.00     0.017 C 
HETATM    6  C4  UNL     1     -34.254  15.070  -7.061  1.00 20.00     0.017 C 
ENDBRANCH   2   4
ENDBRANCH   1   2
BRANCH   1   7
HETATM    7  C10 UNL     1     -34.431  16.021  -3.622  1.00 20.00    -0.012 C 
HETATM    8  C5  UNL     1     -33.736  17.338  -3.982  1.00 20.00     0.010 C 
BRANCH   7   9
HETATM    9  C8  UNL     1     -34.538  15.829  -2.094  1.00 20.00     0.004 C 
BRANCH   9  10
HETATM   10  C7  UNL     1     -33.981  16.978  -1.249  1.00 20.00    -0.004 C 
HETATM   11  C2  UNL     1     -34.822  17.200  -0.000  1.00 20.00     0.005 C 
ENDBRANCH   9  10
ENDBRANCH   7   9
ENDBRANCH   1   7
TORSDOF 5
ENDMDL
MODEL 9
REMARK VINA RESULT:      -4.3     10.676     12.436
REMARK  5 active torsions:
REMARK  status: ('A' for Active; 'I' for Inactive)
REMARK    1  A    between atoms: C1_1  and  C6_6 
REMARK    2  A    between atoms: C1_1  and  C9_9 
REMARK    3  A    between atoms: C6_6  and  C10_10 
REMARK    4  A    between atoms: C7_7  and  C8_8 
REMARK    5  A    between atoms: C8_8  and  C10_10 
ROOT
HETATM    1  C6  UNL     1     -36.232  16.231  -3.091  1.00 20.00     0.082 C 
ENDROOT
BRANCH   1   2
HETATM    2  C1  UNL     1     -36.788  15.216  -4.086  1.00 20.00     0.130 C 
HETATM    3  O11 UNL     1     -37.239  14.129  -3.723  1.00 20.00    -0.298 OA
BRANCH   2   4
HETATM    4  C9  UNL     1     -36.809  15.645  -5.552  1.00 20.00     0.047 C 
HETATM    5  C3  UNL     1     -36.505  17.135  -5.696  1.00 20.00     0.017 C 
HETATM    6  C4  UNL     1     -35.815  14.813  -6.355  1.00 20.00     0.017 C 
ENDBRANCH   2   4
ENDBRANCH   1   2
BRANCH   1   7
HETATM    7  C10 UNL     1     -34.880  15.819  -2.484  1.00 20.00    -0.012 C 
HETATM    8  C5  UNL     1     -34.662  16.477  -1.118  1.00 20.00     0.010 C 
BRANCH   7   9
HETATM    9  C8  UNL     1     -33.714  16.114  -3.453  1.00 20.00     0.004 C 
BRANCH   9  10
HETATM   10  C7  UNL     1     -32.734  14.957  -3.668  1.00 20.00    -0.004 C 
HETATM   11  C2  UNL     1     -33.468  13.629  -3.782  1.00 20.00     0.005 C 
ENDBRANCH   9  10
ENDBRANCH   7   9
ENDBRANCH   1   7
TORSDOF 5
ENDMDL
