MODEL 1
REMARK VINA RESULT:      -4.5      0.000      0.000
REMARK  5 active torsions:
REMARK  status: ('A' for Active; 'I' for Inactive)
REMARK    1  A    between atoms: C1_1  and  C7_7 
REMARK    2  A    between atoms: C1_1  and  C11_11 
REMARK    3  A    between atoms: C7_7  and  C10_10 
REMARK    4  A    between atoms: C8_8  and  C9_9 
REMARK    5  A    between atoms: C9_9  and  C10_10 
ROOT
HETATM    1  C1  UNL     1     -33.815  16.113  -4.229  1.00 20.00     0.134 C 
HETATM    2  O12 UNL     1     -32.790  16.439  -4.830  1.00 20.00    -0.297 OA
ENDROOT
BRANCH   1   3
HETATM    3  C7  UNL     1     -34.482  17.071  -3.244  1.00 20.00     0.083 C 
BRANCH   3   4
HETATM    4  C10 UNL     1     -33.778  17.139  -1.875  1.00 20.00    -0.012 C 
HETATM    5  C3  UNL     1     -34.688  16.574  -0.777  1.00 20.00     0.010 C 
BRANCH   4   6
HETATM    6  C9  UNL     1     -33.370  18.599  -1.585  1.00 20.00     0.004 C 
BRANCH   6   7
HETATM    7  C8  UNL     1     -33.286  18.929  -0.093  1.00 20.00    -0.004 C 
HETATM    8  C2  UNL     1     -31.844  18.963   0.388  1.00 20.00     0.005 C 
ENDBRANCH   6   7
ENDBRANCH   4   6
ENDBRANCH   3   4
ENDBRANCH   1   3
BRANCH   1   9
HETATM    9  C11 UNL     1     -34.457  14.724  -4.434  1.00 20.00     0.009 C 
HETATM   10  C4  UNL     1     -35.828  14.656  -3.750  1.00 20.00     0.022 C 
HETATM   11  C5  UNL     1     -34.593  14.457  -5.938  1.00 20.00     0.022 C 
HETATM   12  C6  UNL     1     -33.551  13.644  -3.817  1.00 20.00     0.022 C 
ENDBRANCH   1   9
TORSDOF 5
ENDMDL
MODEL 2
REMARK VINA RESULT:      -4.4      2.353      3.843
REMARK  5 active torsions:
REMARK  status: ('A' for Active; 'I' for Inactive)
REMARK    1  A    between atoms: C1_1  and  C7_7 
REMARK    2  A    between atoms: C1_1  and  C11_11 
REMARK    3  A    between atoms: C7_7  and  C10_10 
REMARK    4  A    between atoms: C8_8  and  C9_9 
REMARK    5  A    between atoms: C9_9  and  C10_10 
ROOT
HETATM    1  C1  UNL     1     -36.692  15.168  -4.122  1.00 20.00     0.134 C 
HETATM    2  O12 UNL     1     -37.070  14.051  -3.763  1.00 20.00    -0.297 OA
ENDROOT
BRANCH   1   3
HETATM    3  C7  UNL     1     -36.166  16.179  -3.106  1.00 20.00     0.083 C 
BRANCH   3   4
HETATM    4  C10 UNL     1     -34.820  15.774  -2.472  1.00 20.00    -0.012 C 
HETATM    5  C3  UNL     1     -34.637  16.468  -1.117  1.00 20.00     0.010 C 
BRANCH   4   6
HETATM    6  C9  UNL     1     -33.676  16.117  -3.449  1.00 20.00     0.004 C 
BRANCH   6   7
HETATM    7  C8  UNL     1     -32.700  14.961  -3.682  1.00 20.00    -0.004 C 
HETATM    8  C2  UNL     1     -33.426  13.626  -3.747  1.00 20.00     0.005 C 
ENDBRANCH   6   7
ENDBRANCH   4   6
ENDBRANCH   3   4
ENDBRANCH   1   3
BRANCH   1   9
HETATM    9  C11 UNL     1     -36.745  15.594  -5.605  1.00 20.00     0.009 C 
HETATM   10  C4  UNL     1     -36.394  17.080  -5.754  1.00 20.00     0.022 C 
HETATM   11  C5  UNL     1     -35.765  14.728  -6.407  1.00 20.00     0.022 C 
HETATM   12  C6  UNL     1     -38.166  15.372  -6.152  1.00 20.00     0.022 C 
ENDBRANCH   1   9
TORSDOF 5
ENDMDL
MODEL 3
REMARK VINA RESULT:      -4.4      1.225      2.219
REMARK  5 active torsions:
REMARK  status: ('A' for Active; 'I' for Inactive)
REMARK    1  A    between atoms: C1_1  and  C7_7 
REMARK    2  A    between atoms: C1_1  and  C11_11 
REMARK    3  A    between atoms: C7_7  and  C10_10 
REMARK    4  A    between atoms: C8_8  and  C9_9 
REMARK    5  A    between atoms: C9_9  and  C10_10 
ROOT
HETATM    1  C1  UNL     1     -33.649  15.864  -4.406  1.00 20.00     0.134 C 
HETATM    2  O12 UNL     1     -32.917  16.555  -5.118  1.00 20.00    -0.297 OA
ENDROOT
BRANCH   1   3
HETATM    3  C7  UNL     1     -33.518  15.898  -2.885  1.00 20.00     0.083 C 
BRANCH   3   4
HETATM    4  C10 UNL     1     -34.358  17.006  -2.218  1.00 20.00    -0.012 C 
HETATM    5  C3  UNL     1     -33.617  18.347  -2.276  1.00 20.00     0.010 C 
BRANCH   4   6
HETATM    6  C9  UNL     1     -34.681  16.593  -0.767  1.00 20.00     0.004 C 
BRANCH   6   7
HETATM    7  C8  UNL     1     -34.432  17.702   0.258  1.00 20.00    -0.004 C 
HETATM    8  C2  UNL     1     -35.359  17.569   1.457  1.00 20.00     0.005 C 
ENDBRANCH   6   7
ENDBRANCH   4   6
ENDBRANCH   3   4
ENDBRANCH   1   3
BRANCH   1   9
HETATM    9  C11 UNL     1     -34.715  14.931  -5.020  1.00 20.00     0.009 C 
HETATM   10  C4  UNL     1     -34.474  14.750  -6.524  1.00 20.00     0.022 C 
HETATM   11  C5  UNL     1     -34.663  13.576  -4.301  1.00 20.00     0.022 C 
HETATM   12  C6  UNL     1     -36.112  15.546  -4.820  1.00 20.00     0.022 C 
ENDBRANCH   1   9
TORSDOF 5
ENDMDL
MODEL 4
REMARK VINA RESULT:      -4.3      1.523      2.090
REMARK  5 active torsions:
REMARK  status: ('A' for Active; 'I' for Inactive)
REMARK    1  A    between atoms: C1_1  and  C7_7 
REMARK    2  A    between atoms: C1_1  and  C11_11 
REMARK    3  A    between atoms: C7_7  and  C10_10 
REMARK    4  A    between atoms: C8_8  and  C9_9 
REMARK    5  A    between atoms: C9_9  and  C10_10 
ROOT
HETATM    1  C1  UNL     1     -35.182  15.484  -3.132  1.00 20.00     0.134 C 
HETATM    2  O12 UNL     1     -36.365  15.750  -3.354  1.00 20.00    -0.297 OA
ENDROOT
BRANCH   1   3
HETATM    3  C7  UNL     1     -34.495  15.980  -1.862  1.00 20.00     0.083 C 
BRANCH   3   4
HETATM    4  C10 UNL     1     -34.491  17.516  -1.722  1.00 20.00    -0.012 C 
HETATM    5  C3  UNL     1     -33.784  18.160  -2.921  1.00 20.00     0.010 C 
BRANCH   4   6
HETATM    6  C9  UNL     1     -33.820  17.901  -0.387  1.00 20.00     0.004 C 
BRANCH   6   7
HETATM    7  C8  UNL     1     -32.789  19.026  -0.520  1.00 20.00    -0.004 C 
HETATM    8  C2  UNL     1     -31.764  18.974   0.603  1.00 20.00     0.005 C 
ENDBRANCH   6   7
ENDBRANCH   4   6
ENDBRANCH   3   4
ENDBRANCH   1   3
BRANCH   1   9
HETATM    9  C11 UNL     1     -34.346  14.653  -4.129  1.00 20.00     0.009 C 
HETATM   10  C4  UNL     1     -32.910  14.482  -3.620  1.00 20.00     0.022 C 
HETATM   11  C5  UNL     1     -35.014  13.285  -4.320  1.00 20.00     0.022 C 
HETATM   12  C6  UNL     1     -34.299  15.377  -5.487  1.00 20.00     0.022 C 
ENDBRANCH   1   9
TORSDOF 5
ENDMDL
MODEL 5
REMARK VINA RESULT:      -4.3      1.533      2.046
REMARK  5 active torsions:
REMARK  status: ('A' for Active; 'I' for Inactive)
REMARK    1  A    between atoms: C1_1  and  C7_7 
REMARK    2  A    between atoms: C1_1  and  C11_11 
REMARK    3  A    between atoms: C7_7  and  C10_10 
REMARK    4  A    between atoms: C8_8  and  C9_9 
REMARK    5  A    between atoms: C9_9  and  C10_10 
ROOT
HETATM    1  C1  UNL     1     -35.148  15.454  -3.137  1.00 20.00     0.134 C 
HETATM    2  O12 UNL     1     -36.350  15.641  -3.342  1.00 20.00    -0.297 OA
ENDROOT
BRANCH   1   3
HETATM    3  C7  UNL     1     -34.485  15.962  -1.859  1.00 20.00     0.083 C 
BRANCH   3   4
HETATM    4  C10 UNL     1     -34.533  17.495  -1.706  1.00 20.00    -0.012 C 
HETATM    5  C3  UNL     1     -33.860  18.174  -2.905  1.00 20.00     0.010 C 
BRANCH   4   6
HETATM    6  C9  UNL     1     -33.863  17.893  -0.374  1.00 20.00     0.004 C 
BRANCH   6   7
HETATM    7  C8  UNL     1     -32.762  18.945  -0.530  1.00 20.00    -0.004 C 
HETATM    8  C2  UNL     1     -31.828  18.952   0.671  1.00 20.00     0.005 C 
ENDBRANCH   6   7
ENDBRANCH   4   6
ENDBRANCH   3   4
ENDBRANCH   1   3
BRANCH   1   9
HETATM    9  C11 UNL     1     -34.266  14.713  -4.165  1.00 20.00     0.009 C 
HETATM   10  C4  UNL     1     -34.261  15.455  -5.508  1.00 20.00     0.022 C 
HETATM   11  C5  UNL     1     -32.841  14.601  -3.609  1.00 20.00     0.022 C 
HETATM   12  C6  UNL     1     -34.823  13.296  -4.393  1.00 20.00     0.022 C 
ENDBRANCH   1   9
TORSDOF 5
ENDMDL
MODEL 6
REMARK VINA RESULT:      -4.2      1.627      2.456
REMARK  5 active torsions:
REMARK  status: ('A' for Active; 'I' for Inactive)
REMARK    1  A    between atoms: C1_1  and  C7_7 
REMARK    2  A    between atoms: C1_1  and  C11_11 
REMARK    3  A    between atoms: C7_7  and  C10_10 
REMARK    4  A    between atoms: C8_8  and  C9_9 
REMARK    5  A    between atoms: C9_9  and  C10_10 
ROOT
HETATM    1  C1  UNL     1     -33.939  15.169  -3.612  1.00 20.00     0.134 C 
HETATM    2  O12 UNL     1     -32.708  15.213  -3.663  1.00 20.00    -0.297 OA
ENDROOT
BRANCH   1   3
HETATM    3  C7  UNL     1     -34.684  15.571  -2.340  1.00 20.00     0.083 C 
BRANCH   3   4
HETATM    4  C10 UNL     1     -34.214  16.914  -1.748  1.00 20.00    -0.012 C 
HETATM    5  C3  UNL     1     -34.674  17.046  -0.291  1.00 20.00     0.010 C 
BRANCH   4   6
HETATM    6  C9  UNL     1     -34.745  18.068  -2.622  1.00 20.00     0.004 C 
BRANCH   6   7
HETATM    7  C8  UNL     1     -33.641  18.924  -3.248  1.00 20.00    -0.004 C 
HETATM    8  C2  UNL     1     -33.586  18.742  -4.757  1.00 20.00     0.005 C 
ENDBRANCH   6   7
ENDBRANCH   4   6
ENDBRANCH   3   4
ENDBRANCH   1   3
BRANCH   1   9
HETATM    9  C11 UNL     1     -34.775  14.697  -4.821  1.00 20.00     0.009 C 
HETATM   10  C4  UNL     1     -34.268  15.346  -6.115  1.00 20.00     0.022 C 
HETATM   11  C5  UNL     1     -34.690  13.169  -4.919  1.00 20.00     0.022 C 
HETATM   12  C6  UNL     1     -36.246  15.101  -4.617  1.00 20.00     0.022 C 
ENDBRANCH   1   9
TORSDOF 5
ENDMDL
MODEL 7
REMARK VINA RESULT:      -4.2      1.623      2.165
REMARK  5 active torsions:
REMARK  status: ('A' for Active; 'I' for Inactive)
REMARK    1  A    between atoms: C1_1  and  C7_7 
REMARK    2  A    between atoms: C1_1  and  C11_11 
REMARK    3  A    between atoms: C7_7  and  C10_10 
REMARK    4  A    between atoms: C8_8  and  C9_9 
REMARK    5  A    between atoms: C9_9  and  C10_10 
ROOT
HETATM    1  C1  UNL     1     -33.910  15.227  -3.724  1.00 20.00     0.134 C 
HETATM    2  O12 UNL     1     -32.687  15.333  -3.838  1.00 20.00    -0.297 OA
ENDROOT
BRANCH   1   3
HETATM    3  C7  UNL     1     -34.603  15.546  -2.402  1.00 20.00     0.083 C 
BRANCH   3   4
HETATM    4  C10 UNL     1     -34.186  16.901  -1.796  1.00 20.00    -0.012 C 
HETATM    5  C3  UNL     1     -34.668  17.010  -0.345  1.00 20.00     0.010 C 
BRANCH   4   6
HETATM    6  C9  UNL     1     -34.744  18.042  -2.672  1.00 20.00     0.004 C 
BRANCH   6   7
HETATM    7  C8  UNL     1     -33.661  18.936  -3.281  1.00 20.00    -0.004 C 
HETATM    8  C2  UNL     1     -33.593  18.775  -4.792  1.00 20.00     0.005 C 
ENDBRANCH   6   7
ENDBRANCH   4   6
ENDBRANCH   3   4
ENDBRANCH   1   3
BRANCH   1   9
HETATM    9  C11 UNL     1     -34.786  14.758  -4.906  1.00 20.00     0.009 C 
HETATM   10  C4  UNL     1     -36.245  15.187  -4.700  1.00 20.00     0.022 C 
HETATM   11  C5  UNL     1     -34.230  15.354  -6.205  1.00 20.00     0.022 C 
HETATM   12  C6  UNL     1     -34.738  13.223  -5.003  1.00 20.00     0.022 C 
ENDBRANCH   1   9
TORSDOF 5
ENDMDL
MODEL 8
REMARK VINA RESULT:      -4.2      1.581      2.554
REMARK  5 active torsions:
REMARK  status: ('A' for Active; 'I' for Inactive)
REMARK    1  A    between atoms: C1_1  and  C7_7 
REMARK    2  A    between atoms: C1_1  and  C11_11 
REMARK    3  A    between atoms: C7_7  and  C10_10 
REMARK    4  A    between atoms: C8_8  and  C9_9 
REMARK    5  A    between atoms: C9_9  and  C10_10 
ROOT
HETATM    1  C1  UNL     1     -33.914  15.112  -3.542  1.00 20.00     0.134 C 
HETATM    2  O12 UNL     1     -32.687  14.992  -3.533  1.00 20.00    -0.297 OA
ENDROOT
BRANCH   1   3
HETATM    3  C7  UNL     1     -34.654  15.668  -2.328  1.00 20.00     0.083 C 
BRANCH   3   4
HETATM    4  C10 UNL     1     -33.916  16.829  -1.633  1.00 20.00    -0.012 C 
HETATM    5  C3  UNL     1     -34.577  17.156  -0.289  1.00 20.00     0.010 C 
BRANCH   4   6
HETATM    6  C9  UNL     1     -33.896  18.053  -2.573  1.00 20.00     0.004 C 
BRANCH   6   7
HETATM    7  C8  UNL     1     -35.290  18.537  -2.982  1.00 20.00    -0.004 C 
HETATM    8  C2  UNL     1     -35.391  18.731  -4.487  1.00 20.00     0.005 C 
ENDBRANCH   6   7
ENDBRANCH   4   6
ENDBRANCH   3   4
ENDBRANCH   1   3
BRANCH   1   9
HETATM    9  C11 UNL     1     -34.751  14.696  -4.771  1.00 20.00     0.009 C 
HETATM   10  C4  UNL     1     -34.628  13.187  -5.023  1.00 20.00     0.022 C 
HETATM   11  C5  UNL     1     -36.215  15.082  -4.530  1.00 20.00     0.022 C 
HETATM   12  C6  UNL     1     -34.238  15.441  -6.017  1.00 20.00     0.022 C 
ENDBRANCH   1   9
TORSDOF 5
ENDMDL
MODEL 9
REMARK VINA RESULT:      -4.2      2.323      4.089
REMARK  5 active torsions:
REMARK  status: ('A' for Active; 'I' for Inactive)
REMARK    1  A    between atoms: C1_1  and  C7_7 
REMARK    2  A    between atoms: C1_1  and  C11_11 
REMARK    3  A    between atoms: C7_7  and  C10_10 
REMARK    4  A    between atoms: C8_8  and  C9_9 
REMARK    5  A    between atoms: C9_9  and  C10_10 
ROOT
HETATM    1  C1  UNL     1     -35.723  16.609  -5.178  1.00 20.00     0.134 C 
HETATM    2  O12 UNL     1     -36.795  16.007  -5.274  1.00 20.00    -0.297 OA
ENDROOT
BRANCH   1   3
HETATM    3  C7  UNL     1     -35.185  17.036  -3.814  1.00 20.00     0.083 C 
BRANCH   3   4
HETATM    4  C10 UNL     1     -34.734  15.855  -2.932  1.00 20.00    -0.012 C 
HETATM    5  C3  UNL     1     -34.628  16.293  -1.466  1.00 20.00     0.010 C 
BRANCH   4   6
HETATM    6  C9  UNL     1     -33.393  15.308  -3.464  1.00 20.00     0.004 C 
BRANCH   6   7
HETATM    7  C8  UNL     1     -33.400  13.796  -3.707  1.00 20.00    -0.004 C 
HETATM    8  C2  UNL     1     -34.774  13.310  -4.144  1.00 20.00     0.005 C 
ENDBRANCH   6   7
ENDBRANCH   4   6
ENDBRANCH   3   4
ENDBRANCH   1   3
BRANCH   1   9
HETATM    9  C11 UNL     1     -34.891  16.967  -6.428  1.00 20.00     0.009 C 
HETATM   10  C4  UNL     1     -35.781  17.589  -7.512  1.00 20.00     0.022 C 
HETATM   11  C5  UNL     1     -33.778  17.942  -6.023  1.00 20.00     0.022 C 
HETATM   12  C6  UNL     1     -34.248  15.690  -6.999  1.00 20.00     0.022 C 
ENDBRANCH   1   9
TORSDOF 5
ENDMDL
