MODEL 1
REMARK VINA RESULT:      -4.5      0.000      0.000
REMARK  6 active torsions:
REMARK  status: ('A' for Active; 'I' for Inactive)
REMARK    1  A    between atoms: C1_1  and  C6_6 
REMARK    2  A    between atoms: C1_1  and  C7_7 
REMARK    3  A    between atoms: C6_6  and  C10_10 
REMARK    4  A    between atoms: C7_7  and  C11_11 
REMARK    5  A    between atoms: C8_8  and  C9_9 
REMARK    6  A    between atoms: C9_9  and  C11_11 
ROOT
HETATM    1  C1  UNL     1     -34.940  13.756  -4.432  1.00 20.00     0.127 C 
HETATM    2  O12 UNL     1     -34.876  12.534  -4.568  1.00 20.00    -0.298 OA
ENDROOT
BRANCH   1   3
HETATM    3  C6  UNL     1     -35.924  14.576  -5.250  1.00 20.00     0.082 C 
BRANCH   3   4
HETATM    4  C10 UNL     1     -35.621  14.544  -6.753  1.00 20.00    -0.016 C 
HETATM    5  C3  UNL     1     -34.289  15.227  -7.072  1.00 20.00     0.010 C 
HETATM    6  C4  UNL     1     -36.752  15.222  -7.527  1.00 20.00     0.010 C 
ENDBRANCH   3   4
ENDBRANCH   1   3
BRANCH   1   7
HETATM    7  C7  UNL     1     -34.085  14.508  -3.422  1.00 20.00     0.082 C 
BRANCH   7   8
HETATM    8  C11 UNL     1     -34.598  15.929  -3.129  1.00 20.00    -0.012 C 
HETATM    9  C5  UNL     1     -33.642  16.975  -3.718  1.00 20.00     0.010 C 
BRANCH   8  10
HETATM   10  C9  UNL     1     -34.750  16.187  -1.614  1.00 20.00     0.004 C 
BRANCH  10  11
HETATM   11  C8  UNL     1     -33.833  17.294  -1.086  1.00 20.00    -0.004 C 
HETATM   12  C2  UNL     1     -34.314  17.814   0.261  1.00 20.00     0.005 C 
ENDBRANCH  10  11
ENDBRANCH   8  10
ENDBRANCH   7   8
ENDBRANCH   1   7
TORSDOF 6
ENDMDL
MODEL 2
REMARK VINA RESULT:      -4.5      1.424      2.675
REMARK  6 active torsions:
REMARK  status: ('A' for Active; 'I' for Inactive)
REMARK    1  A    between atoms: C1_1  and  C6_6 
REMARK    2  A    between atoms: C1_1  and  C7_7 
REMARK    3  A    between atoms: C6_6  and  C10_10 
REMARK    4  A    between atoms: C7_7  and  C11_11 
REMARK    5  A    between atoms: C8_8  and  C9_9 
REMARK    6  A    between atoms: C9_9  and  C11_11 
ROOT
HETATM    1  C1  UNL     1     -36.627  15.179  -4.206  1.00 20.00     0.127 C 
HETATM    2  O12 UNL     1     -37.035  14.055  -3.911  1.00 20.00    -0.298 OA
ENDROOT
BRANCH   1   3
HETATM    3  C6  UNL     1     -36.631  15.650  -5.650  1.00 20.00     0.082 C 
BRANCH   3   4
HETATM    4  C10 UNL     1     -35.376  15.223  -6.420  1.00 20.00    -0.016 C 
HETATM    5  C3  UNL     1     -34.543  16.432  -6.850  1.00 20.00     0.010 C 
HETATM    6  C4  UNL     1     -35.773  14.402  -7.648  1.00 20.00     0.010 C 
ENDBRANCH   3   4
ENDBRANCH   1   3
BRANCH   1   7
HETATM    7  C7  UNL     1     -36.139  16.169  -3.157  1.00 20.00     0.082 C 
BRANCH   7   8
HETATM    8  C11 UNL     1     -34.814  15.751  -2.495  1.00 20.00    -0.012 C 
HETATM    9  C5  UNL     1     -34.661  16.434  -1.129  1.00 20.00     0.010 C 
BRANCH   8  10
HETATM   10  C9  UNL     1     -33.594  16.106  -3.372  1.00 20.00     0.004 C 
BRANCH  10  11
HETATM   11  C8  UNL     1     -32.637  14.932  -3.593  1.00 20.00    -0.004 C 
HETATM   12  C2  UNL     1     -33.394  13.624  -3.764  1.00 20.00     0.005 C 
ENDBRANCH  10  11
ENDBRANCH   8  10
ENDBRANCH   7   8
ENDBRANCH   1   7
TORSDOF 6
ENDMDL
MODEL 3
REMARK VINA RESULT:      -4.5     10.668     12.341
REMARK  6 active torsions:
REMARK  status: ('A' for Active; 'I' for Inactive)
REMARK    1  A    between atoms: C1_1  and  C6_6 
REMARK    2  A    between atoms: C1_1  and  C7_7 
REMARK    3  A    between atoms: C6_6  and  C10_10 
REMARK    4  A    between atoms: C7_7  and  C11_11 
REMARK    5  A    between atoms: C8_8  and  C9_9 
REMARK    6  A    between atoms: C9_9  and  C11_11 
ROOT
HETATM    1  C1  UNL     1     -33.644   5.732   3.072  1.00 20.00     0.127 C 
HETATM    2  O12 UNL     1     -34.142   5.289   2.036  1.00 20.00    -0.298 OA
ENDROOT
BRANCH   1   3
HETATM    3  C6  UNL     1     -34.526   6.185   4.223  1.00 20.00     0.082 C 
BRANCH   3   4
HETATM    4  C10 UNL     1     -34.100   5.590   5.570  1.00 20.00    -0.016 C 
HETATM    5  C3  UNL     1     -35.069   4.502   6.036  1.00 20.00     0.010 C 
HETATM    6  C4  UNL     1     -34.014   6.695   6.624  1.00 20.00     0.010 C 
ENDBRANCH   3   4
ENDBRANCH   1   3
BRANCH   1   7
HETATM    7  C7  UNL     1     -32.138   5.812   3.282  1.00 20.00     0.082 C 
BRANCH   7   8
HETATM    8  C11 UNL     1     -31.566   7.222   3.052  1.00 20.00    -0.012 C 
HETATM    9  C5  UNL     1     -31.328   7.928   4.393  1.00 20.00     0.010 C 
BRANCH   8  10
HETATM   10  C9  UNL     1     -32.503   8.091   2.187  1.00 20.00     0.004 C 
BRANCH  10  11
HETATM   11  C8  UNL     1     -31.798   8.771   1.011  1.00 20.00    -0.004 C 
HETATM   12  C2  UNL     1     -32.785   9.145  -0.086  1.00 20.00     0.005 C 
ENDBRANCH  10  11
ENDBRANCH   8  10
ENDBRANCH   7   8
ENDBRANCH   1   7
TORSDOF 6
ENDMDL
MODEL 4
REMARK VINA RESULT:      -4.4     10.678     11.931
REMARK  6 active torsions:
REMARK  status: ('A' for Active; 'I' for Inactive)
REMARK    1  A    between atoms: C1_1  and  C6_6 
REMARK    2  A    between atoms: C1_1  and  C7_7 
REMARK    3  A    between atoms: C6_6  and  C10_10 
REMARK    4  A    between atoms: C7_7  and  C11_11 
REMARK    5  A    between atoms: C8_8  and  C9_9 
REMARK    6  A    between atoms: C9_9  and  C11_11 
ROOT
HETATM    1  C1  UNL     1     -32.439   6.630   3.157  1.00 20.00     0.127 C 
HETATM    2  O12 UNL     1     -31.868   5.552   2.997  1.00 20.00    -0.298 OA
ENDROOT
BRANCH   1   3
HETATM    3  C6  UNL     1     -31.742   7.935   2.810  1.00 20.00     0.082 C 
BRANCH   3   4
HETATM    4  C10 UNL     1     -32.348   8.626   1.582  1.00 20.00    -0.016 C 
HETATM    5  C3  UNL     1     -31.399   8.576   0.384  1.00 20.00     0.010 C 
HETATM    6  C4  UNL     1     -32.687  10.079   1.917  1.00 20.00     0.010 C 
ENDBRANCH   3   4
ENDBRANCH   1   3
BRANCH   1   7
HETATM    7  C7  UNL     1     -33.872   6.726   3.662  1.00 20.00     0.082 C 
BRANCH   7   8
HETATM    8  C11 UNL     1     -34.501   5.356   3.970  1.00 20.00    -0.012 C 
HETATM    9  C5  UNL     1     -36.027   5.420   3.813  1.00 20.00     0.010 C 
BRANCH   8  10
HETATM   10  C9  UNL     1     -34.165   4.874   5.398  1.00 20.00     0.004 C 
BRANCH  10  11
HETATM   11  C8  UNL     1     -34.635   5.832   6.495  1.00 20.00    -0.004 C 
HETATM   12  C2  UNL     1     -33.622   6.942   6.732  1.00 20.00     0.005 C 
ENDBRANCH  10  11
ENDBRANCH   8  10
ENDBRANCH   7   8
ENDBRANCH   1   7
TORSDOF 6
ENDMDL
MODEL 5
REMARK VINA RESULT:      -4.4      1.167      4.667
REMARK  6 active torsions:
REMARK  status: ('A' for Active; 'I' for Inactive)
REMARK    1  A    between atoms: C1_1  and  C6_6 
REMARK    2  A    between atoms: C1_1  and  C7_7 
REMARK    3  A    between atoms: C6_6  and  C10_10 
REMARK    4  A    between atoms: C7_7  and  C11_11 
REMARK    5  A    between atoms: C8_8  and  C9_9 
REMARK    6  A    between atoms: C9_9  and  C11_11 
ROOT
HETATM    1  C1  UNL     1     -34.140  14.218  -3.572  1.00 20.00     0.127 C 
HETATM    2  O12 UNL     1     -33.394  13.255  -3.751  1.00 20.00    -0.298 OA
ENDROOT
BRANCH   1   3
HETATM    3  C6  UNL     1     -33.602  15.520  -3.004  1.00 20.00     0.082 C 
BRANCH   3   4
HETATM    4  C10 UNL     1     -34.708  16.446  -2.484  1.00 20.00    -0.016 C 
HETATM    5  C3  UNL     1     -34.610  17.842  -3.103  1.00 20.00     0.010 C 
HETATM    6  C4  UNL     1     -34.629  16.547  -0.960  1.00 20.00     0.010 C 
ENDBRANCH   3   4
ENDBRANCH   1   3
BRANCH   1   7
HETATM    7  C7  UNL     1     -35.617  14.183  -3.940  1.00 20.00     0.082 C 
BRANCH   7   8
HETATM    8  C11 UNL     1     -35.944  14.971  -5.221  1.00 20.00    -0.012 C 
HETATM    9  C5  UNL     1     -37.461  15.150  -5.366  1.00 20.00     0.010 C 
BRANCH   8  10
HETATM   10  C9  UNL     1     -35.399  14.270  -6.484  1.00 20.00     0.004 C 
BRANCH  10  11
HETATM   11  C8  UNL     1     -34.377  15.108  -7.257  1.00 20.00    -0.004 C 
HETATM   12  C2  UNL     1     -34.158  16.461  -6.597  1.00 20.00     0.005 C 
ENDBRANCH  10  11
ENDBRANCH   8  10
ENDBRANCH   7   8
ENDBRANCH   1   7
TORSDOF 6
ENDMDL
MODEL 6
REMARK VINA RESULT:      -4.3      1.308      4.219
REMARK  6 active torsions:
REMARK  status: ('A' for Active; 'I' for Inactive)
REMARK    1  A    between atoms: C1_1  and  C6_6 
REMARK    2  A    between atoms: C1_1  and  C7_7 
REMARK    3  A    between atoms: C6_6  and  C10_10 
REMARK    4  A    between atoms: C7_7  and  C11_11 
REMARK    5  A    between atoms: C8_8  and  C9_9 
REMARK    6  A    between atoms: C9_9  and  C11_11 
ROOT
HETATM    1  C1  UNL     1     -35.119  13.700  -4.886  1.00 20.00     0.127 C 
HETATM    2  O12 UNL     1     -34.837  12.551  -4.545  1.00 20.00    -0.298 OA
ENDROOT
BRANCH   1   3
HETATM    3  C6  UNL     1     -35.466  14.753  -3.847  1.00 20.00     0.082 C 
BRANCH   3   4
HETATM    4  C10 UNL     1     -34.321  15.018  -2.862  1.00 20.00    -0.016 C 
HETATM    5  C3  UNL     1     -34.620  16.218  -1.962  1.00 20.00     0.010 C 
HETATM    6  C4  UNL     1     -33.018  15.254  -3.628  1.00 20.00     0.010 C 
ENDBRANCH   3   4
ENDBRANCH   1   3
BRANCH   1   7
HETATM    7  C7  UNL     1     -35.096  14.145  -6.341  1.00 20.00     0.082 C 
BRANCH   7   8
HETATM    8  C11 UNL     1     -35.608  15.582  -6.547  1.00 20.00    -0.012 C 
HETATM    9  C5  UNL     1     -36.835  15.587  -7.467  1.00 20.00     0.010 C 
BRANCH   8  10
HETATM   10  C9  UNL     1     -34.524  16.499  -7.152  1.00 20.00     0.004 C 
BRANCH  10  11
HETATM   11  C8  UNL     1     -34.022  17.575  -6.186  1.00 20.00    -0.004 C 
HETATM   12  C2  UNL     1     -35.156  18.131  -5.337  1.00 20.00     0.005 C 
ENDBRANCH  10  11
ENDBRANCH   8  10
ENDBRANCH   7   8
ENDBRANCH   1   7
TORSDOF 6
ENDMDL
MODEL 7
REMARK VINA RESULT:      -4.3      1.264      2.333
REMARK  6 active torsions:
REMARK  status: ('A' for Active; 'I' for Inactive)
REMARK    1  A    between atoms: C1_1  and  C6_6 
REMARK    2  A    between atoms: C1_1  and  C7_7 
REMARK    3  A    between atoms: C6_6  and  C10_10 
REMARK    4  A    between atoms: C7_7  and  C11_11 
REMARK    5  A    between atoms: C8_8  and  C9_9 
REMARK    6  A    between atoms: C9_9  and  C11_11 
ROOT
HETATM    1  C1  UNL     1     -34.241  13.840  -3.992  1.00 20.00     0.127 C 
HETATM    2  O12 UNL     1     -33.254  13.193  -3.642  1.00 20.00    -0.298 OA
ENDROOT
BRANCH   1   3
HETATM    3  C6  UNL     1     -34.852  13.637  -5.368  1.00 20.00     0.082 C 
BRANCH   3   4
HETATM    4  C10 UNL     1     -35.181  14.958  -6.074  1.00 20.00    -0.016 C 
HETATM    5  C3  UNL     1     -36.677  15.078  -6.372  1.00 20.00     0.010 C 
HETATM    6  C4  UNL     1     -34.382  15.067  -7.374  1.00 20.00     0.010 C 
ENDBRANCH   3   4
ENDBRANCH   1   3
BRANCH   1   7
HETATM    7  C7  UNL     1     -34.930  14.837  -3.070  1.00 20.00     0.082 C 
BRANCH   7   8
HETATM    8  C11 UNL     1     -33.976  15.908  -2.511  1.00 20.00    -0.012 C 
HETATM    9  C5  UNL     1     -34.548  16.513  -1.222  1.00 20.00     0.010 C 
BRANCH   8  10
HETATM   10  C9  UNL     1     -33.724  17.043  -3.527  1.00 20.00     0.004 C 
BRANCH  10  11
HETATM   11  C8  UNL     1     -34.684  18.225  -3.377  1.00 20.00    -0.004 C 
HETATM   12  C2  UNL     1     -35.726  18.236  -4.487  1.00 20.00     0.005 C 
ENDBRANCH  10  11
ENDBRANCH   8  10
ENDBRANCH   7   8
ENDBRANCH   1   7
TORSDOF 6
ENDMDL
MODEL 8
REMARK VINA RESULT:      -4.1      1.990      5.524
REMARK  6 active torsions:
REMARK  status: ('A' for Active; 'I' for Inactive)
REMARK    1  A    between atoms: C1_1  and  C6_6 
REMARK    2  A    between atoms: C1_1  and  C7_7 
REMARK    3  A    between atoms: C6_6  and  C10_10 
REMARK    4  A    between atoms: C7_7  and  C11_11 
REMARK    5  A    between atoms: C8_8  and  C9_9 
REMARK    6  A    between atoms: C9_9  and  C11_11 
ROOT
HETATM    1  C1  UNL     1     -33.680  17.424  -3.788  1.00 20.00     0.127 C 
HETATM    2  O12 UNL     1     -33.458  18.148  -4.759  1.00 20.00    -0.298 OA
ENDROOT
BRANCH   1   3
HETATM    3  C6  UNL     1     -34.349  17.982  -2.543  1.00 20.00     0.082 C 
BRANCH   3   4
HETATM    4  C10 UNL     1     -33.704  17.479  -1.246  1.00 20.00    -0.016 C 
HETATM    5  C3  UNL     1     -34.752  16.930  -0.275  1.00 20.00     0.010 C 
HETATM    6  C4  UNL     1     -32.922  18.612  -0.580  1.00 20.00     0.010 C 
ENDBRANCH   3   4
ENDBRANCH   1   3
BRANCH   1   7
HETATM    7  C7  UNL     1     -33.346  15.939  -3.788  1.00 20.00     0.082 C 
BRANCH   7   8
HETATM    8  C11 UNL     1     -34.591  15.035  -3.742  1.00 20.00    -0.012 C 
HETATM    9  C5  UNL     1     -34.178  13.561  -3.625  1.00 20.00     0.010 C 
BRANCH   8  10
HETATM   10  C9  UNL     1     -35.476  15.209  -4.994  1.00 20.00     0.004 C 
BRANCH  10  11
HETATM   11  C8  UNL     1     -35.079  14.298  -6.158  1.00 20.00    -0.004 C 
HETATM   12  C2  UNL     1     -34.418  15.087  -7.279  1.00 20.00     0.005 C 
ENDBRANCH  10  11
ENDBRANCH   8  10
ENDBRANCH   7   8
ENDBRANCH   1   7
TORSDOF 6
ENDMDL
MODEL 9
REMARK VINA RESULT:      -4.1     10.536     11.803
REMARK  6 active torsions:
REMARK  status: ('A' for Active; 'I' for Inactive)
REMARK    1  A    between atoms: C1_1  and  C6_6 
REMARK    2  A    between atoms: C1_1  and  C7_7 
REMARK    3  A    between atoms: C6_6  and  C10_10 
REMARK    4  A    between atoms: C7_7  and  C11_11 
REMARK    5  A    between atoms: C8_8  and  C9_9 
REMARK    6  A    between atoms: C9_9  and  C11_11 
ROOT
HETATM    1  C1  UNL     1     -32.133   7.151   3.139  1.00 20.00     0.127 C 
HETATM    2  O12 UNL     1     -31.220   7.667   3.784  1.00 20.00    -0.298 OA
ENDROOT
BRANCH   1   3
HETATM    3  C6  UNL     1     -32.933   7.969   2.140  1.00 20.00     0.082 C 
BRANCH   3   4
HETATM    4  C10 UNL     1     -32.077   8.994   1.387  1.00 20.00    -0.016 C 
HETATM    5  C3  UNL     1     -32.492  10.428   1.725  1.00 20.00     0.010 C 
HETATM    6  C4  UNL     1     -32.190   8.762  -0.120  1.00 20.00     0.010 C 
ENDBRANCH   3   4
ENDBRANCH   1   3
BRANCH   1   7
HETATM    7  C7  UNL     1     -32.484   5.675   3.264  1.00 20.00     0.082 C 
BRANCH   7   8
HETATM    8  C11 UNL     1     -33.819   5.427   3.989  1.00 20.00    -0.012 C 
HETATM    9  C5  UNL     1     -34.996   5.619   3.023  1.00 20.00     0.010 C 
BRANCH   8  10
HETATM   10  C9  UNL     1     -34.004   6.369   5.198  1.00 20.00     0.004 C 
BRANCH  10  11
HETATM   11  C8  UNL     1     -34.453   5.650   6.472  1.00 20.00    -0.004 C 
HETATM   12  C2  UNL     1     -35.028   4.277   6.160  1.00 20.00     0.005 C 
ENDBRANCH  10  11
ENDBRANCH   8  10
ENDBRANCH   7   8
ENDBRANCH   1   7
TORSDOF 6
ENDMDL
