MODEL 1
REMARK VINA RESULT:      -4.3      0.000      0.000
REMARK  2 active torsions:
REMARK  status: ('A' for Active; 'I' for Inactive)
REMARK    1  A    between atoms: C1_1  and  C2_2 
REMARK    2  A    between atoms: C9_9  and  N10_10 
ROOT
HETATM    1  C1  UNL     1     -34.611  14.861  -4.168  1.00 20.00     0.150 C 
HETATM    2  C3  UNL     1     -33.471  15.137  -3.228  1.00 20.00     0.068 C 
HETATM    3  C4  UNL     1     -33.728  16.419  -2.441  1.00 20.00     0.008 C 
HETATM    4  C5  UNL     1     -34.145  17.562  -3.364  1.00 20.00     0.029 C 
HETATM    5  C6  UNL     1     -35.340  17.175  -4.229  1.00 20.00     0.242 C 
HETATM    6  N10 UNL     1     -35.084  15.917  -5.028  1.00 20.00    -0.038 N 
HETATM    7  H28 UNL     1     -35.995  15.654  -5.430  1.00 20.00     0.286 HD
ENDROOT
BRANCH   6   8
HETATM    8  C9  UNL     1     -34.160  16.104  -6.200  1.00 20.00     0.186 C 
HETATM    9  C7  UNL     1     -34.392  17.489  -6.782  1.00 20.00     0.040 C 
HETATM   10  C8  UNL     1     -34.434  15.002  -7.209  1.00 20.00     0.040 C 
ENDBRANCH   6   8
BRANCH   1  11
HETATM   11  C2  UNL     1     -35.240  13.677  -4.228  1.00 20.00     0.291 C 
HETATM   12  O11 UNL     1     -34.883  12.553  -4.667  1.00 20.00    -0.300 OA
ENDBRANCH   1  11
TORSDOF 2
ENDMDL
MODEL 2
REMARK VINA RESULT:      -4.3      1.980      3.792
REMARK  2 active torsions:
REMARK  status: ('A' for Active; 'I' for Inactive)
REMARK    1  A    between atoms: C1_1  and  C2_2 
REMARK    2  A    between atoms: C9_9  and  N10_10 
ROOT
HETATM    1  C1  UNL     1     -36.481  15.176  -4.507  1.00 20.00     0.150 C 
HETATM    2  C3  UNL     1     -36.572  15.955  -5.790  1.00 20.00     0.068 C 
HETATM    3  C4  UNL     1     -35.976  15.153  -6.943  1.00 20.00     0.008 C 
HETATM    4  C5  UNL     1     -34.603  14.595  -6.579  1.00 20.00     0.029 C 
HETATM    5  C6  UNL     1     -34.652  13.784  -5.287  1.00 20.00     0.242 C 
HETATM    6  N10 UNL     1     -35.222  14.579  -4.135  1.00 20.00    -0.038 N 
HETATM    7  H28 UNL     1     -35.372  13.899  -3.376  1.00 20.00     0.286 HD
ENDROOT
BRANCH   6   8
HETATM    8  C9  UNL     1     -34.287  15.616  -3.574  1.00 20.00     0.186 C 
HETATM    9  C7  UNL     1     -32.868  15.076  -3.648  1.00 20.00     0.040 C 
HETATM   10  C8  UNL     1     -34.712  15.926  -2.149  1.00 20.00     0.040 C 
ENDBRANCH   6   8
BRANCH   1  11
HETATM   11  C2  UNL     1     -37.531  14.976  -3.695  1.00 20.00     0.291 C 
HETATM   12  O11 UNL     1     -38.519  14.200  -3.770  1.00 20.00    -0.300 OA
ENDBRANCH   1  11
TORSDOF 2
ENDMDL
MODEL 3
REMARK VINA RESULT:      -4.2      1.691      2.389
REMARK  2 active torsions:
REMARK  status: ('A' for Active; 'I' for Inactive)
REMARK    1  A    between atoms: C1_1  and  C2_2 
REMARK    2  A    between atoms: C9_9  and  N10_10 
ROOT
HETATM    1  C1  UNL     1     -35.700  14.979  -4.070  1.00 20.00     0.150 C 
HETATM    2  C3  UNL     1     -34.994  13.702  -4.436  1.00 20.00     0.068 C 
HETATM    3  C4  UNL     1     -33.695  13.566  -3.647  1.00 20.00     0.008 C 
HETATM    4  C5  UNL     1     -32.868  14.848  -3.714  1.00 20.00     0.029 C 
HETATM    5  C6  UNL     1     -33.679  16.062  -3.271  1.00 20.00     0.242 C 
HETATM    6  N10 UNL     1     -34.957  16.215  -4.064  1.00 20.00    -0.038 N 
HETATM    7  H28 UNL     1     -35.500  16.942  -3.576  1.00 20.00     0.286 HD
ENDROOT
BRANCH   6   8
HETATM    8  C9  UNL     1     -34.760  16.724  -5.465  1.00 20.00     0.186 C 
HETATM    9  C7  UNL     1     -33.631  17.742  -5.455  1.00 20.00     0.040 C 
HETATM   10  C8  UNL     1     -36.071  17.322  -5.949  1.00 20.00     0.040 C 
ENDBRANCH   6   8
BRANCH   1  11
HETATM   11  C2  UNL     1     -36.992  15.024  -3.712  1.00 20.00     0.291 C 
HETATM   12  O11 UNL     1     -37.899  14.150  -3.713  1.00 20.00    -0.300 OA
ENDBRANCH   1  11
TORSDOF 2
ENDMDL
MODEL 4
REMARK VINA RESULT:      -4.2      1.119      3.107
REMARK  2 active torsions:
REMARK  status: ('A' for Active; 'I' for Inactive)
REMARK    1  A    between atoms: C1_1  and  C2_2 
REMARK    2  A    between atoms: C9_9  and  N10_10 
ROOT
HETATM    1  C1  UNL     1     -34.827  14.935  -4.439  1.00 20.00     0.150 C 
HETATM    2  C3  UNL     1     -35.804  15.293  -5.524  1.00 20.00     0.068 C 
HETATM    3  C4  UNL     1     -35.088  15.989  -6.677  1.00 20.00     0.008 C 
HETATM    4  C5  UNL     1     -34.185  17.112  -6.173  1.00 20.00     0.029 C 
HETATM    5  C6  UNL     1     -33.207  16.612  -5.114  1.00 20.00     0.242 C 
HETATM    6  N10 UNL     1     -33.911  15.940  -3.958  1.00 20.00    -0.038 N 
HETATM    7  H28 UNL     1     -33.168  15.493  -3.402  1.00 20.00     0.286 HD
ENDROOT
BRANCH   6   8
HETATM    8  C9  UNL     1     -34.608  16.888  -3.020  1.00 20.00     0.186 C 
HETATM    9  C7  UNL     1     -33.835  18.197  -2.995  1.00 20.00     0.040 C 
HETATM   10  C8  UNL     1     -34.686  16.238  -1.648  1.00 20.00     0.040 C 
ENDBRANCH   6   8
BRANCH   1  11
HETATM   11  C2  UNL     1     -34.738  13.704  -3.910  1.00 20.00     0.291 C 
HETATM   12  O11 UNL     1     -35.037  12.569  -4.363  1.00 20.00    -0.300 OA
ENDBRANCH   1  11
TORSDOF 2
ENDMDL
MODEL 5
REMARK VINA RESULT:      -3.9      2.291      3.607
REMARK  2 active torsions:
REMARK  status: ('A' for Active; 'I' for Inactive)
REMARK    1  A    between atoms: C1_1  and  C2_2 
REMARK    2  A    between atoms: C9_9  and  N10_10 
ROOT
HETATM    1  C1  UNL     1     -33.966  16.000  -4.595  1.00 20.00     0.150 C 
HETATM    2  C3  UNL     1     -33.257  15.276  -3.484  1.00 20.00     0.068 C 
HETATM    3  C4  UNL     1     -33.267  13.772  -3.737  1.00 20.00     0.008 C 
HETATM    4  C5  UNL     1     -34.667  13.278  -4.090  1.00 20.00     0.029 C 
HETATM    5  C6  UNL     1     -35.257  14.056  -5.262  1.00 20.00     0.242 C 
HETATM    6  N10 UNL     1     -35.270  15.547  -5.009  1.00 20.00    -0.038 N 
HETATM    7  H28 UNL     1     -35.516  15.979  -5.911  1.00 20.00     0.286 HD
ENDROOT
BRANCH   6   8
HETATM    8  C9  UNL     1     -36.325  16.002  -4.037  1.00 20.00     0.186 C 
HETATM    9  C7  UNL     1     -37.450  14.980  -4.033  1.00 20.00     0.040 C 
HETATM   10  C8  UNL     1     -36.802  17.382  -4.457  1.00 20.00     0.040 C 
ENDBRANCH   6   8
BRANCH   1  11
HETATM   11  C2  UNL     1     -33.427  17.039  -5.252  1.00 20.00     0.291 C 
HETATM   12  O11 UNL     1     -33.393  18.272  -4.998  1.00 20.00    -0.300 OA
ENDBRANCH   1  11
TORSDOF 2
ENDMDL
MODEL 6
REMARK VINA RESULT:      -3.9      2.148      3.806
REMARK  2 active torsions:
REMARK  status: ('A' for Active; 'I' for Inactive)
REMARK    1  A    between atoms: C1_1  and  C2_2 
REMARK    2  A    between atoms: C9_9  and  N10_10 
ROOT
HETATM    1  C1  UNL     1     -36.588  15.180  -4.541  1.00 20.00     0.150 C 
HETATM    2  C3  UNL     1     -35.861  15.422  -5.835  1.00 20.00     0.068 C 
HETATM    3  C4  UNL     1     -34.678  14.468  -5.968  1.00 20.00     0.008 C 
HETATM    4  C5  UNL     1     -33.830  14.456  -4.699  1.00 20.00     0.029 C 
HETATM    5  C6  UNL     1     -34.672  14.149  -3.464  1.00 20.00     0.242 C 
HETATM    6  N10 UNL     1     -35.834  15.105  -3.314  1.00 20.00    -0.038 N 
HETATM    7  H28 UNL     1     -36.424  14.708  -2.569  1.00 20.00     0.286 HD
ENDROOT
BRANCH   6   8
HETATM    8  C9  UNL     1     -35.449  16.480  -2.842  1.00 20.00     0.186 C 
HETATM    9  C7  UNL     1     -34.659  16.343  -1.551  1.00 20.00     0.040 C 
HETATM   10  C8  UNL     1     -36.717  17.298  -2.657  1.00 20.00     0.040 C 
ENDBRANCH   6   8
BRANCH   1  11
HETATM   11  C2  UNL     1     -37.916  14.993  -4.471  1.00 20.00     0.291 C 
HETATM   12  O11 UNL     1     -38.623  14.224  -3.769  1.00 20.00    -0.300 OA
ENDBRANCH   1  11
TORSDOF 2
ENDMDL
MODEL 7
REMARK VINA RESULT:      -3.9      1.452      2.647
REMARK  2 active torsions:
REMARK  status: ('A' for Active; 'I' for Inactive)
REMARK    1  A    between atoms: C1_1  and  C2_2 
REMARK    2  A    between atoms: C9_9  and  N10_10 
ROOT
HETATM    1  C1  UNL     1     -34.709  14.859  -4.400  1.00 20.00     0.150 C 
HETATM    2  C3  UNL     1     -34.126  15.488  -5.636  1.00 20.00     0.068 C 
HETATM    3  C4  UNL     1     -33.264  16.691  -5.266  1.00 20.00     0.008 C 
HETATM    4  C5  UNL     1     -33.998  17.624  -4.306  1.00 20.00     0.029 C 
HETATM    5  C6  UNL     1     -34.496  16.880  -3.071  1.00 20.00     0.242 C 
HETATM    6  N10 UNL     1     -35.368  15.698  -3.430  1.00 20.00    -0.038 N 
HETATM    7  H28 UNL     1     -35.499  15.174  -2.553  1.00 20.00     0.286 HD
ENDROOT
BRANCH   6   8
HETATM    8  C9  UNL     1     -36.750  16.066  -3.897  1.00 20.00     0.186 C 
HETATM    9  C7  UNL     1     -37.263  17.207  -3.033  1.00 20.00     0.040 C 
HETATM   10  C8  UNL     1     -37.633  14.832  -3.806  1.00 20.00     0.040 C 
ENDBRANCH   6   8
BRANCH   1  11
HETATM   11  C2  UNL     1     -34.617  13.547  -4.133  1.00 20.00     0.291 C 
HETATM   12  O11 UNL     1     -34.852  12.526  -4.831  1.00 20.00    -0.300 OA
ENDBRANCH   1  11
TORSDOF 2
ENDMDL
MODEL 8
REMARK VINA RESULT:      -3.8      1.644      2.702
REMARK  2 active torsions:
REMARK  status: ('A' for Active; 'I' for Inactive)
REMARK    1  A    between atoms: C1_1  and  C2_2 
REMARK    2  A    between atoms: C9_9  and  N10_10 
ROOT
HETATM    1  C1  UNL     1     -35.761  14.575  -4.362  1.00 20.00     0.150 C 
HETATM    2  C3  UNL     1     -37.032  15.079  -3.735  1.00 20.00     0.068 C 
HETATM    3  C4  UNL     1     -37.927  15.723  -4.790  1.00 20.00     0.008 C 
HETATM    4  C5  UNL     1     -37.147  16.716  -5.648  1.00 20.00     0.029 C 
HETATM    5  C6  UNL     1     -35.910  16.072  -6.267  1.00 20.00     0.242 C 
HETATM    6  N10 UNL     1     -35.008  15.452  -5.225  1.00 20.00    -0.038 N 
HETATM    7  H28 UNL     1     -34.313  14.903  -5.752  1.00 20.00     0.286 HD
ENDROOT
BRANCH   6   8
HETATM    8  C9  UNL     1     -34.218  16.444  -4.417  1.00 20.00     0.186 C 
HETATM    9  C7  UNL     1     -33.558  17.427  -5.371  1.00 20.00     0.040 C 
HETATM   10  C8  UNL     1     -33.203  15.685  -3.579  1.00 20.00     0.040 C 
ENDBRANCH   6   8
BRANCH   1  11
HETATM   11  C2  UNL     1     -35.302  13.327  -4.184  1.00 20.00     0.291 C 
HETATM   12  O11 UNL     1     -34.655  12.551  -4.935  1.00 20.00    -0.300 OA
ENDBRANCH   1  11
TORSDOF 2
ENDMDL
MODEL 9
REMARK VINA RESULT:      -3.8      1.660      1.696
REMARK  2 active torsions:
REMARK  status: ('A' for Active; 'I' for Inactive)
REMARK    1  A    between atoms: C1_1  and  C2_2 
REMARK    2  A    between atoms: C9_9  and  N10_10 
ROOT
HETATM    1  C1  UNL     1     -35.685  15.885  -3.420  1.00 20.00     0.150 C 
HETATM    2  C3  UNL     1     -34.814  15.415  -2.287  1.00 20.00     0.068 C 
HETATM    3  C4  UNL     1     -34.444  16.583  -1.379  1.00 20.00     0.008 C 
HETATM    4  C5  UNL     1     -33.932  17.773  -2.187  1.00 20.00     0.029 C 
HETATM    5  C6  UNL     1     -34.925  18.185  -3.269  1.00 20.00     0.242 C 
HETATM    6  N10 UNL     1     -35.279  17.037  -4.186  1.00 20.00    -0.038 N 
HETATM    7  H28 UNL     1     -36.071  17.371  -4.754  1.00 20.00     0.286 HD
ENDROOT
BRANCH   6   8
HETATM    8  C9  UNL     1     -34.200  16.670  -5.167  1.00 20.00     0.186 C 
HETATM    9  C7  UNL     1     -33.618  17.949  -5.746  1.00 20.00     0.040 C 
HETATM   10  C8  UNL     1     -34.805  15.776  -6.237  1.00 20.00     0.040 C 
ENDBRANCH   6   8
BRANCH   1  11
HETATM   11  C2  UNL     1     -36.851  15.302  -3.737  1.00 20.00     0.291 C 
HETATM   12  O11 UNL     1     -37.193  14.093  -3.826  1.00 20.00    -0.300 OA
ENDBRANCH   1  11
TORSDOF 2
ENDMDL
