MODEL 1
REMARK VINA RESULT:      -4.5      0.000      0.000
REMARK  3 active torsions:
REMARK  status: ('A' for Active; 'I' for Inactive)
REMARK    1  A    between atoms: C1_1  and  C9_9 
REMARK    2  A    between atoms: C3_3  and  C8_8 
REMARK    3  A    between atoms: C9_9  and  N10_10 
ROOT
HETATM    1  C4  UNL     1     -36.626  15.731  -4.936  1.00 20.00     0.028 C 
HETATM    2  C5  UNL     1     -35.773  15.285  -6.120  1.00 20.00     0.015 C 
HETATM    3  C6  UNL     1     -35.818  16.541  -3.935  1.00 20.00     0.235 C 
HETATM    4  C7  UNL     1     -33.724  15.331  -4.610  1.00 20.00     0.246 C 
HETATM    5  C8  UNL     1     -34.491  14.578  -5.688  1.00 20.00     0.073 C 
HETATM    6  N10 UNL     1     -34.638  15.722  -3.472  1.00 20.00    -0.067 N 
HETATM    7  H27 UNL     1     -35.012  14.855  -3.061  1.00 20.00     0.280 HD
ENDROOT
BRANCH   6   8
HETATM    8  C9  UNL     1     -33.883  16.414  -2.369  1.00 20.00     0.263 C 
BRANCH   8   9
HETATM    9  C1  UNL     1     -34.655  16.484  -1.094  1.00 20.00     0.012 C 
HETATM   10  C2  UNL     1     -34.435  17.405  -0.152  1.00 20.00     0.082 C 
HETATM   11 CL12 UNL     1     -35.330  17.484   1.307  1.00 20.00    -0.097 Cl
ENDBRANCH   8   9
ENDBRANCH   6   8
BRANCH   5  12
HETATM   12  C3  UNL     1     -34.851  13.171  -5.236  1.00 20.00     0.237 C 
HETATM   13  O11 UNL     1     -34.774  12.794  -4.071  1.00 20.00    -0.306 OA
ENDBRANCH   5  12
TORSDOF 3
ENDMDL
MODEL 2
REMARK VINA RESULT:      -4.5      1.409      1.856
REMARK  3 active torsions:
REMARK  status: ('A' for Active; 'I' for Inactive)
REMARK    1  A    between atoms: C1_1  and  C9_9 
REMARK    2  A    between atoms: C3_3  and  C8_8 
REMARK    3  A    between atoms: C9_9  and  N10_10 
ROOT
HETATM    1  C4  UNL     1     -34.355  15.654  -5.782  1.00 20.00     0.028 C 
HETATM    2  C5  UNL     1     -34.797  14.218  -5.515  1.00 20.00     0.015 C 
HETATM    3  C6  UNL     1     -33.567  16.226  -4.614  1.00 20.00     0.235 C 
HETATM    4  C7  UNL     1     -34.794  14.723  -3.021  1.00 20.00     0.246 C 
HETATM    5  C8  UNL     1     -35.524  14.064  -4.183  1.00 20.00     0.073 C 
HETATM    6  N10 UNL     1     -34.406  16.143  -3.363  1.00 20.00    -0.067 N 
HETATM    7  H27 UNL     1     -35.273  16.668  -3.542  1.00 20.00     0.280 HD
ENDROOT
BRANCH   6   8
HETATM    8  C9  UNL     1     -33.737  16.828  -2.202  1.00 20.00     0.263 C 
BRANCH   8   9
HETATM    9  C1  UNL     1     -34.491  16.669  -0.923  1.00 20.00     0.012 C 
HETATM   10  C2  UNL     1     -34.498  17.590   0.044  1.00 20.00     0.082 C 
HETATM   11 CL12 UNL     1     -35.371  17.403   1.507  1.00 20.00    -0.097 Cl
ENDBRANCH   8   9
ENDBRANCH   6   8
BRANCH   5  12
HETATM   12  C3  UNL     1     -36.933  14.618  -4.341  1.00 20.00     0.237 C 
HETATM   13  O11 UNL     1     -37.906  14.175  -3.739  1.00 20.00    -0.306 OA
ENDBRANCH   5  12
TORSDOF 3
ENDMDL
MODEL 3
REMARK VINA RESULT:      -4.3      1.513      2.340
REMARK  3 active torsions:
REMARK  status: ('A' for Active; 'I' for Inactive)
REMARK    1  A    between atoms: C1_1  and  C9_9 
REMARK    2  A    between atoms: C3_3  and  C8_8 
REMARK    3  A    between atoms: C9_9  and  N10_10 
ROOT
HETATM    1  C4  UNL     1     -33.956  13.815  -4.519  1.00 20.00     0.028 C 
HETATM    2  C5  UNL     1     -35.410  13.386  -4.340  1.00 20.00     0.015 C 
HETATM    3  C6  UNL     1     -33.484  14.695  -3.372  1.00 20.00     0.235 C 
HETATM    4  C7  UNL     1     -35.829  15.510  -3.002  1.00 20.00     0.246 C 
HETATM    5  C8  UNL     1     -36.342  14.565  -4.079  1.00 20.00     0.073 C 
HETATM    6  N10 UNL     1     -34.391  15.895  -3.262  1.00 20.00    -0.067 N 
HETATM    7  H27 UNL     1     -34.359  16.385  -4.168  1.00 20.00     0.280 HD
ENDROOT
BRANCH   6   8
HETATM    8  C9  UNL     1     -33.888  16.878  -2.239  1.00 20.00     0.263 C 
BRANCH   8   9
HETATM    9  C1  UNL     1     -34.495  16.672  -0.891  1.00 20.00     0.012 C 
HETATM   10  C2  UNL     1     -34.643  17.652   0.004  1.00 20.00     0.082 C 
HETATM   11 CL12 UNL     1     -35.347  17.411   1.547  1.00 20.00    -0.097 Cl
ENDBRANCH   8   9
ENDBRANCH   6   8
BRANCH   5  12
HETATM   12  C3  UNL     1     -36.572  15.294  -5.395  1.00 20.00     0.237 C 
HETATM   13  O11 UNL     1     -36.137  16.416  -5.632  1.00 20.00    -0.306 OA
ENDBRANCH   5  12
TORSDOF 3
ENDMDL
MODEL 4
REMARK VINA RESULT:      -4.2      1.604      2.239
REMARK  3 active torsions:
REMARK  status: ('A' for Active; 'I' for Inactive)
REMARK    1  A    between atoms: C1_1  and  C9_9 
REMARK    2  A    between atoms: C3_3  and  C8_8 
REMARK    3  A    between atoms: C9_9  and  N10_10 
ROOT
HETATM    1  C4  UNL     1     -33.625  13.596  -4.033  1.00 20.00     0.028 C 
HETATM    2  C5  UNL     1     -34.981  13.311  -4.670  1.00 20.00     0.015 C 
HETATM    3  C6  UNL     1     -33.656  14.858  -3.185  1.00 20.00     0.235 C 
HETATM    4  C7  UNL     1     -35.484  15.805  -4.622  1.00 20.00     0.246 C 
HETATM    5  C8  UNL     1     -35.541  14.513  -5.424  1.00 20.00     0.073 C 
HETATM    6  N10 UNL     1     -34.106  16.017  -4.039  1.00 20.00    -0.067 N 
HETATM    7  H27 UNL     1     -33.444  16.092  -4.824  1.00 20.00     0.280 HD
ENDROOT
BRANCH   6   8
HETATM    8  C9  UNL     1     -34.015  17.322  -3.293  1.00 20.00     0.263 C 
BRANCH   8   9
HETATM    9  C1  UNL     1     -34.025  17.143  -1.811  1.00 20.00     0.012 C 
HETATM   10  C2  UNL     1     -35.047  17.512  -1.034  1.00 20.00     0.082 C 
HETATM   11 CL12 UNL     1     -35.054  17.298   0.666  1.00 20.00    -0.097 Cl
ENDBRANCH   8   9
ENDBRANCH   6   8
BRANCH   5  12
HETATM   12  C3  UNL     1     -34.791  14.643  -6.742  1.00 20.00     0.237 C 
HETATM   13  O11 UNL     1     -34.012  15.557  -6.990  1.00 20.00    -0.306 OA
ENDBRANCH   5  12
TORSDOF 3
ENDMDL
MODEL 5
REMARK VINA RESULT:      -4.2      1.555      1.771
REMARK  3 active torsions:
REMARK  status: ('A' for Active; 'I' for Inactive)
REMARK    1  A    between atoms: C1_1  and  C9_9 
REMARK    2  A    between atoms: C3_3  and  C8_8 
REMARK    3  A    between atoms: C9_9  and  N10_10 
ROOT
HETATM    1  C4  UNL     1     -35.237  16.486  -5.251  1.00 20.00     0.028 C 
HETATM    2  C5  UNL     1     -34.069  15.517  -5.407  1.00 20.00     0.015 C 
HETATM    3  C6  UNL     1     -35.127  17.298  -3.971  1.00 20.00     0.235 C 
HETATM    4  C7  UNL     1     -33.849  15.437  -2.873  1.00 20.00     0.246 C 
HETATM    5  C8  UNL     1     -33.860  14.645  -4.172  1.00 20.00     0.073 C 
HETATM    6  N10 UNL     1     -35.044  16.359  -2.794  1.00 20.00    -0.067 N 
HETATM    7  H27 UNL     1     -35.891  15.774  -2.811  1.00 20.00     0.280 HD
ENDROOT
BRANCH   6   8
HETATM    8  C9  UNL     1     -35.081  17.105  -1.487  1.00 20.00     0.263 C 
BRANCH   8   9
HETATM    9  C1  UNL     1     -33.720  17.404  -0.952  1.00 20.00     0.012 C 
HETATM   10  C2  UNL     1     -33.415  18.537  -0.312  1.00 20.00     0.082 C 
HETATM   11 CL12 UNL     1     -31.853  18.871   0.305  1.00 20.00    -0.097 Cl
ENDBRANCH   8   9
ENDBRANCH   6   8
BRANCH   5  12
HETATM   12  C3  UNL     1     -34.935  13.569  -4.159  1.00 20.00     0.237 C 
HETATM   13  O11 UNL     1     -34.855  12.524  -4.797  1.00 20.00    -0.306 OA
ENDBRANCH   5  12
TORSDOF 3
ENDMDL
MODEL 6
REMARK VINA RESULT:      -4.1      1.570      1.972
REMARK  3 active torsions:
REMARK  status: ('A' for Active; 'I' for Inactive)
REMARK    1  A    between atoms: C1_1  and  C9_9 
REMARK    2  A    between atoms: C3_3  and  C8_8 
REMARK    3  A    between atoms: C9_9  and  N10_10 
ROOT
HETATM    1  C4  UNL     1     -34.122  16.814  -6.564  1.00 20.00     0.028 C 
HETATM    2  C5  UNL     1     -34.431  15.452  -7.180  1.00 20.00     0.015 C 
HETATM    3  C6  UNL     1     -33.387  16.677  -5.240  1.00 20.00     0.235 C 
HETATM    4  C7  UNL     1     -34.467  14.446  -4.843  1.00 20.00     0.246 C 
HETATM    5  C8  UNL     1     -35.138  14.513  -6.207  1.00 20.00     0.073 C 
HETATM    6  N10 UNL     1     -34.210  15.834  -4.300  1.00 20.00    -0.067 N 
HETATM    7  H27 UNL     1     -35.122  16.299  -4.192  1.00 20.00     0.280 HD
ENDROOT
BRANCH   6   8
HETATM    8  C9  UNL     1     -33.603  15.785  -2.924  1.00 20.00     0.263 C 
BRANCH   8   9
HETATM    9  C1  UNL     1     -34.554  16.214  -1.855  1.00 20.00     0.012 C 
HETATM   10  C2  UNL     1     -34.194  16.965  -0.811  1.00 20.00     0.082 C 
HETATM   11 CL12 UNL     1     -35.292  17.460   0.407  1.00 20.00    -0.097 Cl
ENDBRANCH   8   9
ENDBRANCH   6   8
BRANCH   5  12
HETATM   12  C3  UNL     1     -36.591  14.949  -6.092  1.00 20.00     0.237 C 
HETATM   13  O11 UNL     1     -37.081  15.410  -5.066  1.00 20.00    -0.306 OA
ENDBRANCH   5  12
TORSDOF 3
ENDMDL
MODEL 7
REMARK VINA RESULT:      -4.0      3.195      4.268
REMARK  3 active torsions:
REMARK  status: ('A' for Active; 'I' for Inactive)
REMARK    1  A    between atoms: C1_1  and  C9_9 
REMARK    2  A    between atoms: C3_3  and  C8_8 
REMARK    3  A    between atoms: C9_9  and  N10_10 
ROOT
HETATM    1  C4  UNL     1     -34.236  16.080  -5.707  1.00 20.00     0.028 C 
HETATM    2  C5  UNL     1     -33.280  15.881  -4.535  1.00 20.00     0.015 C 
HETATM    3  C6  UNL     1     -35.614  16.522  -5.240  1.00 20.00     0.235 C 
HETATM    4  C7  UNL     1     -35.275  15.340  -3.050  1.00 20.00     0.246 C 
HETATM    5  C8  UNL     1     -33.856  14.970  -3.455  1.00 20.00     0.073 C 
HETATM    6  N10 UNL     1     -36.157  15.505  -4.267  1.00 20.00    -0.067 N 
HETATM    7  H27 UNL     1     -36.183  14.599  -4.757  1.00 20.00     0.280 HD
ENDROOT
BRANCH   6   8
HETATM    8  C9  UNL     1     -37.579  15.812  -3.882  1.00 20.00     0.263 C 
BRANCH   8   9
HETATM    9  C1  UNL     1     -38.515  14.686  -4.177  1.00 20.00     0.012 C 
HETATM   10  C2  UNL     1     -39.723  14.859  -4.718  1.00 20.00     0.082 C 
HETATM   11 CL12 UNL     1     -40.789  13.561  -5.060  1.00 20.00    -0.097 Cl
ENDBRANCH   8   9
ENDBRANCH   6   8
BRANCH   5  12
HETATM   12  C3  UNL     1     -33.775  13.533  -3.948  1.00 20.00     0.237 C 
HETATM   13  O11 UNL     1     -34.760  12.850  -4.209  1.00 20.00    -0.306 OA
ENDBRANCH   5  12
TORSDOF 3
ENDMDL
MODEL 8
REMARK VINA RESULT:      -4.0     11.648     12.552
REMARK  3 active torsions:
REMARK  status: ('A' for Active; 'I' for Inactive)
REMARK    1  A    between atoms: C1_1  and  C9_9 
REMARK    2  A    between atoms: C3_3  and  C8_8 
REMARK    3  A    between atoms: C9_9  and  N10_10 
ROOT
HETATM    1  C4  UNL     1     -35.717   5.399   3.801  1.00 20.00     0.028 C 
HETATM    2  C5  UNL     1     -35.456   4.384   4.909  1.00 20.00     0.015 C 
HETATM    3  C6  UNL     1     -34.477   5.638   2.954  1.00 20.00     0.235 C 
HETATM    4  C7  UNL     1     -33.005   5.069   4.906  1.00 20.00     0.246 C 
HETATM    5  C8  UNL     1     -34.228   4.729   5.746  1.00 20.00     0.073 C 
HETATM    6  N10 UNL     1     -33.347   6.089   3.844  1.00 20.00    -0.067 N 
HETATM    7  H27 UNL     1     -33.661   6.944   4.324  1.00 20.00     0.280 HD
ENDROOT
BRANCH   6   8
HETATM    8  C9  UNL     1     -32.134   6.482   3.044  1.00 20.00     0.263 C 
BRANCH   8   9
HETATM    9  C1  UNL     1     -32.125   7.930   2.680  1.00 20.00     0.012 C 
HETATM   10  C2  UNL     1     -32.120   8.369   1.418  1.00 20.00     0.082 C 
HETATM   11 CL12 UNL     1     -32.116  10.032   1.008  1.00 20.00    -0.097 Cl
ENDBRANCH   8   9
ENDBRANCH   6   8
BRANCH   5  12
HETATM   12  C3  UNL     1     -34.593   5.870   6.684  1.00 20.00     0.237 C 
HETATM   13  O11 UNL     1     -34.026   6.957   6.680  1.00 20.00    -0.306 OA
ENDBRANCH   5  12
TORSDOF 3
ENDMDL
MODEL 9
REMARK VINA RESULT:      -3.9      2.530      4.194
REMARK  3 active torsions:
REMARK  status: ('A' for Active; 'I' for Inactive)
REMARK    1  A    between atoms: C1_1  and  C9_9 
REMARK    2  A    between atoms: C3_3  and  C8_8 
REMARK    3  A    between atoms: C9_9  and  N10_10 
ROOT
HETATM    1  C4  UNL     1     -33.507  13.601  -3.795  1.00 20.00     0.028 C 
HETATM    2  C5  UNL     1     -32.630  14.848  -3.725  1.00 20.00     0.015 C 
HETATM    3  C6  UNL     1     -34.542  13.704  -4.904  1.00 20.00     0.235 C 
HETATM    4  C7  UNL     1     -34.551  16.206  -4.696  1.00 20.00     0.246 C 
HETATM    5  C8  UNL     1     -33.444  16.136  -3.654  1.00 20.00     0.073 C 
HETATM    6  N10 UNL     1     -35.378  14.941  -4.689  1.00 20.00    -0.067 N 
HETATM    7  H27 UNL     1     -35.812  14.857  -3.759  1.00 20.00     0.280 HD
ENDROOT
BRANCH   6   8
HETATM    8  C9  UNL     1     -36.515  15.018  -5.673  1.00 20.00     0.263 C 
BRANCH   8   9
HETATM    9  C1  UNL     1     -37.804  15.424  -5.037  1.00 20.00     0.012 C 
HETATM   10  C2  UNL     1     -38.199  14.991  -3.837  1.00 20.00     0.082 C 
HETATM   11 CL12 UNL     1     -39.676  15.466  -3.111  1.00 20.00    -0.097 Cl
ENDBRANCH   8   9
ENDBRANCH   6   8
BRANCH   5  12
HETATM   12  C3  UNL     1     -33.998  16.275  -2.244  1.00 20.00     0.237 C 
HETATM   13  O11 UNL     1     -35.181  16.110  -1.962  1.00 20.00    -0.306 OA
ENDBRANCH   5  12
TORSDOF 3
ENDMDL
