MODEL 1
REMARK VINA RESULT:      -4.8      0.000      0.000
REMARK  4 active torsions:
REMARK  status: ('A' for Active; 'I' for Inactive)
REMARK    1  A    between atoms: C3_3  and  C8_8 
REMARK    2  A    between atoms: C3_3  and  O9_9 
REMARK    3  A    between atoms: C6_6  and  C7_7 
REMARK    4  A    between atoms: C7_7  and  C8_8 
ROOT
HETATM    1  C1  UNL     1     -33.785   4.630   6.243  1.00 20.00     0.041 A 
HETATM    2  C2  UNL     1     -35.094   5.317   6.519  1.00 20.00     0.041 A 
HETATM    3  C3  UNL     1     -34.769   4.849   5.126  1.00 20.00     0.061 A 
ENDROOT
BRANCH   3   4
HETATM    4  C8  UNL     1     -34.463   5.865   4.023  1.00 20.00     0.016 C 
HETATM    5  C5  UNL     1     -34.548   5.183   2.656  1.00 20.00     0.013 C 
BRANCH   4   6
HETATM    6  C7  UNL     1     -33.088   6.512   4.273  1.00 20.00     0.007 C 
BRANCH   6   7
HETATM    7  C6  UNL     1     -32.182   6.515   3.040  1.00 20.00    -0.004 C 
HETATM    8  C4  UNL     1     -32.091   7.903   2.423  1.00 20.00     0.005 C 
ENDBRANCH   6   7
ENDBRANCH   4   6
ENDBRANCH   3   4
BRANCH   3   9
HETATM    9  O9  UNL     1     -35.471   3.681   4.668  1.00 20.00    -0.389 OA
HETATM   10  H25 UNL     1     -36.218   3.569   5.271  1.00 20.00     0.210 HD
ENDBRANCH   3   9
TORSDOF 4
ENDMDL
MODEL 2
REMARK VINA RESULT:      -4.5      1.567      1.722
REMARK  4 active torsions:
REMARK  status: ('A' for Active; 'I' for Inactive)
REMARK    1  A    between atoms: C3_3  and  C8_8 
REMARK    2  A    between atoms: C3_3  and  O9_9 
REMARK    3  A    between atoms: C6_6  and  C7_7 
REMARK    4  A    between atoms: C7_7  and  C8_8 
ROOT
HETATM    1  C1  UNL     1     -35.270   4.980   6.166  1.00 20.00     0.041 A 
HETATM    2  C2  UNL     1     -33.876   4.428   6.042  1.00 20.00     0.041 A 
HETATM    3  C3  UNL     1     -34.157   5.855   5.656  1.00 20.00     0.061 A 
ENDROOT
BRANCH   3   4
HETATM    4  C8  UNL     1     -34.126   6.276   4.184  1.00 20.00     0.016 C 
HETATM    5  C5  UNL     1     -35.225   5.541   3.414  1.00 20.00     0.013 C 
BRANCH   4   6
HETATM    6  C7  UNL     1     -32.725   6.022   3.597  1.00 20.00     0.007 C 
BRANCH   6   7
HETATM    7  C6  UNL     1     -31.871   7.288   3.488  1.00 20.00    -0.004 C 
HETATM    8  C4  UNL     1     -32.155   8.038   2.195  1.00 20.00     0.005 C 
ENDBRANCH   6   7
ENDBRANCH   4   6
ENDBRANCH   3   4
BRANCH   3   9
HETATM    9  O9  UNL     1     -33.684   6.864   6.564  1.00 20.00    -0.389 OA
HETATM   10  H25 UNL     1     -32.720   6.841   6.504  1.00 20.00     0.210 HD
ENDBRANCH   3   9
TORSDOF 4
ENDMDL
MODEL 3
REMARK VINA RESULT:      -4.5      1.262      1.729
REMARK  4 active torsions:
REMARK  status: ('A' for Active; 'I' for Inactive)
REMARK    1  A    between atoms: C3_3  and  C8_8 
REMARK    2  A    between atoms: C3_3  and  O9_9 
REMARK    3  A    between atoms: C6_6  and  C7_7 
REMARK    4  A    between atoms: C7_7  and  C8_8 
ROOT
HETATM    1  C1  UNL     1     -34.579   3.575   5.205  1.00 20.00     0.041 A 
HETATM    2  C2  UNL     1     -35.288   4.356   6.276  1.00 20.00     0.041 A 
HETATM    3  C3  UNL     1     -34.828   5.047   5.021  1.00 20.00     0.061 A 
ENDROOT
BRANCH   3   4
HETATM    4  C8  UNL     1     -33.659   6.034   5.069  1.00 20.00     0.016 C 
HETATM    5  C5  UNL     1     -33.777   6.913   6.316  1.00 20.00     0.013 C 
BRANCH   4   6
HETATM    6  C7  UNL     1     -33.619   6.859   3.769  1.00 20.00     0.007 C 
BRANCH   6   7
HETATM    7  C6  UNL     1     -32.275   6.782   3.039  1.00 20.00    -0.004 C 
HETATM    8  C4  UNL     1     -32.021   8.034   2.213  1.00 20.00     0.005 C 
ENDBRANCH   6   7
ENDBRANCH   4   6
ENDBRANCH   3   4
BRANCH   3   9
HETATM    9  O9  UNL     1     -35.854   5.398   4.077  1.00 20.00    -0.389 OA
HETATM   10  H25 UNL     1     -35.626   4.941   3.258  1.00 20.00     0.210 HD
ENDBRANCH   3   9
TORSDOF 4
ENDMDL
MODEL 4
REMARK VINA RESULT:      -4.4     11.558     12.599
REMARK  4 active torsions:
REMARK  status: ('A' for Active; 'I' for Inactive)
REMARK    1  A    between atoms: C3_3  and  C8_8 
REMARK    2  A    between atoms: C3_3  and  O9_9 
REMARK    3  A    between atoms: C6_6  and  C7_7 
REMARK    4  A    between atoms: C7_7  and  C8_8 
ROOT
HETATM    1  C1  UNL     1     -36.370  14.690  -5.083  1.00 20.00     0.041 A 
HETATM    2  C2  UNL     1     -35.309  14.336  -6.088  1.00 20.00     0.041 A 
HETATM    3  C3  UNL     1     -35.098  14.025  -4.631  1.00 20.00     0.061 A 
ENDROOT
BRANCH   3   4
HETATM    4  C8  UNL     1     -34.070  14.812  -3.815  1.00 20.00     0.016 C 
HETATM    5  C5  UNL     1     -32.886  13.908  -3.468  1.00 20.00     0.013 C 
BRANCH   4   6
HETATM    6  C7  UNL     1     -34.741  15.410  -2.565  1.00 20.00     0.007 C 
BRANCH   6   7
HETATM    7  C6  UNL     1     -33.966  16.583  -1.959  1.00 20.00    -0.004 C 
HETATM    8  C4  UNL     1     -34.497  16.943  -0.579  1.00 20.00     0.005 C 
ENDBRANCH   6   7
ENDBRANCH   4   6
ENDBRANCH   3   4
BRANCH   3   9
HETATM    9  O9  UNL     1     -35.211  12.642  -4.254  1.00 20.00    -0.389 OA
HETATM   10  H25 UNL     1     -35.050  12.135  -5.061  1.00 20.00     0.210 HD
ENDBRANCH   3   9
TORSDOF 4
ENDMDL
MODEL 5
REMARK VINA RESULT:      -4.2     11.765     12.975
REMARK  4 active torsions:
REMARK  status: ('A' for Active; 'I' for Inactive)
REMARK    1  A    between atoms: C3_3  and  C8_8 
REMARK    2  A    between atoms: C3_3  and  O9_9 
REMARK    3  A    between atoms: C6_6  and  C7_7 
REMARK    4  A    between atoms: C7_7  and  C8_8 
ROOT
HETATM    1  C1  UNL     1     -34.297  13.544  -3.750  1.00 20.00     0.041 A 
HETATM    2  C2  UNL     1     -34.436  14.081  -5.148  1.00 20.00     0.041 A 
HETATM    3  C3  UNL     1     -33.800  14.925  -4.078  1.00 20.00     0.061 A 
ENDROOT
BRANCH   3   4
HETATM    4  C8  UNL     1     -34.530  16.153  -3.529  1.00 20.00     0.016 C 
HETATM    5  C5  UNL     1     -33.706  17.411  -3.809  1.00 20.00     0.013 C 
BRANCH   4   6
HETATM    6  C7  UNL     1     -34.820  15.962  -2.028  1.00 20.00     0.007 C 
BRANCH   6   7
HETATM    7  C6  UNL     1     -34.087  16.963  -1.132  1.00 20.00    -0.004 C 
HETATM    8  C4  UNL     1     -34.877  17.256   0.134  1.00 20.00     0.005 C 
ENDBRANCH   6   7
ENDBRANCH   4   6
ENDBRANCH   3   4
BRANCH   3   9
HETATM    9  O9  UNL     1     -32.372  15.079  -4.155  1.00 20.00    -0.389 OA
HETATM   10  H25 UNL     1     -32.181  15.953  -3.791  1.00 20.00     0.210 HD
ENDBRANCH   3   9
TORSDOF 4
ENDMDL
MODEL 6
REMARK VINA RESULT:      -4.1     12.099     13.642
REMARK  4 active torsions:
REMARK  status: ('A' for Active; 'I' for Inactive)
REMARK    1  A    between atoms: C3_3  and  C8_8 
REMARK    2  A    between atoms: C3_3  and  O9_9 
REMARK    3  A    between atoms: C6_6  and  C7_7 
REMARK    4  A    between atoms: C7_7  and  C8_8 
ROOT
HETATM    1  C1  UNL     1     -34.908  17.097  -5.123  1.00 20.00     0.041 A 
HETATM    2  C2  UNL     1     -33.443  17.392  -5.294  1.00 20.00     0.041 A 
HETATM    3  C3  UNL     1     -33.892  16.006  -4.917  1.00 20.00     0.061 A 
ENDROOT
BRANCH   3   4
HETATM    4  C8  UNL     1     -33.624  15.465  -3.510  1.00 20.00     0.016 C 
HETATM    5  C5  UNL     1     -33.081  14.038  -3.602  1.00 20.00     0.013 C 
BRANCH   4   6
HETATM    6  C7  UNL     1     -34.906  15.554  -2.663  1.00 20.00     0.007 C 
BRANCH   6   7
HETATM    7  C6  UNL     1     -34.719  16.322  -1.352  1.00 20.00    -0.004 C 
HETATM    8  C4  UNL     1     -33.605  17.352  -1.467  1.00 20.00     0.005 C 
ENDBRANCH   6   7
ENDBRANCH   4   6
ENDBRANCH   3   4
BRANCH   3   9
HETATM    9  O9  UNL     1     -33.818  15.011  -5.952  1.00 20.00    -0.389 OA
HETATM   10  H25 UNL     1     -33.096  14.421  -5.699  1.00 20.00     0.210 HD
ENDBRANCH   3   9
TORSDOF 4
ENDMDL
MODEL 7
REMARK VINA RESULT:      -4.1      1.734      4.106
REMARK  4 active torsions:
REMARK  status: ('A' for Active; 'I' for Inactive)
REMARK    1  A    between atoms: C3_3  and  C8_8 
REMARK    2  A    between atoms: C3_3  and  O9_9 
REMARK    3  A    between atoms: C6_6  and  C7_7 
REMARK    4  A    between atoms: C7_7  and  C8_8 
ROOT
HETATM    1  C1  UNL     1     -32.168   7.839   2.388  1.00 20.00     0.041 A 
HETATM    2  C2  UNL     1     -31.472   7.772   3.720  1.00 20.00     0.041 A 
HETATM    3  C3  UNL     1     -32.492   6.730   3.350  1.00 20.00     0.061 A 
ENDROOT
BRANCH   3   4
HETATM    4  C8  UNL     1     -33.852   6.698   4.053  1.00 20.00     0.016 C 
HETATM    5  C5  UNL     1     -33.650   6.746   5.569  1.00 20.00     0.013 C 
BRANCH   4   6
HETATM    6  C7  UNL     1     -34.644   5.456   3.604  1.00 20.00     0.007 C 
BRANCH   6   7
HETATM    7  C6  UNL     1     -35.504   4.847   4.715  1.00 20.00    -0.004 C 
HETATM    8  C4  UNL     1     -34.765   3.732   5.439  1.00 20.00     0.005 C 
ENDBRANCH   6   7
ENDBRANCH   4   6
ENDBRANCH   3   4
BRANCH   3   9
HETATM    9  O9  UNL     1     -31.978   5.431   3.010  1.00 20.00    -0.389 OA
HETATM   10  H25 UNL     1     -31.536   5.106   3.805  1.00 20.00     0.210 HD
ENDBRANCH   3   9
TORSDOF 4
ENDMDL
MODEL 8
REMARK VINA RESULT:      -4.0     12.118     13.080
REMARK  4 active torsions:
REMARK  status: ('A' for Active; 'I' for Inactive)
REMARK    1  A    between atoms: C3_3  and  C8_8 
REMARK    2  A    between atoms: C3_3  and  O9_9 
REMARK    3  A    between atoms: C6_6  and  C7_7 
REMARK    4  A    between atoms: C7_7  and  C8_8 
ROOT
HETATM    1  C1  UNL     1     -34.683  16.787  -0.698  1.00 20.00     0.041 A 
HETATM    2  C2  UNL     1     -33.491  17.688  -0.873  1.00 20.00     0.041 A 
HETATM    3  C3  UNL     1     -34.267  17.224  -2.076  1.00 20.00     0.061 A 
ENDROOT
BRANCH   3   4
HETATM    4  C8  UNL     1     -33.652  16.214  -3.048  1.00 20.00     0.016 C 
HETATM    5  C5  UNL     1     -33.508  16.850  -4.431  1.00 20.00     0.013 C 
BRANCH   4   6
HETATM    6  C7  UNL     1     -34.503  14.931  -3.076  1.00 20.00     0.007 C 
BRANCH   6   7
HETATM    7  C6  UNL     1     -33.815  13.757  -3.777  1.00 20.00    -0.004 C 
HETATM    8  C4  UNL     1     -34.677  13.200  -4.900  1.00 20.00     0.005 C 
ENDBRANCH   6   7
ENDBRANCH   4   6
ENDBRANCH   3   4
BRANCH   3   9
HETATM    9  O9  UNL     1     -35.108  18.206  -2.706  1.00 20.00    -0.389 OA
HETATM   10  H25 UNL     1     -36.013  17.888  -2.594  1.00 20.00     0.210 HD
ENDBRANCH   3   9
TORSDOF 4
ENDMDL
MODEL 9
REMARK VINA RESULT:      -4.0     11.941     12.876
REMARK  4 active torsions:
REMARK  status: ('A' for Active; 'I' for Inactive)
REMARK    1  A    between atoms: C3_3  and  C8_8 
REMARK    2  A    between atoms: C3_3  and  O9_9 
REMARK    3  A    between atoms: C6_6  and  C7_7 
REMARK    4  A    between atoms: C7_7  and  C8_8 
ROOT
HETATM    1  C1  UNL     1     -36.293  16.157  -4.367  1.00 20.00     0.041 A 
HETATM    2  C2  UNL     1     -36.921  15.056  -3.556  1.00 20.00     0.041 A 
HETATM    3  C3  UNL     1     -36.114  16.127  -2.873  1.00 20.00     0.061 A 
ENDROOT
BRANCH   3   4
HETATM    4  C8  UNL     1     -34.745  15.796  -2.272  1.00 20.00     0.016 C 
HETATM    5  C5  UNL     1     -34.550  16.579  -0.973  1.00 20.00     0.013 C 
BRANCH   4   6
HETATM    6  C7  UNL     1     -33.638  16.081  -3.304  1.00 20.00     0.007 C 
BRANCH   6   7
HETATM    7  C6  UNL     1     -32.726  14.880  -3.568  1.00 20.00    -0.004 C 
HETATM    8  C4  UNL     1     -33.533  13.630  -3.887  1.00 20.00     0.005 C 
ENDBRANCH   6   7
ENDBRANCH   4   6
ENDBRANCH   3   4
BRANCH   3   9
HETATM    9  O9  UNL     1     -36.858  17.107  -2.130  1.00 20.00    -0.389 OA
HETATM   10  H25 UNL     1     -37.665  16.662  -1.841  1.00 20.00     0.210 HD
ENDBRANCH   3   9
TORSDOF 4
ENDMDL
