MODEL 1
REMARK VINA RESULT:      -4.2      0.000      0.000
REMARK  2 active torsions:
REMARK  status: ('A' for Active; 'I' for Inactive)
REMARK    1  A    between atoms: C2_2  and  C7_7 
REMARK       I    between atoms: C2_2  and  N8_8 
REMARK    2  A    between atoms: C6_6  and  C7_7 
ROOT
HETATM    1  C1  UNL     1     -35.707  14.824  -6.849  1.00 20.00     0.166 C 
HETATM    2  C2  UNL     1     -34.538  13.946  -5.210  1.00 20.00     0.252 C 
HETATM    3  N8  UNL     1     -34.638  14.651  -6.397  1.00 20.00    -0.199 NA
HETATM    4  O9  UNL     1     -34.923  12.790  -5.029  1.00 20.00    -0.270 OA
HETATM    5  S10 UNL     1     -37.142  15.079  -7.493  1.00 20.00    -0.055 SA
ENDROOT
BRANCH   2   6
HETATM    6  C7  UNL     1     -33.886  14.759  -4.068  1.00 20.00     0.035 C 
HETATM    7  C4  UNL     1     -33.207  16.017  -4.638  1.00 20.00     0.025 C 
HETATM    8  C5  UNL     1     -32.798  13.884  -3.416  1.00 20.00     0.025 C 
BRANCH   6   9
HETATM    9  C6  UNL     1     -34.936  15.141  -2.994  1.00 20.00     0.014 C 
HETATM   10  C3  UNL     1     -34.450  16.133  -1.944  1.00 20.00     0.006 C 
ENDBRANCH   6   9
ENDBRANCH   2   6
TORSDOF 2
ENDMDL
MODEL 2
REMARK VINA RESULT:      -4.2      1.712      1.714
REMARK  2 active torsions:
REMARK  status: ('A' for Active; 'I' for Inactive)
REMARK    1  A    between atoms: C2_2  and  C7_7 
REMARK       I    between atoms: C2_2  and  N8_8 
REMARK    2  A    between atoms: C6_6  and  C7_7 
ROOT
HETATM    1  C1  UNL     1     -37.268  14.813  -4.635  1.00 20.00     0.166 C 
HETATM    2  C2  UNL     1     -35.215  14.073  -4.385  1.00 20.00     0.252 C 
HETATM    3  N8  UNL     1     -36.161  14.858  -5.022  1.00 20.00    -0.199 NA
HETATM    4  O9  UNL     1     -35.250  12.846  -4.290  1.00 20.00    -0.270 OA
HETATM    5  S10 UNL     1     -38.781  14.779  -4.137  1.00 20.00    -0.055 SA
ENDROOT
BRANCH   2   6
HETATM    6  C7  UNL     1     -34.061  14.891  -3.762  1.00 20.00     0.035 C 
HETATM    7  C4  UNL     1     -33.582  15.967  -4.754  1.00 20.00     0.025 C 
HETATM    8  C5  UNL     1     -32.885  13.934  -3.491  1.00 20.00     0.025 C 
BRANCH   6   9
HETATM    9  C6  UNL     1     -34.504  15.538  -2.425  1.00 20.00     0.014 C 
HETATM   10  C3  UNL     1     -33.751  16.808  -2.045  1.00 20.00     0.006 C 
ENDBRANCH   6   9
ENDBRANCH   2   6
TORSDOF 2
ENDMDL
MODEL 3
REMARK VINA RESULT:      -4.0      3.100      3.968
REMARK  2 active torsions:
REMARK  status: ('A' for Active; 'I' for Inactive)
REMARK    1  A    between atoms: C2_2  and  C7_7 
REMARK       I    between atoms: C2_2  and  N8_8 
REMARK    2  A    between atoms: C6_6  and  C7_7 
ROOT
HETATM    1  C1  UNL     1     -33.753  16.261  -2.429  1.00 20.00     0.166 C 
HETATM    2  C2  UNL     1     -33.612  15.699  -4.547  1.00 20.00     0.252 C 
HETATM    3  N8  UNL     1     -33.540  15.400  -3.198  1.00 20.00    -0.199 NA
HETATM    4  O9  UNL     1     -32.929  16.541  -5.131  1.00 20.00    -0.270 OA
HETATM    5  S10 UNL     1     -34.037  17.402  -1.355  1.00 20.00    -0.055 SA
ENDROOT
BRANCH   2   6
HETATM    6  C7  UNL     1     -34.671  14.865  -5.303  1.00 20.00     0.035 C 
HETATM    7  C4  UNL     1     -34.569  13.385  -4.892  1.00 20.00     0.025 C 
HETATM    8  C5  UNL     1     -34.373  14.963  -6.811  1.00 20.00     0.025 C 
BRANCH   6   9
HETATM    9  C6  UNL     1     -36.097  15.411  -5.034  1.00 20.00     0.014 C 
HETATM   10  C3  UNL     1     -36.933  14.577  -4.070  1.00 20.00     0.006 C 
ENDBRANCH   6   9
ENDBRANCH   2   6
TORSDOF 2
ENDMDL
MODEL 4
REMARK VINA RESULT:      -4.0      2.349      2.716
REMARK  2 active torsions:
REMARK  status: ('A' for Active; 'I' for Inactive)
REMARK    1  A    between atoms: C2_2  and  C7_7 
REMARK       I    between atoms: C2_2  and  N8_8 
REMARK    2  A    between atoms: C6_6  and  C7_7 
ROOT
HETATM    1  C1  UNL     1     -33.506  17.615  -5.409  1.00 20.00     0.166 C 
HETATM    2  C2  UNL     1     -34.297  15.568  -5.304  1.00 20.00     0.252 C 
HETATM    3  N8  UNL     1     -33.249  16.472  -5.330  1.00 20.00    -0.199 NA
HETATM    4  O9  UNL     1     -35.146  15.431  -6.185  1.00 20.00    -0.270 OA
HETATM    5  S10 UNL     1     -33.816  19.174  -5.514  1.00 20.00    -0.055 SA
ENDROOT
BRANCH   2   6
HETATM    6  C7  UNL     1     -34.331  14.709  -4.019  1.00 20.00     0.035 C 
HETATM    7  C4  UNL     1     -32.901  14.481  -3.499  1.00 20.00     0.025 C 
HETATM    8  C5  UNL     1     -34.934  13.337  -4.375  1.00 20.00     0.025 C 
BRANCH   6   9
HETATM    9  C6  UNL     1     -35.210  15.379  -2.932  1.00 20.00     0.014 C 
HETATM   10  C3  UNL     1     -34.437  16.153  -1.869  1.00 20.00     0.006 C 
ENDBRANCH   6   9
ENDBRANCH   2   6
TORSDOF 2
ENDMDL
MODEL 5
REMARK VINA RESULT:      -4.0     11.681     12.579
REMARK  2 active torsions:
REMARK  status: ('A' for Active; 'I' for Inactive)
REMARK    1  A    between atoms: C2_2  and  C7_7 
REMARK       I    between atoms: C2_2  and  N8_8 
REMARK    2  A    between atoms: C6_6  and  C7_7 
ROOT
HETATM    1  C1  UNL     1     -32.300   7.229   2.700  1.00 20.00     0.166 C 
HETATM    2  C2  UNL     1     -33.643   5.529   3.061  1.00 20.00     0.252 C 
HETATM    3  N8  UNL     1     -32.529   6.291   3.367  1.00 20.00    -0.199 NA
HETATM    4  O9  UNL     1     -33.844   4.955   1.989  1.00 20.00    -0.270 OA
HETATM    5  S10 UNL     1     -31.956   8.510   1.817  1.00 20.00    -0.055 SA
ENDROOT
BRANCH   2   6
HETATM    6  C7  UNL     1     -34.671   5.456   4.213  1.00 20.00     0.035 C 
HETATM    7  C4  UNL     1     -34.805   4.005   4.708  1.00 20.00     0.025 C 
HETATM    8  C5  UNL     1     -36.040   5.901   3.665  1.00 20.00     0.025 C 
BRANCH   6   9
HETATM    9  C6  UNL     1     -34.262   6.396   5.375  1.00 20.00     0.014 C 
HETATM   10  C3  UNL     1     -34.459   5.815   6.771  1.00 20.00     0.006 C 
ENDBRANCH   6   9
ENDBRANCH   2   6
TORSDOF 2
ENDMDL
MODEL 6
REMARK VINA RESULT:      -4.0      2.986      4.236
REMARK  2 active torsions:
REMARK  status: ('A' for Active; 'I' for Inactive)
REMARK    1  A    between atoms: C2_2  and  C7_7 
REMARK       I    between atoms: C2_2  and  N8_8 
REMARK    2  A    between atoms: C6_6  and  C7_7 
ROOT
HETATM    1  C1  UNL     1     -34.052  15.928  -2.293  1.00 20.00     0.166 C 
HETATM    2  C2  UNL     1     -33.768  15.490  -4.427  1.00 20.00     0.252 C 
HETATM    3  N8  UNL     1     -33.812  15.107  -3.097  1.00 20.00    -0.199 NA
HETATM    4  O9  UNL     1     -33.009  16.336  -4.903  1.00 20.00    -0.270 OA
HETATM    5  S10 UNL     1     -34.374  17.014  -1.173  1.00 20.00    -0.055 SA
ENDROOT
BRANCH   2   6
HETATM    6  C7  UNL     1     -34.796  14.750  -5.312  1.00 20.00     0.035 C 
HETATM    7  C4  UNL     1     -36.208  15.310  -5.061  1.00 20.00     0.025 C 
HETATM    8  C5  UNL     1     -34.795  13.263  -4.910  1.00 20.00     0.025 C 
BRANCH   6   9
HETATM    9  C6  UNL     1     -34.418  14.868  -6.811  1.00 20.00     0.014 C 
HETATM   10  C3  UNL     1     -35.495  14.401  -7.783  1.00 20.00     0.006 C 
ENDBRANCH   6   9
ENDBRANCH   2   6
TORSDOF 2
ENDMDL
MODEL 7
REMARK VINA RESULT:      -3.9      2.387      3.244
REMARK  2 active torsions:
REMARK  status: ('A' for Active; 'I' for Inactive)
REMARK    1  A    between atoms: C2_2  and  C7_7 
REMARK       I    between atoms: C2_2  and  N8_8 
REMARK    2  A    between atoms: C6_6  and  C7_7 
ROOT
HETATM    1  C1  UNL     1     -37.845  14.694  -4.108  1.00 20.00     0.166 C 
HETATM    2  C2  UNL     1     -35.742  14.943  -3.523  1.00 20.00     0.252 C 
HETATM    3  N8  UNL     1     -36.846  14.156  -3.804  1.00 20.00    -0.199 NA
HETATM    4  O9  UNL     1     -35.680  15.800  -2.641  1.00 20.00    -0.270 OA
HETATM    5  S10 UNL     1     -39.217  15.386  -4.525  1.00 20.00    -0.055 SA
ENDROOT
BRANCH   2   6
HETATM    6  C7  UNL     1     -34.537  14.659  -4.449  1.00 20.00     0.035 C 
HETATM    7  C4  UNL     1     -34.498  13.166  -4.821  1.00 20.00     0.025 C 
HETATM    8  C5  UNL     1     -33.248  14.992  -3.675  1.00 20.00     0.025 C 
BRANCH   6   9
HETATM    9  C6  UNL     1     -34.603  15.540  -5.723  1.00 20.00     0.014 C 
HETATM   10  C3  UNL     1     -34.762  14.770  -7.029  1.00 20.00     0.006 C 
ENDBRANCH   6   9
ENDBRANCH   2   6
TORSDOF 2
ENDMDL
MODEL 8
REMARK VINA RESULT:      -3.9      1.825      2.303
REMARK  2 active torsions:
REMARK  status: ('A' for Active; 'I' for Inactive)
REMARK    1  A    between atoms: C2_2  and  C7_7 
REMARK       I    between atoms: C2_2  and  N8_8 
REMARK    2  A    between atoms: C6_6  and  C7_7 
ROOT
HETATM    1  C1  UNL     1     -35.266  15.604  -6.513  1.00 20.00     0.166 C 
HETATM    2  C2  UNL     1     -34.076  16.062  -4.725  1.00 20.00     0.252 C 
HETATM    3  N8  UNL     1     -35.229  16.167  -5.483  1.00 20.00    -0.199 NA
HETATM    4  O9  UNL     1     -32.950  16.409  -5.082  1.00 20.00    -0.270 OA
HETATM    5  S10 UNL     1     -35.355  14.854  -7.916  1.00 20.00    -0.055 SA
ENDROOT
BRANCH   2   6
HETATM    6  C7  UNL     1     -34.315  15.436  -3.332  1.00 20.00     0.035 C 
HETATM    7  C4  UNL     1     -33.728  14.014  -3.285  1.00 20.00     0.025 C 
HETATM    8  C5  UNL     1     -35.835  15.332  -3.105  1.00 20.00     0.025 C 
BRANCH   6   9
HETATM    9  C6  UNL     1     -33.698  16.320  -2.218  1.00 20.00     0.014 C 
HETATM   10  C3  UNL     1     -34.615  16.588  -1.029  1.00 20.00     0.006 C 
ENDBRANCH   6   9
ENDBRANCH   2   6
TORSDOF 2
ENDMDL
MODEL 9
REMARK VINA RESULT:      -3.9      3.106      4.178
REMARK  2 active torsions:
REMARK  status: ('A' for Active; 'I' for Inactive)
REMARK    1  A    between atoms: C2_2  and  C7_7 
REMARK       I    between atoms: C2_2  and  N8_8 
REMARK    2  A    between atoms: C6_6  and  C7_7 
ROOT
HETATM    1  C1  UNL     1     -34.107  16.813  -2.023  1.00 20.00     0.166 C 
HETATM    2  C2  UNL     1     -33.867  15.112  -3.391  1.00 20.00     0.252 C 
HETATM    3  N8  UNL     1     -34.422  15.710  -2.273  1.00 20.00    -0.199 NA
HETATM    4  O9  UNL     1     -32.663  14.930  -3.582  1.00 20.00    -0.270 OA
HETATM    5  S10 UNL     1     -33.705  18.309  -1.651  1.00 20.00    -0.055 SA
ENDROOT
BRANCH   2   6
HETATM    6  C7  UNL     1     -34.917  14.676  -4.438  1.00 20.00     0.035 C 
HETATM    7  C4  UNL     1     -36.320  14.663  -3.803  1.00 20.00     0.025 C 
HETATM    8  C5  UNL     1     -34.583  13.240  -4.885  1.00 20.00     0.025 C 
BRANCH   6   9
HETATM    9  C6  UNL     1     -34.883  15.611  -5.674  1.00 20.00     0.014 C 
HETATM   10  C3  UNL     1     -34.461  14.939  -6.975  1.00 20.00     0.006 C 
ENDBRANCH   6   9
ENDBRANCH   2   6
TORSDOF 2
ENDMDL
