MODEL 1
REMARK VINA RESULT:      -5.4      0.000      0.000
REMARK  2 active torsions:
REMARK  status: ('A' for Active; 'I' for Inactive)
REMARK    1  A    between atoms: C7_7  and  C11_11 
REMARK    2  A    between atoms: C8_8  and  C12_12 
ROOT
HETATM    1  C1  UNL     1     -34.857  17.352   0.385  1.00 20.00     0.012 C 
HETATM    2  C2  UNL     1     -34.416  17.053  -0.691  1.00 20.00    -0.117 C 
HETATM    3  C11 UNL     1     -33.870  16.696  -2.004  1.00 20.00     0.105 C 
ENDROOT
BRANCH   3   4
HETATM    4  C7  UNL     1     -34.531  15.433  -2.547  1.00 20.00     0.067 C 
HETATM    5  C3  UNL     1     -33.628  14.704  -3.536  1.00 20.00     0.132 C 
HETATM    6  C4  UNL     1     -34.237  13.504  -4.228  1.00 20.00     0.079 C 
HETATM    7  O13 UNL     1     -32.446  15.000  -3.705  1.00 20.00    -0.298 OA
HETATM    8  C5  UNL     1     -35.573  13.872  -4.857  1.00 20.00     0.012 C 
HETATM    9  C8  UNL     1     -36.521  14.522  -3.841  1.00 20.00    -0.010 C 
HETATM   10  C6  UNL     1     -35.865  15.766  -3.222  1.00 20.00     0.018 C 
BRANCH   9  11
HETATM   11  C12 UNL     1     -37.850  14.886  -4.501  1.00 20.00    -0.019 C 
HETATM   12  C9  UNL     1     -38.887  15.265  -3.447  1.00 20.00     0.010 C 
HETATM   13  C10 UNL     1     -37.659  16.024  -5.501  1.00 20.00     0.010 C 
ENDBRANCH   9  11
ENDBRANCH   3   4
TORSDOF 2
ENDMDL
MODEL 2
REMARK VINA RESULT:      -5.2      1.067      1.218
REMARK  2 active torsions:
REMARK  status: ('A' for Active; 'I' for Inactive)
REMARK    1  A    between atoms: C7_7  and  C11_11 
REMARK    2  A    between atoms: C8_8  and  C12_12 
ROOT
HETATM    1  C1  UNL     1     -34.852  17.115   0.024  1.00 20.00     0.012 C 
HETATM    2  C2  UNL     1     -34.387  16.891  -1.061  1.00 20.00    -0.117 C 
HETATM    3  C11 UNL     1     -33.813  16.625  -2.383  1.00 20.00     0.105 C 
ENDROOT
BRANCH   3   4
HETATM    4  C7  UNL     1     -34.497  15.435  -3.049  1.00 20.00     0.067 C 
HETATM    5  C3  UNL     1     -33.491  14.511  -3.726  1.00 20.00     0.132 C 
HETATM    6  C4  UNL     1     -34.076  13.366  -4.523  1.00 20.00     0.079 C 
HETATM    7  O13 UNL     1     -32.276  14.618  -3.570  1.00 20.00    -0.298 OA
HETATM    8  C5  UNL     1     -35.117  13.878  -5.509  1.00 20.00     0.012 C 
HETATM    9  C8  UNL     1     -36.186  14.733  -4.816  1.00 20.00    -0.010 C 
HETATM   10  C6  UNL     1     -35.529  15.910  -4.078  1.00 20.00     0.018 C 
BRANCH   9  11
HETATM   11  C12 UNL     1     -37.211  15.238  -5.830  1.00 20.00    -0.019 C 
HETATM   12  C9  UNL     1     -37.560  16.699  -5.557  1.00 20.00     0.010 C 
HETATM   13  C10 UNL     1     -36.688  15.067  -7.253  1.00 20.00     0.010 C 
ENDBRANCH   9  11
ENDBRANCH   3   4
TORSDOF 2
ENDMDL
MODEL 3
REMARK VINA RESULT:      -5.1      2.057      4.551
REMARK  2 active torsions:
REMARK  status: ('A' for Active; 'I' for Inactive)
REMARK    1  A    between atoms: C7_7  and  C11_11 
REMARK    2  A    between atoms: C8_8  and  C12_12 
ROOT
HETATM    1  C1  UNL     1     -37.705  15.669  -6.391  1.00 20.00     0.012 C 
HETATM    2  C2  UNL     1     -36.676  15.109  -6.651  1.00 20.00    -0.117 C 
HETATM    3  C11 UNL     1     -35.422  14.422  -6.978  1.00 20.00     0.105 C 
ENDROOT
BRANCH   3   4
HETATM    4  C7  UNL     1     -34.353  14.703  -5.927  1.00 20.00     0.067 C 
HETATM    5  C3  UNL     1     -34.318  13.621  -4.853  1.00 20.00     0.132 C 
HETATM    6  C4  UNL     1     -33.377  13.867  -3.695  1.00 20.00     0.079 C 
HETATM    7  O13 UNL     1     -34.940  12.564  -4.950  1.00 20.00    -0.298 OA
HETATM    8  C5  UNL     1     -33.618  15.245  -3.094  1.00 20.00     0.012 C 
HETATM    9  C8  UNL     1     -33.561  16.349  -4.158  1.00 20.00    -0.010 C 
HETATM   10  C6  UNL     1     -34.583  16.068  -5.271  1.00 20.00     0.018 C 
BRANCH   9  11
HETATM   11  C12 UNL     1     -33.814  17.717  -3.528  1.00 20.00    -0.019 C 
HETATM   12  C9  UNL     1     -35.141  18.294  -4.013  1.00 20.00     0.010 C 
HETATM   13  C10 UNL     1     -33.794  17.618  -2.005  1.00 20.00     0.010 C 
ENDBRANCH   9  11
ENDBRANCH   3   4
TORSDOF 2
ENDMDL
MODEL 4
REMARK VINA RESULT:      -5.1      2.755      3.574
REMARK  2 active torsions:
REMARK  status: ('A' for Active; 'I' for Inactive)
REMARK    1  A    between atoms: C7_7  and  C11_11 
REMARK    2  A    between atoms: C8_8  and  C12_12 
ROOT
HETATM    1  C1  UNL     1     -34.713  16.838  -1.266  1.00 20.00     0.012 C 
HETATM    2  C2  UNL     1     -34.615  15.898  -2.006  1.00 20.00    -0.117 C 
HETATM    3  C11 UNL     1     -34.493  14.744  -2.903  1.00 20.00     0.105 C 
ENDROOT
BRANCH   3   4
HETATM    4  C7  UNL     1     -35.016  15.075  -4.297  1.00 20.00     0.067 C 
HETATM    5  C3  UNL     1     -34.874  13.893  -5.249  1.00 20.00     0.132 C 
HETATM    6  C4  UNL     1     -35.248  14.155  -6.691  1.00 20.00     0.079 C 
HETATM    7  O13 UNL     1     -34.564  12.764  -4.870  1.00 20.00    -0.298 OA
HETATM    8  C5  UNL     1     -34.523  15.386  -7.216  1.00 20.00     0.012 C 
HETATM    9  C8  UNL     1     -34.741  16.605  -6.310  1.00 20.00    -0.010 C 
HETATM   10  C6  UNL     1     -34.284  16.290  -4.877  1.00 20.00     0.018 C 
BRANCH   9  11
HETATM   11  C12 UNL     1     -33.997  17.822  -6.857  1.00 20.00    -0.019 C 
HETATM   12  C9  UNL     1     -34.841  18.538  -7.908  1.00 20.00     0.010 C 
HETATM   13  C10 UNL     1     -33.623  18.776  -5.726  1.00 20.00     0.010 C 
ENDBRANCH   9  11
ENDBRANCH   3   4
TORSDOF 2
ENDMDL
MODEL 5
REMARK VINA RESULT:      -5.0      2.339      3.106
REMARK  2 active torsions:
REMARK  status: ('A' for Active; 'I' for Inactive)
REMARK    1  A    between atoms: C7_7  and  C11_11 
REMARK    2  A    between atoms: C8_8  and  C12_12 
ROOT
HETATM    1  C1  UNL     1     -33.225  18.541   0.655  1.00 20.00     0.012 C 
HETATM    2  C2  UNL     1     -33.835  17.805  -0.073  1.00 20.00    -0.117 C 
HETATM    3  C11 UNL     1     -34.587  16.907  -0.954  1.00 20.00     0.105 C 
ENDROOT
BRANCH   3   4
HETATM    4  C7  UNL     1     -33.891  16.751  -2.302  1.00 20.00     0.067 C 
HETATM    5  C3  UNL     1     -34.119  17.963  -3.199  1.00 20.00     0.132 C 
HETATM    6  C4  UNL     1     -33.574  17.858  -4.606  1.00 20.00     0.079 C 
HETATM    7  O13 UNL     1     -34.629  19.006  -2.794  1.00 20.00    -0.298 OA
HETATM    8  C5  UNL     1     -34.052  16.573  -5.269  1.00 20.00     0.012 C 
HETATM    9  C8  UNL     1     -33.741  15.340  -4.412  1.00 20.00    -0.010 C 
HETATM   10  C6  UNL     1     -34.373  15.486  -3.019  1.00 20.00     0.018 C 
BRANCH   9  11
HETATM   11  C12 UNL     1     -34.237  14.069  -5.098  1.00 20.00    -0.019 C 
HETATM   12  C9  UNL     1     -35.187  13.301  -4.182  1.00 20.00     0.010 C 
HETATM   13  C10 UNL     1     -34.920  14.404  -6.421  1.00 20.00     0.010 C 
ENDBRANCH   9  11
ENDBRANCH   3   4
TORSDOF 2
ENDMDL
MODEL 6
REMARK VINA RESULT:      -4.9      2.376      4.988
REMARK  2 active torsions:
REMARK  status: ('A' for Active; 'I' for Inactive)
REMARK    1  A    between atoms: C7_7  and  C11_11 
REMARK    2  A    between atoms: C8_8  and  C12_12 
ROOT
HETATM    1  C1  UNL     1     -34.798  13.091  -4.872  1.00 20.00     0.012 C 
HETATM    2  C2  UNL     1     -34.143  13.853  -4.213  1.00 20.00    -0.117 C 
HETATM    3  C11 UNL     1     -33.335  14.776  -3.410  1.00 20.00     0.105 C 
ENDROOT
BRANCH   3   4
HETATM    4  C7  UNL     1     -34.065  16.098  -3.195  1.00 20.00     0.067 C 
HETATM    5  C3  UNL     1     -33.641  17.149  -4.214  1.00 20.00     0.132 C 
HETATM    6  C4  UNL     1     -34.213  18.535  -4.013  1.00 20.00     0.079 C 
HETATM    7  O13 UNL     1     -32.952  16.885  -5.198  1.00 20.00    -0.298 OA
HETATM    8  C5  UNL     1     -33.974  19.010  -2.587  1.00 20.00     0.012 C 
HETATM    9  C8  UNL     1     -34.484  17.996  -1.555  1.00 20.00    -0.010 C 
HETATM   10  C6  UNL     1     -33.818  16.629  -1.779  1.00 20.00     0.018 C 
BRANCH   9  11
HETATM   11  C12 UNL     1     -34.224  18.495  -0.136  1.00 20.00    -0.019 C 
HETATM   12  C9  UNL     1     -34.980  17.643   0.880  1.00 20.00     0.010 C 
HETATM   13  C10 UNL     1     -32.729  18.495   0.168  1.00 20.00     0.010 C 
ENDBRANCH   9  11
ENDBRANCH   3   4
TORSDOF 2
ENDMDL
MODEL 7
REMARK VINA RESULT:      -4.9      1.432      4.555
REMARK  2 active torsions:
REMARK  status: ('A' for Active; 'I' for Inactive)
REMARK    1  A    between atoms: C7_7  and  C11_11 
REMARK    2  A    between atoms: C8_8  and  C12_12 
ROOT
HETATM    1  C1  UNL     1     -39.060  15.439  -5.907  1.00 20.00     0.012 C 
HETATM    2  C2  UNL     1     -38.386  15.099  -4.972  1.00 20.00    -0.117 C 
HETATM    3  C11 UNL     1     -37.571  14.680  -3.828  1.00 20.00     0.105 C 
ENDROOT
BRANCH   3   4
HETATM    4  C7  UNL     1     -36.121  15.122  -3.997  1.00 20.00     0.067 C 
HETATM    5  C3  UNL     1     -35.193  13.935  -4.231  1.00 20.00     0.132 C 
HETATM    6  C4  UNL     1     -33.715  14.251  -4.288  1.00 20.00     0.079 C 
HETATM    7  O13 UNL     1     -35.606  12.798  -4.455  1.00 20.00    -0.298 OA
HETATM    8  C5  UNL     1     -33.294  15.057  -3.067  1.00 20.00     0.012 C 
HETATM    9  C8  UNL     1     -34.167  16.305  -2.880  1.00 20.00    -0.010 C 
HETATM   10  C6  UNL     1     -35.647  15.907  -2.769  1.00 20.00     0.018 C 
BRANCH   9  11
HETATM   11  C12 UNL     1     -33.726  17.089  -1.646  1.00 20.00    -0.019 C 
HETATM   12  C9  UNL     1     -33.617  18.578  -1.966  1.00 20.00     0.010 C 
HETATM   13  C10 UNL     1     -34.695  16.858  -0.489  1.00 20.00     0.010 C 
ENDBRANCH   9  11
ENDBRANCH   3   4
TORSDOF 2
ENDMDL
MODEL 8
REMARK VINA RESULT:      -4.9      2.380      4.735
REMARK  2 active torsions:
REMARK  status: ('A' for Active; 'I' for Inactive)
REMARK    1  A    between atoms: C7_7  and  C11_11 
REMARK    2  A    between atoms: C8_8  and  C12_12 
ROOT
HETATM    1  C1  UNL     1     -34.724  17.811  -7.487  1.00 20.00     0.012 C 
HETATM    2  C2  UNL     1     -34.481  16.658  -7.254  1.00 20.00    -0.117 C 
HETATM    3  C11 UNL     1     -34.181  15.249  -6.978  1.00 20.00     0.105 C 
ENDROOT
BRANCH   3   4
HETATM    4  C7  UNL     1     -34.586  14.870  -5.558  1.00 20.00     0.067 C 
HETATM    5  C3  UNL     1     -36.102  14.813  -5.399  1.00 20.00     0.132 C 
HETATM    6  C4  UNL     1     -36.612  14.567  -3.997  1.00 20.00     0.079 C 
HETATM    7  O13 UNL     1     -36.875  14.869  -6.354  1.00 20.00    -0.298 OA
HETATM    8  C5  UNL     1     -35.984  15.551  -3.019  1.00 20.00     0.012 C 
HETATM    9  C8  UNL     1     -34.452  15.543  -3.109  1.00 20.00    -0.010 C 
HETATM   10  C6  UNL     1     -34.002  15.860  -4.544  1.00 20.00     0.018 C 
BRANCH   9  11
HETATM   11  C12 UNL     1     -33.850  16.544  -2.124  1.00 20.00    -0.019 C 
HETATM   12  C9  UNL     1     -33.765  17.932  -2.753  1.00 20.00     0.010 C 
HETATM   13  C10 UNL     1     -34.667  16.586  -0.836  1.00 20.00     0.010 C 
ENDBRANCH   9  11
ENDBRANCH   3   4
TORSDOF 2
ENDMDL
MODEL 9
REMARK VINA RESULT:      -4.8      2.378      3.831
REMARK  2 active torsions:
REMARK  status: ('A' for Active; 'I' for Inactive)
REMARK    1  A    between atoms: C7_7  and  C11_11 
REMARK    2  A    between atoms: C8_8  and  C12_12 
ROOT
HETATM    1  C1  UNL     1     -31.848  18.967   0.507  1.00 20.00     0.012 C 
HETATM    2  C2  UNL     1     -32.953  18.506   0.417  1.00 20.00    -0.117 C 
HETATM    3  C11 UNL     1     -34.304  17.946   0.316  1.00 20.00     0.105 C 
ENDROOT
BRANCH   3   4
HETATM    4  C7  UNL     1     -34.684  17.687  -1.139  1.00 20.00     0.067 C 
HETATM    5  C3  UNL     1     -36.131  18.074  -1.422  1.00 20.00     0.132 C 
HETATM    6  C4  UNL     1     -36.646  17.743  -2.805  1.00 20.00     0.079 C 
HETATM    7  O13 UNL     1     -36.823  18.701  -0.622  1.00 20.00    -0.298 OA
HETATM    8  C5  UNL     1     -36.383  16.280  -3.137  1.00 20.00     0.012 C 
HETATM    9  C8  UNL     1     -34.907  15.909  -2.943  1.00 20.00    -0.010 C 
HETATM   10  C6  UNL     1     -34.467  16.215  -1.502  1.00 20.00     0.018 C 
BRANCH   9  11
HETATM   11  C12 UNL     1     -34.674  14.437  -3.276  1.00 20.00    -0.019 C 
HETATM   12  C9  UNL     1     -35.735  13.933  -4.251  1.00 20.00     0.010 C 
HETATM   13  C10 UNL     1     -33.275  14.231  -3.850  1.00 20.00     0.010 C 
ENDBRANCH   9  11
ENDBRANCH   3   4
TORSDOF 2
ENDMDL
