MODEL 1
REMARK VINA RESULT:      -5.0      0.000      0.000
REMARK  1 active torsions:
REMARK  status: ('A' for Active; 'I' for Inactive)
REMARK    1  A    between atoms: C1_1  and  C6_6 
ROOT
HETATM    1  C2  UNL     1     -34.648   5.645   6.337  1.00 20.00     0.027 C 
HETATM    2  C3  UNL     1     -33.551   6.354   5.555  1.00 20.00     0.017 C 
HETATM    3  C4  UNL     1     -35.002   4.304   5.698  1.00 20.00     0.167 C 
HETATM    4  C5  UNL     1     -34.979   5.488   3.634  1.00 20.00     0.181 C 
HETATM    5  C6  UNL     1     -33.966   6.541   4.092  1.00 20.00     0.096 C 
HETATM    6  O8  UNL     1     -34.734   4.249   4.296  1.00 20.00    -0.390 OA
ENDROOT
BRANCH   5   7
HETATM    7  C1  UNL     1     -32.742   6.477   3.229  1.00 20.00     0.225 C 
HETATM    8  O7  UNL     1     -32.080   5.448   3.121  1.00 20.00    -0.279 OA
HETATM    9 CL9  UNL     1     -32.414   7.993   2.445  1.00 20.00    -0.043 Cl
ENDBRANCH   5   7
TORSDOF 1
ENDMDL
MODEL 2
REMARK VINA RESULT:      -4.3     11.740     12.605
REMARK  1 active torsions:
REMARK  status: ('A' for Active; 'I' for Inactive)
REMARK    1  A    between atoms: C1_1  and  C6_6 
ROOT
HETATM    1  C2  UNL     1     -34.587  16.458  -2.127  1.00 20.00     0.027 C 
HETATM    2  C3  UNL     1     -35.315  15.288  -2.772  1.00 20.00     0.017 C 
HETATM    3  C4  UNL     1     -33.676  17.161  -3.131  1.00 20.00     0.167 C 
HETATM    4  C5  UNL     1     -32.994  14.972  -3.767  1.00 20.00     0.181 C 
HETATM    5  C6  UNL     1     -34.315  14.300  -3.382  1.00 20.00     0.096 C 
HETATM    6  O8  UNL     1     -33.229  16.313  -4.190  1.00 20.00    -0.390 OA
ENDROOT
BRANCH   5   7
HETATM    7  C1  UNL     1     -34.935  13.667  -4.591  1.00 20.00     0.225 C 
HETATM    8  O7  UNL     1     -34.745  12.486  -4.870  1.00 20.00    -0.279 OA
HETATM    9 CL9  UNL     1     -35.909  14.789  -5.491  1.00 20.00    -0.043 Cl
ENDBRANCH   5   7
TORSDOF 1
ENDMDL
MODEL 3
REMARK VINA RESULT:      -4.0     12.175     12.608
REMARK  1 active torsions:
REMARK  status: ('A' for Active; 'I' for Inactive)
REMARK    1  A    between atoms: C1_1  and  C6_6 
ROOT
HETATM    1  C2  UNL     1     -34.410  13.285  -4.805  1.00 20.00     0.027 C 
HETATM    2  C3  UNL     1     -33.758  14.111  -3.707  1.00 20.00     0.017 C 
HETATM    3  C4  UNL     1     -35.228  14.166  -5.746  1.00 20.00     0.167 C 
HETATM    4  C5  UNL     1     -36.061  15.191  -3.766  1.00 20.00     0.181 C 
HETATM    5  C6  UNL     1     -34.812  14.904  -2.928  1.00 20.00     0.096 C 
HETATM    6  O8  UNL     1     -35.705  15.367  -5.136  1.00 20.00    -0.390 OA
ENDROOT
BRANCH   5   7
HETATM    7  C1  UNL     1     -34.205  16.194  -2.464  1.00 20.00     0.225 C 
HETATM    8  O7  UNL     1     -33.526  16.893  -3.211  1.00 20.00    -0.279 OA
HETATM    9 CL9  UNL     1     -34.584  16.535  -0.803  1.00 20.00    -0.043 Cl
ENDBRANCH   5   7
TORSDOF 1
ENDMDL
MODEL 4
REMARK VINA RESULT:      -4.0     11.464     12.643
REMARK  1 active torsions:
REMARK  status: ('A' for Active; 'I' for Inactive)
REMARK    1  A    between atoms: C1_1  and  C6_6 
ROOT
HETATM    1  C2  UNL     1     -33.751  17.312  -4.092  1.00 20.00     0.027 C 
HETATM    2  C3  UNL     1     -33.585  15.903  -4.643  1.00 20.00     0.017 C 
HETATM    3  C4  UNL     1     -33.971  17.291  -2.581  1.00 20.00     0.167 C 
HETATM    4  C5  UNL     1     -35.502  15.521  -3.014  1.00 20.00     0.181 C 
HETATM    5  C6  UNL     1     -34.795  15.037  -4.283  1.00 20.00     0.096 C 
HETATM    6  O8  UNL     1     -34.554  16.077  -2.105  1.00 20.00    -0.390 OA
ENDROOT
BRANCH   5   7
HETATM    7  C1  UNL     1     -34.341  13.620  -4.102  1.00 20.00     0.225 C 
HETATM    8  O7  UNL     1     -35.069  12.668  -4.374  1.00 20.00    -0.279 OA
HETATM    9 CL9  UNL     1     -32.720  13.526  -3.483  1.00 20.00    -0.043 Cl
ENDBRANCH   5   7
TORSDOF 1
ENDMDL
MODEL 5
REMARK VINA RESULT:      -4.0     11.732     12.738
REMARK  1 active torsions:
REMARK  status: ('A' for Active; 'I' for Inactive)
REMARK    1  A    between atoms: C1_1  and  C6_6 
ROOT
HETATM    1  C2  UNL     1     -35.031  14.040  -3.880  1.00 20.00     0.027 C 
HETATM    2  C3  UNL     1     -35.286  15.265  -3.014  1.00 20.00     0.017 C 
HETATM    3  C4  UNL     1     -33.549  13.673  -3.894  1.00 20.00     0.167 C 
HETATM    4  C5  UNL     1     -33.164  16.000  -4.211  1.00 20.00     0.181 C 
HETATM    5  C6  UNL     1     -34.438  16.448  -3.489  1.00 20.00     0.096 C 
HETATM    6  O8  UNL     1     -32.683  14.782  -3.647  1.00 20.00    -0.390 OA
ENDROOT
BRANCH   5   7
HETATM    7  C1  UNL     1     -34.080  17.296  -2.306  1.00 20.00     0.225 C 
HETATM    8  O7  UNL     1     -33.513  18.377  -2.434  1.00 20.00    -0.279 OA
HETATM    9 CL9  UNL     1     -34.559  16.561  -0.806  1.00 20.00    -0.043 Cl
ENDBRANCH   5   7
TORSDOF 1
ENDMDL
MODEL 6
REMARK VINA RESULT:      -4.0     11.647     12.840
REMARK  1 active torsions:
REMARK  status: ('A' for Active; 'I' for Inactive)
REMARK    1  A    between atoms: C1_1  and  C6_6 
ROOT
HETATM    1  C2  UNL     1     -34.956  17.202  -2.644  1.00 20.00     0.027 C 
HETATM    2  C3  UNL     1     -34.721  15.710  -2.455  1.00 20.00     0.017 C 
HETATM    3  C4  UNL     1     -35.167  17.544  -4.117  1.00 20.00     0.167 C 
HETATM    4  C5  UNL     1     -33.300  16.126  -4.524  1.00 20.00     0.181 C 
HETATM    5  C6  UNL     1     -33.530  15.240  -3.297  1.00 20.00     0.096 C 
HETATM    6  O8  UNL     1     -34.543  16.623  -5.014  1.00 20.00    -0.390 OA
ENDROOT
BRANCH   5   7
HETATM    7  C1  UNL     1     -33.771  13.825  -3.730  1.00 20.00     0.225 C 
HETATM    8  O7  UNL     1     -32.867  12.994  -3.751  1.00 20.00    -0.279 OA
HETATM    9 CL9  UNL     1     -35.428  13.549  -4.173  1.00 20.00    -0.043 Cl
ENDBRANCH   5   7
TORSDOF 1
ENDMDL
MODEL 7
REMARK VINA RESULT:      -4.0     11.874     12.953
REMARK  1 active torsions:
REMARK  status: ('A' for Active; 'I' for Inactive)
REMARK    1  A    between atoms: C1_1  and  C6_6 
ROOT
HETATM    1  C2  UNL     1     -34.438  16.017  -2.373  1.00 20.00     0.027 C 
HETATM    2  C3  UNL     1     -34.325  14.674  -3.078  1.00 20.00     0.017 C 
HETATM    3  C4  UNL     1     -35.555  16.865  -2.976  1.00 20.00     0.167 C 
HETATM    4  C5  UNL     1     -34.672  16.201  -5.083  1.00 20.00     0.181 C 
HETATM    5  C6  UNL     1     -34.107  14.870  -4.581  1.00 20.00     0.096 C 
HETATM    6  O8  UNL     1     -35.837  16.552  -4.341  1.00 20.00    -0.390 OA
ENDROOT
BRANCH   5   7
HETATM    7  C1  UNL     1     -34.752  13.735  -5.318  1.00 20.00     0.225 C 
HETATM    8  O7  UNL     1     -34.828  12.609  -4.831  1.00 20.00    -0.279 OA
HETATM    9 CL9  UNL     1     -35.346  14.220  -6.877  1.00 20.00    -0.043 Cl
ENDBRANCH   5   7
TORSDOF 1
ENDMDL
MODEL 8
REMARK VINA RESULT:      -3.9     12.358     13.527
REMARK  1 active torsions:
REMARK  status: ('A' for Active; 'I' for Inactive)
REMARK    1  A    between atoms: C1_1  and  C6_6 
ROOT
HETATM    1  C2  UNL     1     -37.070  15.622  -6.286  1.00 20.00     0.027 C 
HETATM    2  C3  UNL     1     -36.458  14.938  -5.072  1.00 20.00     0.017 C 
HETATM    3  C4  UNL     1     -36.668  14.914  -7.578  1.00 20.00     0.167 C 
HETATM    4  C5  UNL     1     -34.472  14.884  -6.662  1.00 20.00     0.181 C 
HETATM    5  C6  UNL     1     -34.933  14.871  -5.202  1.00 20.00     0.096 C 
HETATM    6  O8  UNL     1     -35.425  14.216  -7.485  1.00 20.00    -0.390 OA
ENDROOT
BRANCH   5   7
HETATM    7  C1  UNL     1     -34.443  13.626  -4.526  1.00 20.00     0.225 C 
HETATM    8  O7  UNL     1     -35.052  12.563  -4.608  1.00 20.00    -0.279 OA
HETATM    9 CL9  UNL     1     -32.963  13.894  -3.654  1.00 20.00    -0.043 Cl
ENDBRANCH   5   7
TORSDOF 1
ENDMDL
MODEL 9
REMARK VINA RESULT:      -3.9     11.995     12.873
REMARK  1 active torsions:
REMARK  status: ('A' for Active; 'I' for Inactive)
REMARK    1  A    between atoms: C1_1  and  C6_6 
ROOT
HETATM    1  C2  UNL     1     -33.451  13.631  -3.705  1.00 20.00     0.027 C 
HETATM    2  C3  UNL     1     -32.896  15.047  -3.740  1.00 20.00     0.017 C 
HETATM    3  C4  UNL     1     -34.899  13.593  -4.188  1.00 20.00     0.167 C 
HETATM    4  C5  UNL     1     -35.217  15.501  -2.801  1.00 20.00     0.181 C 
HETATM    5  C6  UNL     1     -33.770  15.990  -2.907  1.00 20.00     0.096 C 
HETATM    6  O8  UNL     1     -35.597  14.825  -3.998  1.00 20.00    -0.390 OA
ENDROOT
BRANCH   5   7
HETATM    7  C1  UNL     1     -33.739  17.355  -3.527  1.00 20.00     0.225 C 
HETATM    8  O7  UNL     1     -33.938  18.370  -2.865  1.00 20.00    -0.279 OA
HETATM    9 CL9  UNL     1     -33.399  17.292  -5.230  1.00 20.00    -0.043 Cl
ENDBRANCH   5   7
TORSDOF 1
ENDMDL
