MODEL 1
REMARK VINA RESULT:      -4.9      0.000      0.000
REMARK  0 active torsions:
REMARK  status: ('A' for Active; 'I' for Inactive)
ROOT
HETATM    1  C1  UNL     1     -33.992  16.276  -2.290  1.00 20.00    -0.006 C 
HETATM    2  C2  UNL     1     -33.815  17.367  -3.042  1.00 20.00     0.112 C 
HETATM    3  C3  UNL     1     -34.484  16.405  -5.001  1.00 20.00     0.023 C 
HETATM    4  C4  UNL     1     -34.989  13.905  -5.103  1.00 20.00     0.136 C 
HETATM    5  C5  UNL     1     -34.393  14.982  -2.912  1.00 20.00     0.046 C 
HETATM    6  C6  UNL     1     -34.672  16.485  -6.500  1.00 20.00     0.056 C 
HETATM    7  C7  UNL     1     -35.154  14.031  -6.601  1.00 20.00     0.079 C 
HETATM    8  C8  UNL     1     -34.289  15.160  -7.138  1.00 20.00     0.013 C 
HETATM    9  C9  UNL     1     -35.055  15.188  -4.280  1.00 20.00     0.106 C 
HETATM   10  N10 UNL     1     -33.941  17.423  -4.403  1.00 20.00    -0.269 NA
HETATM   11  O11 UNL     1     -34.926  12.793  -4.575  1.00 20.00    -0.297 OA
ENDROOT
TORSDOF 0
ENDMDL
MODEL 2
REMARK VINA RESULT:      -4.9      1.304      3.235
REMARK  0 active torsions:
REMARK  status: ('A' for Active; 'I' for Inactive)
ROOT
HETATM    1  C1  UNL     1     -35.909  15.606  -7.702  1.00 20.00    -0.006 C 
HETATM    2  C2  UNL     1     -35.382  16.797  -7.401  1.00 20.00     0.112 C 
HETATM    3  C3  UNL     1     -34.112  16.050  -5.657  1.00 20.00     0.023 C 
HETATM    4  C4  UNL     1     -34.326  13.637  -4.848  1.00 20.00     0.136 C 
HETATM    5  C5  UNL     1     -35.619  14.412  -6.858  1.00 20.00     0.046 C 
HETATM    6  C6  UNL     1     -33.186  16.337  -4.496  1.00 20.00     0.056 C 
HETATM    7  C7  UNL     1     -33.406  13.976  -3.696  1.00 20.00     0.079 C 
HETATM    8  C8  UNL     1     -33.541  15.443  -3.320  1.00 20.00     0.013 C 
HETATM    9  C9  UNL     1     -34.335  14.589  -6.040  1.00 20.00     0.106 C 
HETATM   10  N10 UNL     1     -34.582  17.062  -6.323  1.00 20.00    -0.269 NA
HETATM   11  O11 UNL     1     -34.944  12.571  -4.858  1.00 20.00    -0.297 OA
ENDROOT
TORSDOF 0
ENDMDL
MODEL 3
REMARK VINA RESULT:      -4.8     12.188     13.727
REMARK  0 active torsions:
REMARK  status: ('A' for Active; 'I' for Inactive)
ROOT
HETATM    1  C1  UNL     1     -32.120   7.183   2.855  1.00 20.00    -0.006 C 
HETATM    2  C2  UNL     1     -32.733   6.228   2.148  1.00 20.00     0.112 C 
HETATM    3  C3  UNL     1     -34.108   5.542   3.836  1.00 20.00     0.023 C 
HETATM    4  C4  UNL     1     -33.839   6.500   6.188  1.00 20.00     0.136 C 
HETATM    5  C5  UNL     1     -32.419   7.365   4.304  1.00 20.00     0.046 C 
HETATM    6  C6  UNL     1     -35.145   4.578   4.369  1.00 20.00     0.056 C 
HETATM    7  C7  UNL     1     -34.872   5.509   6.675  1.00 20.00     0.079 C 
HETATM    8  C8  UNL     1     -34.847   4.251   5.822  1.00 20.00     0.013 C 
HETATM    9  C9  UNL     1     -33.777   6.765   4.686  1.00 20.00     0.106 C 
HETATM   10  N10 UNL     1     -33.636   5.329   2.644  1.00 20.00    -0.269 NA
HETATM   11  O11 UNL     1     -33.167   7.146   6.994  1.00 20.00    -0.297 OA
ENDROOT
TORSDOF 0
ENDMDL
MODEL 4
REMARK VINA RESULT:      -4.7      1.429      2.889
REMARK  0 active torsions:
REMARK  status: ('A' for Active; 'I' for Inactive)
ROOT
HETATM    1  C1  UNL     1     -34.180  18.148  -6.552  1.00 20.00    -0.006 C 
HETATM    2  C2  UNL     1     -33.595  18.416  -5.379  1.00 20.00     0.112 C 
HETATM    3  C3  UNL     1     -33.551  16.253  -4.649  1.00 20.00     0.023 C 
HETATM    4  C4  UNL     1     -34.702  14.414  -5.995  1.00 20.00     0.136 C 
HETATM    5  C5  UNL     1     -34.631  16.765  -6.877  1.00 20.00     0.046 C 
HETATM    6  C6  UNL     1     -33.264  15.247  -3.556  1.00 20.00     0.056 C 
HETATM    7  C7  UNL     1     -34.404  13.448  -4.869  1.00 20.00     0.079 C 
HETATM    8  C8  UNL     1     -34.347  14.182  -3.539  1.00 20.00     0.013 C 
HETATM    9  C9  UNL     1     -33.903  15.714  -6.032  1.00 20.00     0.106 C 
HETATM   10  N10 UNL     1     -33.380  17.512  -4.375  1.00 20.00    -0.269 NA
HETATM   11  O11 UNL     1     -35.473  14.094  -6.901  1.00 20.00    -0.297 OA
ENDROOT
TORSDOF 0
ENDMDL
MODEL 5
REMARK VINA RESULT:      -4.6      2.276      3.269
REMARK  0 active torsions:
REMARK  status: ('A' for Active; 'I' for Inactive)
ROOT
HETATM    1  C1  UNL     1     -34.378  13.671  -3.590  1.00 20.00    -0.006 C 
HETATM    2  C2  UNL     1     -34.749  13.245  -4.802  1.00 20.00     0.112 C 
HETATM    3  C3  UNL     1     -34.318  15.212  -5.877  1.00 20.00     0.023 C 
HETATM    4  C4  UNL     1     -33.649  17.288  -4.549  1.00 20.00     0.136 C 
HETATM    5  C5  UNL     1     -33.981  15.092  -3.374  1.00 20.00     0.046 C 
HETATM    6  C6  UNL     1     -34.369  16.055  -7.132  1.00 20.00     0.056 C 
HETATM    7  C7  UNL     1     -33.726  18.092  -5.828  1.00 20.00     0.079 C 
HETATM    8  C8  UNL     1     -34.745  17.484  -6.778  1.00 20.00     0.013 C 
HETATM    9  C9  UNL     1     -33.554  15.771  -4.680  1.00 20.00     0.106 C 
HETATM   10  N10 UNL     1     -34.838  14.022  -5.924  1.00 20.00    -0.269 NA
HETATM   11  O11 UNL     1     -33.548  17.857  -3.461  1.00 20.00    -0.297 OA
ENDROOT
TORSDOF 0
ENDMDL
MODEL 6
REMARK VINA RESULT:      -4.6      1.294      1.518
REMARK  0 active torsions:
REMARK  status: ('A' for Active; 'I' for Inactive)
ROOT
HETATM    1  C1  UNL     1     -34.049  17.294  -2.456  1.00 20.00    -0.006 C 
HETATM    2  C2  UNL     1     -34.959  17.856  -3.258  1.00 20.00     0.112 C 
HETATM    3  C3  UNL     1     -35.420  15.960  -4.443  1.00 20.00     0.023 C 
HETATM    4  C4  UNL     1     -34.051  13.838  -4.064  1.00 20.00     0.136 C 
HETATM    5  C5  UNL     1     -33.634  15.876  -2.655  1.00 20.00     0.046 C 
HETATM    6  C6  UNL     1     -36.131  15.273  -5.589  1.00 20.00     0.056 C 
HETATM    7  C7  UNL     1     -34.780  13.199  -5.225  1.00 20.00     0.079 C 
HETATM    8  C8  UNL     1     -35.206  14.255  -6.232  1.00 20.00     0.013 C 
HETATM    9  C9  UNL     1     -34.683  15.078  -3.439  1.00 20.00     0.106 C 
HETATM   10  N10 UNL     1     -35.565  17.245  -4.322  1.00 20.00    -0.269 NA
HETATM   11  O11 UNL     1     -33.056  13.296  -3.579  1.00 20.00    -0.297 OA
ENDROOT
TORSDOF 0
ENDMDL
MODEL 7
REMARK VINA RESULT:      -4.5      2.208      4.250
REMARK  0 active torsions:
REMARK  status: ('A' for Active; 'I' for Inactive)
ROOT
HETATM    1  C1  UNL     1     -34.574  14.354  -5.937  1.00 20.00    -0.006 C 
HETATM    2  C2  UNL     1     -34.912  13.652  -4.851  1.00 20.00     0.112 C 
HETATM    3  C3  UNL     1     -34.768  15.404  -3.394  1.00 20.00     0.023 C 
HETATM    4  C4  UNL     1     -33.881  17.665  -4.181  1.00 20.00     0.136 C 
HETATM    5  C5  UNL     1     -34.173  15.785  -5.822  1.00 20.00     0.046 C 
HETATM    6  C6  UNL     1     -34.807  15.934  -1.978  1.00 20.00     0.056 C 
HETATM    7  C7  UNL     1     -33.926  18.146  -2.748  1.00 20.00     0.079 C 
HETATM    8  C8  UNL     1     -33.724  16.983  -1.790  1.00 20.00     0.013 C 
HETATM    9  C9  UNL     1     -34.694  16.422  -4.529  1.00 20.00     0.106 C 
HETATM   10  N10 UNL     1     -34.902  14.123  -3.567  1.00 20.00    -0.269 NA
HETATM   11  O11 UNL     1     -33.305  18.331  -5.043  1.00 20.00    -0.297 OA
ENDROOT
TORSDOF 0
ENDMDL
MODEL 8
REMARK VINA RESULT:      -4.5      1.949      3.600
REMARK  0 active torsions:
REMARK  status: ('A' for Active; 'I' for Inactive)
ROOT
HETATM    1  C1  UNL     1     -34.713  13.642  -4.517  1.00 20.00    -0.006 C 
HETATM    2  C2  UNL     1     -34.486  14.268  -5.677  1.00 20.00     0.112 C 
HETATM    3  C3  UNL     1     -33.890  16.265  -4.744  1.00 20.00     0.023 C 
HETATM    4  C4  UNL     1     -34.103  16.626  -2.225  1.00 20.00     0.136 C 
HETATM    5  C5  UNL     1     -34.623  14.380  -3.225  1.00 20.00     0.046 C 
HETATM    6  C6  UNL     1     -33.514  17.722  -4.902  1.00 20.00     0.056 C 
HETATM    7  C7  UNL     1     -33.734  18.078  -2.435  1.00 20.00     0.079 C 
HETATM    8  C8  UNL     1     -34.177  18.546  -3.812  1.00 20.00     0.013 C 
HETATM    9  C9  UNL     1     -33.774  15.651  -3.352  1.00 20.00     0.106 C 
HETATM   10  N10 UNL     1     -34.191  15.596  -5.817  1.00 20.00    -0.269 NA
HETATM   11  O11 UNL     1     -34.538  16.245  -1.137  1.00 20.00    -0.297 OA
ENDROOT
TORSDOF 0
ENDMDL
MODEL 9
REMARK VINA RESULT:      -4.5     11.848     13.210
REMARK  0 active torsions:
REMARK  status: ('A' for Active; 'I' for Inactive)
ROOT
HETATM    1  C1  UNL     1     -41.945   3.146  -2.625  1.00 20.00    -0.006 C 
HETATM    2  C2  UNL     1     -42.905   3.576  -3.451  1.00 20.00     0.112 C 
HETATM    3  C3  UNL     1     -42.787   5.765  -2.816  1.00 20.00     0.023 C 
HETATM    4  C4  UNL     1     -41.294   6.464  -0.866  1.00 20.00     0.136 C 
HETATM    5  C5  UNL     1     -41.309   4.077  -1.650  1.00 20.00     0.046 C 
HETATM    6  C6  UNL     1     -43.322   7.179  -2.888  1.00 20.00     0.056 C 
HETATM    7  C7  UNL     1     -41.868   7.859  -0.968  1.00 20.00     0.079 C 
HETATM    8  C8  UNL     1     -43.289   7.813  -1.508  1.00 20.00     0.013 C 
HETATM    9  C9  UNL     1     -41.475   5.542  -2.068  1.00 20.00     0.106 C 
HETATM   10  N10 UNL     1     -43.417   4.843  -3.480  1.00 20.00    -0.269 NA
HETATM   11  O11 UNL     1     -40.608   6.143   0.107  1.00 20.00    -0.297 OA
ENDROOT
TORSDOF 0
ENDMDL
