MODEL 1
REMARK VINA RESULT:      -4.3      0.000      0.000
REMARK  3 active torsions:
REMARK  status: ('A' for Active; 'I' for Inactive)
REMARK    1  A    between atoms: C2_2  and  C7_7 
REMARK    2  A    between atoms: C5_5  and  C7_7 
REMARK    3  A    between atoms: C6_6  and  C7_7 
ROOT
HETATM    1  C7  UNL     1     -33.929   6.381   4.272  1.00 20.00     0.016 C 
ENDROOT
BRANCH   1   2
HETATM    2  C2  UNL     1     -32.671   6.369   3.396  1.00 20.00     0.149 A 
HETATM    3  C1  UNL     1     -32.288   7.564   2.568  1.00 20.00     0.200 A 
HETATM    4  O8  UNL     1     -31.644   7.271   3.819  1.00 20.00    -0.381 OA
ENDBRANCH   1   2
BRANCH   1   5
HETATM    5  C5  UNL     1     -33.598   6.061   5.745  1.00 20.00     0.002 C 
HETATM    6  C3  UNL     1     -33.685   7.266   6.671  1.00 20.00     0.005 C 
ENDBRANCH   1   5
BRANCH   1   7
HETATM    7  C6  UNL     1     -34.984   5.377   3.763  1.00 20.00     0.002 C 
HETATM    8  C4  UNL     1     -35.288   4.254   4.745  1.00 20.00     0.005 C 
ENDBRANCH   1   7
TORSDOF 3
ENDMDL
MODEL 2
REMARK VINA RESULT:      -3.9      1.491      3.386
REMARK  3 active torsions:
REMARK  status: ('A' for Active; 'I' for Inactive)
REMARK    1  A    between atoms: C2_2  and  C7_7 
REMARK    2  A    between atoms: C5_5  and  C7_7 
REMARK    3  A    between atoms: C6_6  and  C7_7 
ROOT
HETATM    1  C7  UNL     1     -34.036   6.295   4.255  1.00 20.00     0.016 C 
ENDROOT
BRANCH   1   2
HETATM    2  C2  UNL     1     -33.521   6.124   5.689  1.00 20.00     0.149 A 
HETATM    3  C1  UNL     1     -33.404   7.300   6.619  1.00 20.00     0.200 A 
HETATM    4  O8  UNL     1     -34.498   6.372   6.705  1.00 20.00    -0.381 OA
ENDBRANCH   1   2
BRANCH   1   5
HETATM    5  C5  UNL     1     -35.179   5.307   3.942  1.00 20.00     0.002 C 
HETATM    6  C3  UNL     1     -35.139   4.034   4.777  1.00 20.00     0.005 C 
ENDBRANCH   1   5
BRANCH   1   7
HETATM    7  C6  UNL     1     -32.907   6.103   3.221  1.00 20.00     0.002 C 
HETATM    8  C4  UNL     1     -32.228   7.400   2.805  1.00 20.00     0.005 C 
ENDBRANCH   1   7
TORSDOF 3
ENDMDL
MODEL 3
REMARK VINA RESULT:      -3.9      1.106      2.640
REMARK  3 active torsions:
REMARK  status: ('A' for Active; 'I' for Inactive)
REMARK    1  A    between atoms: C2_2  and  C7_7 
REMARK    2  A    between atoms: C5_5  and  C7_7 
REMARK    3  A    between atoms: C6_6  and  C7_7 
ROOT
HETATM    1  C7  UNL     1     -33.793   5.745   5.093  1.00 20.00     0.016 C 
ENDROOT
BRANCH   1   2
HETATM    2  C2  UNL     1     -33.541   6.707   3.927  1.00 20.00     0.149 A 
HETATM    3  C1  UNL     1     -32.171   6.858   3.324  1.00 20.00     0.200 A 
HETATM    4  O8  UNL     1     -33.193   6.069   2.694  1.00 20.00    -0.381 OA
ENDBRANCH   1   2
BRANCH   1   5
HETATM    5  C5  UNL     1     -34.877   4.703   4.744  1.00 20.00     0.002 C 
HETATM    6  C3  UNL     1     -35.360   3.894   5.941  1.00 20.00     0.005 C 
ENDBRANCH   1   5
BRANCH   1   7
HETATM    7  C6  UNL     1     -34.213   6.500   6.371  1.00 20.00     0.002 C 
HETATM    8  C4  UNL     1     -33.180   7.505   6.859  1.00 20.00     0.005 C 
ENDBRANCH   1   7
TORSDOF 3
ENDMDL
MODEL 4
REMARK VINA RESULT:      -3.8      1.092      2.676
REMARK  3 active torsions:
REMARK  status: ('A' for Active; 'I' for Inactive)
REMARK    1  A    between atoms: C2_2  and  C7_7 
REMARK    2  A    between atoms: C5_5  and  C7_7 
REMARK    3  A    between atoms: C6_6  and  C7_7 
ROOT
HETATM    1  C7  UNL     1     -33.919   5.495   5.006  1.00 20.00     0.016 C 
ENDROOT
BRANCH   1   2
HETATM    2  C2  UNL     1     -33.483   6.582   4.018  1.00 20.00     0.149 A 
HETATM    3  C1  UNL     1     -32.067   6.654   3.516  1.00 20.00     0.200 A 
HETATM    4  O8  UNL     1     -33.126   6.097   2.720  1.00 20.00    -0.381 OA
ENDBRANCH   1   2
BRANCH   1   5
HETATM    5  C5  UNL     1     -35.139   4.709   4.482  1.00 20.00     0.002 C 
HETATM    6  C3  UNL     1     -36.127   5.559   3.694  1.00 20.00     0.005 C 
ENDBRANCH   1   5
BRANCH   1   7
HETATM    7  C6  UNL     1     -34.260   6.089   6.389  1.00 20.00     0.002 C 
HETATM    8  C4  UNL     1     -33.435   7.316   6.751  1.00 20.00     0.005 C 
ENDBRANCH   1   7
TORSDOF 3
ENDMDL
MODEL 5
REMARK VINA RESULT:      -3.5     11.663     12.807
REMARK  3 active torsions:
REMARK  status: ('A' for Active; 'I' for Inactive)
REMARK    1  A    between atoms: C2_2  and  C7_7 
REMARK    2  A    between atoms: C5_5  and  C7_7 
REMARK    3  A    between atoms: C6_6  and  C7_7 
ROOT
HETATM    1  C7  UNL     1     -33.641  16.024  -3.128  1.00 20.00     0.016 C 
ENDROOT
BRANCH   1   2
HETATM    2  C2  UNL     1     -34.089  16.842  -4.344  1.00 20.00     0.149 A 
HETATM    3  C1  UNL     1     -33.573  18.235  -4.578  1.00 20.00     0.200 A 
HETATM    4  O8  UNL     1     -33.055  17.104  -5.298  1.00 20.00    -0.381 OA
ENDBRANCH   1   2
BRANCH   1   5
HETATM    5  C5  UNL     1     -33.144  14.622  -3.538  1.00 20.00     0.002 C 
HETATM    6  C3  UNL     1     -34.260  13.670  -3.950  1.00 20.00     0.005 C 
ENDBRANCH   1   5
BRANCH   1   7
HETATM    7  C6  UNL     1     -34.778  15.873  -2.096  1.00 20.00     0.002 C 
HETATM    8  C4  UNL     1     -34.565  16.680  -0.823  1.00 20.00     0.005 C 
ENDBRANCH   1   7
TORSDOF 3
ENDMDL
MODEL 6
REMARK VINA RESULT:      -3.5     11.112     12.314
REMARK  3 active torsions:
REMARK  status: ('A' for Active; 'I' for Inactive)
REMARK    1  A    between atoms: C2_2  and  C7_7 
REMARK    2  A    between atoms: C5_5  and  C7_7 
REMARK    3  A    between atoms: C6_6  and  C7_7 
ROOT
HETATM    1  C7  UNL     1     -34.556  15.404  -3.423  1.00 20.00     0.016 C 
ENDROOT
BRANCH   1   2
HETATM    2  C2  UNL     1     -34.597  13.872  -3.473  1.00 20.00     0.149 A 
HETATM    3  C1  UNL     1     -34.778  13.140  -4.774  1.00 20.00     0.200 A 
HETATM    4  O8  UNL     1     -33.490  13.270  -4.150  1.00 20.00    -0.381 OA
ENDBRANCH   1   2
BRANCH   1   5
HETATM    5  C5  UNL     1     -33.202  15.951  -3.919  1.00 20.00     0.002 C 
HETATM    6  C3  UNL     1     -33.283  16.678  -5.255  1.00 20.00     0.005 C 
ENDBRANCH   1   5
BRANCH   1   7
HETATM    7  C6  UNL     1     -34.822  15.932  -1.998  1.00 20.00     0.002 C 
HETATM    8  C4  UNL     1     -33.826  16.987  -1.538  1.00 20.00     0.005 C 
ENDBRANCH   1   7
TORSDOF 3
ENDMDL
MODEL 7
REMARK VINA RESULT:      -3.5     11.207     11.801
REMARK  3 active torsions:
REMARK  status: ('A' for Active; 'I' for Inactive)
REMARK    1  A    between atoms: C2_2  and  C7_7 
REMARK    2  A    between atoms: C5_5  and  C7_7 
REMARK    3  A    between atoms: C6_6  and  C7_7 
ROOT
HETATM    1  C7  UNL     1     -34.896  15.438  -3.571  1.00 20.00     0.016 C 
ENDROOT
BRANCH   1   2
HETATM    2  C2  UNL     1     -34.842  13.908  -3.637  1.00 20.00     0.149 A 
HETATM    3  C1  UNL     1     -34.421  13.198  -4.894  1.00 20.00     0.200 A 
HETATM    4  O8  UNL     1     -33.526  13.366  -3.782  1.00 20.00    -0.381 OA
ENDBRANCH   1   2
BRANCH   1   5
HETATM    5  C5  UNL     1     -33.932  15.994  -2.502  1.00 20.00     0.002 C 
HETATM    6  C3  UNL     1     -34.624  16.449  -1.224  1.00 20.00     0.005 C 
ENDBRANCH   1   5
BRANCH   1   7
HETATM    7  C6  UNL     1     -36.324  15.943  -3.271  1.00 20.00     0.002 C 
HETATM    8  C4  UNL     1     -37.420  14.977  -3.699  1.00 20.00     0.005 C 
ENDBRANCH   1   7
TORSDOF 3
ENDMDL
MODEL 8
REMARK VINA RESULT:      -3.5     11.654     12.623
REMARK  3 active torsions:
REMARK  status: ('A' for Active; 'I' for Inactive)
REMARK    1  A    between atoms: C2_2  and  C7_7 
REMARK    2  A    between atoms: C5_5  and  C7_7 
REMARK    3  A    between atoms: C6_6  and  C7_7 
ROOT
HETATM    1  C7  UNL     1     -34.215  15.674  -3.635  1.00 20.00     0.016 C 
ENDROOT
BRANCH   1   2
HETATM    2  C2  UNL     1     -33.418  16.066  -4.884  1.00 20.00     0.149 A 
HETATM    3  C1  UNL     1     -34.080  16.754  -6.046  1.00 20.00     0.200 A 
HETATM    4  O8  UNL     1     -33.287  17.476  -5.088  1.00 20.00    -0.381 OA
ENDBRANCH   1   2
BRANCH   1   5
HETATM    5  C5  UNL     1     -33.705  16.415  -2.381  1.00 20.00     0.002 C 
HETATM    6  C3  UNL     1     -34.700  16.428  -1.228  1.00 20.00     0.005 C 
ENDBRANCH   1   5
BRANCH   1   7
HETATM    7  C6  UNL     1     -34.158  14.153  -3.380  1.00 20.00     0.002 C 
HETATM    8  C4  UNL     1     -35.001  13.335  -4.347  1.00 20.00     0.005 C 
ENDBRANCH   1   7
TORSDOF 3
ENDMDL
MODEL 9
REMARK VINA RESULT:      -3.5      2.056      3.833
REMARK  3 active torsions:
REMARK  status: ('A' for Active; 'I' for Inactive)
REMARK    1  A    between atoms: C2_2  and  C7_7 
REMARK    2  A    between atoms: C5_5  and  C7_7 
REMARK    3  A    between atoms: C6_6  and  C7_7 
ROOT
HETATM    1  C7  UNL     1     -34.223   5.919   4.625  1.00 20.00     0.016 C 
ENDROOT
BRANCH   1   2
HETATM    2  C2  UNL     1     -34.208   4.572   5.356  1.00 20.00     0.149 A 
HETATM    3  C1  UNL     1     -35.382   4.120   6.179  1.00 20.00     0.200 A 
HETATM    4  O8  UNL     1     -35.145   3.614   4.855  1.00 20.00    -0.381 OA
ENDBRANCH   1   2
BRANCH   1   5
HETATM    5  C5  UNL     1     -33.750   5.777   3.163  1.00 20.00     0.002 C 
HETATM    6  C3  UNL     1     -32.365   6.355   2.906  1.00 20.00     0.005 C 
ENDBRANCH   1   5
BRANCH   1   7
HETATM    7  C6  UNL     1     -33.340   6.963   5.340  1.00 20.00     0.002 C 
HETATM    8  C4  UNL     1     -33.699   7.172   6.805  1.00 20.00     0.005 C 
ENDBRANCH   1   7
TORSDOF 3
ENDMDL
