MODEL 1
REMARK VINA RESULT:      -3.9      0.000      0.000
REMARK  1 active torsions:
REMARK  status: ('A' for Active; 'I' for Inactive)
REMARK    1  A    between atoms: C4_4  and  C5_5 
ROOT
HETATM    1  C1  UNL     1     -34.769   5.410   6.449  1.00 20.00     0.007 A 
HETATM    2  C2  UNL     1     -35.076   4.286   5.499  1.00 20.00     0.007 A 
HETATM    3  C4  UNL     1     -33.941   5.228   5.207  1.00 20.00     0.017 A 
ENDROOT
BRANCH   3   4
HETATM    4  C5  UNL     1     -33.970   6.213   4.050  1.00 20.00     0.149 A 
HETATM    5  C3  UNL     1     -32.751   6.617   3.274  1.00 20.00     0.200 A 
HETATM    6  O6  UNL     1     -33.686   5.651   2.767  1.00 20.00    -0.381 OA
ENDBRANCH   3   4
TORSDOF 1
ENDMDL
MODEL 2
REMARK VINA RESULT:      -3.8      1.400      1.969
REMARK  1 active torsions:
REMARK  status: ('A' for Active; 'I' for Inactive)
REMARK    1  A    between atoms: C4_4  and  C5_5 
ROOT
HETATM    1  C1  UNL     1     -35.087   5.364   3.815  1.00 20.00     0.007 A 
HETATM    2  C2  UNL     1     -34.312   5.351   5.103  1.00 20.00     0.007 A 
HETATM    3  C4  UNL     1     -34.007   6.383   4.053  1.00 20.00     0.017 A 
ENDROOT
BRANCH   3   4
HETATM    4  C5  UNL     1     -32.704   6.396   3.271  1.00 20.00     0.149 A 
HETATM    5  C3  UNL     1     -32.211   7.587   2.503  1.00 20.00     0.200 A 
HETATM    6  O6  UNL     1     -31.688   7.252   3.798  1.00 20.00    -0.381 OA
ENDBRANCH   3   4
TORSDOF 1
ENDMDL
MODEL 3
REMARK VINA RESULT:      -3.4      1.595      3.139
REMARK  1 active torsions:
REMARK  status: ('A' for Active; 'I' for Inactive)
REMARK    1  A    between atoms: C4_4  and  C5_5 
ROOT
HETATM    1  C1  UNL     1     -33.075   6.345   3.445  1.00 20.00     0.007 A 
HETATM    2  C2  UNL     1     -34.112   5.502   2.756  1.00 20.00     0.007 A 
HETATM    3  C4  UNL     1     -34.270   5.847   4.210  1.00 20.00     0.017 A 
ENDROOT
BRANCH   3   4
HETATM    4  C5  UNL     1     -34.163   4.810   5.315  1.00 20.00     0.149 A 
HETATM    5  C3  UNL     1     -35.242   4.562   6.328  1.00 20.00     0.200 A 
HETATM    6  O6  UNL     1     -35.055   3.700   5.194  1.00 20.00    -0.381 OA
ENDBRANCH   3   4
TORSDOF 1
ENDMDL
MODEL 4
REMARK VINA RESULT:      -3.4      1.781      3.466
REMARK  1 active torsions:
REMARK  status: ('A' for Active; 'I' for Inactive)
REMARK    1  A    between atoms: C4_4  and  C5_5 
ROOT
HETATM    1  C1  UNL     1     -32.230   7.617   2.416  1.00 20.00     0.007 A 
HETATM    2  C2  UNL     1     -31.528   7.487   3.739  1.00 20.00     0.007 A 
HETATM    3  C4  UNL     1     -32.583   6.491   3.347  1.00 20.00     0.017 A 
ENDROOT
BRANCH   3   4
HETATM    4  C5  UNL     1     -33.926   6.399   4.052  1.00 20.00     0.149 A 
HETATM    5  C3  UNL     1     -34.940   5.329   3.770  1.00 20.00     0.200 A 
HETATM    6  O6  UNL     1     -34.081   5.274   4.920  1.00 20.00    -0.381 OA
ENDBRANCH   3   4
TORSDOF 1
ENDMDL
MODEL 5
REMARK VINA RESULT:      -3.2     12.003     12.429
REMARK  1 active torsions:
REMARK  status: ('A' for Active; 'I' for Inactive)
REMARK    1  A    between atoms: C4_4  and  C5_5 
ROOT
HETATM    1  C1  UNL     1     -33.802  16.239  -3.276  1.00 20.00     0.007 A 
HETATM    2  C2  UNL     1     -34.715  15.880  -2.137  1.00 20.00     0.007 A 
HETATM    3  C4  UNL     1     -34.274  14.821  -3.109  1.00 20.00     0.017 A 
ENDROOT
BRANCH   3   4
HETATM    4  C5  UNL     1     -35.230  14.154  -4.084  1.00 20.00     0.149 A 
HETATM    5  C3  UNL     1     -34.801  13.572  -5.398  1.00 20.00     0.200 A 
HETATM    6  O6  UNL     1     -35.045  12.747  -4.248  1.00 20.00    -0.381 OA
ENDBRANCH   3   4
TORSDOF 1
ENDMDL
MODEL 6
REMARK VINA RESULT:      -3.2     11.872     13.575
REMARK  1 active torsions:
REMARK  status: ('A' for Active; 'I' for Inactive)
REMARK    1  A    between atoms: C4_4  and  C5_5 
ROOT
HETATM    1  C1  UNL     1     -34.353  15.434  -7.017  1.00 20.00     0.007 A 
HETATM    2  C2  UNL     1     -35.304  14.350  -7.443  1.00 20.00     0.007 A 
HETATM    3  C4  UNL     1     -35.054  14.599  -5.982  1.00 20.00     0.017 A 
ENDROOT
BRANCH   3   4
HETATM    4  C5  UNL     1     -34.321  13.606  -5.094  1.00 20.00     0.149 A 
HETATM    5  C3  UNL     1     -34.327  13.673  -3.596  1.00 20.00     0.200 A 
HETATM    6  O6  UNL     1     -35.162  12.752  -4.316  1.00 20.00    -0.381 OA
ENDBRANCH   3   4
TORSDOF 1
ENDMDL
MODEL 7
REMARK VINA RESULT:      -3.0      2.305      4.648
REMARK  1 active torsions:
REMARK  status: ('A' for Active; 'I' for Inactive)
REMARK    1  A    between atoms: C4_4  and  C5_5 
ROOT
HETATM    1  C1  UNL     1     -32.503   9.617   1.713  1.00 20.00     0.007 A 
HETATM    2  C2  UNL     1     -31.597   8.765   0.868  1.00 20.00     0.007 A 
HETATM    3  C4  UNL     1     -32.547   8.119   1.837  1.00 20.00     0.017 A 
ENDROOT
BRANCH   3   4
HETATM    4  C5  UNL     1     -32.076   7.383   3.080  1.00 20.00     0.149 A 
HETATM    5  C3  UNL     1     -32.979   6.552   3.944  1.00 20.00     0.200 A 
HETATM    6  O6  UNL     1     -32.090   5.958   2.984  1.00 20.00    -0.381 OA
ENDBRANCH   3   4
TORSDOF 1
ENDMDL
MODEL 8
REMARK VINA RESULT:      -2.9     12.198     13.226
REMARK  1 active torsions:
REMARK  status: ('A' for Active; 'I' for Inactive)
REMARK    1  A    between atoms: C4_4  and  C5_5 
ROOT
HETATM    1  C1  UNL     1     -34.806  13.477  -4.165  1.00 20.00     0.007 A 
HETATM    2  C2  UNL     1     -33.377  13.658  -3.734  1.00 20.00     0.007 A 
HETATM    3  C4  UNL     1     -34.310  14.836  -3.754  1.00 20.00     0.017 A 
ENDROOT
BRANCH   3   4
HETATM    4  C5  UNL     1     -34.158  15.986  -4.735  1.00 20.00     0.149 A 
HETATM    5  C3  UNL     1     -33.673  17.351  -4.345  1.00 20.00     0.200 A 
HETATM    6  O6  UNL     1     -32.813  16.396  -4.986  1.00 20.00    -0.381 OA
ENDBRANCH   3   4
TORSDOF 1
ENDMDL
MODEL 9
REMARK VINA RESULT:      -2.9     11.926     12.674
REMARK  1 active torsions:
REMARK  status: ('A' for Active; 'I' for Inactive)
REMARK    1  A    between atoms: C4_4  and  C5_5 
ROOT
HETATM    1  C1  UNL     1     -34.106  13.908  -3.588  1.00 20.00     0.007 A 
HETATM    2  C2  UNL     1     -34.941  13.199  -4.619  1.00 20.00     0.007 A 
HETATM    3  C4  UNL     1     -35.280  14.608  -4.216  1.00 20.00     0.017 A 
ENDROOT
BRANCH   3   4
HETATM    4  C5  UNL     1     -36.538  14.958  -3.440  1.00 20.00     0.149 A 
HETATM    5  C3  UNL     1     -37.751  15.583  -4.065  1.00 20.00     0.200 A 
HETATM    6  O6  UNL     1     -37.691  14.179  -3.768  1.00 20.00    -0.381 OA
ENDBRANCH   3   4
TORSDOF 1
ENDMDL
