MODEL 1
REMARK VINA RESULT:      -4.4      0.000      0.000
REMARK  3 active torsions:
REMARK  status: ('A' for Active; 'I' for Inactive)
REMARK    1  A    between atoms: C2_2  and  C6_6 
REMARK    2  A    between atoms: C6_6  and  C7_7 
REMARK    3  A    between atoms: C7_7  and  C8_8 
ROOT
HETATM    1  C6  UNL     1     -34.057   6.846   3.764  1.00 20.00     0.040 C 
ENDROOT
BRANCH   1   2
HETATM    2  C2  UNL     1     -32.646   6.683   3.219  1.00 20.00     0.079 A 
HETATM    3  C1  UNL     1     -31.582   7.685   3.599  1.00 20.00     0.206 A 
HETATM    4  O9  UNL     1     -32.247   7.735   2.328  1.00 20.00    -0.375 OA
HETATM    5  C3  UNL     1     -32.243   5.319   2.760  1.00 20.00     0.048 C 
ENDBRANCH   1   2
BRANCH   1   6
HETATM    6  C7  UNL     1     -34.727   5.487   3.991  1.00 20.00     0.007 C 
BRANCH   6   7
HETATM    7  C8  UNL     1     -35.034   5.196   5.472  1.00 20.00    -0.023 C 
HETATM    8  C4  UNL     1     -34.239   6.151   6.365  1.00 20.00     0.009 C 
HETATM    9  C5  UNL     1     -34.723   3.749   5.858  1.00 20.00     0.009 C 
ENDBRANCH   6   7
ENDBRANCH   1   6
TORSDOF 3
ENDMDL
MODEL 2
REMARK VINA RESULT:      -4.2      1.953      4.312
REMARK  3 active torsions:
REMARK  status: ('A' for Active; 'I' for Inactive)
REMARK    1  A    between atoms: C2_2  and  C6_6 
REMARK    2  A    between atoms: C6_6  and  C7_7 
REMARK    3  A    between atoms: C7_7  and  C8_8 
ROOT
HETATM    1  C6  UNL     1     -33.427   5.449   3.860  1.00 20.00     0.040 C 
ENDROOT
BRANCH   1   2
HETATM    2  C2  UNL     1     -34.264   5.356   5.127  1.00 20.00     0.079 A 
HETATM    3  C1  UNL     1     -34.838   4.023   5.544  1.00 20.00     0.206 A 
HETATM    4  O9  UNL     1     -35.638   5.019   4.889  1.00 20.00    -0.375 OA
HETATM    5  C3  UNL     1     -34.076   6.429   6.150  1.00 20.00     0.048 C 
ENDBRANCH   1   2
BRANCH   1   6
HETATM    6  C7  UNL     1     -33.456   6.864   3.275  1.00 20.00     0.007 C 
BRANCH   6   7
HETATM    7  C8  UNL     1     -32.081   7.351   2.782  1.00 20.00    -0.023 C 
HETATM    8  C4  UNL     1     -31.211   7.746   3.977  1.00 20.00     0.009 C 
HETATM    9  C5  UNL     1     -32.193   8.530   1.813  1.00 20.00     0.009 C 
ENDBRANCH   6   7
ENDBRANCH   1   6
TORSDOF 3
ENDMDL
MODEL 3
REMARK VINA RESULT:      -4.2      2.036      4.247
REMARK  3 active torsions:
REMARK  status: ('A' for Active; 'I' for Inactive)
REMARK    1  A    between atoms: C2_2  and  C6_6 
REMARK    2  A    between atoms: C6_6  and  C7_7 
REMARK    3  A    between atoms: C7_7  and  C8_8 
ROOT
HETATM    1  C6  UNL     1     -33.281   6.226   4.637  1.00 20.00     0.040 C 
ENDROOT
BRANCH   1   2
HETATM    2  C2  UNL     1     -34.534   5.426   4.957  1.00 20.00     0.079 A 
HETATM    3  C1  UNL     1     -34.938   5.221   6.398  1.00 20.00     0.206 A 
HETATM    4  O9  UNL     1     -34.273   4.194   5.646  1.00 20.00    -0.375 OA
HETATM    5  C3  UNL     1     -35.564   5.307   3.881  1.00 20.00     0.048 C 
ENDBRANCH   1   2
BRANCH   1   6
HETATM    6  C7  UNL     1     -33.095   6.389   3.126  1.00 20.00     0.007 C 
BRANCH   6   7
HETATM    7  C8  UNL     1     -31.886   7.266   2.748  1.00 20.00    -0.023 C 
HETATM    8  C4  UNL     1     -31.202   7.781   4.016  1.00 20.00     0.009 C 
HETATM    9  C5  UNL     1     -32.277   8.446   1.857  1.00 20.00     0.009 C 
ENDBRANCH   6   7
ENDBRANCH   1   6
TORSDOF 3
ENDMDL
MODEL 4
REMARK VINA RESULT:      -4.1      2.058      4.131
REMARK  3 active torsions:
REMARK  status: ('A' for Active; 'I' for Inactive)
REMARK    1  A    between atoms: C2_2  and  C6_6 
REMARK    2  A    between atoms: C6_6  and  C7_7 
REMARK    3  A    between atoms: C7_7  and  C8_8 
ROOT
HETATM    1  C6  UNL     1     -34.567   5.664   4.091  1.00 20.00     0.040 C 
ENDROOT
BRANCH   1   2
HETATM    2  C2  UNL     1     -34.444   5.367   5.578  1.00 20.00     0.079 A 
HETATM    3  C1  UNL     1     -34.222   3.945   6.037  1.00 20.00     0.206 A 
HETATM    4  O9  UNL     1     -35.515   4.566   6.098  1.00 20.00    -0.375 OA
HETATM    5  C3  UNL     1     -34.050   6.498   6.471  1.00 20.00     0.048 C 
ENDBRANCH   1   2
BRANCH   1   6
HETATM    6  C7  UNL     1     -33.920   7.005   3.735  1.00 20.00     0.007 C 
BRANCH   6   7
HETATM    7  C8  UNL     1     -32.439   6.884   3.332  1.00 20.00    -0.023 C 
HETATM    8  C4  UNL     1     -32.095   7.949   2.289  1.00 20.00     0.009 C 
HETATM    9  C5  UNL     1     -32.095   5.497   2.786  1.00 20.00     0.009 C 
ENDBRANCH   6   7
ENDBRANCH   1   6
TORSDOF 3
ENDMDL
MODEL 5
REMARK VINA RESULT:      -4.1     11.123     12.019
REMARK  3 active torsions:
REMARK  status: ('A' for Active; 'I' for Inactive)
REMARK    1  A    between atoms: C2_2  and  C6_6 
REMARK    2  A    between atoms: C6_6  and  C7_7 
REMARK    3  A    between atoms: C7_7  and  C8_8 
ROOT
HETATM    1  C6  UNL     1     -35.100  15.022  -3.183  1.00 20.00     0.040 C 
ENDROOT
BRANCH   1   2
HETATM    2  C2  UNL     1     -34.340  13.967  -3.974  1.00 20.00     0.079 A 
HETATM    3  C1  UNL     1     -34.814  13.592  -5.358  1.00 20.00     0.206 A 
HETATM    4  O9  UNL     1     -35.094  12.770  -4.214  1.00 20.00    -0.375 OA
HETATM    5  C3  UNL     1     -32.918  13.716  -3.589  1.00 20.00     0.048 C 
ENDBRANCH   1   2
BRANCH   1   6
HETATM    6  C7  UNL     1     -34.143  15.944  -2.422  1.00 20.00     0.007 C 
BRANCH   6   7
HETATM    7  C8  UNL     1     -34.821  16.720  -1.278  1.00 20.00    -0.023 C 
HETATM    8  C4  UNL     1     -35.946  17.593  -1.837  1.00 20.00     0.009 C 
HETATM    9  C5  UNL     1     -33.833  17.590  -0.497  1.00 20.00     0.009 C 
ENDBRANCH   6   7
ENDBRANCH   1   6
TORSDOF 3
ENDMDL
MODEL 6
REMARK VINA RESULT:      -4.0      1.002      1.906
REMARK  3 active torsions:
REMARK  status: ('A' for Active; 'I' for Inactive)
REMARK    1  A    between atoms: C2_2  and  C6_6 
REMARK    2  A    between atoms: C6_6  and  C7_7 
REMARK    3  A    between atoms: C7_7  and  C8_8 
ROOT
HETATM    1  C6  UNL     1     -32.931   6.223   2.950  1.00 20.00     0.040 C 
ENDROOT
BRANCH   1   2
HETATM    2  C2  UNL     1     -32.131   7.517   2.938  1.00 20.00     0.079 A 
HETATM    3  C1  UNL     1     -32.592   8.670   2.078  1.00 20.00     0.206 A 
HETATM    4  O9  UNL     1     -31.518   7.807   1.673  1.00 20.00    -0.375 OA
HETATM    5  C3  UNL     1     -31.244   7.784   4.112  1.00 20.00     0.048 C 
ENDBRANCH   1   2
BRANCH   1   6
HETATM    6  C7  UNL     1     -34.151   6.331   3.869  1.00 20.00     0.007 C 
BRANCH   6   7
HETATM    7  C8  UNL     1     -33.990   5.561   5.193  1.00 20.00    -0.023 C 
HETATM    8  C4  UNL     1     -35.091   4.504   5.316  1.00 20.00     0.009 C 
HETATM    9  C5  UNL     1     -34.022   6.484   6.412  1.00 20.00     0.009 C 
ENDBRANCH   6   7
ENDBRANCH   1   6
TORSDOF 3
ENDMDL
MODEL 7
REMARK VINA RESULT:      -4.0     11.517     12.188
REMARK  3 active torsions:
REMARK  status: ('A' for Active; 'I' for Inactive)
REMARK    1  A    between atoms: C2_2  and  C6_6 
REMARK    2  A    between atoms: C6_6  and  C7_7 
REMARK    3  A    between atoms: C7_7  and  C8_8 
ROOT
HETATM    1  C6  UNL     1     -34.696  15.446  -2.710  1.00 20.00     0.040 C 
ENDROOT
BRANCH   1   2
HETATM    2  C2  UNL     1     -33.895  14.495  -3.587  1.00 20.00     0.079 A 
HETATM    3  C1  UNL     1     -34.600  13.703  -4.662  1.00 20.00     0.206 A 
HETATM    4  O9  UNL     1     -34.237  13.114  -3.404  1.00 20.00    -0.375 OA
HETATM    5  C3  UNL     1     -32.426  14.742  -3.698  1.00 20.00     0.048 C 
ENDBRANCH   1   2
BRANCH   1   6
HETATM    6  C7  UNL     1     -34.040  16.828  -2.641  1.00 20.00     0.007 C 
BRANCH   6   7
HETATM    7  C8  UNL     1     -33.661  17.256  -1.212  1.00 20.00    -0.023 C 
HETATM    8  C4  UNL     1     -34.825  16.977  -0.259  1.00 20.00     0.009 C 
HETATM    9  C5  UNL     1     -33.269  18.732  -1.129  1.00 20.00     0.009 C 
ENDBRANCH   6   7
ENDBRANCH   1   6
TORSDOF 3
ENDMDL
MODEL 8
REMARK VINA RESULT:      -3.8     11.620     12.723
REMARK  3 active torsions:
REMARK  status: ('A' for Active; 'I' for Inactive)
REMARK    1  A    between atoms: C2_2  and  C6_6 
REMARK    2  A    between atoms: C6_6  and  C7_7 
REMARK    3  A    between atoms: C7_7  and  C8_8 
ROOT
HETATM    1  C6  UNL     1     -33.454  14.613  -3.854  1.00 20.00     0.040 C 
ENDROOT
BRANCH   1   2
HETATM    2  C2  UNL     1     -34.548  14.123  -4.791  1.00 20.00     0.079 A 
HETATM    3  C1  UNL     1     -35.856  13.634  -4.216  1.00 20.00     0.206 A 
HETATM    4  O9  UNL     1     -34.838  12.724  -4.659  1.00 20.00    -0.375 OA
HETATM    5  C3  UNL     1     -34.498  14.597  -6.207  1.00 20.00     0.048 C 
ENDBRANCH   1   2
BRANCH   1   6
HETATM    6  C7  UNL     1     -33.169  16.103  -4.062  1.00 20.00     0.007 C 
BRANCH   6   7
HETATM    7  C8  UNL     1     -33.948  17.016  -3.097  1.00 20.00    -0.023 C 
HETATM    8  C4  UNL     1     -34.349  16.229  -1.847  1.00 20.00     0.009 C 
HETATM    9  C5  UNL     1     -35.192  17.624  -3.746  1.00 20.00     0.009 C 
ENDBRANCH   6   7
ENDBRANCH   1   6
TORSDOF 3
ENDMDL
MODEL 9
REMARK VINA RESULT:      -3.6     11.822     12.650
REMARK  3 active torsions:
REMARK  status: ('A' for Active; 'I' for Inactive)
REMARK    1  A    between atoms: C2_2  and  C6_6 
REMARK    2  A    between atoms: C6_6  and  C7_7 
REMARK    3  A    between atoms: C7_7  and  C8_8 
ROOT
HETATM    1  C6  UNL     1     -33.475  15.374  -3.474  1.00 20.00     0.040 C 
ENDROOT
BRANCH   1   2
HETATM    2  C2  UNL     1     -34.225  14.815  -4.673  1.00 20.00     0.079 A 
HETATM    3  C1  UNL     1     -34.212  15.575  -5.979  1.00 20.00     0.206 A 
HETATM    4  O9  UNL     1     -35.336  15.624  -5.088  1.00 20.00    -0.375 OA
HETATM    5  C3  UNL     1     -34.512  13.349  -4.678  1.00 20.00     0.048 C 
ENDBRANCH   1   2
BRANCH   1   6
HETATM    6  C7  UNL     1     -34.438  15.783  -2.355  1.00 20.00     0.007 C 
BRANCH   6   7
HETATM    7  C8  UNL     1     -33.887  16.903  -1.453  1.00 20.00    -0.023 C 
HETATM    8  C4  UNL     1     -34.782  17.067  -0.223  1.00 20.00     0.009 C 
HETATM    9  C5  UNL     1     -33.771  18.240  -2.188  1.00 20.00     0.009 C 
ENDBRANCH   6   7
ENDBRANCH   1   6
TORSDOF 3
ENDMDL
