MODEL 1
REMARK VINA RESULT:      -4.5      0.000      0.000
REMARK  3 active torsions:
REMARK  status: ('A' for Active; 'I' for Inactive)
REMARK    1  A    between atoms: C3_3  and  C4_4 
REMARK    2  A    between atoms: C4_4  and  C6_6 
REMARK    3  A    between atoms: C5_5  and  C6_6 
ROOT
HETATM    1  C2  UNL     1     -35.155   5.421   3.584  1.00 20.00     0.011 C 
HETATM    2  C6  UNL     1     -34.061   6.355   4.116  1.00 20.00    -0.005 C 
ENDROOT
BRANCH   2   3
HETATM    3  C4  UNL     1     -32.742   6.093   3.361  1.00 20.00     0.005 C 
BRANCH   3   4
HETATM    4  C3  UNL     1     -31.814   7.309   3.308  1.00 20.00    -0.004 C 
HETATM    5  C1  UNL     1     -32.109   8.177   2.093  1.00 20.00     0.005 C 
ENDBRANCH   3   4
ENDBRANCH   2   3
BRANCH   2   6
HETATM    6  C5  UNL     1     -33.951   6.269   5.647  1.00 20.00     0.119 C 
HETATM    7 CL7  UNL     1     -34.862   4.913   6.352  1.00 20.00    -0.130 Cl
ENDBRANCH   2   6
TORSDOF 3
ENDMDL
MODEL 2
REMARK VINA RESULT:      -4.3      1.461      1.914
REMARK  3 active torsions:
REMARK  status: ('A' for Active; 'I' for Inactive)
REMARK    1  A    between atoms: C3_3  and  C4_4 
REMARK    2  A    between atoms: C4_4  and  C6_6 
REMARK    3  A    between atoms: C5_5  and  C6_6 
ROOT
HETATM    1  C2  UNL     1     -34.847   3.852   4.665  1.00 20.00     0.011 C 
HETATM    2  C6  UNL     1     -35.028   5.311   5.100  1.00 20.00    -0.005 C 
ENDROOT
BRANCH   2   3
HETATM    3  C4  UNL     1     -34.502   6.252   3.996  1.00 20.00     0.005 C 
BRANCH   3   4
HETATM    4  C3  UNL     1     -33.210   5.763   3.338  1.00 20.00    -0.004 C 
HETATM    5  C1  UNL     1     -32.177   6.878   3.253  1.00 20.00     0.005 C 
ENDBRANCH   3   4
ENDBRANCH   2   3
BRANCH   2   6
HETATM    6  C5  UNL     1     -34.425   5.557   6.492  1.00 20.00     0.119 C 
HETATM    7 CL7  UNL     1     -33.661   7.155   6.665  1.00 20.00    -0.130 Cl
ENDBRANCH   2   6
TORSDOF 3
ENDMDL
MODEL 3
REMARK VINA RESULT:      -4.3      1.122      2.000
REMARK  3 active torsions:
REMARK  status: ('A' for Active; 'I' for Inactive)
REMARK    1  A    between atoms: C3_3  and  C4_4 
REMARK    2  A    between atoms: C4_4  and  C6_6 
REMARK    3  A    between atoms: C5_5  and  C6_6 
ROOT
HETATM    1  C2  UNL     1     -33.700   7.214   6.609  1.00 20.00     0.011 C 
HETATM    2  C6  UNL     1     -33.770   6.002   5.674  1.00 20.00    -0.005 C 
ENDROOT
BRANCH   2   3
HETATM    3  C4  UNL     1     -33.892   6.478   4.211  1.00 20.00     0.005 C 
BRANCH   3   4
HETATM    4  C3  UNL     1     -32.626   6.247   3.383  1.00 20.00    -0.004 C 
HETATM    5  C1  UNL     1     -32.195   7.518   2.666  1.00 20.00     0.005 C 
ENDBRANCH   3   4
ENDBRANCH   2   3
BRANCH   2   6
HETATM    6  C5  UNL     1     -34.861   5.016   6.119  1.00 20.00     0.119 C 
HETATM    7 CL7  UNL     1     -35.160   3.707   4.950  1.00 20.00    -0.130 Cl
ENDBRANCH   2   6
TORSDOF 3
ENDMDL
MODEL 4
REMARK VINA RESULT:      -4.2      2.353      3.798
REMARK  3 active torsions:
REMARK  status: ('A' for Active; 'I' for Inactive)
REMARK    1  A    between atoms: C3_3  and  C4_4 
REMARK    2  A    between atoms: C4_4  and  C6_6 
REMARK    3  A    between atoms: C5_5  and  C6_6 
ROOT
HETATM    1  C2  UNL     1     -34.579   5.593   2.836  1.00 20.00     0.011 C 
HETATM    2  C6  UNL     1     -33.499   5.685   3.920  1.00 20.00    -0.005 C 
ENDROOT
BRANCH   2   3
HETATM    3  C4  UNL     1     -34.034   6.492   5.122  1.00 20.00     0.005 C 
BRANCH   3   4
HETATM    4  C3  UNL     1     -34.387   5.625   6.333  1.00 20.00    -0.004 C 
HETATM    5  C1  UNL     1     -34.899   4.257   5.904  1.00 20.00     0.005 C 
ENDBRANCH   3   4
ENDBRANCH   2   3
BRANCH   2   6
HETATM    6  C5  UNL     1     -32.172   6.203   3.342  1.00 20.00     0.119 C 
HETATM    7 CL7  UNL     1     -32.330   7.743   2.464  1.00 20.00    -0.130 Cl
ENDBRANCH   2   6
TORSDOF 3
ENDMDL
MODEL 5
REMARK VINA RESULT:      -3.8      1.490      3.371
REMARK  3 active torsions:
REMARK  status: ('A' for Active; 'I' for Inactive)
REMARK    1  A    between atoms: C3_3  and  C4_4 
REMARK    2  A    between atoms: C4_4  and  C6_6 
REMARK    3  A    between atoms: C5_5  and  C6_6 
ROOT
HETATM    1  C2  UNL     1     -32.233   6.113   3.030  1.00 20.00     0.011 C 
HETATM    2  C6  UNL     1     -33.298   5.947   4.120  1.00 20.00    -0.005 C 
ENDROOT
BRANCH   2   3
HETATM    3  C4  UNL     1     -34.622   5.472   3.486  1.00 20.00     0.005 C 
BRANCH   3   4
HETATM    4  C3  UNL     1     -35.569   4.796   4.479  1.00 20.00    -0.004 C 
HETATM    5  C1  UNL     1     -34.811   3.888   5.436  1.00 20.00     0.005 C 
ENDBRANCH   3   4
ENDBRANCH   2   3
BRANCH   2   6
HETATM    6  C5  UNL     1     -33.418   7.216   4.979  1.00 20.00     0.119 C 
HETATM    7 CL7  UNL     1     -33.756   6.884   6.695  1.00 20.00    -0.130 Cl
ENDBRANCH   2   6
TORSDOF 3
ENDMDL
MODEL 6
REMARK VINA RESULT:      -3.6      2.893      4.368
REMARK  3 active torsions:
REMARK  status: ('A' for Active; 'I' for Inactive)
REMARK    1  A    between atoms: C3_3  and  C4_4 
REMARK    2  A    between atoms: C4_4  and  C6_6 
REMARK    3  A    between atoms: C5_5  and  C6_6 
ROOT
HETATM    1  C2  UNL     1     -31.092   7.742   3.959  1.00 20.00     0.011 C 
HETATM    2  C6  UNL     1     -32.296   7.636   3.017  1.00 20.00    -0.005 C 
ENDROOT
BRANCH   2   3
HETATM    3  C4  UNL     1     -32.848   6.196   3.038  1.00 20.00     0.005 C 
BRANCH   3   4
HETATM    4  C3  UNL     1     -33.750   5.902   4.239  1.00 20.00    -0.004 C 
HETATM    5  C1  UNL     1     -35.108   5.376   3.796  1.00 20.00     0.005 C 
ENDBRANCH   3   4
ENDBRANCH   2   3
BRANCH   2   6
HETATM    6  C5  UNL     1     -31.958   8.173   1.617  1.00 20.00     0.119 C 
HETATM    7 CL7  UNL     1     -32.436   9.869   1.369  1.00 20.00    -0.130 Cl
ENDBRANCH   2   6
TORSDOF 3
ENDMDL
MODEL 7
REMARK VINA RESULT:      -3.5      2.003      3.824
REMARK  3 active torsions:
REMARK  status: ('A' for Active; 'I' for Inactive)
REMARK    1  A    between atoms: C3_3  and  C4_4 
REMARK    2  A    between atoms: C4_4  and  C6_6 
REMARK    3  A    between atoms: C5_5  and  C6_6 
ROOT
HETATM    1  C2  UNL     1     -32.564   6.613   3.615  1.00 20.00     0.011 C 
HETATM    2  C6  UNL     1     -33.958   6.610   4.252  1.00 20.00    -0.005 C 
ENDROOT
BRANCH   2   3
HETATM    3  C4  UNL     1     -33.846   6.253   5.749  1.00 20.00     0.005 C 
BRANCH   3   4
HETATM    4  C3  UNL     1     -34.922   5.277   6.229  1.00 20.00    -0.004 C 
HETATM    5  C1  UNL     1     -34.488   3.832   6.025  1.00 20.00     0.005 C 
ENDBRANCH   3   4
ENDBRANCH   2   3
BRANCH   2   6
HETATM    6  C5  UNL     1     -34.933   5.729   3.455  1.00 20.00     0.119 C 
HETATM    7 CL7  UNL     1     -34.179   4.903   2.070  1.00 20.00    -0.130 Cl
ENDBRANCH   2   6
TORSDOF 3
ENDMDL
MODEL 8
REMARK VINA RESULT:      -3.5     11.664     12.454
REMARK  3 active torsions:
REMARK  status: ('A' for Active; 'I' for Inactive)
REMARK    1  A    between atoms: C3_3  and  C4_4 
REMARK    2  A    between atoms: C4_4  and  C6_6 
REMARK    3  A    between atoms: C5_5  and  C6_6 
ROOT
HETATM    1  C2  UNL     1     -33.634  13.852  -3.901  1.00 20.00     0.011 C 
HETATM    2  C6  UNL     1     -33.342  15.299  -3.488  1.00 20.00    -0.005 C 
ENDROOT
BRANCH   2   3
HETATM    3  C4  UNL     1     -34.388  15.766  -2.454  1.00 20.00     0.005 C 
BRANCH   3   4
HETATM    4  C3  UNL     1     -33.886  16.882  -1.535  1.00 20.00    -0.004 C 
HETATM    5  C1  UNL     1     -34.749  17.001  -0.287  1.00 20.00     0.005 C 
ENDBRANCH   3   4
ENDBRANCH   2   3
BRANCH   2   6
HETATM    6  C5  UNL     1     -33.202  16.212  -4.716  1.00 20.00     0.119 C 
HETATM    7 CL7  UNL     1     -33.991  15.570  -6.176  1.00 20.00    -0.130 Cl
ENDBRANCH   2   6
TORSDOF 3
ENDMDL
MODEL 9
REMARK VINA RESULT:      -3.4     10.867     11.884
REMARK  3 active torsions:
REMARK  status: ('A' for Active; 'I' for Inactive)
REMARK    1  A    between atoms: C3_3  and  C4_4 
REMARK    2  A    between atoms: C4_4  and  C6_6 
REMARK    3  A    between atoms: C5_5  and  C6_6 
ROOT
HETATM    1  C2  UNL     1     -33.710  17.155  -4.112  1.00 20.00     0.011 C 
HETATM    2  C6  UNL     1     -33.577  16.074  -3.034  1.00 20.00    -0.005 C 
ENDROOT
BRANCH   2   3
HETATM    3  C4  UNL     1     -33.148  14.742  -3.683  1.00 20.00     0.005 C 
BRANCH   3   4
HETATM    4  C3  UNL     1     -34.215  13.648  -3.601  1.00 20.00    -0.004 C 
HETATM    5  C1  UNL     1     -34.788  13.330  -4.975  1.00 20.00     0.005 C 
ENDBRANCH   3   4
ENDBRANCH   2   3
BRANCH   2   6
HETATM    6  C5  UNL     1     -34.847  15.987  -2.172  1.00 20.00     0.119 C 
HETATM    7 CL7  UNL     1     -34.645  16.658  -0.536  1.00 20.00    -0.130 Cl
ENDBRANCH   2   6
TORSDOF 3
ENDMDL
