MODEL 1
REMARK VINA RESULT:      -4.0      0.000      0.000
REMARK  1 active torsions:
REMARK  status: ('A' for Active; 'I' for Inactive)
REMARK    1  A    between atoms: C1_1  and  C2_2 
ROOT
HETATM    1  C1  UNL     1     -34.661   4.199   5.534  1.00 20.00     0.437 C 
HETATM    2  F3  UNL     1     -35.596   4.262   6.508  1.00 20.00    -0.166 F 
HETATM    3  F4  UNL     1     -33.532   3.705   6.091  1.00 20.00    -0.166 F 
HETATM    4  F5  UNL     1     -35.090   3.294   4.624  1.00 20.00    -0.166 F 
ENDROOT
BRANCH   1   5
HETATM    5  C2  UNL     1     -34.423   5.558   4.899  1.00 20.00     0.286 C 
HETATM    6 CL6  UNL     1     -35.821   6.009   3.883  1.00 20.00    -0.074 Cl
HETATM    7 CL7  UNL     1     -34.203   6.795   6.168  1.00 20.00    -0.074 Cl
HETATM    8 CL8  UNL     1     -32.957   5.505   3.878  1.00 20.00    -0.074 Cl
ENDBRANCH   1   5
TORSDOF 1
ENDMDL
MODEL 2
REMARK VINA RESULT:      -4.0      0.002      2.225
REMARK  1 active torsions:
REMARK  status: ('A' for Active; 'I' for Inactive)
REMARK    1  A    between atoms: C1_1  and  C2_2 
ROOT
HETATM    1  C1  UNL     1     -34.661   4.199   5.533  1.00 20.00     0.437 C 
HETATM    2  F3  UNL     1     -33.531   3.707   6.090  1.00 20.00    -0.166 F 
HETATM    3  F4  UNL     1     -35.090   3.293   4.626  1.00 20.00    -0.166 F 
HETATM    4  F5  UNL     1     -35.595   4.264   6.509  1.00 20.00    -0.166 F 
ENDROOT
BRANCH   1   5
HETATM    5  C2  UNL     1     -34.423   5.557   4.897  1.00 20.00     0.286 C 
HETATM    6 CL6  UNL     1     -34.205   6.795   6.166  1.00 20.00    -0.074 Cl
HETATM    7 CL7  UNL     1     -32.957   5.506   3.876  1.00 20.00    -0.074 Cl
HETATM    8 CL8  UNL     1     -35.822   6.008   3.881  1.00 20.00    -0.074 Cl
ENDBRANCH   1   5
TORSDOF 1
ENDMDL
MODEL 3
REMARK VINA RESULT:      -4.0      0.003      2.226
REMARK  1 active torsions:
REMARK  status: ('A' for Active; 'I' for Inactive)
REMARK    1  A    between atoms: C1_1  and  C2_2 
ROOT
HETATM    1  C1  UNL     1     -34.661   4.199   5.533  1.00 20.00     0.437 C 
HETATM    2  F3  UNL     1     -33.531   3.707   6.090  1.00 20.00    -0.166 F 
HETATM    3  F4  UNL     1     -35.091   3.292   4.626  1.00 20.00    -0.166 F 
HETATM    4  F5  UNL     1     -35.595   4.264   6.510  1.00 20.00    -0.166 F 
ENDROOT
BRANCH   1   5
HETATM    5  C2  UNL     1     -34.424   5.557   4.896  1.00 20.00     0.286 C 
HETATM    6 CL6  UNL     1     -32.958   5.505   3.878  1.00 20.00    -0.074 Cl
HETATM    7 CL7  UNL     1     -35.823   6.007   3.880  1.00 20.00    -0.074 Cl
HETATM    8 CL8  UNL     1     -34.206   6.796   6.165  1.00 20.00    -0.074 Cl
ENDBRANCH   1   5
TORSDOF 1
ENDMDL
MODEL 4
REMARK VINA RESULT:      -3.7      2.506      3.128
REMARK  1 active torsions:
REMARK  status: ('A' for Active; 'I' for Inactive)
REMARK    1  A    between atoms: C1_1  and  C2_2 
ROOT
HETATM    1  C1  UNL     1     -33.441   5.859   3.497  1.00 20.00     0.437 C 
HETATM    2  F3  UNL     1     -32.201   5.480   3.880  1.00 20.00    -0.166 F 
HETATM    3  F4  UNL     1     -33.400   7.190   3.258  1.00 20.00    -0.166 F 
HETATM    4  F5  UNL     1     -33.702   5.248   2.319  1.00 20.00    -0.166 F 
ENDROOT
BRANCH   1   5
HETATM    5  C2  UNL     1     -34.480   5.513   4.548  1.00 20.00     0.286 C 
HETATM    6 CL6  UNL     1     -34.329   3.794   5.011  1.00 20.00    -0.074 Cl
HETATM    7 CL7  UNL     1     -34.245   6.529   5.999  1.00 20.00    -0.074 Cl
HETATM    8 CL8  UNL     1     -36.121   5.797   3.901  1.00 20.00    -0.074 Cl
ENDBRANCH   1   5
TORSDOF 1
ENDMDL
MODEL 5
REMARK VINA RESULT:      -3.7      2.506      3.172
REMARK  1 active torsions:
REMARK  status: ('A' for Active; 'I' for Inactive)
REMARK    1  A    between atoms: C1_1  and  C2_2 
ROOT
HETATM    1  C1  UNL     1     -33.453   5.857   3.489  1.00 20.00     0.437 C 
HETATM    2  F3  UNL     1     -33.411   7.188   3.250  1.00 20.00    -0.166 F 
HETATM    3  F4  UNL     1     -33.711   5.245   2.312  1.00 20.00    -0.166 F 
HETATM    4  F5  UNL     1     -32.213   5.479   3.876  1.00 20.00    -0.166 F 
ENDROOT
BRANCH   1   5
HETATM    5  C2  UNL     1     -34.495   5.512   4.539  1.00 20.00     0.286 C 
HETATM    6 CL6  UNL     1     -36.133   5.804   3.890  1.00 20.00    -0.074 Cl
HETATM    7 CL7  UNL     1     -34.350   3.792   5.001  1.00 20.00    -0.074 Cl
HETATM    8 CL8  UNL     1     -34.256   6.525   5.991  1.00 20.00    -0.074 Cl
ENDBRANCH   1   5
TORSDOF 1
ENDMDL
MODEL 6
REMARK VINA RESULT:      -3.7      2.508      3.233
REMARK  1 active torsions:
REMARK  status: ('A' for Active; 'I' for Inactive)
REMARK    1  A    between atoms: C1_1  and  C2_2 
ROOT
HETATM    1  C1  UNL     1     -33.459   5.859   3.482  1.00 20.00     0.437 C 
HETATM    2  F3  UNL     1     -33.721   5.248   2.304  1.00 20.00    -0.166 F 
HETATM    3  F4  UNL     1     -32.218   5.480   3.864  1.00 20.00    -0.166 F 
HETATM    4  F5  UNL     1     -33.418   7.189   3.243  1.00 20.00    -0.166 F 
ENDROOT
BRANCH   1   5
HETATM    5  C2  UNL     1     -34.497   5.512   4.534  1.00 20.00     0.286 C 
HETATM    6 CL6  UNL     1     -34.254   6.523   5.986  1.00 20.00    -0.074 Cl
HETATM    7 CL7  UNL     1     -36.139   5.802   3.891  1.00 20.00    -0.074 Cl
HETATM    8 CL8  UNL     1     -34.349   3.791   4.993  1.00 20.00    -0.074 Cl
ENDBRANCH   1   5
TORSDOF 1
ENDMDL
MODEL 7
REMARK VINA RESULT:      -3.6     13.404     13.915
REMARK  1 active torsions:
REMARK  status: ('A' for Active; 'I' for Inactive)
REMARK    1  A    between atoms: C1_1  and  C2_2 
ROOT
HETATM    1  C1  UNL     1     -33.879  13.950  -4.193  1.00 20.00     0.437 C 
HETATM    2  F3  UNL     1     -34.000  12.791  -4.879  1.00 20.00    -0.166 F 
HETATM    3  F4  UNL     1     -34.633  13.838  -3.076  1.00 20.00    -0.166 F 
HETATM    4  F5  UNL     1     -32.589  14.051  -3.799  1.00 20.00    -0.166 F 
ENDROOT
BRANCH   1   5
HETATM    5  C2  UNL     1     -34.300  15.143  -5.034  1.00 20.00     0.286 C 
HETATM    6 CL6  UNL     1     -34.491  14.649  -6.740  1.00 20.00    -0.074 Cl
HETATM    7 CL7  UNL     1     -35.856  15.791  -4.439  1.00 20.00    -0.074 Cl
HETATM    8 CL8  UNL     1     -33.061  16.426  -4.936  1.00 20.00    -0.074 Cl
ENDBRANCH   1   5
TORSDOF 1
ENDMDL
MODEL 8
REMARK VINA RESULT:      -3.6     13.404     14.019
REMARK  1 active torsions:
REMARK  status: ('A' for Active; 'I' for Inactive)
REMARK    1  A    between atoms: C1_1  and  C2_2 
ROOT
HETATM    1  C1  UNL     1     -33.879  13.949  -4.194  1.00 20.00     0.437 C 
HETATM    2  F3  UNL     1     -34.001  12.790  -4.880  1.00 20.00    -0.166 F 
HETATM    3  F4  UNL     1     -34.634  13.837  -3.077  1.00 20.00    -0.166 F 
HETATM    4  F5  UNL     1     -32.589  14.049  -3.799  1.00 20.00    -0.166 F 
ENDROOT
BRANCH   1   5
HETATM    5  C2  UNL     1     -34.299  15.142  -5.034  1.00 20.00     0.286 C 
HETATM    6 CL6  UNL     1     -33.060  16.425  -4.933  1.00 20.00    -0.074 Cl
HETATM    7 CL7  UNL     1     -34.490  14.651  -6.741  1.00 20.00    -0.074 Cl
HETATM    8 CL8  UNL     1     -35.854  15.790  -4.439  1.00 20.00    -0.074 Cl
ENDBRANCH   1   5
TORSDOF 1
ENDMDL
MODEL 9
REMARK VINA RESULT:      -3.6     13.406     13.907
REMARK  1 active torsions:
REMARK  status: ('A' for Active; 'I' for Inactive)
REMARK    1  A    between atoms: C1_1  and  C2_2 
ROOT
HETATM    1  C1  UNL     1     -33.881  13.947  -4.200  1.00 20.00     0.437 C 
HETATM    2  F3  UNL     1     -32.591  14.045  -3.805  1.00 20.00    -0.166 F 
HETATM    3  F4  UNL     1     -34.004  12.789  -4.887  1.00 20.00    -0.166 F 
HETATM    4  F5  UNL     1     -34.636  13.835  -3.083  1.00 20.00    -0.166 F 
ENDROOT
BRANCH   1   5
HETATM    5  C2  UNL     1     -34.300  15.142  -5.039  1.00 20.00     0.286 C 
HETATM    6 CL6  UNL     1     -35.856  15.788  -4.444  1.00 20.00    -0.074 Cl
HETATM    7 CL7  UNL     1     -33.060  16.425  -4.938  1.00 20.00    -0.074 Cl
HETATM    8 CL8  UNL     1     -34.490  14.651  -6.746  1.00 20.00    -0.074 Cl
ENDBRANCH   1   5
TORSDOF 1
ENDMDL
