MODEL 1
REMARK VINA RESULT:      -3.9      0.000      0.000
REMARK  3 active torsions:
REMARK  status: ('A' for Active; 'I' for Inactive)
REMARK    1  A    between atoms: C1_1  and  C4_4 
REMARK    2  A    between atoms: C1_1  and  O6_6 
REMARK    3  A    between atoms: C5_5  and  O6_6 
ROOT
HETATM    1  C1  UNL     1     -33.972   6.052   4.708  1.00 20.00     0.112 C 
HETATM    2  S7  UNL     1     -34.893   5.451   3.449  1.00 20.00    -0.058 SA
ENDROOT
BRANCH   1   3
HETATM    3  C4  UNL     1     -34.298   5.803   6.156  1.00 20.00     0.072 C 
HETATM    4  C2  UNL     1     -35.026   4.481   6.347  1.00 20.00     0.013 C 
ENDBRANCH   1   3
BRANCH   1   5
HETATM    5  O6  UNL     1     -32.883   6.754   4.355  1.00 20.00    -0.344 OA
BRANCH   5   6
HETATM    6  C5  UNL     1     -32.223   6.553   3.094  1.00 20.00     0.172 C 
HETATM    7  C3  UNL     1     -32.085   7.886   2.392  1.00 20.00     0.034 C 
ENDBRANCH   5   6
ENDBRANCH   1   5
TORSDOF 3
ENDMDL
MODEL 2
REMARK VINA RESULT:      -3.8      1.459      1.535
REMARK  3 active torsions:
REMARK  status: ('A' for Active; 'I' for Inactive)
REMARK    1  A    between atoms: C1_1  and  C4_4 
REMARK    2  A    between atoms: C1_1  and  O6_6 
REMARK    3  A    between atoms: C5_5  and  O6_6 
ROOT
HETATM    1  C1  UNL     1     -34.169   6.042   4.718  1.00 20.00     0.112 C 
HETATM    2  S7  UNL     1     -33.798   6.630   6.237  1.00 20.00    -0.058 SA
ENDROOT
BRANCH   1   3
HETATM    3  C4  UNL     1     -34.993   4.802   4.494  1.00 20.00     0.072 C 
HETATM    4  C2  UNL     1     -35.076   3.951   5.752  1.00 20.00     0.013 C 
ENDBRANCH   1   3
BRANCH   1   5
HETATM    5  O6  UNL     1     -33.717   6.767   3.680  1.00 20.00    -0.344 OA
BRANCH   5   6
HETATM    6  C5  UNL     1     -32.348   6.702   3.247  1.00 20.00     0.172 C 
HETATM    7  C3  UNL     1     -32.061   7.879   2.341  1.00 20.00     0.034 C 
ENDBRANCH   5   6
ENDBRANCH   1   5
TORSDOF 3
ENDMDL
MODEL 3
REMARK VINA RESULT:      -3.6      0.741      1.253
REMARK  3 active torsions:
REMARK  status: ('A' for Active; 'I' for Inactive)
REMARK    1  A    between atoms: C1_1  and  C4_4 
REMARK    2  A    between atoms: C1_1  and  O6_6 
REMARK    3  A    between atoms: C5_5  and  O6_6 
ROOT
HETATM    1  C1  UNL     1     -33.927   6.072   4.794  1.00 20.00     0.112 C 
HETATM    2  S7  UNL     1     -34.958   5.349   3.695  1.00 20.00    -0.058 SA
ENDROOT
BRANCH   1   3
HETATM    3  C4  UNL     1     -34.206   6.122   6.273  1.00 20.00     0.072 C 
HETATM    4  C2  UNL     1     -33.551   7.330   6.924  1.00 20.00     0.013 C 
ENDBRANCH   1   3
BRANCH   1   5
HETATM    5  O6  UNL     1     -32.794   6.586   4.286  1.00 20.00    -0.344 OA
BRANCH   5   6
HETATM    6  C5  UNL     1     -32.481   6.501   2.887  1.00 20.00     0.172 C 
HETATM    7  C3  UNL     1     -32.094   7.875   2.384  1.00 20.00     0.034 C 
ENDBRANCH   5   6
ENDBRANCH   1   5
TORSDOF 3
ENDMDL
MODEL 4
REMARK VINA RESULT:      -3.3      0.687      3.702
REMARK  3 active torsions:
REMARK  status: ('A' for Active; 'I' for Inactive)
REMARK    1  A    between atoms: C1_1  and  C4_4 
REMARK    2  A    between atoms: C1_1  and  O6_6 
REMARK    3  A    between atoms: C5_5  and  O6_6 
ROOT
HETATM    1  C1  UNL     1     -33.575   6.101   4.036  1.00 20.00     0.112 C 
HETATM    2  S7  UNL     1     -35.015   5.671   3.307  1.00 20.00    -0.058 SA
ENDROOT
BRANCH   1   3
HETATM    3  C4  UNL     1     -32.283   6.254   3.278  1.00 20.00     0.072 C 
HETATM    4  C2  UNL     1     -32.192   7.609   2.594  1.00 20.00     0.013 C 
ENDBRANCH   1   3
BRANCH   1   5
HETATM    5  O6  UNL     1     -33.634   6.345   5.356  1.00 20.00    -0.344 OA
BRANCH   5   6
HETATM    6  C5  UNL     1     -34.603   5.708   6.204  1.00 20.00     0.172 C 
HETATM    7  C3  UNL     1     -34.386   4.211   6.163  1.00 20.00     0.034 C 
ENDBRANCH   5   6
ENDBRANCH   1   5
TORSDOF 3
ENDMDL
MODEL 5
REMARK VINA RESULT:      -3.3     11.952     12.357
REMARK  3 active torsions:
REMARK  status: ('A' for Active; 'I' for Inactive)
REMARK    1  A    between atoms: C1_1  and  C4_4 
REMARK    2  A    between atoms: C1_1  and  O6_6 
REMARK    3  A    between atoms: C5_5  and  O6_6 
ROOT
HETATM    1  C1  UNL     1     -33.473  15.362  -3.734  1.00 20.00     0.112 C 
HETATM    2  S7  UNL     1     -33.352  16.367  -5.063  1.00 20.00    -0.058 SA
ENDROOT
BRANCH   1   3
HETATM    3  C4  UNL     1     -33.442  13.860  -3.833  1.00 20.00     0.072 C 
HETATM    4  C2  UNL     1     -34.620  13.328  -4.634  1.00 20.00     0.013 C 
ENDBRANCH   1   3
BRANCH   1   5
HETATM    5  O6  UNL     1     -33.566  15.974  -2.541  1.00 20.00    -0.344 OA
BRANCH   5   6
HETATM    6  C5  UNL     1     -34.827  16.169  -1.882  1.00 20.00     0.172 C 
HETATM    7  C3  UNL     1     -34.590  16.846  -0.550  1.00 20.00     0.034 C 
ENDBRANCH   5   6
ENDBRANCH   1   5
TORSDOF 3
ENDMDL
MODEL 6
REMARK VINA RESULT:      -3.2     11.862     12.929
REMARK  3 active torsions:
REMARK  status: ('A' for Active; 'I' for Inactive)
REMARK    1  A    between atoms: C1_1  and  C4_4 
REMARK    2  A    between atoms: C1_1  and  O6_6 
REMARK    3  A    between atoms: C5_5  and  O6_6 
ROOT
HETATM    1  C1  UNL     1     -33.372  15.378  -3.658  1.00 20.00     0.112 C 
HETATM    2  S7  UNL     1     -34.088  16.228  -2.411  1.00 20.00    -0.058 SA
ENDROOT
BRANCH   1   3
HETATM    3  C4  UNL     1     -33.427  13.878  -3.769  1.00 20.00     0.072 C 
HETATM    4  C2  UNL     1     -34.812  13.397  -4.173  1.00 20.00     0.013 C 
ENDBRANCH   1   3
BRANCH   1   5
HETATM    5  O6  UNL     1     -32.761  16.119  -4.599  1.00 20.00    -0.344 OA
BRANCH   5   6
HETATM    6  C5  UNL     1     -33.479  17.062  -5.410  1.00 20.00     0.172 C 
HETATM    7  C3  UNL     1     -34.213  16.316  -6.502  1.00 20.00     0.034 C 
ENDBRANCH   5   6
ENDBRANCH   1   5
TORSDOF 3
ENDMDL
MODEL 7
REMARK VINA RESULT:      -3.1      1.695      3.926
REMARK  3 active torsions:
REMARK  status: ('A' for Active; 'I' for Inactive)
REMARK    1  A    between atoms: C1_1  and  C4_4 
REMARK    2  A    between atoms: C1_1  and  O6_6 
REMARK    3  A    between atoms: C5_5  and  O6_6 
ROOT
HETATM    1  C1  UNL     1     -33.420   6.214   4.115  1.00 20.00     0.112 C 
HETATM    2  S7  UNL     1     -33.573   6.826   5.662  1.00 20.00    -0.058 SA
ENDROOT
BRANCH   1   3
HETATM    3  C4  UNL     1     -32.178   6.388   3.282  1.00 20.00     0.072 C 
HETATM    4  C2  UNL     1     -32.188   7.711   2.532  1.00 20.00     0.013 C 
ENDBRANCH   1   3
BRANCH   1   5
HETATM    5  O6  UNL     1     -34.469   5.513   3.654  1.00 20.00    -0.344 OA
BRANCH   5   6
HETATM    6  C5  UNL     1     -35.476   4.984   4.532  1.00 20.00     0.172 C 
HETATM    7  C3  UNL     1     -34.892   3.826   5.312  1.00 20.00     0.034 C 
ENDBRANCH   5   6
ENDBRANCH   1   5
TORSDOF 3
ENDMDL
MODEL 8
REMARK VINA RESULT:      -3.1     11.907     12.369
REMARK  3 active torsions:
REMARK  status: ('A' for Active; 'I' for Inactive)
REMARK    1  A    between atoms: C1_1  and  C4_4 
REMARK    2  A    between atoms: C1_1  and  O6_6 
REMARK    3  A    between atoms: C5_5  and  O6_6 
ROOT
HETATM    1  C1  UNL     1     -33.858  16.077  -3.245  1.00 20.00     0.112 C 
HETATM    2  S7  UNL     1     -33.807  17.442  -4.208  1.00 20.00    -0.058 SA
ENDROOT
BRANCH   1   3
HETATM    3  C4  UNL     1     -34.754  15.951  -2.042  1.00 20.00     0.072 C 
HETATM    4  C2  UNL     1     -34.320  16.882  -0.921  1.00 20.00     0.013 C 
ENDBRANCH   1   3
BRANCH   1   5
HETATM    5  O6  UNL     1     -33.068  15.059  -3.627  1.00 20.00    -0.344 OA
BRANCH   5   6
HETATM    6  C5  UNL     1     -33.566  13.718  -3.763  1.00 20.00     0.172 C 
HETATM    7  C3  UNL     1     -34.454  13.642  -4.986  1.00 20.00     0.034 C 
ENDBRANCH   5   6
ENDBRANCH   1   5
TORSDOF 3
ENDMDL
MODEL 9
REMARK VINA RESULT:      -3.1      1.152      3.362
REMARK  3 active torsions:
REMARK  status: ('A' for Active; 'I' for Inactive)
REMARK    1  A    between atoms: C1_1  and  C4_4 
REMARK    2  A    between atoms: C1_1  and  O6_6 
REMARK    3  A    between atoms: C5_5  and  O6_6 
ROOT
HETATM    1  C1  UNL     1     -33.987   5.634   3.978  1.00 20.00     0.112 C 
HETATM    2  S7  UNL     1     -35.628   5.617   3.666  1.00 20.00    -0.058 SA
ENDROOT
BRANCH   1   3
HETATM    3  C4  UNL     1     -32.957   6.002   2.944  1.00 20.00     0.072 C 
HETATM    4  C2  UNL     1     -32.030   7.100   3.442  1.00 20.00     0.013 C 
ENDBRANCH   1   3
BRANCH   1   5
HETATM    5  O6  UNL     1     -33.625   5.332   5.237  1.00 20.00    -0.344 OA
BRANCH   5   6
HETATM    6  C5  UNL     1     -34.327   5.855   6.376  1.00 20.00     0.172 C 
HETATM    7  C3  UNL     1     -33.704   7.175   6.776  1.00 20.00     0.034 C 
ENDBRANCH   5   6
ENDBRANCH   1   5
TORSDOF 3
ENDMDL
