MODEL 1
REMARK VINA RESULT:      -4.8      0.000      0.000
REMARK  3 active torsions:
REMARK  status: ('A' for Active; 'I' for Inactive)
REMARK    1  A    between atoms: C3_3  and  C4_4 
REMARK    2  A    between atoms: C3_3  and  C5_5 
REMARK    3  A    between atoms: C4_4  and  O6_6 
ROOT
HETATM    1  C1  UNL     1     -33.067   5.731   3.941  1.00 20.00     0.022 A 
HETATM    2  C2  UNL     1     -33.958   6.939   4.014  1.00 20.00     0.022 A 
HETATM    3  C3  UNL     1     -34.311   5.697   4.798  1.00 20.00     0.079 A 
ENDROOT
BRANCH   3   4
HETATM    4  C4  UNL     1     -35.473   4.869   4.322  1.00 20.00     0.182 C 
BRANCH   4   5
HETATM    5  O6  UNL     1     -35.405   3.576   4.912  1.00 20.00    -0.400 OA
HETATM    6  H16 UNL     1     -35.310   3.711   5.868  1.00 20.00     0.209 HD
ENDBRANCH   4   5
ENDBRANCH   3   4
BRANCH   3   7
HETATM    7  C5  UNL     1     -34.139   5.732   6.292  1.00 20.00     0.397 C 
HETATM    8  F7  UNL     1     -35.337   5.757   6.915  1.00 20.00    -0.170 F 
HETATM    9  F8  UNL     1     -33.467   4.646   6.727  1.00 20.00    -0.170 F 
HETATM   10  F9  UNL     1     -33.450   6.829   6.673  1.00 20.00    -0.170 F 
ENDBRANCH   3   7
TORSDOF 3
ENDMDL
MODEL 2
REMARK VINA RESULT:      -4.8      0.007      1.261
REMARK  3 active torsions:
REMARK  status: ('A' for Active; 'I' for Inactive)
REMARK    1  A    between atoms: C3_3  and  C4_4 
REMARK    2  A    between atoms: C3_3  and  C5_5 
REMARK    3  A    between atoms: C4_4  and  O6_6 
ROOT
HETATM    1  C1  UNL     1     -33.067   5.737   3.941  1.00 20.00     0.022 A 
HETATM    2  C2  UNL     1     -33.959   6.944   4.017  1.00 20.00     0.022 A 
HETATM    3  C3  UNL     1     -34.312   5.698   4.796  1.00 20.00     0.079 A 
ENDROOT
BRANCH   3   4
HETATM    4  C4  UNL     1     -35.472   4.871   4.314  1.00 20.00     0.182 C 
BRANCH   4   5
HETATM    5  O6  UNL     1     -35.407   3.577   4.902  1.00 20.00    -0.400 OA
HETATM    6  H16 UNL     1     -36.240   3.446   5.382  1.00 20.00     0.209 HD
ENDBRANCH   4   5
ENDBRANCH   3   4
BRANCH   3   7
HETATM    7  C5  UNL     1     -34.142   5.727   6.290  1.00 20.00     0.397 C 
HETATM    8  F7  UNL     1     -33.451   6.821   6.676  1.00 20.00    -0.170 F 
HETATM    9  F8  UNL     1     -35.340   5.752   6.911  1.00 20.00    -0.170 F 
HETATM   10  F9  UNL     1     -33.472   4.638   6.722  1.00 20.00    -0.170 F 
ENDBRANCH   3   7
TORSDOF 3
ENDMDL
MODEL 3
REMARK VINA RESULT:      -4.7      2.182      2.802
REMARK  3 active torsions:
REMARK  status: ('A' for Active; 'I' for Inactive)
REMARK    1  A    between atoms: C3_3  and  C4_4 
REMARK    2  A    between atoms: C3_3  and  C5_5 
REMARK    3  A    between atoms: C4_4  and  O6_6 
ROOT
HETATM    1  C1  UNL     1     -34.200   6.501   6.061  1.00 20.00     0.022 A 
HETATM    2  C2  UNL     1     -33.500   5.171   6.059  1.00 20.00     0.022 A 
HETATM    3  C3  UNL     1     -34.250   5.627   4.830  1.00 20.00     0.079 A 
ENDROOT
BRANCH   3   4
HETATM    4  C4  UNL     1     -35.549   4.943   4.502  1.00 20.00     0.182 C 
BRANCH   4   5
HETATM    5  O6  UNL     1     -35.487   3.585   4.921  1.00 20.00    -0.400 OA
HETATM    6  H16 UNL     1     -35.149   3.589   5.831  1.00 20.00     0.209 HD
ENDBRANCH   4   5
ENDBRANCH   3   4
BRANCH   3   7
HETATM    7  C5  UNL     1     -33.447   6.052   3.630  1.00 20.00     0.397 C 
HETATM    8  F7  UNL     1     -33.586   7.376   3.402  1.00 20.00    -0.170 F 
HETATM    9  F8  UNL     1     -32.135   5.797   3.813  1.00 20.00    -0.170 F 
HETATM   10  F9  UNL     1     -33.850   5.395   2.522  1.00 20.00    -0.170 F 
ENDBRANCH   3   7
TORSDOF 3
ENDMDL
MODEL 4
REMARK VINA RESULT:      -4.6      1.942      2.521
REMARK  3 active torsions:
REMARK  status: ('A' for Active; 'I' for Inactive)
REMARK    1  A    between atoms: C3_3  and  C4_4 
REMARK    2  A    between atoms: C3_3  and  C5_5 
REMARK    3  A    between atoms: C4_4  and  O6_6 
ROOT
HETATM    1  C1  UNL     1     -35.603   5.866   3.726  1.00 20.00     0.022 A 
HETATM    2  C2  UNL     1     -34.376   5.192   3.182  1.00 20.00     0.022 A 
HETATM    3  C3  UNL     1     -34.493   5.456   4.665  1.00 20.00     0.079 A 
ENDROOT
BRANCH   3   4
HETATM    4  C4  UNL     1     -33.635   6.539   5.258  1.00 20.00     0.182 C 
BRANCH   4   5
HETATM    5  O6  UNL     1     -34.067   6.810   6.586  1.00 20.00    -0.400 OA
HETATM    6  H16 UNL     1     -33.680   7.664   6.837  1.00 20.00     0.209 HD
ENDBRANCH   4   5
ENDBRANCH   3   4
BRANCH   3   7
HETATM    7  C5  UNL     1     -34.736   4.282   5.574  1.00 20.00     0.397 C 
HETATM    8  F7  UNL     1     -35.152   3.206   4.872  1.00 20.00    -0.170 F 
HETATM    9  F8  UNL     1     -33.609   3.939   6.231  1.00 20.00    -0.170 F 
HETATM   10  F9  UNL     1     -35.683   4.570   6.493  1.00 20.00    -0.170 F 
ENDBRANCH   3   7
TORSDOF 3
ENDMDL
MODEL 5
REMARK VINA RESULT:      -4.5      1.454      2.073
REMARK  3 active torsions:
REMARK  status: ('A' for Active; 'I' for Inactive)
REMARK    1  A    between atoms: C3_3  and  C4_4 
REMARK    2  A    between atoms: C3_3  and  C5_5 
REMARK    3  A    between atoms: C4_4  and  O6_6 
ROOT
HETATM    1  C1  UNL     1     -35.695   5.404   4.067  1.00 20.00     0.022 A 
HETATM    2  C2  UNL     1     -34.642   4.332   4.060  1.00 20.00     0.022 A 
HETATM    3  C3  UNL     1     -34.392   5.627   4.796  1.00 20.00     0.079 A 
ENDROOT
BRANCH   3   4
HETATM    4  C4  UNL     1     -33.408   6.597   4.202  1.00 20.00     0.182 C 
BRANCH   4   5
HETATM    5  O6  UNL     1     -32.428   5.881   3.459  1.00 20.00    -0.400 OA
HETATM    6  H16 UNL     1     -31.564   6.239   3.720  1.00 20.00     0.209 HD
ENDBRANCH   4   5
ENDBRANCH   3   4
BRANCH   3   7
HETATM    7  C5  UNL     1     -34.411   5.600   6.300  1.00 20.00     0.397 C 
HETATM    8  F7  UNL     1     -35.642   5.294   6.761  1.00 20.00    -0.170 F 
HETATM    9  F8  UNL     1     -33.548   4.679   6.778  1.00 20.00    -0.170 F 
HETATM   10  F9  UNL     1     -34.062   6.800   6.810  1.00 20.00    -0.170 F 
ENDBRANCH   3   7
TORSDOF 3
ENDMDL
MODEL 6
REMARK VINA RESULT:      -4.5      1.842      2.622
REMARK  3 active torsions:
REMARK  status: ('A' for Active; 'I' for Inactive)
REMARK    1  A    between atoms: C3_3  and  C4_4 
REMARK    2  A    between atoms: C3_3  and  C5_5 
REMARK    3  A    between atoms: C4_4  and  O6_6 
ROOT
HETATM    1  C1  UNL     1     -34.446   6.112   6.499  1.00 20.00     0.022 A 
HETATM    2  C2  UNL     1     -33.655   4.857   6.259  1.00 20.00     0.022 A 
HETATM    3  C3  UNL     1     -34.263   5.596   5.091  1.00 20.00     0.079 A 
ENDROOT
BRANCH   3   4
HETATM    4  C4  UNL     1     -35.451   4.978   4.406  1.00 20.00     0.182 C 
BRANCH   4   5
HETATM    5  O6  UNL     1     -35.527   3.598   4.746  1.00 20.00    -0.400 OA
HETATM    6  H16 UNL     1     -35.196   3.104   3.979  1.00 20.00     0.209 HD
ENDBRANCH   4   5
ENDBRANCH   3   4
BRANCH   3   7
HETATM    7  C5  UNL     1     -33.340   6.354   4.176  1.00 20.00     0.397 C 
HETATM    8  F7  UNL     1     -32.430   7.056   4.884  1.00 20.00    -0.170 F 
HETATM    9  F8  UNL     1     -32.672   5.512   3.359  1.00 20.00    -0.170 F 
HETATM   10  F9  UNL     1     -34.028   7.223   3.406  1.00 20.00    -0.170 F 
ENDBRANCH   3   7
TORSDOF 3
ENDMDL
MODEL 7
REMARK VINA RESULT:      -4.4     12.764     13.332
REMARK  3 active torsions:
REMARK  status: ('A' for Active; 'I' for Inactive)
REMARK    1  A    between atoms: C3_3  and  C4_4 
REMARK    2  A    between atoms: C3_3  and  C5_5 
REMARK    3  A    between atoms: C4_4  and  O6_6 
ROOT
HETATM    1  C1  UNL     1     -35.473  15.860  -4.692  1.00 20.00     0.022 A 
HETATM    2  C2  UNL     1     -35.732  15.177  -3.379  1.00 20.00     0.022 A 
HETATM    3  C3  UNL     1     -34.539  14.774  -4.212  1.00 20.00     0.079 A 
ENDROOT
BRANCH   3   4
HETATM    4  C4  UNL     1     -34.585  13.444  -4.913  1.00 20.00     0.182 C 
BRANCH   4   5
HETATM    5  O6  UNL     1     -35.319  12.517  -4.121  1.00 20.00    -0.400 OA
HETATM    6  H16 UNL     1     -36.103  12.270  -4.636  1.00 20.00     0.209 HD
ENDBRANCH   4   5
ENDBRANCH   3   4
BRANCH   3   7
HETATM    7  C5  UNL     1     -33.172  15.180  -3.732  1.00 20.00     0.397 C 
HETATM    8  F7  UNL     1     -32.570  15.995  -4.624  1.00 20.00    -0.170 F 
HETATM    9  F8  UNL     1     -33.250  15.837  -2.555  1.00 20.00    -0.170 F 
HETATM   10  F9  UNL     1     -32.381  14.100  -3.555  1.00 20.00    -0.170 F 
ENDBRANCH   3   7
TORSDOF 3
ENDMDL
MODEL 8
REMARK VINA RESULT:      -4.4      2.589      3.221
REMARK  3 active torsions:
REMARK  status: ('A' for Active; 'I' for Inactive)
REMARK    1  A    between atoms: C3_3  and  C4_4 
REMARK    2  A    between atoms: C3_3  and  C5_5 
REMARK    3  A    between atoms: C4_4  and  O6_6 
ROOT
HETATM    1  C1  UNL     1     -34.044   3.950   5.635  1.00 20.00     0.022 A 
HETATM    2  C2  UNL     1     -35.452   4.317   5.260  1.00 20.00     0.022 A 
HETATM    3  C3  UNL     1     -34.376   5.377   5.264  1.00 20.00     0.079 A 
ENDROOT
BRANCH   3   4
HETATM    4  C4  UNL     1     -34.401   6.404   6.363  1.00 20.00     0.182 C 
BRANCH   4   5
HETATM    5  O6  UNL     1     -33.100   6.955   6.525  1.00 20.00    -0.400 OA
HETATM    6  H16 UNL     1     -32.987   7.614   5.822  1.00 20.00     0.209 HD
ENDBRANCH   4   5
ENDBRANCH   3   4
BRANCH   3   7
HETATM    7  C5  UNL     1     -33.888   5.892   3.938  1.00 20.00     0.397 C 
HETATM    8  F7  UNL     1     -34.400   5.168   2.921  1.00 20.00    -0.170 F 
HETATM    9  F8  UNL     1     -34.252   7.179   3.757  1.00 20.00    -0.170 F 
HETATM   10  F9  UNL     1     -32.541   5.826   3.860  1.00 20.00    -0.170 F 
ENDBRANCH   3   7
TORSDOF 3
ENDMDL
MODEL 9
REMARK VINA RESULT:      -4.4      2.587      3.190
REMARK  3 active torsions:
REMARK  status: ('A' for Active; 'I' for Inactive)
REMARK    1  A    between atoms: C3_3  and  C4_4 
REMARK    2  A    between atoms: C3_3  and  C5_5 
REMARK    3  A    between atoms: C4_4  and  O6_6 
ROOT
HETATM    1  C1  UNL     1     -34.064   3.910   5.587  1.00 20.00     0.022 A 
HETATM    2  C2  UNL     1     -35.471   4.287   5.218  1.00 20.00     0.022 A 
HETATM    3  C3  UNL     1     -34.392   5.344   5.245  1.00 20.00     0.079 A 
ENDROOT
BRANCH   3   4
HETATM    4  C4  UNL     1     -34.417   6.349   6.365  1.00 20.00     0.182 C 
BRANCH   4   5
HETATM    5  O6  UNL     1     -33.122   6.918   6.518  1.00 20.00    -0.400 OA
HETATM    6  H16 UNL     1     -33.120   7.747   6.014  1.00 20.00     0.209 HD
ENDBRANCH   4   5
ENDBRANCH   3   4
BRANCH   3   7
HETATM    7  C5  UNL     1     -33.901   5.886   3.930  1.00 20.00     0.397 C 
HETATM    8  F7  UNL     1     -34.262   7.178   3.776  1.00 20.00    -0.170 F 
HETATM    9  F8  UNL     1     -32.556   5.818   3.853  1.00 20.00    -0.170 F 
HETATM   10  F9  UNL     1     -34.414   5.184   2.897  1.00 20.00    -0.170 F 
ENDBRANCH   3   7
TORSDOF 3
ENDMDL
