MODEL 1
REMARK VINA RESULT:      -6.2      0.000      0.000
REMARK  1 active torsions:
REMARK  status: ('A' for Active; 'I' for Inactive)
REMARK    1  A    between atoms: C7_7  and  C8_8 
ROOT
HETATM    1  C1  UNL     1     -34.052   6.475   6.314  1.00 20.00     0.132 C 
HETATM    2  C2  UNL     1     -34.946   5.307   6.649  1.00 20.00     0.079 C 
HETATM    3  C3  UNL     1     -34.760   4.174   5.647  1.00 20.00     0.008 C 
HETATM    4  C4  UNL     1     -35.117   4.614   4.230  1.00 20.00     0.006 C 
HETATM    5  C5  UNL     1     -33.969   6.852   4.881  1.00 20.00     0.073 A 
HETATM    6  C6  UNL     1     -34.460   5.897   3.822  1.00 20.00     0.011 A 
HETATM    7  C7  UNL     1     -32.979   6.129   3.994  1.00 20.00     0.110 A 
HETATM    8  O9  UNL     1     -33.467   7.138   7.163  1.00 20.00    -0.298 OA
ENDROOT
BRANCH   7   9
HETATM    9  C8  UNL     1     -32.218   6.885   2.960  1.00 20.00     0.392 C 
HETATM   10  F10 UNL     1     -31.766   6.067   1.979  1.00 20.00    -0.171 F 
HETATM   11  F11 UNL     1     -32.985   7.835   2.372  1.00 20.00    -0.171 F 
HETATM   12  F12 UNL     1     -31.141   7.509   3.493  1.00 20.00    -0.171 F 
ENDBRANCH   7   9
TORSDOF 1
ENDMDL
MODEL 2
REMARK VINA RESULT:      -5.5     11.609     12.373
REMARK  1 active torsions:
REMARK  status: ('A' for Active; 'I' for Inactive)
REMARK    1  A    between atoms: C7_7  and  C8_8 
ROOT
HETATM    1  C1  UNL     1     -35.965  14.791  -3.614  1.00 20.00     0.132 C 
HETATM    2  C2  UNL     1     -35.126  13.839  -4.431  1.00 20.00     0.079 C 
HETATM    3  C3  UNL     1     -33.750  13.651  -3.805  1.00 20.00     0.008 C 
HETATM    4  C4  UNL     1     -32.983  14.970  -3.732  1.00 20.00     0.006 C 
HETATM    5  C5  UNL     1     -35.283  16.010  -3.116  1.00 20.00     0.073 A 
HETATM    6  C6  UNL     1     -33.776  16.087  -3.127  1.00 20.00     0.011 A 
HETATM    7  C7  UNL     1     -34.509  15.932  -1.818  1.00 20.00     0.110 A 
HETATM    8  O9  UNL     1     -37.163  14.626  -3.414  1.00 20.00    -0.298 OA
ENDROOT
BRANCH   7   9
HETATM    9  C8  UNL     1     -34.561  17.067  -0.853  1.00 20.00     0.392 C 
HETATM   10  F10 UNL     1     -33.336  17.617  -0.668  1.00 20.00    -0.171 F 
HETATM   11  F11 UNL     1     -35.384  18.052  -1.287  1.00 20.00    -0.171 F 
HETATM   12  F12 UNL     1     -35.012  16.668   0.359  1.00 20.00    -0.171 F 
ENDBRANCH   7   9
TORSDOF 1
ENDMDL
MODEL 3
REMARK VINA RESULT:      -5.4     11.789     12.802
REMARK  1 active torsions:
REMARK  status: ('A' for Active; 'I' for Inactive)
REMARK    1  A    between atoms: C7_7  and  C8_8 
ROOT
HETATM    1  C1  UNL     1     -33.868  17.874  -3.573  1.00 20.00     0.132 C 
HETATM    2  C2  UNL     1     -33.909  18.613  -2.258  1.00 20.00     0.079 C 
HETATM    3  C3  UNL     1     -33.583  17.680  -1.098  1.00 20.00     0.008 C 
HETATM    4  C4  UNL     1     -34.591  16.537  -0.998  1.00 20.00     0.006 C 
HETATM    5  C5  UNL     1     -34.497  16.531  -3.594  1.00 20.00     0.073 A 
HETATM    6  C6  UNL     1     -34.820  15.829  -2.298  1.00 20.00     0.011 A 
HETATM    7  C7  UNL     1     -33.680  15.336  -3.154  1.00 20.00     0.110 A 
HETATM    8  O9  UNL     1     -33.407  18.359  -4.600  1.00 20.00    -0.298 OA
ENDROOT
BRANCH   7   9
HETATM    9  C8  UNL     1     -33.801  14.043  -3.884  1.00 20.00     0.392 C 
HETATM   10  F10 UNL     1     -34.896  13.350  -3.488  1.00 20.00    -0.171 F 
HETATM   11  F11 UNL     1     -33.907  14.235  -5.222  1.00 20.00    -0.171 F 
HETATM   12  F12 UNL     1     -32.724  13.251  -3.674  1.00 20.00    -0.171 F 
ENDBRANCH   7   9
TORSDOF 1
ENDMDL
MODEL 4
REMARK VINA RESULT:      -5.3     11.823     12.819
REMARK  1 active torsions:
REMARK  status: ('A' for Active; 'I' for Inactive)
REMARK    1  A    between atoms: C7_7  and  C8_8 
ROOT
HETATM    1  C1  UNL     1     -35.206  15.649  -5.134  1.00 20.00     0.132 C 
HETATM    2  C2  UNL     1     -34.905  14.274  -5.680  1.00 20.00     0.079 C 
HETATM    3  C3  UNL     1     -34.600  13.295  -4.552  1.00 20.00     0.008 C 
HETATM    4  C4  UNL     1     -33.379  13.731  -3.745  1.00 20.00     0.006 C 
HETATM    5  C5  UNL     1     -34.324  16.133  -4.044  1.00 20.00     0.073 A 
HETATM    6  C6  UNL     1     -33.436  15.162  -3.306  1.00 20.00     0.011 A 
HETATM    7  C7  UNL     1     -34.646  15.743  -2.619  1.00 20.00     0.110 A 
HETATM    8  O9  UNL     1     -36.081  16.375  -5.592  1.00 20.00    -0.298 OA
ENDROOT
BRANCH   7   9
HETATM    9  C8  UNL     1     -34.475  16.735  -1.520  1.00 20.00     0.392 C 
HETATM   10  F10 UNL     1     -35.232  17.839  -1.726  1.00 20.00    -0.171 F 
HETATM   11  F11 UNL     1     -34.836  16.216  -0.321  1.00 20.00    -0.171 F 
HETATM   12  F12 UNL     1     -33.188  17.141  -1.413  1.00 20.00    -0.171 F 
ENDBRANCH   7   9
TORSDOF 1
ENDMDL
MODEL 5
REMARK VINA RESULT:      -5.1     11.698     12.893
REMARK  1 active torsions:
REMARK  status: ('A' for Active; 'I' for Inactive)
REMARK    1  A    between atoms: C7_7  and  C8_8 
ROOT
HETATM    1  C1  UNL     1     -34.464  14.158  -3.902  1.00 20.00     0.132 C 
HETATM    2  C2  UNL     1     -34.442  14.355  -5.398  1.00 20.00     0.079 C 
HETATM    3  C3  UNL     1     -33.989  15.765  -5.755  1.00 20.00     0.008 C 
HETATM    4  C4  UNL     1     -34.932  16.820  -5.182  1.00 20.00     0.006 C 
HETATM    5  C5  UNL     1     -35.030  15.269  -3.099  1.00 20.00     0.073 A 
HETATM    6  C6  UNL     1     -35.224  16.629  -3.725  1.00 20.00     0.011 A 
HETATM    7  C7  UNL     1     -34.128  16.420  -2.709  1.00 20.00     0.110 A 
HETATM    8  O9  UNL     1     -34.102  13.121  -3.357  1.00 20.00    -0.298 OA
ENDROOT
BRANCH   7   9
HETATM    9  C8  UNL     1     -34.244  17.027  -1.353  1.00 20.00     0.392 C 
HETATM   10  F10 UNL     1     -35.048  18.117  -1.364  1.00 20.00    -0.171 F 
HETATM   11  F11 UNL     1     -34.762  16.152  -0.458  1.00 20.00    -0.171 F 
HETATM   12  F12 UNL     1     -33.037  17.420  -0.881  1.00 20.00    -0.171 F 
ENDBRANCH   7   9
TORSDOF 1
ENDMDL
MODEL 6
REMARK VINA RESULT:      -5.0     11.632     12.847
REMARK  1 active torsions:
REMARK  status: ('A' for Active; 'I' for Inactive)
REMARK    1  A    between atoms: C7_7  and  C8_8 
ROOT
HETATM    1  C1  UNL     1     -34.111  16.696  -2.024  1.00 20.00     0.132 C 
HETATM    2  C2  UNL     1     -34.067  18.142  -2.453  1.00 20.00     0.079 C 
HETATM    3  C3  UNL     1     -34.440  18.285  -3.924  1.00 20.00     0.008 C 
HETATM    4  C4  UNL     1     -33.469  17.524  -4.824  1.00 20.00     0.006 C 
HETATM    5  C5  UNL     1     -33.522  15.711  -2.964  1.00 20.00     0.073 A 
HETATM    6  C6  UNL     1     -33.241  16.109  -4.393  1.00 20.00     0.011 A 
HETATM    7  C7  UNL     1     -34.382  15.170  -4.085  1.00 20.00     0.110 A 
HETATM    8  O9  UNL     1     -34.541  16.332  -0.935  1.00 20.00    -0.298 OA
ENDROOT
BRANCH   7   9
HETATM    9  C8  UNL     1     -34.289  13.733  -4.467  1.00 20.00     0.392 C 
HETATM   10  F10 UNL     1     -34.378  13.568  -5.809  1.00 20.00    -0.171 F 
HETATM   11  F11 UNL     1     -33.113  13.188  -4.071  1.00 20.00    -0.171 F 
HETATM   12  F12 UNL     1     -35.281  13.004  -3.903  1.00 20.00    -0.171 F 
ENDBRANCH   7   9
TORSDOF 1
ENDMDL
MODEL 7
REMARK VINA RESULT:      -4.9     10.266     11.260
REMARK  1 active torsions:
REMARK  status: ('A' for Active; 'I' for Inactive)
REMARK    1  A    between atoms: C7_7  and  C8_8 
ROOT
HETATM    1  C1  UNL     1     -41.958   6.605  -2.206  1.00 20.00     0.132 C 
HETATM    2  C2  UNL     1     -41.452   7.151  -0.893  1.00 20.00     0.079 C 
HETATM    3  C3  UNL     1     -40.689   6.084  -0.118  1.00 20.00     0.008 C 
HETATM    4  C4  UNL     1     -41.577   4.887   0.212  1.00 20.00     0.006 C 
HETATM    5  C5  UNL     1     -42.553   5.246  -2.169  1.00 20.00     0.073 A 
HETATM    6  C6  UNL     1     -42.323   4.355  -0.973  1.00 20.00     0.011 A 
HETATM    7  C7  UNL     1     -41.637   4.047  -2.281  1.00 20.00     0.110 A 
HETATM    8  O9  UNL     1     -41.953   7.251  -3.248  1.00 20.00    -0.298 OA
ENDROOT
BRANCH   7   9
HETATM    9  C8  UNL     1     -42.058   2.863  -3.081  1.00 20.00     0.392 C 
HETATM   10  F10 UNL     1     -42.691   1.943  -2.314  1.00 20.00    -0.171 F 
HETATM   11  F11 UNL     1     -42.908   3.212  -4.077  1.00 20.00    -0.171 F 
HETATM   12  F12 UNL     1     -40.996   2.248  -3.655  1.00 20.00    -0.171 F 
ENDBRANCH   7   9
TORSDOF 1
ENDMDL
MODEL 8
REMARK VINA RESULT:      -4.9     12.026     13.546
REMARK  1 active torsions:
REMARK  status: ('A' for Active; 'I' for Inactive)
REMARK    1  A    between atoms: C7_7  and  C8_8 
ROOT
HETATM    1  C1  UNL     1     -36.759  15.176  -5.727  1.00 20.00     0.132 C 
HETATM    2  C2  UNL     1     -36.898  15.107  -7.229  1.00 20.00     0.079 C 
HETATM    3  C3  UNL     1     -35.699  14.405  -7.855  1.00 20.00     0.008 C 
HETATM    4  C4  UNL     1     -34.398  15.148  -7.562  1.00 20.00     0.006 C 
HETATM    5  C5  UNL     1     -35.419  15.540  -5.205  1.00 20.00     0.073 A 
HETATM    6  C6  UNL     1     -34.215  15.481  -6.113  1.00 20.00     0.011 A 
HETATM    7  C7  UNL     1     -34.386  14.449  -5.026  1.00 20.00     0.110 A 
HETATM    8  O9  UNL     1     -37.700  15.011  -4.959  1.00 20.00    -0.298 OA
ENDROOT
BRANCH   7   9
HETATM    9  C8  UNL     1     -33.489  14.464  -3.836  1.00 20.00     0.392 C 
HETATM   10  F10 UNL     1     -34.181  14.700  -2.695  1.00 20.00    -0.171 F 
HETATM   11  F11 UNL     1     -32.848  13.279  -3.682  1.00 20.00    -0.171 F 
HETATM   12  F12 UNL     1     -32.541  15.425  -3.941  1.00 20.00    -0.171 F 
ENDBRANCH   7   9
TORSDOF 1
ENDMDL
MODEL 9
REMARK VINA RESULT:      -4.6     12.220     13.868
REMARK  1 active torsions:
REMARK  status: ('A' for Active; 'I' for Inactive)
REMARK    1  A    between atoms: C7_7  and  C8_8 
ROOT
HETATM    1  C1  UNL     1     -33.647  17.454  -4.474  1.00 20.00     0.132 C 
HETATM    2  C2  UNL     1     -33.869  18.341  -5.675  1.00 20.00     0.079 C 
HETATM    3  C3  UNL     1     -34.888  17.726  -6.626  1.00 20.00     0.008 C 
HETATM    4  C4  UNL     1     -34.417  16.373  -7.154  1.00 20.00     0.006 C 
HETATM    5  C5  UNL     1     -33.522  16.000  -4.743  1.00 20.00     0.073 A 
HETATM    6  C6  UNL     1     -33.955  15.441  -6.076  1.00 20.00     0.011 A 
HETATM    7  C7  UNL     1     -34.782  15.168  -4.844  1.00 20.00     0.110 A 
HETATM    8  O9  UNL     1     -33.505  17.888  -3.337  1.00 20.00    -0.298 OA
ENDROOT
BRANCH   7   9
HETATM    9  C8  UNL     1     -34.816  13.799  -4.258  1.00 20.00     0.392 C 
HETATM   10  F10 UNL     1     -34.207  13.761  -3.048  1.00 20.00    -0.171 F 
HETATM   11  F11 UNL     1     -36.088  13.363  -4.084  1.00 20.00    -0.171 F 
HETATM   12  F12 UNL     1     -34.188  12.901  -5.055  1.00 20.00    -0.171 F 
ENDBRANCH   7   9
TORSDOF 1
ENDMDL
