MODEL 1
REMARK VINA RESULT:      -4.6      0.000      0.000
REMARK  0 active torsions:
REMARK  status: ('A' for Active; 'I' for Inactive)
ROOT
HETATM    1  C1  UNL     1     -33.421  13.603  -3.737  1.00 20.00     0.013 C 
HETATM    2  C2  UNL     1     -32.489  14.829  -3.639  1.00 20.00     0.013 C 
HETATM    3  C3  UNL     1     -34.998  14.385  -5.584  1.00 20.00     0.280 C 
HETATM    4  C4  UNL     1     -33.523  16.326  -5.427  1.00 20.00     0.280 C 
HETATM    5  C5  UNL     1     -34.809  14.185  -4.068  1.00 20.00     0.086 C 
HETATM    6  C6  UNL     1     -33.397  16.042  -3.918  1.00 20.00     0.086 C 
HETATM    7  C7  UNL     1     -34.732  15.543  -3.393  1.00 20.00     0.254 C 
HETATM    8  N8  UNL     1     -33.916  15.151  -6.219  1.00 20.00     0.084 N 
HETATM    9  F9  UNL     1     -35.760  16.350  -3.705  1.00 20.00    -0.205 F 
HETATM   10  F10 UNL     1     -34.705  15.414  -2.049  1.00 20.00    -0.205 F 
HETATM   11  H21 UNL     1     -33.104  14.541  -6.315  1.00 20.00     0.315 HD
ENDROOT
TORSDOF 0
ENDMDL
MODEL 2
REMARK VINA RESULT:      -4.5      1.243      2.261
REMARK  0 active torsions:
REMARK  status: ('A' for Active; 'I' for Inactive)
ROOT
HETATM    1  C1  UNL     1     -35.029  14.409  -5.798  1.00 20.00     0.013 C 
HETATM    2  C2  UNL     1     -34.458  13.255  -4.948  1.00 20.00     0.013 C 
HETATM    3  C3  UNL     1     -33.712  16.370  -4.835  1.00 20.00     0.280 C 
HETATM    4  C4  UNL     1     -32.810  14.543  -3.488  1.00 20.00     0.280 C 
HETATM    5  C5  UNL     1     -35.060  15.624  -4.850  1.00 20.00     0.086 C 
HETATM    6  C6  UNL     1     -34.196  13.874  -3.562  1.00 20.00     0.086 C 
HETATM    7  C7  UNL     1     -35.269  14.948  -3.506  1.00 20.00     0.254 C 
HETATM    8  N8  UNL     1     -32.557  15.500  -4.575  1.00 20.00     0.084 N 
HETATM    9  F9  UNL     1     -35.129  15.783  -2.464  1.00 20.00    -0.205 F 
HETATM   10  F10 UNL     1     -36.500  14.397  -3.428  1.00 20.00    -0.205 F 
HETATM   11  H21 UNL     1     -32.352  14.974  -5.426  1.00 20.00     0.315 HD
ENDROOT
TORSDOF 0
ENDMDL
MODEL 3
REMARK VINA RESULT:      -4.5      1.946      2.515
REMARK  0 active torsions:
REMARK  status: ('A' for Active; 'I' for Inactive)
ROOT
HETATM    1  C1  UNL     1     -33.256  16.051  -4.567  1.00 20.00     0.013 C 
HETATM    2  C2  UNL     1     -33.644  16.089  -3.075  1.00 20.00     0.013 C 
HETATM    3  C3  UNL     1     -35.480  15.333  -5.592  1.00 20.00     0.280 C 
HETATM    4  C4  UNL     1     -36.093  15.392  -3.228  1.00 20.00     0.280 C 
HETATM    5  C5  UNL     1     -34.070  14.884  -5.161  1.00 20.00     0.086 C 
HETATM    6  C6  UNL     1     -34.657  14.941  -2.898  1.00 20.00     0.086 C 
HETATM    7  C7  UNL     1     -34.188  13.962  -3.960  1.00 20.00     0.254 C 
HETATM    8  N8  UNL     1     -36.222  16.042  -4.540  1.00 20.00     0.084 N 
HETATM    9  F9  UNL     1     -35.040  12.942  -4.156  1.00 20.00    -0.205 F 
HETATM   10  F10 UNL     1     -32.987  13.435  -3.635  1.00 20.00    -0.205 F 
HETATM   11  H21 UNL     1     -35.851  16.990  -4.467  1.00 20.00     0.315 HD
ENDROOT
TORSDOF 0
ENDMDL
MODEL 4
REMARK VINA RESULT:      -4.5      1.726      2.451
REMARK  0 active torsions:
REMARK  status: ('A' for Active; 'I' for Inactive)
ROOT
HETATM    1  C1  UNL     1     -35.900  15.039  -3.332  1.00 20.00     0.013 C 
HETATM    2  C2  UNL     1     -34.728  15.729  -2.604  1.00 20.00     0.013 C 
HETATM    3  C3  UNL     1     -34.613  13.385  -4.788  1.00 20.00     0.280 C 
HETATM    4  C4  UNL     1     -32.758  14.481  -3.636  1.00 20.00     0.280 C 
HETATM    5  C5  UNL     1     -35.365  14.730  -4.744  1.00 20.00     0.086 C 
HETATM    6  C6  UNL     1     -33.590  15.778  -3.641  1.00 20.00     0.086 C 
HETATM    7  C7  UNL     1     -34.371  15.862  -4.941  1.00 20.00     0.254 C 
HETATM    8  N8  UNL     1     -33.566  13.260  -3.764  1.00 20.00     0.084 N 
HETATM    9  F9  UNL     1     -33.604  15.710  -6.032  1.00 20.00    -0.205 F 
HETATM   10  F10 UNL     1     -35.006  17.049  -5.047  1.00 20.00    -0.205 F 
HETATM   11  H21 UNL     1     -34.015  13.076  -2.866  1.00 20.00     0.315 HD
ENDROOT
TORSDOF 0
ENDMDL
MODEL 5
REMARK VINA RESULT:      -4.4      2.038      2.944
REMARK  0 active torsions:
REMARK  status: ('A' for Active; 'I' for Inactive)
ROOT
HETATM    1  C1  UNL     1     -33.567  13.728  -3.816  1.00 20.00     0.013 C 
HETATM    2  C2  UNL     1     -35.013  13.359  -4.208  1.00 20.00     0.013 C 
HETATM    3  C3  UNL     1     -33.956  16.019  -2.764  1.00 20.00     0.280 C 
HETATM    4  C4  UNL     1     -36.245  15.436  -3.387  1.00 20.00     0.280 C 
HETATM    5  C5  UNL     1     -33.478  15.254  -4.012  1.00 20.00     0.086 C 
HETATM    6  C6  UNL     1     -35.668  14.695  -4.608  1.00 20.00     0.086 C 
HETATM    7  C7  UNL     1     -34.474  15.468  -5.139  1.00 20.00     0.254 C 
HETATM    8  N8  UNL     1     -35.284  15.603  -2.288  1.00 20.00     0.084 N 
HETATM    9  F9  UNL     1     -34.741  16.764  -5.372  1.00 20.00    -0.205 F 
HETATM   10  F10 UNL     1     -34.022  14.929  -6.292  1.00 20.00    -0.205 F 
HETATM   11  H21 UNL     1     -35.186  14.709  -1.806  1.00 20.00     0.315 HD
ENDROOT
TORSDOF 0
ENDMDL
MODEL 6
REMARK VINA RESULT:      -4.4      1.374      2.533
REMARK  0 active torsions:
REMARK  status: ('A' for Active; 'I' for Inactive)
ROOT
HETATM    1  C1  UNL     1     -35.484  16.414  -4.108  1.00 20.00     0.013 C 
HETATM    2  C2  UNL     1     -35.789  15.055  -3.444  1.00 20.00     0.013 C 
HETATM    3  C3  UNL     1     -33.789  15.683  -5.870  1.00 20.00     0.280 C 
HETATM    4  C4  UNL     1     -34.271  13.532  -4.816  1.00 20.00     0.280 C 
HETATM    5  C5  UNL     1     -33.993  16.343  -4.493  1.00 20.00     0.086 C 
HETATM    6  C6  UNL     1     -34.455  14.285  -3.484  1.00 20.00     0.086 C 
HETATM    7  C7  UNL     1     -33.450  15.422  -3.414  1.00 20.00     0.254 C 
HETATM    8  N8  UNL     1     -34.454  14.378  -6.004  1.00 20.00     0.084 N 
HETATM    9  F9  UNL     1     -32.186  15.028  -3.640  1.00 20.00    -0.205 F 
HETATM   10  F10 UNL     1     -33.483  16.022  -2.204  1.00 20.00    -0.205 F 
HETATM   11  H21 UNL     1     -35.453  14.539  -6.135  1.00 20.00     0.315 HD
ENDROOT
TORSDOF 0
ENDMDL
MODEL 7
REMARK VINA RESULT:      -4.4      1.952      2.813
REMARK  0 active torsions:
REMARK  status: ('A' for Active; 'I' for Inactive)
ROOT
HETATM    1  C1  UNL     1     -36.056  15.346  -3.504  1.00 20.00     0.013 C 
HETATM    2  C2  UNL     1     -35.804  15.301  -5.026  1.00 20.00     0.013 C 
HETATM    3  C3  UNL     1     -33.807  16.245  -2.702  1.00 20.00     0.280 C 
HETATM    4  C4  UNL     1     -33.407  16.171  -5.111  1.00 20.00     0.280 C 
HETATM    5  C5  UNL     1     -34.698  14.998  -2.865  1.00 20.00     0.086 C 
HETATM    6  C6  UNL     1     -34.316  14.928  -5.170  1.00 20.00     0.086 C 
HETATM    7  C7  UNL     1     -34.094  14.091  -3.923  1.00 20.00     0.254 C 
HETATM    8  N8  UNL     1     -33.649  17.024  -3.938  1.00 20.00     0.084 N 
HETATM    9  F9  UNL     1     -32.801  13.802  -3.700  1.00 20.00    -0.205 F 
HETATM   10  F10 UNL     1     -34.768  12.922  -3.999  1.00 20.00    -0.205 F 
HETATM   11  H21 UNL     1     -34.507  17.554  -4.096  1.00 20.00     0.315 HD
ENDROOT
TORSDOF 0
ENDMDL
MODEL 8
REMARK VINA RESULT:      -4.4     12.193     13.171
REMARK  0 active torsions:
REMARK  status: ('A' for Active; 'I' for Inactive)
ROOT
HETATM    1  C1  UNL     1     -42.678   7.134  -0.707  1.00 20.00     0.013 C 
HETATM    2  C2  UNL     1     -43.083   6.175   0.431  1.00 20.00     0.013 C 
HETATM    3  C3  UNL     1     -42.291   5.458  -2.591  1.00 20.00     0.280 C 
HETATM    4  C4  UNL     1     -42.932   3.940  -0.788  1.00 20.00     0.280 C 
HETATM    5  C5  UNL     1     -41.630   6.357  -1.528  1.00 20.00     0.086 C 
HETATM    6  C6  UNL     1     -42.245   4.904   0.198  1.00 20.00     0.086 C 
HETATM    7  C7  UNL     1     -41.002   5.481  -0.458  1.00 20.00     0.254 C 
HETATM    8  N8  UNL     1     -43.334   4.573  -2.052  1.00 20.00     0.084 N 
HETATM    9  F9  UNL     1     -40.180   4.543  -0.955  1.00 20.00    -0.205 F 
HETATM   10  F10 UNL     1     -40.294   6.224   0.420  1.00 20.00    -0.205 F 
HETATM   11  H21 UNL     1     -44.171   5.131  -1.881  1.00 20.00     0.315 HD
ENDROOT
TORSDOF 0
ENDMDL
MODEL 9
REMARK VINA RESULT:      -4.4      1.771      2.543
REMARK  0 active torsions:
REMARK  status: ('A' for Active; 'I' for Inactive)
ROOT
HETATM    1  C1  UNL     1     -33.726  16.114  -2.550  1.00 20.00     0.013 C 
HETATM    2  C2  UNL     1     -35.247  15.860  -2.571  1.00 20.00     0.013 C 
HETATM    3  C3  UNL     1     -33.295  16.469  -5.040  1.00 20.00     0.280 C 
HETATM    4  C4  UNL     1     -35.704  16.065  -5.073  1.00 20.00     0.280 C 
HETATM    5  C5  UNL     1     -33.200  15.487  -3.856  1.00 20.00     0.086 C 
HETATM    6  C6  UNL     1     -35.505  15.101  -3.887  1.00 20.00     0.086 C 
HETATM    7  C7  UNL     1     -34.193  14.358  -4.067  1.00 20.00     0.254 C 
HETATM    8  N8  UNL     1     -34.630  17.060  -5.213  1.00 20.00     0.084 N 
HETATM    9  F9  UNL     1     -34.078  13.766  -5.267  1.00 20.00    -0.205 F 
HETATM   10  F10 UNL     1     -34.046  13.403  -3.123  1.00 20.00    -0.205 F 
HETATM   11  H21 UNL     1     -34.760  17.776  -4.497  1.00 20.00     0.315 HD
ENDROOT
TORSDOF 0
ENDMDL
