MODEL 1
REMARK VINA RESULT:      -5.2      0.000      0.000
REMARK  0 active torsions:
REMARK  status: ('A' for Active; 'I' for Inactive)
ROOT
HETATM    1  C1  UNL     1     -33.670  16.128  -5.848  1.00 20.00     0.027 C 
HETATM    2  C2  UNL     1     -33.408  16.624  -4.427  1.00 20.00     0.027 C 
HETATM    3  C3  UNL     1     -36.618  14.389  -3.876  1.00 20.00     0.009 C 
HETATM    4  C4  UNL     1     -36.209  15.873  -5.847  1.00 20.00     0.030 C 
HETATM    5  C5  UNL     1     -34.715  13.843  -5.407  1.00 20.00     0.030 C 
HETATM    6  C6  UNL     1     -35.772  16.708  -3.471  1.00 20.00     0.030 C 
HETATM    7  C7  UNL     1     -34.280  14.677  -3.029  1.00 20.00     0.030 C 
HETATM    8  C8  UNL     1     -36.642  15.832  -4.378  1.00 20.00    -0.010 C 
HETATM    9  C9  UNL     1     -35.188  13.852  -3.949  1.00 20.00    -0.010 C 
HETATM   10  C10 UNL     1     -34.856  15.196  -6.126  1.00 20.00     0.038 C 
HETATM   11  C11 UNL     1     -34.335  16.193  -3.282  1.00 20.00     0.038 C 
HETATM   12 CL12 UNL     1     -34.790  14.856  -7.918  1.00 20.00    -0.119 Cl
HETATM   13 CL13 UNL     1     -33.667  17.006  -1.792  1.00 20.00    -0.119 Cl
ENDROOT
TORSDOF 0
ENDMDL
MODEL 2
REMARK VINA RESULT:      -5.2      0.102      3.669
REMARK  0 active torsions:
REMARK  status: ('A' for Active; 'I' for Inactive)
ROOT
HETATM    1  C1  UNL     1     -33.417  16.690  -4.357  1.00 20.00     0.027 C 
HETATM    2  C2  UNL     1     -33.678  16.254  -5.798  1.00 20.00     0.027 C 
HETATM    3  C3  UNL     1     -36.596  14.390  -3.894  1.00 20.00     0.009 C 
HETATM    4  C4  UNL     1     -34.260  14.671  -3.044  1.00 20.00     0.030 C 
HETATM    5  C5  UNL     1     -35.778  16.701  -3.390  1.00 20.00     0.030 C 
HETATM    6  C6  UNL     1     -34.693  13.937  -5.454  1.00 20.00     0.030 C 
HETATM    7  C7  UNL     1     -36.213  15.967  -5.800  1.00 20.00     0.030 C 
HETATM    8  C8  UNL     1     -35.160  13.877  -3.996  1.00 20.00    -0.010 C 
HETATM    9  C9  UNL     1     -36.641  15.855  -4.332  1.00 20.00    -0.010 C 
HETATM   10  C10 UNL     1     -34.334  16.197  -3.230  1.00 20.00     0.038 C 
HETATM   11  C11 UNL     1     -34.853  15.319  -6.113  1.00 20.00     0.038 C 
HETATM   12 CL12 UNL     1     -33.671  16.951  -1.707  1.00 20.00    -0.119 Cl
HETATM   13 CL13 UNL     1     -34.789  15.060  -7.918  1.00 20.00    -0.119 Cl
ENDROOT
TORSDOF 0
ENDMDL
MODEL 3
REMARK VINA RESULT:      -5.0      1.064      3.845
REMARK  0 active torsions:
REMARK  status: ('A' for Active; 'I' for Inactive)
ROOT
HETATM    1  C1  UNL     1     -36.470  16.715  -4.250  1.00 20.00     0.027 C 
HETATM    2  C2  UNL     1     -36.372  15.887  -5.531  1.00 20.00     0.027 C 
HETATM    3  C3  UNL     1     -32.909  15.059  -3.820  1.00 20.00     0.009 C 
HETATM    4  C4  UNL     1     -34.023  17.299  -3.823  1.00 20.00     0.030 C 
HETATM    5  C5  UNL     1     -35.095  15.307  -2.626  1.00 20.00     0.030 C 
HETATM    6  C6  UNL     1     -33.858  15.919  -5.969  1.00 20.00     0.030 C 
HETATM    7  C7  UNL     1     -34.928  13.926  -4.772  1.00 20.00     0.030 C 
HETATM    8  C8  UNL     1     -33.189  16.313  -4.648  1.00 20.00    -0.010 C 
HETATM    9  C9  UNL     1     -34.232  14.372  -3.480  1.00 20.00    -0.010 C 
HETATM   10  C10 UNL     1     -35.315  16.700  -3.240  1.00 20.00     0.038 C 
HETATM   11  C11 UNL     1     -35.117  15.049  -5.806  1.00 20.00     0.038 C 
HETATM   12 CL12 UNL     1     -35.848  17.802  -1.886  1.00 20.00    -0.119 Cl
HETATM   13 CL13 UNL     1     -35.421  14.245  -7.416  1.00 20.00    -0.119 Cl
ENDROOT
TORSDOF 0
ENDMDL
MODEL 4
REMARK VINA RESULT:      -5.0      1.075      2.491
REMARK  0 active torsions:
REMARK  status: ('A' for Active; 'I' for Inactive)
ROOT
HETATM    1  C1  UNL     1     -36.366  15.940  -5.569  1.00 20.00     0.027 C 
HETATM    2  C2  UNL     1     -36.470  16.804  -4.314  1.00 20.00     0.027 C 
HETATM    3  C3  UNL     1     -32.946  15.101  -3.780  1.00 20.00     0.009 C 
HETATM    4  C4  UNL     1     -34.967  13.977  -4.733  1.00 20.00     0.030 C 
HETATM    5  C5  UNL     1     -33.846  15.918  -5.967  1.00 20.00     0.030 C 
HETATM    6  C6  UNL     1     -35.144  15.418  -2.629  1.00 20.00     0.030 C 
HETATM    7  C7  UNL     1     -34.021  17.359  -3.863  1.00 20.00     0.030 C 
HETATM    8  C8  UNL     1     -34.285  14.446  -3.444  1.00 20.00    -0.010 C 
HETATM    9  C9  UNL     1     -33.191  16.336  -4.647  1.00 20.00    -0.010 C 
HETATM   10  C10 UNL     1     -35.122  15.074  -5.801  1.00 20.00     0.038 C 
HETATM   11  C11 UNL     1     -35.332  16.798  -3.285  1.00 20.00     0.038 C 
HETATM   12 CL12 UNL     1     -35.414  14.230  -7.393  1.00 20.00    -0.119 Cl
HETATM   13 CL13 UNL     1     -35.868  17.945  -1.970  1.00 20.00    -0.119 Cl
ENDROOT
TORSDOF 0
ENDMDL
MODEL 5
REMARK VINA RESULT:      -5.0      1.030      3.682
REMARK  0 active torsions:
REMARK  status: ('A' for Active; 'I' for Inactive)
ROOT
HETATM    1  C1  UNL     1     -34.541  17.300  -4.232  1.00 20.00     0.027 C 
HETATM    2  C2  UNL     1     -35.083  17.125  -5.649  1.00 20.00     0.027 C 
HETATM    3  C3  UNL     1     -35.427  13.450  -4.240  1.00 20.00     0.009 C 
HETATM    4  C4  UNL     1     -33.522  15.005  -3.780  1.00 20.00     0.030 C 
HETATM    5  C5  UNL     1     -35.881  15.546  -2.952  1.00 20.00     0.030 C 
HETATM    6  C6  UNL     1     -34.424  14.712  -6.154  1.00 20.00     0.030 C 
HETATM    7  C7  UNL     1     -36.784  15.251  -5.325  1.00 20.00     0.030 C 
HETATM    8  C8  UNL     1     -34.137  14.045  -4.804  1.00 20.00    -0.010 C 
HETATM    9  C9  UNL     1     -36.436  14.572  -3.996  1.00 20.00    -0.010 C 
HETATM   10  C10 UNL     1     -34.483  16.097  -3.281  1.00 20.00     0.038 C 
HETATM   11  C11 UNL     1     -35.563  15.746  -6.120  1.00 20.00     0.038 C 
HETATM   12 CL12 UNL     1     -33.786  16.749  -1.725  1.00 20.00    -0.119 Cl
HETATM   13 CL13 UNL     1     -36.112  15.991  -7.843  1.00 20.00    -0.119 Cl
ENDROOT
TORSDOF 0
ENDMDL
MODEL 6
REMARK VINA RESULT:      -5.0      1.112      1.336
REMARK  0 active torsions:
REMARK  status: ('A' for Active; 'I' for Inactive)
ROOT
HETATM    1  C1  UNL     1     -34.901  17.321  -5.181  1.00 20.00     0.027 C 
HETATM    2  C2  UNL     1     -34.745  17.289  -3.661  1.00 20.00     0.027 C 
HETATM    3  C3  UNL     1     -35.451  13.480  -4.436  1.00 20.00     0.009 C 
HETATM    4  C4  UNL     1     -36.555  15.417  -5.572  1.00 20.00     0.030 C 
HETATM    5  C5  UNL     1     -34.042  15.007  -5.830  1.00 20.00     0.030 C 
HETATM    6  C6  UNL     1     -36.300  15.366  -3.029  1.00 20.00     0.030 C 
HETATM    7  C7  UNL     1     -33.788  14.954  -3.287  1.00 20.00     0.030 C 
HETATM    8  C8  UNL     1     -36.532  14.553  -4.307  1.00 20.00    -0.010 C 
HETATM    9  C9  UNL     1     -34.084  14.153  -4.559  1.00 20.00    -0.010 C 
HETATM   10  C10 UNL     1     -35.191  16.024  -5.947  1.00 20.00     0.038 C 
HETATM   11  C11 UNL     1     -34.886  15.961  -2.905  1.00 20.00     0.038 C 
HETATM   12 CL12 UNL     1     -35.292  16.515  -7.702  1.00 20.00    -0.119 Cl
HETATM   13 CL13 UNL     1     -34.636  16.382  -1.147  1.00 20.00    -0.119 Cl
ENDROOT
TORSDOF 0
ENDMDL
MODEL 7
REMARK VINA RESULT:      -4.8      1.201      2.898
REMARK  0 active torsions:
REMARK  status: ('A' for Active; 'I' for Inactive)
ROOT
HETATM    1  C1  UNL     1     -36.254  14.769  -4.749  1.00 20.00     0.027 C 
HETATM    2  C2  UNL     1     -35.841  15.114  -3.319  1.00 20.00     0.027 C 
HETATM    3  C3  UNL     1     -33.724  17.736  -5.380  1.00 20.00     0.009 C 
HETATM    4  C4  UNL     1     -34.145  15.365  -6.055  1.00 20.00     0.030 C 
HETATM    5  C5  UNL     1     -36.071  17.041  -5.896  1.00 20.00     0.030 C 
HETATM    6  C6  UNL     1     -33.450  15.938  -3.662  1.00 20.00     0.030 C 
HETATM    7  C7  UNL     1     -35.376  17.616  -3.504  1.00 20.00     0.030 C 
HETATM    8  C8  UNL     1     -33.316  16.282  -5.150  1.00 20.00    -0.010 C 
HETATM    9  C9  UNL     1     -35.193  17.916  -4.996  1.00 20.00    -0.010 C 
HETATM   10  C10 UNL     1     -35.666  15.557  -5.927  1.00 20.00     0.038 C 
HETATM   11  C11 UNL     1     -34.835  16.244  -3.065  1.00 20.00     0.038 C 
HETATM   12 CL12 UNL     1     -36.423  14.828  -7.419  1.00 20.00    -0.119 Cl
HETATM   13 CL13 UNL     1     -34.632  16.307  -1.253  1.00 20.00    -0.119 Cl
ENDROOT
TORSDOF 0
ENDMDL
MODEL 8
REMARK VINA RESULT:      -4.8     11.855     13.385
REMARK  0 active torsions:
REMARK  status: ('A' for Active; 'I' for Inactive)
ROOT
HETATM    1  C1  UNL     1     -43.121   4.769  -3.043  1.00 20.00     0.027 C 
HETATM    2  C2  UNL     1     -43.253   6.222  -2.589  1.00 20.00     0.027 C 
HETATM    3  C3  UNL     1     -41.369   4.623   0.494  1.00 20.00     0.009 C 
HETATM    4  C4  UNL     1     -43.191   3.522  -0.819  1.00 20.00     0.030 C 
HETATM    5  C5  UNL     1     -40.944   4.073  -1.910  1.00 20.00     0.030 C 
HETATM    6  C6  UNL     1     -43.417   5.951  -0.056  1.00 20.00     0.030 C 
HETATM    7  C7  UNL     1     -41.168   6.503  -1.145  1.00 20.00     0.030 C 
HETATM    8  C8  UNL     1     -42.879   4.554   0.270  1.00 20.00    -0.010 C 
HETATM    9  C9  UNL     1     -40.688   5.090  -0.793  1.00 20.00    -0.010 C 
HETATM   10  C10 UNL     1     -42.429   3.743  -2.137  1.00 20.00     0.038 C 
HETATM   11  C11 UNL     1     -42.697   6.649  -1.224  1.00 20.00     0.038 C 
HETATM   12 CL12 UNL     1     -42.491   2.169  -3.059  1.00 20.00    -0.119 Cl
HETATM   13 CL13 UNL     1     -43.070   8.431  -1.091  1.00 20.00    -0.119 Cl
ENDROOT
TORSDOF 0
ENDMDL
MODEL 9
REMARK VINA RESULT:      -4.8      1.202      3.996
REMARK  0 active torsions:
REMARK  status: ('A' for Active; 'I' for Inactive)
ROOT
HETATM    1  C1  UNL     1     -35.860  15.136  -3.303  1.00 20.00     0.027 C 
HETATM    2  C2  UNL     1     -36.274  14.796  -4.734  1.00 20.00     0.027 C 
HETATM    3  C3  UNL     1     -33.695  17.722  -5.361  1.00 20.00     0.009 C 
HETATM    4  C4  UNL     1     -35.354  17.630  -3.491  1.00 20.00     0.030 C 
HETATM    5  C5  UNL     1     -33.456  15.921  -3.641  1.00 20.00     0.030 C 
HETATM    6  C6  UNL     1     -36.052  17.064  -5.884  1.00 20.00     0.030 C 
HETATM    7  C7  UNL     1     -34.153  15.355  -6.035  1.00 20.00     0.030 C 
HETATM    8  C8  UNL     1     -35.162  17.925  -4.982  1.00 20.00    -0.010 C 
HETATM    9  C9  UNL     1     -33.311  16.260  -5.128  1.00 20.00    -0.010 C 
HETATM   10  C10 UNL     1     -34.836  16.250  -3.048  1.00 20.00     0.038 C 
HETATM   11  C11 UNL     1     -35.670  15.573  -5.911  1.00 20.00     0.038 C 
HETATM   12 CL12 UNL     1     -34.638  16.313  -1.235  1.00 20.00    -0.119 Cl
HETATM   13 CL13 UNL     1     -36.435  14.854  -7.403  1.00 20.00    -0.119 Cl
ENDROOT
TORSDOF 0
ENDMDL
