MODEL 1
REMARK VINA RESULT:      -4.4      0.000      0.000
REMARK  3 active torsions:
REMARK  status: ('A' for Active; 'I' for Inactive)
REMARK    1  A    between atoms: C1_1  and  C4_4 
REMARK       I    between atoms: C1_1  and  N10_10 
REMARK    2  A    between atoms: C8_8  and  C9_9 
REMARK    3  A    between atoms: C9_9  and  N10_10 
ROOT
HETATM    1  C1  UNL     1     -34.298   5.654   3.870  1.00 20.00     0.222 C 
HETATM    2  N10 UNL     1     -33.281   6.510   4.232  1.00 20.00    -0.352 N 
HETATM    3  O11 UNL     1     -34.509   5.198   2.752  1.00 20.00    -0.273 OA
HETATM    4  H28 UNL     1     -33.222   6.811   5.196  1.00 20.00     0.163 HD
ENDROOT
BRANCH   2   5
HETATM    5  C9  UNL     1     -32.289   6.998   3.289  1.00 20.00     0.025 C 
HETATM    6  C6  UNL     1     -31.174   7.700   4.082  1.00 20.00     0.038 C 
HETATM    7  C7  UNL     1     -31.685   5.810   2.528  1.00 20.00     0.038 C 
BRANCH   5   8
HETATM    8  C8  UNL     1     -32.932   8.023   2.323  1.00 20.00     0.026 C 
HETATM    9  C5  UNL     1     -31.971   8.657   1.324  1.00 20.00     0.007 C 
ENDBRANCH   5   8
ENDBRANCH   2   5
BRANCH   1  10
HETATM   10  C4  UNL     1     -35.200   5.281   4.999  1.00 20.00     0.078 A 
HETATM   11  C2  UNL     1     -34.887   4.053   5.786  1.00 20.00     0.015 A 
HETATM   12  C3  UNL     1     -34.683   5.408   6.393  1.00 20.00     0.015 A 
ENDBRANCH   1  10
TORSDOF 3
ENDMDL
MODEL 2
REMARK VINA RESULT:      -4.4     11.406     12.265
REMARK  3 active torsions:
REMARK  status: ('A' for Active; 'I' for Inactive)
REMARK    1  A    between atoms: C1_1  and  C4_4 
REMARK       I    between atoms: C1_1  and  N10_10 
REMARK    2  A    between atoms: C8_8  and  C9_9 
REMARK    3  A    between atoms: C9_9  and  N10_10 
ROOT
HETATM    1  C1  UNL     1     -34.702  16.013  -2.191  1.00 20.00     0.222 C 
HETATM    2  N10 UNL     1     -35.980  15.665  -2.569  1.00 20.00    -0.352 N 
HETATM    3  O11 UNL     1     -33.683  15.897  -2.861  1.00 20.00    -0.273 OA
HETATM    4  H28 UNL     1     -36.736  15.814  -1.913  1.00 20.00     0.163 HD
ENDROOT
BRANCH   2   5
HETATM    5  C9  UNL     1     -36.289  15.092  -3.868  1.00 20.00     0.025 C 
HETATM    6  C6  UNL     1     -37.798  14.802  -3.921  1.00 20.00     0.038 C 
HETATM    7  C7  UNL     1     -35.939  16.106  -4.965  1.00 20.00     0.038 C 
BRANCH   5   8
HETATM    8  C8  UNL     1     -35.521  13.762  -4.060  1.00 20.00     0.026 C 
HETATM    9  C5  UNL     1     -34.766  13.638  -5.379  1.00 20.00     0.007 C 
ENDBRANCH   5   8
ENDBRANCH   2   5
BRANCH   1  10
HETATM   10  C4  UNL     1     -34.617  16.584  -0.814  1.00 20.00     0.078 A 
HETATM   11  C2  UNL     1     -33.736  17.767  -0.587  1.00 20.00     0.015 A 
HETATM   12  C3  UNL     1     -35.226  17.923  -0.562  1.00 20.00     0.015 A 
ENDBRANCH   1  10
TORSDOF 3
ENDMDL
MODEL 3
REMARK VINA RESULT:      -4.3      0.966      4.254
REMARK  3 active torsions:
REMARK  status: ('A' for Active; 'I' for Inactive)
REMARK    1  A    between atoms: C1_1  and  C4_4 
REMARK       I    between atoms: C1_1  and  N10_10 
REMARK    2  A    between atoms: C8_8  and  C9_9 
REMARK    3  A    between atoms: C9_9  and  N10_10 
ROOT
HETATM    1  C1  UNL     1     -33.248   5.828   3.074  1.00 20.00     0.222 C 
HETATM    2  N10 UNL     1     -33.418   5.805   4.440  1.00 20.00    -0.352 N 
HETATM    3  O11 UNL     1     -33.984   5.321   2.235  1.00 20.00    -0.273 OA
HETATM    4  H28 UNL     1     -32.729   6.267   5.022  1.00 20.00     0.163 HD
ENDROOT
BRANCH   2   5
HETATM    5  C9  UNL     1     -34.542   5.147   5.084  1.00 20.00     0.025 C 
HETATM    6  C6  UNL     1     -35.804   5.422   4.250  1.00 20.00     0.038 C 
HETATM    7  C7  UNL     1     -34.291   3.634   5.121  1.00 20.00     0.038 C 
BRANCH   5   8
HETATM    8  C8  UNL     1     -34.752   5.722   6.506  1.00 20.00     0.026 C 
HETATM    9  C5  UNL     1     -33.910   6.951   6.834  1.00 20.00     0.007 C 
ENDBRANCH   5   8
ENDBRANCH   2   5
BRANCH   1  10
HETATM   10  C4  UNL     1     -32.025   6.561   2.632  1.00 20.00     0.078 A 
HETATM   11  C2  UNL     1     -32.156   7.993   2.235  1.00 20.00     0.015 A 
HETATM   12  C3  UNL     1     -31.477   7.629   3.520  1.00 20.00     0.015 A 
ENDBRANCH   1  10
TORSDOF 3
ENDMDL
MODEL 4
REMARK VINA RESULT:      -4.3     11.381     12.245
REMARK  3 active torsions:
REMARK  status: ('A' for Active; 'I' for Inactive)
REMARK    1  A    between atoms: C1_1  and  C4_4 
REMARK       I    between atoms: C1_1  and  N10_10 
REMARK    2  A    between atoms: C8_8  and  C9_9 
REMARK    3  A    between atoms: C9_9  and  N10_10 
ROOT
HETATM    1  C1  UNL     1     -35.120  16.209  -2.345  1.00 20.00     0.222 C 
HETATM    2  N10 UNL     1     -34.727  15.036  -2.949  1.00 20.00    -0.352 N 
HETATM    3  O11 UNL     1     -35.912  17.033  -2.788  1.00 20.00    -0.273 OA
HETATM    4  H28 UNL     1     -34.061  14.443  -2.469  1.00 20.00     0.163 HD
ENDROOT
BRANCH   2   5
HETATM    5  C9  UNL     1     -35.227  14.611  -4.246  1.00 20.00     0.025 C 
HETATM    6  C6  UNL     1     -34.626  13.233  -4.567  1.00 20.00     0.038 C 
HETATM    7  C7  UNL     1     -36.755  14.485  -4.183  1.00 20.00     0.038 C 
BRANCH   5   8
HETATM    8  C8  UNL     1     -34.785  15.613  -5.340  1.00 20.00     0.026 C 
HETATM    9  C5  UNL     1     -34.467  14.989  -6.694  1.00 20.00     0.007 C 
ENDBRANCH   5   8
ENDBRANCH   2   5
BRANCH   1  10
HETATM   10  C4  UNL     1     -34.481  16.445  -1.016  1.00 20.00     0.078 A 
HETATM   11  C2  UNL     1     -33.683  17.689  -0.819  1.00 20.00     0.015 A 
HETATM   12  C3  UNL     1     -35.017  17.540  -0.154  1.00 20.00     0.015 A 
ENDBRANCH   1  10
TORSDOF 3
ENDMDL
MODEL 5
REMARK VINA RESULT:      -4.1     11.307     12.351
REMARK  3 active torsions:
REMARK  status: ('A' for Active; 'I' for Inactive)
REMARK    1  A    between atoms: C1_1  and  C4_4 
REMARK       I    between atoms: C1_1  and  N10_10 
REMARK    2  A    between atoms: C8_8  and  C9_9 
REMARK    3  A    between atoms: C9_9  and  N10_10 
ROOT
HETATM    1  C1  UNL     1     -33.783  15.750  -3.102  1.00 20.00     0.222 C 
HETATM    2  N10 UNL     1     -35.056  15.630  -3.613  1.00 20.00    -0.352 N 
HETATM    3  O11 UNL     1     -32.782  15.156  -3.484  1.00 20.00    -0.273 OA
HETATM    4  H28 UNL     1     -35.798  16.183  -3.200  1.00 20.00     0.163 HD
ENDROOT
BRANCH   2   5
HETATM    5  C9  UNL     1     -35.383  14.746  -4.719  1.00 20.00     0.025 C 
HETATM    6  C6  UNL     1     -34.518  15.143  -5.926  1.00 20.00     0.038 C 
HETATM    7  C7  UNL     1     -35.052  13.300  -4.325  1.00 20.00     0.038 C 
BRANCH   5   8
HETATM    8  C8  UNL     1     -36.874  14.902  -5.102  1.00 20.00     0.026 C 
HETATM    9  C5  UNL     1     -37.845  14.897  -3.927  1.00 20.00     0.007 C 
ENDBRANCH   5   8
ENDBRANCH   2   5
BRANCH   1  10
HETATM   10  C4  UNL     1     -33.678  16.717  -1.969  1.00 20.00     0.078 A 
HETATM   11  C2  UNL     1     -34.746  17.746  -1.809  1.00 20.00     0.015 A 
HETATM   12  C3  UNL     1     -34.653  16.602  -0.845  1.00 20.00     0.015 A 
ENDBRANCH   1  10
TORSDOF 3
ENDMDL
MODEL 6
REMARK VINA RESULT:      -4.0     11.544     13.088
REMARK  3 active torsions:
REMARK  status: ('A' for Active; 'I' for Inactive)
REMARK    1  A    between atoms: C1_1  and  C4_4 
REMARK       I    between atoms: C1_1  and  N10_10 
REMARK    2  A    between atoms: C8_8  and  C9_9 
REMARK    3  A    between atoms: C9_9  and  N10_10 
ROOT
HETATM    1  C1  UNL     1     -33.801  16.443  -4.007  1.00 20.00     0.222 C 
HETATM    2  N10 UNL     1     -35.040  16.112  -4.506  1.00 20.00    -0.352 N 
HETATM    3  O11 UNL     1     -32.715  16.210  -4.526  1.00 20.00    -0.273 OA
HETATM    4  H28 UNL     1     -35.861  16.367  -3.971  1.00 20.00     0.163 HD
ENDROOT
BRANCH   2   5
HETATM    5  C9  UNL     1     -35.222  15.414  -5.768  1.00 20.00     0.025 C 
HETATM    6  C6  UNL     1     -36.721  15.414  -6.108  1.00 20.00     0.038 C 
HETATM    7  C7  UNL     1     -34.461  16.158  -6.873  1.00 20.00     0.038 C 
BRANCH   5   8
HETATM    8  C8  UNL     1     -34.742  13.948  -5.637  1.00 20.00     0.026 C 
HETATM    9  C5  UNL     1     -35.118  13.261  -4.329  1.00 20.00     0.007 C 
ENDBRANCH   5   8
ENDBRANCH   2   5
BRANCH   1  10
HETATM   10  C4  UNL     1     -33.851  17.159  -2.698  1.00 20.00     0.078 A 
HETATM   11  C2  UNL     1     -35.180  17.576  -2.164  1.00 20.00     0.015 A 
HETATM   12  C3  UNL     1     -34.432  16.447  -1.521  1.00 20.00     0.015 A 
ENDBRANCH   1  10
TORSDOF 3
ENDMDL
MODEL 7
REMARK VINA RESULT:      -4.0     11.692     13.060
REMARK  3 active torsions:
REMARK  status: ('A' for Active; 'I' for Inactive)
REMARK    1  A    between atoms: C1_1  and  C4_4 
REMARK       I    between atoms: C1_1  and  N10_10 
REMARK    2  A    between atoms: C8_8  and  C9_9 
REMARK    3  A    between atoms: C9_9  and  N10_10 
ROOT
HETATM    1  C1  UNL     1     -35.355  14.706  -4.766  1.00 20.00     0.222 C 
HETATM    2  N10 UNL     1     -34.888  15.984  -4.560  1.00 20.00    -0.352 N 
HETATM    3  O11 UNL     1     -36.012  14.030  -3.983  1.00 20.00    -0.273 OA
HETATM    4  H28 UNL     1     -34.354  16.430  -5.296  1.00 20.00     0.163 HD
ENDROOT
BRANCH   2   5
HETATM    5  C9  UNL     1     -35.126  16.722  -3.331  1.00 20.00     0.025 C 
HETATM    6  C6  UNL     1     -34.444  18.095  -3.452  1.00 20.00     0.038 C 
HETATM    7  C7  UNL     1     -36.636  16.932  -3.151  1.00 20.00     0.038 C 
BRANCH   5   8
HETATM    8  C8  UNL     1     -34.511  15.966  -2.129  1.00 20.00     0.026 C 
HETATM    9  C5  UNL     1     -34.632  16.681  -0.787  1.00 20.00     0.007 C 
ENDBRANCH   5   8
ENDBRANCH   2   5
BRANCH   1  10
HETATM   10  C4  UNL     1     -34.994  14.141  -6.100  1.00 20.00     0.078 A 
HETATM   11  C2  UNL     1     -35.772  14.581  -7.295  1.00 20.00     0.015 A 
HETATM   12  C3  UNL     1     -34.359  15.044  -7.105  1.00 20.00     0.015 A 
ENDBRANCH   1  10
TORSDOF 3
ENDMDL
MODEL 8
REMARK VINA RESULT:      -4.0     10.231     11.313
REMARK  3 active torsions:
REMARK  status: ('A' for Active; 'I' for Inactive)
REMARK    1  A    between atoms: C1_1  and  C4_4 
REMARK       I    between atoms: C1_1  and  N10_10 
REMARK    2  A    between atoms: C8_8  and  C9_9 
REMARK    3  A    between atoms: C9_9  and  N10_10 
ROOT
HETATM    1  C1  UNL     1     -42.141   3.375  -2.860  1.00 20.00     0.222 C 
HETATM    2  N10 UNL     1     -41.398   3.987  -1.876  1.00 20.00    -0.352 N 
HETATM    3  O11 UNL     1     -43.201   3.770  -3.331  1.00 20.00    -0.273 OA
HETATM    4  H28 UNL     1     -40.535   3.550  -1.578  1.00 20.00     0.163 HD
ENDROOT
BRANCH   2   5
HETATM    5  C9  UNL     1     -41.799   5.234  -1.246  1.00 20.00     0.025 C 
HETATM    6  C6  UNL     1     -40.700   5.649  -0.254  1.00 20.00     0.038 C 
HETATM    7  C7  UNL     1     -41.936   6.322  -2.319  1.00 20.00     0.038 C 
BRANCH   5   8
HETATM    8  C8  UNL     1     -43.122   5.035  -0.468  1.00 20.00     0.026 C 
HETATM    9  C5  UNL     1     -43.067   5.425   1.005  1.00 20.00     0.007 C 
ENDBRANCH   5   8
ENDBRANCH   2   5
BRANCH   1  10
HETATM   10  C4  UNL     1     -41.540   2.105  -3.366  1.00 20.00     0.078 A 
HETATM   11  C2  UNL     1     -42.367   0.864  -3.336  1.00 20.00     0.015 A 
HETATM   12  C3  UNL     1     -42.060   1.532  -4.642  1.00 20.00     0.015 A 
ENDBRANCH   1  10
TORSDOF 3
ENDMDL
MODEL 9
REMARK VINA RESULT:      -3.9     11.146     12.503
REMARK  3 active torsions:
REMARK  status: ('A' for Active; 'I' for Inactive)
REMARK    1  A    between atoms: C1_1  and  C4_4 
REMARK       I    between atoms: C1_1  and  N10_10 
REMARK    2  A    between atoms: C8_8  and  C9_9 
REMARK    3  A    between atoms: C9_9  and  N10_10 
ROOT
HETATM    1  C1  UNL     1     -35.672  15.961  -3.241  1.00 20.00     0.222 C 
HETATM    2  N10 UNL     1     -34.848  15.953  -4.344  1.00 20.00    -0.352 N 
HETATM    3  O11 UNL     1     -36.640  15.234  -3.044  1.00 20.00    -0.273 OA
HETATM    4  H28 UNL     1     -34.080  16.611  -4.379  1.00 20.00     0.163 HD
ENDROOT
BRANCH   2   5
HETATM    5  C9  UNL     1     -35.033  15.040  -5.460  1.00 20.00     0.025 C 
HETATM    6  C6  UNL     1     -36.497  15.130  -5.920  1.00 20.00     0.038 C 
HETATM    7  C7  UNL     1     -34.121  15.465  -6.619  1.00 20.00     0.038 C 
BRANCH   5   8
HETATM    8  C8  UNL     1     -34.741  13.587  -5.012  1.00 20.00     0.026 C 
HETATM    9  C5  UNL     1     -33.600  13.439  -4.011  1.00 20.00     0.007 C 
ENDBRANCH   5   8
ENDBRANCH   2   5
BRANCH   1  10
HETATM   10  C4  UNL     1     -35.297  16.980  -2.217  1.00 20.00     0.078 A 
HETATM   11  C2  UNL     1     -34.680  16.513  -0.940  1.00 20.00     0.015 A 
HETATM   12  C3  UNL     1     -33.847  17.228  -1.961  1.00 20.00     0.015 A 
ENDBRANCH   1  10
TORSDOF 3
ENDMDL
