MODEL 1
REMARK VINA RESULT:      -4.3      0.000      0.000
REMARK  1 active torsions:
REMARK  status: ('A' for Active; 'I' for Inactive)
REMARK    1  A    between atoms: C7_7  and  C8_8 
ROOT
HETATM    1  C1  UNL     1     -34.614  13.299  -4.578  1.00 20.00     0.005 C 
HETATM    2  C2  UNL     1     -33.356  13.671  -3.778  1.00 20.00     0.005 C 
HETATM    3  C3  UNL     1     -34.116  15.600  -4.932  1.00 20.00     0.010 C 
HETATM    4  C4  UNL     1     -35.910  15.122  -3.446  1.00 20.00     0.010 C 
HETATM    5  C5  UNL     1     -35.307  14.655  -4.784  1.00 20.00    -0.014 C 
HETATM    6  C6  UNL     1     -33.506  15.192  -3.589  1.00 20.00    -0.009 C 
HETATM    7  C7  UNL     1     -34.665  15.446  -2.595  1.00 20.00     0.004 C 
ENDROOT
BRANCH   7   8
HETATM    8  C8  UNL     1     -34.684  16.874  -2.060  1.00 20.00     0.119 C 
HETATM    9 CL9  UNL     1     -34.704  16.864  -0.287  1.00 20.00    -0.130 Cl
ENDBRANCH   7   8
TORSDOF 1
ENDMDL
MODEL 2
REMARK VINA RESULT:      -4.3     11.715     12.622
REMARK  1 active torsions:
REMARK  status: ('A' for Active; 'I' for Inactive)
REMARK    1  A    between atoms: C7_7  and  C8_8 
ROOT
HETATM    1  C1  UNL     1     -34.940   4.496   6.050  1.00 20.00     0.005 C 
HETATM    2  C2  UNL     1     -34.758   3.768   4.709  1.00 20.00     0.005 C 
HETATM    3  C3  UNL     1     -35.527   5.970   4.276  1.00 20.00     0.010 C 
HETATM    4  C4  UNL     1     -33.409   6.333   5.296  1.00 20.00     0.010 C 
HETATM    5  C5  UNL     1     -34.865   5.979   5.652  1.00 20.00    -0.014 C 
HETATM    6  C6  UNL     1     -34.560   4.926   3.714  1.00 20.00    -0.009 C 
HETATM    7  C7  UNL     1     -33.175   5.563   3.979  1.00 20.00     0.004 C 
ENDROOT
BRANCH   7   8
HETATM    8  C8  UNL     1     -32.717   6.477   2.848  1.00 20.00     0.119 C 
HETATM    9 CL9  UNL     1     -31.560   7.675   3.457  1.00 20.00    -0.130 Cl
ENDBRANCH   7   8
TORSDOF 1
ENDMDL
MODEL 3
REMARK VINA RESULT:      -4.2     11.461     12.211
REMARK  1 active torsions:
REMARK  status: ('A' for Active; 'I' for Inactive)
REMARK    1  A    between atoms: C7_7  and  C8_8 
ROOT
HETATM    1  C1  UNL     1     -33.902   5.093   2.432  1.00 20.00     0.005 C 
HETATM    2  C2  UNL     1     -32.753   5.781   3.185  1.00 20.00     0.005 C 
HETATM    3  C3  UNL     1     -34.772   6.923   3.682  1.00 20.00     0.010 C 
HETATM    4  C4  UNL     1     -35.148   4.754   4.582  1.00 20.00     0.010 C 
HETATM    5  C5  UNL     1     -35.143   5.509   3.239  1.00 20.00    -0.014 C 
HETATM    6  C6  UNL     1     -33.475   6.473   4.356  1.00 20.00    -0.009 C 
HETATM    7  C7  UNL     1     -33.960   5.382   5.341  1.00 20.00     0.004 C 
ENDROOT
BRANCH   7   8
HETATM    8  C8  UNL     1     -34.372   5.948   6.695  1.00 20.00     0.119 C 
HETATM    9 CL9  UNL     1     -33.498   7.456   7.021  1.00 20.00    -0.130 Cl
ENDBRANCH   7   8
TORSDOF 1
ENDMDL
MODEL 4
REMARK VINA RESULT:      -4.2     12.183     13.070
REMARK  1 active torsions:
REMARK  status: ('A' for Active; 'I' for Inactive)
REMARK    1  A    between atoms: C7_7  and  C8_8 
ROOT
HETATM    1  C1  UNL     1     -35.393   5.043   6.660  1.00 20.00     0.005 C 
HETATM    2  C2  UNL     1     -34.325   6.147   6.613  1.00 20.00     0.005 C 
HETATM    3  C3  UNL     1     -33.495   4.243   5.465  1.00 20.00     0.010 C 
HETATM    4  C4  UNL     1     -35.378   4.880   4.158  1.00 20.00     0.010 C 
HETATM    5  C5  UNL     1     -35.020   4.150   5.466  1.00 20.00    -0.014 C 
HETATM    6  C6  UNL     1     -33.496   5.770   5.371  1.00 20.00    -0.009 C 
HETATM    7  C7  UNL     1     -34.358   6.037   4.113  1.00 20.00     0.004 C 
ENDROOT
BRANCH   7   8
HETATM    8  C8  UNL     1     -33.541   6.039   2.826  1.00 20.00     0.119 C 
HETATM    9 CL9  UNL     1     -32.056   6.983   3.044  1.00 20.00    -0.130 Cl
ENDBRANCH   7   8
TORSDOF 1
ENDMDL
MODEL 5
REMARK VINA RESULT:      -4.2      2.354      3.597
REMARK  1 active torsions:
REMARK  status: ('A' for Active; 'I' for Inactive)
REMARK    1  A    between atoms: C7_7  and  C8_8 
ROOT
HETATM    1  C1  UNL     1     -33.639  17.121  -2.131  1.00 20.00     0.005 C 
HETATM    2  C2  UNL     1     -34.749  16.261  -1.508  1.00 20.00     0.005 C 
HETATM    3  C3  UNL     1     -35.316  16.704  -3.769  1.00 20.00     0.010 C 
HETATM    4  C4  UNL     1     -33.314  15.433  -3.957  1.00 20.00     0.010 C 
HETATM    5  C5  UNL     1     -33.801  16.859  -3.637  1.00 20.00    -0.014 C 
HETATM    6  C6  UNL     1     -35.385  15.579  -2.734  1.00 20.00    -0.009 C 
HETATM    7  C7  UNL     1     -34.380  14.541  -3.288  1.00 20.00     0.004 C 
ENDROOT
BRANCH   7   8
HETATM    8  C8  UNL     1     -35.018  13.565  -4.270  1.00 20.00     0.119 C 
HETATM    9 CL9  UNL     1     -34.670  14.060  -5.938  1.00 20.00    -0.130 Cl
ENDBRANCH   7   8
TORSDOF 1
ENDMDL
MODEL 6
REMARK VINA RESULT:      -4.1      0.869      1.007
REMARK  1 active torsions:
REMARK  status: ('A' for Active; 'I' for Inactive)
REMARK    1  A    between atoms: C7_7  and  C8_8 
ROOT
HETATM    1  C1  UNL     1     -34.430  13.939  -5.254  1.00 20.00     0.005 C 
HETATM    2  C2  UNL     1     -34.155  13.610  -3.778  1.00 20.00     0.005 C 
HETATM    3  C3  UNL     1     -33.328  15.787  -4.234  1.00 20.00     0.010 C 
HETATM    4  C4  UNL     1     -35.668  16.017  -4.592  1.00 20.00     0.010 C 
HETATM    5  C5  UNL     1     -34.399  15.476  -5.278  1.00 20.00    -0.014 C 
HETATM    6  C6  UNL     1     -34.042  15.003  -3.131  1.00 20.00    -0.009 C 
HETATM    7  C7  UNL     1     -35.450  15.645  -3.110  1.00 20.00     0.004 C 
ENDROOT
BRANCH   7   8
HETATM    8  C8  UNL     1     -35.534  16.858  -2.191  1.00 20.00     0.119 C 
HETATM    9 CL9  UNL     1     -34.494  16.626  -0.773  1.00 20.00    -0.130 Cl
ENDBRANCH   7   8
TORSDOF 1
ENDMDL
MODEL 7
REMARK VINA RESULT:      -4.1      1.184      2.057
REMARK  1 active torsions:
REMARK  status: ('A' for Active; 'I' for Inactive)
REMARK    1  A    between atoms: C7_7  and  C8_8 
ROOT
HETATM    1  C1  UNL     1     -34.628  13.207  -5.240  1.00 20.00     0.005 C 
HETATM    2  C2  UNL     1     -35.076  14.454  -6.018  1.00 20.00     0.005 C 
HETATM    3  C3  UNL     1     -35.819  14.656  -3.773  1.00 20.00     0.010 C 
HETATM    4  C4  UNL     1     -33.450  14.645  -3.556  1.00 20.00     0.010 C 
HETATM    5  C5  UNL     1     -34.636  13.689  -3.780  1.00 20.00    -0.014 C 
HETATM    6  C6  UNL     1     -35.248  15.508  -4.909  1.00 20.00    -0.009 C 
HETATM    7  C7  UNL     1     -33.844  15.889  -4.380  1.00 20.00     0.004 C 
ENDROOT
BRANCH   7   8
HETATM    8  C8  UNL     1     -33.853  17.161  -3.539  1.00 20.00     0.119 C 
HETATM    9 CL9  UNL     1     -33.720  16.758  -1.817  1.00 20.00    -0.130 Cl
ENDBRANCH   7   8
TORSDOF 1
ENDMDL
MODEL 8
REMARK VINA RESULT:      -4.1     12.136     13.184
REMARK  1 active torsions:
REMARK  status: ('A' for Active; 'I' for Inactive)
REMARK    1  A    between atoms: C7_7  and  C8_8 
ROOT
HETATM    1  C1  UNL     1     -41.197   7.201  -0.798  1.00 20.00     0.005 C 
HETATM    2  C2  UNL     1     -41.715   6.650  -2.136  1.00 20.00     0.005 C 
HETATM    3  C3  UNL     1     -40.590   4.906  -0.986  1.00 20.00     0.010 C 
HETATM    4  C4  UNL     1     -42.420   5.402   0.450  1.00 20.00     0.010 C 
HETATM    5  C5  UNL     1     -41.029   5.933   0.056  1.00 20.00    -0.014 C 
HETATM    6  C6  UNL     1     -41.818   5.137  -1.869  1.00 20.00    -0.009 C 
HETATM    7  C7  UNL     1     -42.993   4.896  -0.890  1.00 20.00     0.004 C 
ENDROOT
BRANCH   7   8
HETATM    8  C8  UNL     1     -43.417   3.433  -0.824  1.00 20.00     0.119 C 
HETATM    9 CL9  UNL     1     -43.003   2.605  -2.336  1.00 20.00    -0.130 Cl
ENDBRANCH   7   8
TORSDOF 1
ENDMDL
MODEL 9
REMARK VINA RESULT:      -4.0     11.904     12.990
REMARK  1 active torsions:
REMARK  status: ('A' for Active; 'I' for Inactive)
REMARK    1  A    between atoms: C7_7  and  C8_8 
ROOT
HETATM    1  C1  UNL     1     -41.167   7.289  -0.793  1.00 20.00     0.005 C 
HETATM    2  C2  UNL     1     -40.534   6.044  -0.154  1.00 20.00     0.005 C 
HETATM    3  C3  UNL     1     -42.887   5.743  -0.225  1.00 20.00     0.010 C 
HETATM    4  C4  UNL     1     -42.293   5.866  -2.524  1.00 20.00     0.010 C 
HETATM    5  C5  UNL     1     -42.523   6.768  -1.298  1.00 20.00    -0.014 C 
HETATM    6  C6  UNL     1     -41.590   4.952  -0.408  1.00 20.00    -0.009 C 
HETATM    7  C7  UNL     1     -41.598   4.627  -1.922  1.00 20.00     0.004 C 
ENDROOT
BRANCH   7   8
HETATM    8  C8  UNL     1     -42.338   3.334  -2.246  1.00 20.00     0.119 C 
HETATM    9 CL9  UNL     1     -41.414   2.377  -3.418  1.00 20.00    -0.130 Cl
ENDBRANCH   7   8
TORSDOF 1
ENDMDL
