MODEL 1
REMARK VINA RESULT:      -4.0      0.000      0.000
REMARK  2 active torsions:
REMARK  status: ('A' for Active; 'I' for Inactive)
REMARK    1  A    between atoms: C1_1  and  C9_9 
REMARK    2  A    between atoms: C2_2  and  C8_8 
ROOT
HETATM    1  C1  UNL     1     -34.623  15.806  -2.101  1.00 20.00    -0.016 C 
HETATM    2  C2  UNL     1     -34.372  16.950  -1.430  1.00 20.00    -0.087 C 
HETATM    3  C3  UNL     1     -34.859  17.095  -0.007  1.00 20.00     0.043 C 
ENDROOT
BRANCH   1   4
HETATM    4  C9  UNL     1     -34.270  15.370  -3.521  1.00 20.00    -0.033 C 
HETATM    5  C5  UNL     1     -34.957  14.009  -3.786  1.00 20.00     0.018 C 
HETATM    6  C6  UNL     1     -34.776  16.345  -4.599  1.00 20.00     0.018 C 
HETATM    7  C7  UNL     1     -32.753  15.162  -3.657  1.00 20.00     0.018 C 
ENDBRANCH   1   4
BRANCH   2   8
HETATM    8  C8  UNL     1     -33.585  18.132  -1.940  1.00 20.00     0.029 C 
HETATM    9  C4  UNL     1     -32.919  18.923  -0.822  1.00 20.00     0.010 C 
ENDBRANCH   2   8
TORSDOF 2
ENDMDL
MODEL 2
REMARK VINA RESULT:      -3.9      1.214      2.460
REMARK  2 active torsions:
REMARK  status: ('A' for Active; 'I' for Inactive)
REMARK    1  A    between atoms: C1_1  and  C9_9 
REMARK    2  A    between atoms: C2_2  and  C8_8 
ROOT
HETATM    1  C1  UNL     1     -34.170  16.133  -4.047  1.00 20.00    -0.016 C 
HETATM    2  C2  UNL     1     -34.180  16.758  -2.850  1.00 20.00    -0.087 C 
HETATM    3  C3  UNL     1     -33.750  18.204  -2.767  1.00 20.00     0.043 C 
ENDROOT
BRANCH   1   4
HETATM    4  C9  UNL     1     -34.539  14.707  -4.444  1.00 20.00    -0.033 C 
HETATM    5  C5  UNL     1     -34.460  14.606  -5.986  1.00 20.00     0.018 C 
HETATM    6  C6  UNL     1     -33.574  13.649  -3.877  1.00 20.00     0.018 C 
HETATM    7  C7  UNL     1     -35.984  14.390  -4.028  1.00 20.00     0.018 C 
ENDBRANCH   1   4
BRANCH   2   8
HETATM    8  C8  UNL     1     -34.636  16.169  -1.538  1.00 20.00     0.029 C 
HETATM    9  C4  UNL     1     -34.494  17.142  -0.375  1.00 20.00     0.010 C 
ENDBRANCH   2   8
TORSDOF 2
ENDMDL
MODEL 3
REMARK VINA RESULT:      -3.9      1.207      3.986
REMARK  2 active torsions:
REMARK  status: ('A' for Active; 'I' for Inactive)
REMARK    1  A    between atoms: C1_1  and  C9_9 
REMARK    2  A    between atoms: C2_2  and  C8_8 
ROOT
HETATM    1  C1  UNL     1     -34.556  16.371  -1.425  1.00 20.00    -0.016 C 
HETATM    2  C2  UNL     1     -34.180  16.088  -2.690  1.00 20.00    -0.087 C 
HETATM    3  C3  UNL     1     -34.316  14.673  -3.204  1.00 20.00     0.043 C 
ENDROOT
BRANCH   1   4
HETATM    4  C9  UNL     1     -34.537  17.676  -0.634  1.00 20.00    -0.033 C 
HETATM    5  C5  UNL     1     -35.089  17.383   0.782  1.00 20.00     0.018 C 
HETATM    6  C6  UNL     1     -33.123  18.256  -0.452  1.00 20.00     0.018 C 
HETATM    7  C7  UNL     1     -35.461  18.714  -1.290  1.00 20.00     0.018 C 
ENDBRANCH   1   4
BRANCH   2   8
HETATM    8  C8  UNL     1     -33.662  17.072  -3.710  1.00 20.00     0.029 C 
HETATM    9  C4  UNL     1     -33.262  16.406  -5.021  1.00 20.00     0.010 C 
ENDBRANCH   2   8
TORSDOF 2
ENDMDL
MODEL 4
REMARK VINA RESULT:      -3.9      1.141      3.907
REMARK  2 active torsions:
REMARK  status: ('A' for Active; 'I' for Inactive)
REMARK    1  A    between atoms: C1_1  and  C9_9 
REMARK    2  A    between atoms: C2_2  and  C8_8 
ROOT
HETATM    1  C1  UNL     1     -34.214  15.700  -2.358  1.00 20.00    -0.016 C 
HETATM    2  C2  UNL     1     -33.631  15.326  -3.517  1.00 20.00    -0.087 C 
HETATM    3  C3  UNL     1     -33.345  13.863  -3.763  1.00 20.00     0.043 C 
ENDROOT
BRANCH   1   4
HETATM    4  C9  UNL     1     -34.618  17.073  -1.828  1.00 20.00    -0.033 C 
HETATM    5  C5  UNL     1     -34.807  16.957  -0.297  1.00 20.00     0.018 C 
HETATM    6  C6  UNL     1     -33.549  18.155  -2.066  1.00 20.00     0.018 C 
HETATM    7  C7  UNL     1     -35.962  17.507  -2.433  1.00 20.00     0.018 C 
ENDBRANCH   1   4
BRANCH   2   8
HETATM    8  C8  UNL     1     -33.259  16.232  -4.665  1.00 20.00     0.029 C 
HETATM    9  C4  UNL     1     -34.046  15.929  -5.933  1.00 20.00     0.010 C 
ENDBRANCH   2   8
TORSDOF 2
ENDMDL
MODEL 5
REMARK VINA RESULT:      -3.9     11.631     12.724
REMARK  2 active torsions:
REMARK  status: ('A' for Active; 'I' for Inactive)
REMARK    1  A    between atoms: C1_1  and  C9_9 
REMARK    2  A    between atoms: C2_2  and  C8_8 
ROOT
HETATM    1  C1  UNL     1     -33.160   6.716   4.562  1.00 20.00    -0.016 C 
HETATM    2  C2  UNL     1     -34.043   6.223   5.456  1.00 20.00    -0.087 C 
HETATM    3  C3  UNL     1     -34.066   6.783   6.859  1.00 20.00     0.043 C 
ENDROOT
BRANCH   1   4
HETATM    4  C9  UNL     1     -32.898   6.362   3.101  1.00 20.00    -0.033 C 
HETATM    5  C5  UNL     1     -31.789   5.284   3.063  1.00 20.00     0.018 C 
HETATM    6  C6  UNL     1     -34.127   5.765   2.390  1.00 20.00     0.018 C 
HETATM    7  C7  UNL     1     -32.382   7.591   2.335  1.00 20.00     0.018 C 
ENDBRANCH   1   4
BRANCH   2   8
HETATM    8  C8  UNL     1     -35.088   5.166   5.192  1.00 20.00     0.029 C 
HETATM    9  C4  UNL     1     -34.743   3.826   5.828  1.00 20.00     0.010 C 
ENDBRANCH   2   8
TORSDOF 2
ENDMDL
MODEL 6
REMARK VINA RESULT:      -3.7      1.965      4.725
REMARK  2 active torsions:
REMARK  status: ('A' for Active; 'I' for Inactive)
REMARK    1  A    between atoms: C1_1  and  C9_9 
REMARK    2  A    between atoms: C2_2  and  C8_8 
ROOT
HETATM    1  C1  UNL     1     -34.498  16.216  -4.809  1.00 20.00    -0.016 C 
HETATM    2  C2  UNL     1     -34.413  16.179  -6.156  1.00 20.00    -0.087 C 
HETATM    3  C3  UNL     1     -34.347  17.476  -6.929  1.00 20.00     0.043 C 
ENDROOT
BRANCH   1   4
HETATM    4  C9  UNL     1     -34.582  15.100  -3.772  1.00 20.00    -0.033 C 
HETATM    5  C5  UNL     1     -34.659  15.755  -2.372  1.00 20.00     0.018 C 
HETATM    6  C6  UNL     1     -35.836  14.221  -3.924  1.00 20.00     0.018 C 
HETATM    7  C7  UNL     1     -33.312  14.234  -3.812  1.00 20.00     0.018 C 
ENDBRANCH   1   4
BRANCH   2   8
HETATM    8  C8  UNL     1     -34.324  14.940  -7.013  1.00 20.00     0.029 C 
HETATM    9  C4  UNL     1     -35.660  14.561  -7.640  1.00 20.00     0.010 C 
ENDBRANCH   2   8
TORSDOF 2
ENDMDL
MODEL 7
REMARK VINA RESULT:      -3.7     11.654     12.806
REMARK  2 active torsions:
REMARK  status: ('A' for Active; 'I' for Inactive)
REMARK    1  A    between atoms: C1_1  and  C9_9 
REMARK    2  A    between atoms: C2_2  and  C8_8 
ROOT
HETATM    1  C1  UNL     1     -33.158   6.698   4.590  1.00 20.00    -0.016 C 
HETATM    2  C2  UNL     1     -34.045   6.230   5.494  1.00 20.00    -0.087 C 
HETATM    3  C3  UNL     1     -34.077   6.832   6.879  1.00 20.00     0.043 C 
ENDROOT
BRANCH   1   4
HETATM    4  C9  UNL     1     -32.888   6.300   3.142  1.00 20.00    -0.033 C 
HETATM    5  C5  UNL     1     -32.399   7.558   2.385  1.00 20.00     0.018 C 
HETATM    6  C6  UNL     1     -31.785   5.235   2.999  1.00 20.00     0.018 C 
HETATM    7  C7  UNL     1     -34.183   5.822   2.465  1.00 20.00     0.018 C 
ENDBRANCH   1   4
BRANCH   2   8
HETATM    8  C8  UNL     1     -35.086   5.163   5.256  1.00 20.00     0.029 C 
HETATM    9  C4  UNL     1     -34.692   3.815   5.846  1.00 20.00     0.010 C 
ENDBRANCH   2   8
TORSDOF 2
ENDMDL
MODEL 8
REMARK VINA RESULT:      -3.7      0.667      1.759
REMARK  2 active torsions:
REMARK  status: ('A' for Active; 'I' for Inactive)
REMARK    1  A    between atoms: C1_1  and  C9_9 
REMARK    2  A    between atoms: C2_2  and  C8_8 
ROOT
HETATM    1  C1  UNL     1     -34.679  15.691  -2.182  1.00 20.00    -0.016 C 
HETATM    2  C2  UNL     1     -34.418  16.870  -1.577  1.00 20.00    -0.087 C 
HETATM    3  C3  UNL     1     -34.804  17.060  -0.129  1.00 20.00     0.043 C 
ENDROOT
BRANCH   1   4
HETATM    4  C9  UNL     1     -34.417  15.206  -3.605  1.00 20.00    -0.033 C 
HETATM    5  C5  UNL     1     -32.909  15.386  -3.900  1.00 20.00     0.018 C 
HETATM    6  C6  UNL     1     -34.739  13.715  -3.808  1.00 20.00     0.018 C 
HETATM    7  C7  UNL     1     -35.196  16.064  -4.615  1.00 20.00     0.018 C 
ENDBRANCH   1   4
BRANCH   2   8
HETATM    8  C8  UNL     1     -33.713  18.053  -2.193  1.00 20.00     0.029 C 
HETATM    9  C4  UNL     1     -34.672  19.167  -2.594  1.00 20.00     0.010 C 
ENDBRANCH   2   8
TORSDOF 2
ENDMDL
MODEL 9
REMARK VINA RESULT:      -3.7      1.016      4.214
REMARK  2 active torsions:
REMARK  status: ('A' for Active; 'I' for Inactive)
REMARK    1  A    between atoms: C1_1  and  C9_9 
REMARK    2  A    between atoms: C2_2  and  C8_8 
ROOT
HETATM    1  C1  UNL     1     -33.601  16.659  -2.032  1.00 20.00    -0.016 C 
HETATM    2  C2  UNL     1     -34.222  15.763  -2.828  1.00 20.00    -0.087 C 
HETATM    3  C3  UNL     1     -33.394  14.785  -3.629  1.00 20.00     0.043 C 
ENDROOT
BRANCH   1   4
HETATM    4  C9  UNL     1     -34.151  17.754  -1.122  1.00 20.00    -0.033 C 
HETATM    5  C5  UNL     1     -32.951  18.547  -0.551  1.00 20.00     0.018 C 
HETATM    6  C6  UNL     1     -35.045  18.765  -1.861  1.00 20.00     0.018 C 
HETATM    7  C7  UNL     1     -34.908  17.135   0.064  1.00 20.00     0.018 C 
ENDBRANCH   1   4
BRANCH   2   8
HETATM    8  C8  UNL     1     -35.713  15.587  -2.982  1.00 20.00     0.029 C 
HETATM    9  C4  UNL     1     -36.076  14.457  -3.937  1.00 20.00     0.010 C 
ENDBRANCH   2   8
TORSDOF 2
ENDMDL
