MODEL 1
REMARK VINA RESULT:      -4.2      0.000      0.000
REMARK  1 active torsions:
REMARK  status: ('A' for Active; 'I' for Inactive)
REMARK    1  A    between atoms: C1_1  and  C5_5 
ROOT
HETATM    1  C2  UNL     1     -35.014   4.640   6.453  1.00 20.00     0.002 C 
HETATM    2  C3  UNL     1     -34.419   4.019   5.177  1.00 20.00     0.016 C 
HETATM    3  C4  UNL     1     -34.440   5.994   6.002  1.00 20.00     0.016 C 
HETATM    4  C5  UNL     1     -34.384   5.445   4.541  1.00 20.00     0.009 C 
HETATM    5  C6  UNL     1     -35.632   5.776   3.718  1.00 20.00     0.023 C 
ENDROOT
BRANCH   4   6
HETATM    6  C1  UNL     1     -33.090   5.787   3.753  1.00 20.00     0.240 C 
HETATM    7  O7  UNL     1     -33.005   6.725   2.966  1.00 20.00    -0.306 OA
ENDBRANCH   4   6
TORSDOF 1
ENDMDL
MODEL 2
REMARK VINA RESULT:      -3.8      1.560      2.799
REMARK  1 active torsions:
REMARK  status: ('A' for Active; 'I' for Inactive)
REMARK    1  A    between atoms: C1_1  and  C5_5 
ROOT
HETATM    1  C2  UNL     1     -34.482   5.384   2.953  1.00 20.00     0.002 C 
HETATM    2  C3  UNL     1     -35.517   5.688   4.050  1.00 20.00     0.016 C 
HETATM    3  C4  UNL     1     -33.378   5.666   3.987  1.00 20.00     0.016 C 
HETATM    4  C5  UNL     1     -34.418   5.397   5.120  1.00 20.00     0.009 C 
HETATM    5  C6  UNL     1     -34.418   3.948   5.616  1.00 20.00     0.023 C 
ENDROOT
BRANCH   4   6
HETATM    6  C1  UNL     1     -34.372   6.393   6.311  1.00 20.00     0.240 C 
HETATM    7  O7  UNL     1     -33.353   6.974   6.669  1.00 20.00    -0.306 OA
ENDBRANCH   4   6
TORSDOF 1
ENDMDL
MODEL 3
REMARK VINA RESULT:      -3.5     11.919     12.837
REMARK  1 active torsions:
REMARK  status: ('A' for Active; 'I' for Inactive)
REMARK    1  A    between atoms: C1_1  and  C5_5 
ROOT
HETATM    1  C2  UNL     1     -33.698  16.773  -3.209  1.00 20.00     0.002 C 
HETATM    2  C3  UNL     1     -33.846  16.022  -4.543  1.00 20.00     0.016 C 
HETATM    3  C4  UNL     1     -34.482  15.633  -2.536  1.00 20.00     0.016 C 
HETATM    4  C5  UNL     1     -34.098  14.709  -3.735  1.00 20.00     0.009 C 
HETATM    5  C6  UNL     1     -32.828  13.890  -3.491  1.00 20.00     0.023 C 
ENDROOT
BRANCH   4   6
HETATM    6  C1  UNL     1     -35.245  13.810  -4.273  1.00 20.00     0.240 C 
HETATM    7  O7  UNL     1     -35.157  12.591  -4.377  1.00 20.00    -0.306 OA
ENDBRANCH   4   6
TORSDOF 1
ENDMDL
MODEL 4
REMARK VINA RESULT:      -3.5     12.296     13.450
REMARK  1 active torsions:
REMARK  status: ('A' for Active; 'I' for Inactive)
REMARK    1  A    between atoms: C1_1  and  C5_5 
ROOT
HETATM    1  C2  UNL     1     -33.349  16.784  -4.949  1.00 20.00     0.002 C 
HETATM    2  C3  UNL     1     -32.973  15.636  -3.996  1.00 20.00     0.016 C 
HETATM    3  C4  UNL     1     -34.302  15.812  -5.665  1.00 20.00     0.016 C 
HETATM    4  C5  UNL     1     -34.312  14.928  -4.378  1.00 20.00     0.009 C 
HETATM    5  C6  UNL     1     -35.467  15.253  -3.426  1.00 20.00     0.023 C 
ENDROOT
BRANCH   4   6
HETATM    6  C1  UNL     1     -34.207  13.398  -4.623  1.00 20.00     0.240 C 
HETATM    7  O7  UNL     1     -35.107  12.607  -4.363  1.00 20.00    -0.306 OA
ENDBRANCH   4   6
TORSDOF 1
ENDMDL
MODEL 5
REMARK VINA RESULT:      -3.5      1.911      3.043
REMARK  1 active torsions:
REMARK  status: ('A' for Active; 'I' for Inactive)
REMARK    1  A    between atoms: C1_1  and  C5_5 
ROOT
HETATM    1  C2  UNL     1     -32.827   6.847   3.369  1.00 20.00     0.002 C 
HETATM    2  C3  UNL     1     -33.599   6.882   4.699  1.00 20.00     0.016 C 
HETATM    3  C4  UNL     1     -33.095   5.333   3.310  1.00 20.00     0.016 C 
HETATM    4  C5  UNL     1     -34.291   5.542   4.293  1.00 20.00     0.009 C 
HETATM    5  C6  UNL     1     -35.634   5.739   3.585  1.00 20.00     0.023 C 
ENDROOT
BRANCH   4   6
HETATM    6  C1  UNL     1     -34.408   4.486   5.426  1.00 20.00     0.240 C 
HETATM    7  O7  UNL     1     -35.164   3.521   5.377  1.00 20.00    -0.306 OA
ENDBRANCH   4   6
TORSDOF 1
ENDMDL
MODEL 6
REMARK VINA RESULT:      -3.5      1.978      3.117
REMARK  1 active torsions:
REMARK  status: ('A' for Active; 'I' for Inactive)
REMARK    1  A    between atoms: C1_1  and  C5_5 
ROOT
HETATM    1  C2  UNL     1     -32.885   6.943   3.270  1.00 20.00     0.002 C 
HETATM    2  C3  UNL     1     -32.769   5.533   3.874  1.00 20.00     0.016 C 
HETATM    3  C4  UNL     1     -34.398   6.883   3.545  1.00 20.00     0.016 C 
HETATM    4  C5  UNL     1     -34.124   5.776   4.612  1.00 20.00     0.009 C 
HETATM    5  C6  UNL     1     -33.956   6.325   6.031  1.00 20.00     0.023 C 
ENDROOT
BRANCH   4   6
HETATM    6  C1  UNL     1     -35.114   4.578   4.592  1.00 20.00     0.240 C 
HETATM    7  O7  UNL     1     -35.066   3.647   5.390  1.00 20.00    -0.306 OA
ENDBRANCH   4   6
TORSDOF 1
ENDMDL
MODEL 7
REMARK VINA RESULT:      -3.4     11.754     12.814
REMARK  1 active torsions:
REMARK  status: ('A' for Active; 'I' for Inactive)
REMARK    1  A    between atoms: C1_1  and  C5_5 
ROOT
HETATM    1  C2  UNL     1     -33.701  16.534  -2.778  1.00 20.00     0.002 C 
HETATM    2  C3  UNL     1     -34.823  15.505  -2.554  1.00 20.00     0.016 C 
HETATM    3  C4  UNL     1     -33.042  15.531  -3.740  1.00 20.00     0.016 C 
HETATM    4  C5  UNL     1     -34.428  14.832  -3.906  1.00 20.00     0.009 C 
HETATM    5  C6  UNL     1     -35.231  15.348  -5.103  1.00 20.00     0.023 C 
ENDROOT
BRANCH   4   6
HETATM    6  C1  UNL     1     -34.393  13.279  -3.888  1.00 20.00     0.240 C 
HETATM    7  O7  UNL     1     -35.094  12.577  -4.610  1.00 20.00    -0.306 OA
ENDBRANCH   4   6
TORSDOF 1
ENDMDL
MODEL 8
REMARK VINA RESULT:      -3.4     12.133     13.113
REMARK  1 active torsions:
REMARK  status: ('A' for Active; 'I' for Inactive)
REMARK    1  A    between atoms: C1_1  and  C5_5 
ROOT
HETATM    1  C2  UNL     1     -33.363  15.801  -4.130  1.00 20.00     0.002 C 
HETATM    2  C3  UNL     1     -34.614  15.714  -5.021  1.00 20.00     0.016 C 
HETATM    3  C4  UNL     1     -34.234  15.343  -2.948  1.00 20.00     0.016 C 
HETATM    4  C5  UNL     1     -35.251  14.749  -3.973  1.00 20.00     0.009 C 
HETATM    5  C6  UNL     1     -35.011  13.268  -4.281  1.00 20.00     0.023 C 
ENDROOT
BRANCH   4   6
HETATM    6  C1  UNL     1     -36.748  15.014  -3.651  1.00 20.00     0.240 C 
HETATM    7  O7  UNL     1     -37.629  14.172  -3.787  1.00 20.00    -0.306 OA
ENDBRANCH   4   6
TORSDOF 1
ENDMDL
MODEL 9
REMARK VINA RESULT:      -3.4     12.988     14.203
REMARK  1 active torsions:
REMARK  status: ('A' for Active; 'I' for Inactive)
REMARK    1  A    between atoms: C1_1  and  C5_5 
ROOT
HETATM    1  C2  UNL     1     -34.395  16.203  -7.106  1.00 20.00     0.002 C 
HETATM    2  C3  UNL     1     -34.045  15.926  -5.634  1.00 20.00     0.016 C 
HETATM    3  C4  UNL     1     -34.813  14.728  -7.232  1.00 20.00     0.016 C 
HETATM    4  C5  UNL     1     -34.984  14.680  -5.681  1.00 20.00     0.009 C 
HETATM    5  C6  UNL     1     -36.413  14.976  -5.216  1.00 20.00     0.023 C 
ENDROOT
BRANCH   4   6
HETATM    6  C1  UNL     1     -34.428  13.404  -4.992  1.00 20.00     0.240 C 
HETATM    7  O7  UNL     1     -35.108  12.662  -4.290  1.00 20.00    -0.306 OA
ENDBRANCH   4   6
TORSDOF 1
ENDMDL
