MODEL 1
REMARK VINA RESULT:      -4.6      0.000      0.000
REMARK  3 active torsions:
REMARK  status: ('A' for Active; 'I' for Inactive)
REMARK    1  A    between atoms: C4_4  and  C7_7 
REMARK    2  A    between atoms: C6_6  and  C7_7 
REMARK    3  A    between atoms: C7_7  and  O9_9 
ROOT
HETATM    1  C1  UNL     1     -35.368   5.238   4.293  1.00 20.00     0.035 C 
HETATM    2  C2  UNL     1     -34.997   4.232   5.363  1.00 20.00     0.168 C 
HETATM    3  C3  UNL     1     -34.087   6.297   5.950  1.00 20.00     0.174 C 
HETATM    4  C4  UNL     1     -34.306   6.307   4.446  1.00 20.00     0.040 C 
HETATM    5  O8  UNL     1     -34.311   4.952   6.398  1.00 20.00    -0.391 OA
ENDROOT
BRANCH   4   6
HETATM    6  C7  UNL     1     -33.028   5.957   3.685  1.00 20.00     0.124 C 
BRANCH   6   7
HETATM    7  C6  UNL     1     -32.065   7.148   3.629  1.00 20.00     0.027 C 
HETATM    8  C5  UNL     1     -32.139   7.894   2.303  1.00 20.00     0.007 C 
ENDBRANCH   6   7
BRANCH   6   9
HETATM    9  O9  UNL     1     -33.368   5.576   2.353  1.00 20.00    -0.395 OA
HETATM   10  H23 UNL     1     -33.264   6.369   1.805  1.00 20.00     0.210 HD
ENDBRANCH   6   9
ENDBRANCH   4   6
TORSDOF 3
ENDMDL
MODEL 2
REMARK VINA RESULT:      -4.0     11.420     12.639
REMARK  3 active torsions:
REMARK  status: ('A' for Active; 'I' for Inactive)
REMARK    1  A    between atoms: C4_4  and  C7_7 
REMARK    2  A    between atoms: C6_6  and  C7_7 
REMARK    3  A    between atoms: C7_7  and  O9_9 
ROOT
HETATM    1  C1  UNL     1     -33.059  14.958  -3.785  1.00 20.00     0.035 C 
HETATM    2  C2  UNL     1     -33.338  16.365  -4.272  1.00 20.00     0.168 C 
HETATM    3  C3  UNL     1     -34.871  15.851  -2.593  1.00 20.00     0.174 C 
HETATM    4  C4  UNL     1     -34.381  14.537  -3.178  1.00 20.00     0.040 C 
HETATM    5  O8  UNL     1     -34.379  16.899  -3.441  1.00 20.00    -0.391 OA
ENDROOT
BRANCH   4   6
HETATM    6  C7  UNL     1     -35.345  13.990  -4.231  1.00 20.00     0.124 C 
BRANCH   6   7
HETATM    7  C6  UNL     1     -36.771  14.503  -4.003  1.00 20.00     0.027 C 
HETATM    8  C5  UNL     1     -37.326  15.236  -5.217  1.00 20.00     0.007 C 
ENDBRANCH   6   7
BRANCH   6   9
HETATM    9  O9  UNL     1     -35.351  12.566  -4.163  1.00 20.00    -0.395 OA
HETATM   10  H23 UNL     1     -35.015  12.331  -3.284  1.00 20.00     0.210 HD
ENDBRANCH   6   9
ENDBRANCH   4   6
TORSDOF 3
ENDMDL
MODEL 3
REMARK VINA RESULT:      -3.9     11.755     12.522
REMARK  3 active torsions:
REMARK  status: ('A' for Active; 'I' for Inactive)
REMARK    1  A    between atoms: C4_4  and  C7_7 
REMARK    2  A    between atoms: C6_6  and  C7_7 
REMARK    3  A    between atoms: C7_7  and  O9_9 
ROOT
HETATM    1  C1  UNL     1     -34.538  14.480  -5.792  1.00 20.00     0.035 C 
HETATM    2  C2  UNL     1     -34.462  13.043  -5.319  1.00 20.00     0.168 C 
HETATM    3  C3  UNL     1     -35.779  14.242  -3.815  1.00 20.00     0.174 C 
HETATM    4  C4  UNL     1     -34.879  15.240  -4.527  1.00 20.00     0.040 C 
HETATM    5  O8  UNL     1     -35.320  12.931  -4.175  1.00 20.00    -0.391 OA
ENDROOT
BRANCH   4   6
HETATM    6  C7  UNL     1     -33.634  15.568  -3.705  1.00 20.00     0.124 C 
BRANCH   6   7
HETATM    7  C6  UNL     1     -33.835  16.835  -2.866  1.00 20.00     0.027 C 
HETATM    8  C5  UNL     1     -34.338  16.529  -1.461  1.00 20.00     0.007 C 
ENDBRANCH   6   7
BRANCH   6   9
HETATM    9  O9  UNL     1     -32.532  15.769  -4.587  1.00 20.00    -0.395 OA
HETATM   10  H23 UNL     1     -32.620  15.110  -5.292  1.00 20.00     0.210 HD
ENDBRANCH   6   9
ENDBRANCH   4   6
TORSDOF 3
ENDMDL
MODEL 4
REMARK VINA RESULT:      -3.8     11.496     12.740
REMARK  3 active torsions:
REMARK  status: ('A' for Active; 'I' for Inactive)
REMARK    1  A    between atoms: C4_4  and  C7_7 
REMARK    2  A    between atoms: C6_6  and  C7_7 
REMARK    3  A    between atoms: C7_7  and  O9_9 
ROOT
HETATM    1  C1  UNL     1     -33.779  17.479  -3.417  1.00 20.00     0.035 C 
HETATM    2  C2  UNL     1     -35.205  17.498  -3.928  1.00 20.00     0.168 C 
HETATM    3  C3  UNL     1     -35.055  15.909  -2.229  1.00 20.00     0.174 C 
HETATM    4  C4  UNL     1     -33.657  16.104  -2.793  1.00 20.00     0.040 C 
HETATM    5  O8  UNL     1     -35.961  16.602  -3.100  1.00 20.00    -0.391 OA
ENDROOT
BRANCH   4   6
HETATM    6  C7  UNL     1     -33.309  15.036  -3.829  1.00 20.00     0.124 C 
BRANCH   6   7
HETATM    7  C6  UNL     1     -34.105  13.747  -3.592  1.00 20.00     0.027 C 
HETATM    8  C5  UNL     1     -34.766  13.230  -4.863  1.00 20.00     0.007 C 
ENDBRANCH   6   7
BRANCH   6   9
HETATM    9  O9  UNL     1     -31.916  14.740  -3.743  1.00 20.00    -0.395 OA
HETATM   10  H23 UNL     1     -31.804  13.842  -4.091  1.00 20.00     0.210 HD
ENDBRANCH   6   9
ENDBRANCH   4   6
TORSDOF 3
ENDMDL
MODEL 5
REMARK VINA RESULT:      -3.8     11.882     12.569
REMARK  3 active torsions:
REMARK  status: ('A' for Active; 'I' for Inactive)
REMARK    1  A    between atoms: C4_4  and  C7_7 
REMARK    2  A    between atoms: C6_6  and  C7_7 
REMARK    3  A    between atoms: C7_7  and  O9_9 
ROOT
HETATM    1  C1  UNL     1     -35.854  14.735  -3.744  1.00 20.00     0.035 C 
HETATM    2  C2  UNL     1     -35.881  14.884  -5.252  1.00 20.00     0.168 C 
HETATM    3  C3  UNL     1     -34.234  13.330  -4.697  1.00 20.00     0.174 C 
HETATM    4  C4  UNL     1     -34.459  14.209  -3.477  1.00 20.00     0.040 C 
HETATM    5  O8  UNL     1     -34.951  13.930  -5.786  1.00 20.00    -0.391 OA
ENDROOT
BRANCH   4   6
HETATM    6  C7  UNL     1     -33.430  15.335  -3.392  1.00 20.00     0.124 C 
BRANCH   6   7
HETATM    7  C6  UNL     1     -34.075  16.650  -2.940  1.00 20.00     0.027 C 
HETATM    8  C5  UNL     1     -33.951  16.873  -1.438  1.00 20.00     0.007 C 
ENDBRANCH   6   7
BRANCH   6   9
HETATM    9  O9  UNL     1     -32.842  15.528  -4.677  1.00 20.00    -0.395 OA
HETATM   10  H23 UNL     1     -32.578  16.460  -4.722  1.00 20.00     0.210 HD
ENDBRANCH   6   9
ENDBRANCH   4   6
TORSDOF 3
ENDMDL
MODEL 6
REMARK VINA RESULT:      -3.8     11.551     13.403
REMARK  3 active torsions:
REMARK  status: ('A' for Active; 'I' for Inactive)
REMARK    1  A    between atoms: C4_4  and  C7_7 
REMARK    2  A    between atoms: C6_6  and  C7_7 
REMARK    3  A    between atoms: C7_7  and  O9_9 
ROOT
HETATM    1  C1  UNL     1     -35.489  14.322  -6.838  1.00 20.00     0.035 C 
HETATM    2  C2  UNL     1     -36.120  15.699  -6.817  1.00 20.00     0.168 C 
HETATM    3  C3  UNL     1     -34.005  15.846  -5.847  1.00 20.00     0.174 C 
HETATM    4  C4  UNL     1     -34.460  14.400  -5.729  1.00 20.00     0.040 C 
HETATM    5  O8  UNL     1     -35.134  16.606  -6.303  1.00 20.00    -0.391 OA
ENDROOT
BRANCH   4   6
HETATM    6  C7  UNL     1     -35.072  14.108  -4.360  1.00 20.00     0.124 C 
BRANCH   6   7
HETATM    7  C6  UNL     1     -34.224  14.703  -3.230  1.00 20.00     0.027 C 
HETATM    8  C5  UNL     1     -34.997  15.717  -2.395  1.00 20.00     0.007 C 
ENDBRANCH   6   7
BRANCH   6   9
HETATM    9  O9  UNL     1     -35.156  12.696  -4.178  1.00 20.00    -0.395 OA
HETATM   10  H23 UNL     1     -34.346  12.429  -3.717  1.00 20.00     0.210 HD
ENDBRANCH   6   9
ENDBRANCH   4   6
TORSDOF 3
ENDMDL
MODEL 7
REMARK VINA RESULT:      -3.8     11.744     12.975
REMARK  3 active torsions:
REMARK  status: ('A' for Active; 'I' for Inactive)
REMARK    1  A    between atoms: C4_4  and  C7_7 
REMARK    2  A    between atoms: C6_6  and  C7_7 
REMARK    3  A    between atoms: C7_7  and  O9_9 
ROOT
HETATM    1  C1  UNL     1     -34.420  15.547  -2.557  1.00 20.00     0.035 C 
HETATM    2  C2  UNL     1     -33.976  16.771  -3.331  1.00 20.00     0.168 C 
HETATM    3  C3  UNL     1     -36.117  16.188  -4.045  1.00 20.00     0.174 C 
HETATM    4  C4  UNL     1     -35.480  14.941  -3.453  1.00 20.00     0.040 C 
HETATM    5  O8  UNL     1     -35.086  17.181  -4.143  1.00 20.00    -0.391 OA
ENDROOT
BRANCH   4   6
HETATM    6  C7  UNL     1     -34.873  14.047  -4.534  1.00 20.00     0.124 C 
BRANCH   6   7
HETATM    7  C6  UNL     1     -35.489  14.333  -5.908  1.00 20.00     0.027 C 
HETATM    8  C5  UNL     1     -34.464  14.847  -6.910  1.00 20.00     0.007 C 
ENDBRANCH   6   7
BRANCH   6   9
HETATM    9  O9  UNL     1     -35.109  12.681  -4.197  1.00 20.00    -0.395 OA
HETATM   10  H23 UNL     1     -35.313  12.663  -3.250  1.00 20.00     0.210 HD
ENDBRANCH   6   9
ENDBRANCH   4   6
TORSDOF 3
ENDMDL
MODEL 8
REMARK VINA RESULT:      -3.8     11.760     12.942
REMARK  3 active torsions:
REMARK  status: ('A' for Active; 'I' for Inactive)
REMARK    1  A    between atoms: C4_4  and  C7_7 
REMARK    2  A    between atoms: C6_6  and  C7_7 
REMARK    3  A    between atoms: C7_7  and  O9_9 
ROOT
HETATM    1  C1  UNL     1     -35.189  15.383  -2.853  1.00 20.00     0.035 C 
HETATM    2  C2  UNL     1     -36.582  15.133  -3.393  1.00 20.00     0.168 C 
HETATM    3  C3  UNL     1     -35.155  13.504  -4.258  1.00 20.00     0.174 C 
HETATM    4  C4  UNL     1     -34.299  14.699  -3.870  1.00 20.00     0.040 C 
HETATM    5  O8  UNL     1     -36.526  13.918  -4.155  1.00 20.00    -0.391 OA
ENDROOT
BRANCH   4   6
HETATM    6  C7  UNL     1     -34.005  15.599  -5.070  1.00 20.00     0.124 C 
BRANCH   6   7
HETATM    7  C6  UNL     1     -34.274  14.874  -6.393  1.00 20.00     0.027 C 
HETATM    8  C5  UNL     1     -35.153  15.688  -7.334  1.00 20.00     0.007 C 
ENDBRANCH   6   7
BRANCH   6   9
HETATM    9  O9  UNL     1     -32.635  15.995  -5.031  1.00 20.00    -0.395 OA
HETATM   10  H23 UNL     1     -32.291  15.880  -5.930  1.00 20.00     0.210 HD
ENDBRANCH   6   9
ENDBRANCH   4   6
TORSDOF 3
ENDMDL
MODEL 9
REMARK VINA RESULT:      -3.7     12.230     13.117
REMARK  3 active torsions:
REMARK  status: ('A' for Active; 'I' for Inactive)
REMARK    1  A    between atoms: C4_4  and  C7_7 
REMARK    2  A    between atoms: C6_6  and  C7_7 
REMARK    3  A    between atoms: C7_7  and  O9_9 
ROOT
HETATM    1  C1  UNL     1     -34.857  15.495  -5.170  1.00 20.00     0.035 C 
HETATM    2  C2  UNL     1     -33.753  16.443  -5.592  1.00 20.00     0.168 C 
HETATM    3  C3  UNL     1     -33.008  15.221  -3.752  1.00 20.00     0.174 C 
HETATM    4  C4  UNL     1     -34.528  15.210  -3.720  1.00 20.00     0.040 C 
HETATM    5  O8  UNL     1     -32.616  16.159  -4.765  1.00 20.00    -0.391 OA
ENDROOT
BRANCH   4   6
HETATM    6  C7  UNL     1     -35.083  16.285  -2.786  1.00 20.00     0.124 C 
BRANCH   6   7
HETATM    7  C6  UNL     1     -34.177  16.489  -1.567  1.00 20.00     0.027 C 
HETATM    8  C5  UNL     1     -34.918  17.109  -0.389  1.00 20.00     0.007 C 
ENDBRANCH   6   7
BRANCH   6   9
HETATM    9  O9  UNL     1     -36.378  15.890  -2.337  1.00 20.00    -0.395 OA
HETATM   10  H23 UNL     1     -36.569  16.420  -1.549  1.00 20.00     0.210 HD
ENDBRANCH   6   9
ENDBRANCH   4   6
TORSDOF 3
ENDMDL
