MODEL 1
REMARK VINA RESULT:      -5.9      0.000      0.000
REMARK  2 active torsions:
REMARK  status: ('A' for Active; 'I' for Inactive)
REMARK    1  A    between atoms: C8_8  and  C11_11 
REMARK    2  A    between atoms: C10_10  and  C11_11 
ROOT
HETATM    1  C11 UNL     1     -32.512   6.585   3.529  1.00 20.00     0.046 C 
ENDROOT
BRANCH   1   2
HETATM    2  C8  UNL     1     -32.359   7.675   2.535  1.00 20.00    -0.076 A 
HETATM    3  C4  UNL     1     -31.808   7.613   1.312  1.00 20.00     0.003 A 
HETATM    4  C3  UNL     1     -31.870   8.911   0.692  1.00 20.00    -0.003 A 
HETATM    5  C5  UNL     1     -32.458   9.780   1.526  1.00 20.00    -0.022 A 
HETATM    6  C9  UNL     1     -32.834   9.078   2.799  1.00 20.00     0.061 A 
ENDBRANCH   1   2
BRANCH   1   7
HETATM    7  C10 UNL     1     -33.916   6.577   4.108  1.00 20.00     0.034 A 
HETATM    8  C6  UNL     1     -33.916   6.352   5.599  1.00 20.00    -0.018 A 
HETATM    9  C1  UNL     1     -34.612   5.242   5.885  1.00 20.00    -0.004 A 
HETATM   10  C2  UNL     1     -35.113   4.659   4.668  1.00 20.00    -0.004 A 
HETATM   11  C7  UNL     1     -34.728   5.404   3.622  1.00 20.00    -0.018 A 
ENDBRANCH   1   7
TORSDOF 2
ENDMDL
MODEL 2
REMARK VINA RESULT:      -5.3      1.134      1.835
REMARK  2 active torsions:
REMARK  status: ('A' for Active; 'I' for Inactive)
REMARK    1  A    between atoms: C8_8  and  C11_11 
REMARK    2  A    between atoms: C10_10  and  C11_11 
ROOT
HETATM    1  C11 UNL     1     -34.089   5.316   2.920  1.00 20.00     0.046 C 
ENDROOT
BRANCH   1   2
HETATM    2  C8  UNL     1     -33.057   6.381   2.935  1.00 20.00    -0.076 A 
HETATM    3  C4  UNL     1     -31.893   6.401   3.604  1.00 20.00     0.003 A 
HETATM    4  C3  UNL     1     -31.202   7.634   3.328  1.00 20.00    -0.003 A 
HETATM    5  C5  UNL     1     -31.934   8.381   2.489  1.00 20.00    -0.022 A 
HETATM    6  C9  UNL     1     -33.203   7.655   2.147  1.00 20.00     0.061 A 
ENDBRANCH   1   2
BRANCH   1   7
HETATM    7  C10 UNL     1     -35.033   5.463   4.100  1.00 20.00     0.034 A 
HETATM    8  C6  UNL     1     -34.439   6.298   5.206  1.00 20.00    -0.018 A 
HETATM    9  C1  UNL     1     -34.368   5.570   6.329  1.00 20.00    -0.004 A 
HETATM   10  C2  UNL     1     -34.884   4.250   6.082  1.00 20.00    -0.004 A 
HETATM   11  C7  UNL     1     -35.276   4.153   4.804  1.00 20.00    -0.018 A 
ENDBRANCH   1   7
TORSDOF 2
ENDMDL
MODEL 3
REMARK VINA RESULT:      -5.1     10.104     11.129
REMARK  2 active torsions:
REMARK  status: ('A' for Active; 'I' for Inactive)
REMARK    1  A    between atoms: C8_8  and  C11_11 
REMARK    2  A    between atoms: C10_10  and  C11_11 
ROOT
HETATM    1  C11 UNL     1     -33.755  16.241  -3.015  1.00 20.00     0.046 C 
ENDROOT
BRANCH   1   2
HETATM    2  C8  UNL     1     -33.962  16.951  -1.730  1.00 20.00    -0.076 A 
HETATM    3  C4  UNL     1     -34.712  16.573  -0.683  1.00 20.00     0.003 A 
HETATM    4  C3  UNL     1     -34.624  17.567   0.355  1.00 20.00    -0.003 A 
HETATM    5  C5  UNL     1     -33.821  18.563  -0.044  1.00 20.00    -0.022 A 
HETATM    6  C9  UNL     1     -33.309  18.273  -1.426  1.00 20.00     0.061 A 
ENDBRANCH   1   2
BRANCH   1   7
HETATM    7  C10 UNL     1     -34.392  14.864  -2.980  1.00 20.00     0.034 A 
HETATM    8  C6  UNL     1     -33.591  13.844  -3.750  1.00 20.00    -0.018 A 
HETATM    9  C1  UNL     1     -34.344  13.332  -4.733  1.00 20.00    -0.004 A 
HETATM   10  C2  UNL     1     -35.650  13.935  -4.705  1.00 20.00    -0.004 A 
HETATM   11  C7  UNL     1     -35.712  14.826  -3.705  1.00 20.00    -0.018 A 
ENDBRANCH   1   7
TORSDOF 2
ENDMDL
MODEL 4
REMARK VINA RESULT:      -5.0     10.084     11.300
REMARK  2 active torsions:
REMARK  status: ('A' for Active; 'I' for Inactive)
REMARK    1  A    between atoms: C8_8  and  C11_11 
REMARK    2  A    between atoms: C10_10  and  C11_11 
ROOT
HETATM    1  C11 UNL     1     -34.083  17.067  -2.803  1.00 20.00     0.046 C 
ENDROOT
BRANCH   1   2
HETATM    2  C8  UNL     1     -34.117  15.664  -3.280  1.00 20.00    -0.076 A 
HETATM    3  C4  UNL     1     -33.083  14.867  -3.594  1.00 20.00     0.003 A 
HETATM    4  C3  UNL     1     -33.578  13.582  -4.014  1.00 20.00    -0.003 A 
HETATM    5  C5  UNL     1     -34.917  13.577  -3.962  1.00 20.00    -0.022 A 
HETATM    6  C9  UNL     1     -35.406  14.915  -3.486  1.00 20.00     0.061 A 
ENDBRANCH   1   2
BRANCH   1   7
HETATM    7  C10 UNL     1     -33.629  17.134  -1.355  1.00 20.00     0.034 A 
HETATM    8  C6  UNL     1     -34.739  16.791  -0.393  1.00 20.00    -0.018 A 
HETATM    9  C1  UNL     1     -34.961  17.830   0.424  1.00 20.00    -0.004 A 
HETATM   10  C2  UNL     1     -34.062  18.904   0.095  1.00 20.00    -0.004 A 
HETATM   11  C7  UNL     1     -33.279  18.537  -0.930  1.00 20.00    -0.018 A 
ENDBRANCH   1   7
TORSDOF 2
ENDMDL
MODEL 5
REMARK VINA RESULT:      -5.0      0.647      4.977
REMARK  2 active torsions:
REMARK  status: ('A' for Active; 'I' for Inactive)
REMARK    1  A    between atoms: C8_8  and  C11_11 
REMARK    2  A    between atoms: C10_10  and  C11_11 
ROOT
HETATM    1  C11 UNL     1     -33.477   6.332   2.866  1.00 20.00     0.046 C 
ENDROOT
BRANCH   1   2
HETATM    2  C8  UNL     1     -33.969   5.958   4.214  1.00 20.00    -0.076 A 
HETATM    3  C4  UNL     1     -33.656   6.512   5.396  1.00 20.00     0.003 A 
HETATM    4  C3  UNL     1     -34.366   5.832   6.448  1.00 20.00    -0.003 A 
HETATM    5  C5  UNL     1     -35.120   4.856   5.923  1.00 20.00    -0.022 A 
HETATM    6  C9  UNL     1     -34.945   4.833   4.431  1.00 20.00     0.061 A 
ENDBRANCH   1   2
BRANCH   1   7
HETATM    7  C10 UNL     1     -32.535   7.520   2.946  1.00 20.00     0.034 A 
HETATM    8  C6  UNL     1     -33.245   8.830   2.715  1.00 20.00    -0.018 A 
HETATM    9  C1  UNL     1     -32.713   9.448   1.652  1.00 20.00    -0.004 A 
HETATM   10  C2  UNL     1     -31.651   8.643   1.107  1.00 20.00    -0.004 A 
HETATM   11  C7  UNL     1     -31.522   7.521   1.829  1.00 20.00    -0.018 A 
ENDBRANCH   1   7
TORSDOF 2
ENDMDL
MODEL 6
REMARK VINA RESULT:      -4.9     10.108     11.394
REMARK  2 active torsions:
REMARK  status: ('A' for Active; 'I' for Inactive)
REMARK    1  A    between atoms: C8_8  and  C11_11 
REMARK    2  A    between atoms: C10_10  and  C11_11 
ROOT
HETATM    1  C11 UNL     1     -33.558  16.156  -2.464  1.00 20.00     0.046 C 
ENDROOT
BRANCH   1   2
HETATM    2  C8  UNL     1     -34.435  15.192  -3.172  1.00 20.00    -0.076 A 
HETATM    3  C4  UNL     1     -35.746  15.303  -3.439  1.00 20.00     0.003 A 
HETATM    4  C3  UNL     1     -36.193  14.130  -4.145  1.00 20.00    -0.003 A 
HETATM    5  C5  UNL     1     -35.162  13.290  -4.318  1.00 20.00    -0.022 A 
HETATM    6  C9  UNL     1     -33.923  13.883  -3.710  1.00 20.00     0.061 A 
ENDBRANCH   1   2
BRANCH   1   7
HETATM    7  C10 UNL     1     -34.379  17.252  -1.808  1.00 20.00     0.034 A 
HETATM    8  C6  UNL     1     -33.603  18.537  -1.663  1.00 20.00    -0.018 A 
HETATM    9  C1  UNL     1     -33.525  18.869  -0.366  1.00 20.00    -0.004 A 
HETATM   10  C2  UNL     1     -34.210  17.883   0.427  1.00 20.00    -0.004 A 
HETATM   11  C7  UNL     1     -34.714  16.933  -0.373  1.00 20.00    -0.018 A 
ENDBRANCH   1   7
TORSDOF 2
ENDMDL
MODEL 7
REMARK VINA RESULT:      -4.8      1.089      4.870
REMARK  2 active torsions:
REMARK  status: ('A' for Active; 'I' for Inactive)
REMARK    1  A    between atoms: C8_8  and  C11_11 
REMARK    2  A    between atoms: C10_10  and  C11_11 
ROOT
HETATM    1  C11 UNL     1     -34.342   6.614   3.324  1.00 20.00     0.046 C 
ENDROOT
BRANCH   1   2
HETATM    2  C8  UNL     1     -34.546   5.707   4.479  1.00 20.00    -0.076 A 
HETATM    3  C4  UNL     1     -34.978   4.436   4.472  1.00 20.00     0.003 A 
HETATM    4  C3  UNL     1     -35.027   3.938   5.822  1.00 20.00    -0.003 A 
HETATM    5  C5  UNL     1     -34.628   4.897   6.669  1.00 20.00    -0.022 A 
HETATM    6  C9  UNL     1     -34.276   6.136   5.896  1.00 20.00     0.061 A 
ENDBRANCH   1   2
BRANCH   1   7
HETATM    7  C10 UNL     1     -32.903   6.560   2.844  1.00 20.00     0.034 A 
HETATM    8  C6  UNL     1     -31.922   6.881   3.943  1.00 20.00    -0.018 A 
HETATM    9  C1  UNL     1     -31.197   7.955   3.599  1.00 20.00    -0.004 A 
HETATM   10  C2  UNL     1     -31.611   8.421   2.302  1.00 20.00    -0.004 A 
HETATM   11  C7  UNL     1     -32.596   7.639   1.837  1.00 20.00    -0.018 A 
ENDBRANCH   1   7
TORSDOF 2
ENDMDL
MODEL 8
REMARK VINA RESULT:      -4.7      9.811     11.235
REMARK  2 active torsions:
REMARK  status: ('A' for Active; 'I' for Inactive)
REMARK    1  A    between atoms: C8_8  and  C11_11 
REMARK    2  A    between atoms: C10_10  and  C11_11 
ROOT
HETATM    1  C11 UNL     1     -42.518   4.067  -2.988  1.00 20.00     0.046 C 
ENDROOT
BRANCH   1   2
HETATM    2  C8  UNL     1     -41.882   5.069  -2.099  1.00 20.00    -0.076 A 
HETATM    3  C4  UNL     1     -41.943   6.407  -2.178  1.00 20.00     0.003 A 
HETATM    4  C3  UNL     1     -41.175   6.987  -1.107  1.00 20.00    -0.003 A 
HETATM    5  C5  UNL     1     -40.636   6.012  -0.362  1.00 20.00    -0.022 A 
HETATM    6  C9  UNL     1     -41.033   4.675  -0.920  1.00 20.00     0.061 A 
ENDBRANCH   1   2
BRANCH   1   7
HETATM    7  C10 UNL     1     -42.030   2.667  -2.660  1.00 20.00     0.034 A 
HETATM    8  C6  UNL     1     -41.227   2.063  -3.784  1.00 20.00    -0.018 A 
HETATM    9  C1  UNL     1     -41.820   0.936  -4.203  1.00 20.00    -0.004 A 
HETATM   10  C2  UNL     1     -43.012   0.701  -3.432  1.00 20.00    -0.004 A 
HETATM   11  C7  UNL     1     -43.165   1.683  -2.531  1.00 20.00    -0.018 A 
ENDBRANCH   1   7
TORSDOF 2
ENDMDL
MODEL 9
REMARK VINA RESULT:      -4.5     10.799     11.767
REMARK  2 active torsions:
REMARK  status: ('A' for Active; 'I' for Inactive)
REMARK    1  A    between atoms: C8_8  and  C11_11 
REMARK    2  A    between atoms: C10_10  and  C11_11 
ROOT
HETATM    1  C11 UNL     1     -34.464  16.642  -1.033  1.00 20.00     0.046 C 
ENDROOT
BRANCH   1   2
HETATM    2  C8  UNL     1     -34.022  16.627  -2.448  1.00 20.00    -0.076 A 
HETATM    3  C4  UNL     1     -33.407  15.639  -3.116  1.00 20.00     0.003 A 
HETATM    4  C3  UNL     1     -33.161  16.056  -4.472  1.00 20.00    -0.003 A 
HETATM    5  C5  UNL     1     -33.622  17.303  -4.649  1.00 20.00    -0.022 A 
HETATM    6  C9  UNL     1     -34.224  17.802  -3.367  1.00 20.00     0.061 A 
ENDBRANCH   1   2
BRANCH   1   7
HETATM    7  C10 UNL     1     -34.349  18.037  -0.446  1.00 20.00     0.034 A 
HETATM    8  C6  UNL     1     -32.915  18.445  -0.218  1.00 20.00    -0.018 A 
HETATM    9  C1  UNL     1     -32.724  18.707   1.082  1.00 20.00    -0.004 A 
HETATM   10  C2  UNL     1     -33.955  18.507   1.801  1.00 20.00    -0.004 A 
HETATM   11  C7  UNL     1     -34.915  18.119   0.949  1.00 20.00    -0.018 A 
ENDBRANCH   1   7
TORSDOF 2
ENDMDL
