MODEL 1
REMARK VINA RESULT:      -4.1      0.000      0.000
REMARK  3 active torsions:
REMARK  status: ('A' for Active; 'I' for Inactive)
REMARK    1  A    between atoms: C4_4  and  C7_7 
REMARK    2  A    between atoms: C6_6  and  C7_7 
REMARK    3  A    between atoms: C7_7  and  O9_9 
ROOT
HETATM    1  C1  UNL     1     -35.536  15.391  -3.001  1.00 20.00     0.035 C 
HETATM    2  C2  UNL     1     -34.928  16.393  -2.043  1.00 20.00     0.168 C 
HETATM    3  C3  UNL     1     -33.234  15.568  -3.414  1.00 20.00     0.174 C 
HETATM    4  C4  UNL     1     -34.341  14.530  -3.344  1.00 20.00     0.040 C 
HETATM    5  O8  UNL     1     -33.564  16.579  -2.448  1.00 20.00    -0.391 OA
ENDROOT
BRANCH   4   6
HETATM    6  C7  UNL     1     -34.500  13.721  -4.616  1.00 20.00     0.124 C 
BRANCH   6   7
HETATM    7  C6  UNL     1     -35.320  14.482  -5.664  1.00 20.00     0.027 C 
HETATM    8  C5  UNL     1     -34.489  14.882  -6.876  1.00 20.00     0.007 C 
ENDBRANCH   6   7
BRANCH   6   9
HETATM    9  O9  UNL     1     -35.165  12.496  -4.311  1.00 20.00    -0.395 OA
HETATM   10  H23 UNL     1     -35.324  12.502  -3.355  1.00 20.00     0.210 HD
ENDBRANCH   6   9
ENDBRANCH   4   6
TORSDOF 3
ENDMDL
MODEL 2
REMARK VINA RESULT:      -4.0      1.437      4.009
REMARK  3 active torsions:
REMARK  status: ('A' for Active; 'I' for Inactive)
REMARK    1  A    between atoms: C4_4  and  C7_7 
REMARK    2  A    between atoms: C6_6  and  C7_7 
REMARK    3  A    between atoms: C7_7  and  O9_9 
ROOT
HETATM    1  C1  UNL     1     -35.383  14.636  -3.575  1.00 20.00     0.035 C 
HETATM    2  C2  UNL     1     -35.210  13.391  -4.419  1.00 20.00     0.168 C 
HETATM    3  C3  UNL     1     -33.111  14.057  -3.659  1.00 20.00     0.174 C 
HETATM    4  C4  UNL     1     -34.017  15.276  -3.691  1.00 20.00     0.040 C 
HETATM    5  O8  UNL     1     -33.836  12.995  -4.299  1.00 20.00    -0.391 OA
ENDROOT
BRANCH   4   6
HETATM    6  C7  UNL     1     -33.712  16.292  -2.608  1.00 20.00     0.124 C 
BRANCH   6   7
HETATM    7  C6  UNL     1     -34.785  16.283  -1.513  1.00 20.00     0.027 C 
HETATM    8  C5  UNL     1     -34.444  17.211  -0.356  1.00 20.00     0.007 C 
ENDBRANCH   6   7
BRANCH   6   9
HETATM    9  O9  UNL     1     -33.658  17.594  -3.190  1.00 20.00    -0.395 OA
HETATM   10  H23 UNL     1     -33.675  18.224  -2.453  1.00 20.00     0.210 HD
ENDBRANCH   6   9
ENDBRANCH   4   6
TORSDOF 3
ENDMDL
MODEL 3
REMARK VINA RESULT:      -4.0      1.720      3.812
REMARK  3 active torsions:
REMARK  status: ('A' for Active; 'I' for Inactive)
REMARK    1  A    between atoms: C4_4  and  C7_7 
REMARK    2  A    between atoms: C6_6  and  C7_7 
REMARK    3  A    between atoms: C7_7  and  O9_9 
ROOT
HETATM    1  C1  UNL     1     -35.750  14.230  -4.082  1.00 20.00     0.035 C 
HETATM    2  C2  UNL     1     -34.941  13.093  -4.668  1.00 20.00     0.168 C 
HETATM    3  C3  UNL     1     -33.497  14.485  -3.484  1.00 20.00     0.174 C 
HETATM    4  C4  UNL     1     -34.697  15.305  -3.923  1.00 20.00     0.040 C 
HETATM    5  O8  UNL     1     -33.613  13.211  -4.137  1.00 20.00    -0.391 OA
ENDROOT
BRANCH   4   6
HETATM    6  C7  UNL     1     -35.073  16.406  -2.952  1.00 20.00     0.124 C 
BRANCH   6   7
HETATM    7  C6  UNL     1     -34.047  16.529  -1.820  1.00 20.00     0.027 C 
HETATM    8  C5  UNL     1     -34.694  16.853  -0.481  1.00 20.00     0.007 C 
ENDBRANCH   6   7
BRANCH   6   9
HETATM    9  O9  UNL     1     -36.350  16.116  -2.387  1.00 20.00    -0.395 OA
HETATM   10  H23 UNL     1     -36.247  15.293  -1.884  1.00 20.00     0.210 HD
ENDBRANCH   6   9
ENDBRANCH   4   6
TORSDOF 3
ENDMDL
MODEL 4
REMARK VINA RESULT:      -4.0      2.052      2.447
REMARK  3 active torsions:
REMARK  status: ('A' for Active; 'I' for Inactive)
REMARK    1  A    between atoms: C4_4  and  C7_7 
REMARK    2  A    between atoms: C6_6  and  C7_7 
REMARK    3  A    between atoms: C7_7  and  O9_9 
ROOT
HETATM    1  C1  UNL     1     -34.784  15.888  -1.870  1.00 20.00     0.035 C 
HETATM    2  C2  UNL     1     -34.801  17.075  -0.930  1.00 20.00     0.168 C 
HETATM    3  C3  UNL     1     -33.781  17.730  -2.920  1.00 20.00     0.174 C 
HETATM    4  C4  UNL     1     -33.617  16.228  -2.771  1.00 20.00     0.040 C 
HETATM    5  O8  UNL     1     -34.328  18.205  -1.679  1.00 20.00    -0.391 OA
ENDROOT
BRANCH   4   6
HETATM    6  C7  UNL     1     -33.612  15.480  -4.090  1.00 20.00     0.124 C 
BRANCH   6   7
HETATM    7  C6  UNL     1     -33.596  13.963  -3.873  1.00 20.00     0.027 C 
HETATM    8  C5  UNL     1     -34.722  13.257  -4.617  1.00 20.00     0.007 C 
ENDBRANCH   6   7
BRANCH   6   9
HETATM    9  O9  UNL     1     -32.452  15.851  -4.833  1.00 20.00    -0.395 OA
HETATM   10  H23 UNL     1     -31.732  15.943  -4.190  1.00 20.00     0.210 HD
ENDBRANCH   6   9
ENDBRANCH   4   6
TORSDOF 3
ENDMDL
MODEL 5
REMARK VINA RESULT:      -3.9     11.613     12.499
REMARK  3 active torsions:
REMARK  status: ('A' for Active; 'I' for Inactive)
REMARK    1  A    between atoms: C4_4  and  C7_7 
REMARK    2  A    between atoms: C6_6  and  C7_7 
REMARK    3  A    between atoms: C7_7  and  O9_9 
ROOT
HETATM    1  C1  UNL     1     -35.015   4.605   4.601  1.00 20.00     0.035 C 
HETATM    2  C2  UNL     1     -35.224   4.325   6.074  1.00 20.00     0.168 C 
HETATM    3  C3  UNL     1     -34.040   6.321   5.869  1.00 20.00     0.174 C 
HETATM    4  C4  UNL     1     -33.783   5.484   4.628  1.00 20.00     0.040 C 
HETATM    5  O8  UNL     1     -34.756   5.480   6.787  1.00 20.00    -0.391 OA
ENDROOT
BRANCH   4   6
HETATM    6  C7  UNL     1     -33.575   6.303   3.370  1.00 20.00     0.124 C 
BRANCH   6   7
HETATM    7  C6  UNL     1     -32.130   6.800   3.258  1.00 20.00     0.027 C 
HETATM    8  C5  UNL     1     -31.984   7.951   2.272  1.00 20.00     0.007 C 
ENDBRANCH   6   7
BRANCH   6   9
HETATM    9  O9  UNL     1     -34.450   7.430   3.396  1.00 20.00    -0.395 OA
HETATM   10  H23 UNL     1     -33.883   8.217   3.373  1.00 20.00     0.210 HD
ENDBRANCH   6   9
ENDBRANCH   4   6
TORSDOF 3
ENDMDL
MODEL 6
REMARK VINA RESULT:      -3.7      1.791      3.634
REMARK  3 active torsions:
REMARK  status: ('A' for Active; 'I' for Inactive)
REMARK    1  A    between atoms: C4_4  and  C7_7 
REMARK    2  A    between atoms: C6_6  and  C7_7 
REMARK    3  A    between atoms: C7_7  and  O9_9 
ROOT
HETATM    1  C1  UNL     1     -34.288  15.158  -6.139  1.00 20.00     0.035 C 
HETATM    2  C2  UNL     1     -34.857  15.900  -7.330  1.00 20.00     0.168 C 
HETATM    3  C3  UNL     1     -36.584  15.515  -5.815  1.00 20.00     0.174 C 
HETATM    4  C4  UNL     1     -35.516  14.456  -5.602  1.00 20.00     0.040 C 
HETATM    5  O8  UNL     1     -36.215  16.232  -7.003  1.00 20.00    -0.391 OA
ENDROOT
BRANCH   4   6
HETATM    6  C7  UNL     1     -35.390  13.996  -4.163  1.00 20.00     0.124 C 
BRANCH   6   7
HETATM    7  C6  UNL     1     -34.230  14.699  -3.450  1.00 20.00     0.027 C 
HETATM    8  C5  UNL     1     -34.708  15.716  -2.422  1.00 20.00     0.007 C 
ENDBRANCH   6   7
BRANCH   6   9
HETATM    9  O9  UNL     1     -35.160  12.588  -4.140  1.00 20.00    -0.395 OA
HETATM   10  H23 UNL     1     -35.817  12.213  -3.533  1.00 20.00     0.210 HD
ENDBRANCH   6   9
ENDBRANCH   4   6
TORSDOF 3
ENDMDL
MODEL 7
REMARK VINA RESULT:      -3.7     11.763     13.187
REMARK  3 active torsions:
REMARK  status: ('A' for Active; 'I' for Inactive)
REMARK    1  A    between atoms: C4_4  and  C7_7 
REMARK    2  A    between atoms: C6_6  and  C7_7 
REMARK    3  A    between atoms: C7_7  and  O9_9 
ROOT
HETATM    1  C1  UNL     1     -41.635   3.496  -2.530  1.00 20.00     0.035 C 
HETATM    2  C2  UNL     1     -42.806   3.126  -3.415  1.00 20.00     0.168 C 
HETATM    3  C3  UNL     1     -42.860   5.426  -3.053  1.00 20.00     0.174 C 
HETATM    4  C4  UNL     1     -42.126   4.778  -1.893  1.00 20.00     0.040 C 
HETATM    5  O8  UNL     1     -43.416   4.355  -3.833  1.00 20.00    -0.391 OA
ENDROOT
BRANCH   4   6
HETATM    6  C7  UNL     1     -41.027   5.642  -1.306  1.00 20.00     0.124 C 
BRANCH   6   7
HETATM    7  C6  UNL     1     -41.309   5.986   0.161  1.00 20.00     0.027 C 
HETATM    8  C5  UNL     1     -42.602   5.361   0.668  1.00 20.00     0.007 C 
ENDBRANCH   6   7
BRANCH   6   9
HETATM    9  O9  UNL     1     -40.934   6.852  -2.054  1.00 20.00    -0.395 OA
HETATM   10  H23 UNL     1     -41.279   7.555  -1.482  1.00 20.00     0.210 HD
ENDBRANCH   6   9
ENDBRANCH   4   6
TORSDOF 3
ENDMDL
MODEL 8
REMARK VINA RESULT:      -3.7     11.353     12.594
REMARK  3 active torsions:
REMARK  status: ('A' for Active; 'I' for Inactive)
REMARK    1  A    between atoms: C4_4  and  C7_7 
REMARK    2  A    between atoms: C6_6  and  C7_7 
REMARK    3  A    between atoms: C7_7  and  O9_9 
ROOT
HETATM    1  C1  UNL     1     -41.822   7.028  -2.027  1.00 20.00     0.035 C 
HETATM    2  C2  UNL     1     -42.401   7.563  -3.320  1.00 20.00     0.168 C 
HETATM    3  C3  UNL     1     -43.140   5.372  -3.038  1.00 20.00     0.174 C 
HETATM    4  C4  UNL     1     -41.834   5.536  -2.281  1.00 20.00     0.040 C 
HETATM    5  O8  UNL     1     -43.320   6.573  -3.804  1.00 20.00    -0.391 OA
ENDROOT
BRANCH   4   6
HETATM    6  C7  UNL     1     -41.745   4.691  -1.025  1.00 20.00     0.124 C 
BRANCH   6   7
HETATM    7  C6  UNL     1     -41.835   5.554   0.238  1.00 20.00     0.027 C 
HETATM    8  C5  UNL     1     -43.111   5.300   1.028  1.00 20.00     0.007 C 
ENDBRANCH   6   7
BRANCH   6   9
HETATM    9  O9  UNL     1     -40.502   3.992  -1.019  1.00 20.00    -0.395 OA
HETATM   10  H23 UNL     1     -40.656   3.164  -0.538  1.00 20.00     0.210 HD
ENDBRANCH   6   9
ENDBRANCH   4   6
TORSDOF 3
ENDMDL
MODEL 9
REMARK VINA RESULT:      -3.7      1.766      3.621
REMARK  3 active torsions:
REMARK  status: ('A' for Active; 'I' for Inactive)
REMARK    1  A    between atoms: C4_4  and  C7_7 
REMARK    2  A    between atoms: C6_6  and  C7_7 
REMARK    3  A    between atoms: C7_7  and  O9_9 
ROOT
HETATM    1  C1  UNL     1     -34.326  14.867  -6.227  1.00 20.00     0.035 C 
HETATM    2  C2  UNL     1     -35.577  15.023  -7.065  1.00 20.00     0.168 C 
HETATM    3  C3  UNL     1     -36.217  14.621  -4.861  1.00 20.00     0.174 C 
HETATM    4  C4  UNL     1     -34.834  14.031  -5.072  1.00 20.00     0.040 C 
HETATM    5  O8  UNL     1     -36.688  15.028  -6.156  1.00 20.00    -0.391 OA
ENDROOT
BRANCH   4   6
HETATM    6  C7  UNL     1     -33.955  14.077  -3.838  1.00 20.00     0.124 C 
BRANCH   6   7
HETATM    7  C6  UNL     1     -33.282  15.445  -3.680  1.00 20.00     0.027 C 
HETATM    8  C5  UNL     1     -33.805  16.217  -2.477  1.00 20.00     0.007 C 
ENDBRANCH   6   7
BRANCH   6   9
HETATM    9  O9  UNL     1     -32.945  13.076  -3.945  1.00 20.00    -0.395 OA
HETATM   10  H23 UNL     1     -33.374  12.231  -3.739  1.00 20.00     0.210 HD
ENDBRANCH   6   9
ENDBRANCH   4   6
TORSDOF 3
ENDMDL
