MODEL 1
REMARK VINA RESULT:      -4.4      0.000      0.000
REMARK  3 active torsions:
REMARK  status: ('A' for Active; 'I' for Inactive)
REMARK    1  A    between atoms: C4_4  and  C7_7 
REMARK    2  A    between atoms: C6_6  and  C7_7 
REMARK    3  A    between atoms: C7_7  and  O9_9 
ROOT
HETATM    1  C1  UNL     1     -34.883   4.416   4.689  1.00 20.00     0.035 C 
HETATM    2  C2  UNL     1     -35.162   4.439   6.178  1.00 20.00     0.168 C 
HETATM    3  C3  UNL     1     -33.917   6.331   5.635  1.00 20.00     0.174 C 
HETATM    4  C4  UNL     1     -34.670   5.884   4.394  1.00 20.00     0.040 C 
HETATM    5  O8  UNL     1     -34.418   5.538   6.722  1.00 20.00    -0.391 OA
ENDROOT
BRANCH   4   6
HETATM    6  C7  UNL     1     -33.930   6.157   3.099  1.00 20.00     0.124 C 
BRANCH   6   7
HETATM    7  C6  UNL     1     -32.458   6.496   3.355  1.00 20.00     0.027 C 
HETATM    8  C5  UNL     1     -31.990   7.703   2.553  1.00 20.00     0.007 C 
ENDBRANCH   6   7
BRANCH   6   9
HETATM    9  O9  UNL     1     -34.000   4.998   2.269  1.00 20.00    -0.395 OA
HETATM   10  H23 UNL     1     -34.925   4.709   2.279  1.00 20.00     0.210 HD
ENDBRANCH   6   9
ENDBRANCH   4   6
TORSDOF 3
ENDMDL
MODEL 2
REMARK VINA RESULT:      -4.0      1.039      1.157
REMARK  3 active torsions:
REMARK  status: ('A' for Active; 'I' for Inactive)
REMARK    1  A    between atoms: C4_4  and  C7_7 
REMARK    2  A    between atoms: C6_6  and  C7_7 
REMARK    3  A    between atoms: C7_7  and  O9_9 
ROOT
HETATM    1  C1  UNL     1     -34.575   4.962   4.174  1.00 20.00     0.035 C 
HETATM    2  C2  UNL     1     -35.161   5.005   5.570  1.00 20.00     0.168 C 
HETATM    3  C3  UNL     1     -33.440   6.570   5.448  1.00 20.00     0.174 C 
HETATM    4  C4  UNL     1     -33.982   6.348   4.047  1.00 20.00     0.040 C 
HETATM    5  O8  UNL     1     -34.330   5.883   6.342  1.00 20.00    -0.391 OA
ENDROOT
BRANCH   4   6
HETATM    6  C7  UNL     1     -32.935   6.479   2.958  1.00 20.00     0.124 C 
BRANCH   6   7
HETATM    7  C6  UNL     1     -32.197   7.818   3.049  1.00 20.00     0.027 C 
HETATM    8  C5  UNL     1     -32.061   8.503   1.696  1.00 20.00     0.007 C 
ENDBRANCH   6   7
BRANCH   6   9
HETATM    9  O9  UNL     1     -31.989   5.419   3.091  1.00 20.00    -0.395 OA
HETATM   10  H23 UNL     1     -32.135   4.824   2.339  1.00 20.00     0.210 HD
ENDBRANCH   6   9
ENDBRANCH   4   6
TORSDOF 3
ENDMDL
MODEL 3
REMARK VINA RESULT:      -4.0     11.619     12.523
REMARK  3 active torsions:
REMARK  status: ('A' for Active; 'I' for Inactive)
REMARK    1  A    between atoms: C4_4  and  C7_7 
REMARK    2  A    between atoms: C6_6  and  C7_7 
REMARK    3  A    between atoms: C7_7  and  O9_9 
ROOT
HETATM    1  C1  UNL     1     -35.574  14.651  -3.941  1.00 20.00     0.035 C 
HETATM    2  C2  UNL     1     -35.133  13.238  -4.263  1.00 20.00     0.168 C 
HETATM    3  C3  UNL     1     -33.247  14.486  -3.703  1.00 20.00     0.174 C 
HETATM    4  C4  UNL     1     -34.455  15.124  -3.039  1.00 20.00     0.040 C 
HETATM    5  O8  UNL     1     -33.698  13.240  -4.257  1.00 20.00    -0.391 OA
ENDROOT
BRANCH   4   6
HETATM    6  C7  UNL     1     -34.357  16.631  -2.908  1.00 20.00     0.124 C 
BRANCH   6   7
HETATM    7  C6  UNL     1     -33.750  17.038  -1.562  1.00 20.00     0.027 C 
HETATM    8  C5  UNL     1     -34.733  16.887  -0.409  1.00 20.00     0.007 C 
ENDBRANCH   6   7
BRANCH   6   9
HETATM    9  O9  UNL     1     -33.535  17.137  -3.959  1.00 20.00    -0.395 OA
HETATM   10  H23 UNL     1     -32.641  16.797  -3.796  1.00 20.00     0.210 HD
ENDBRANCH   6   9
ENDBRANCH   4   6
TORSDOF 3
ENDMDL
MODEL 4
REMARK VINA RESULT:      -4.0     11.411     13.263
REMARK  3 active torsions:
REMARK  status: ('A' for Active; 'I' for Inactive)
REMARK    1  A    between atoms: C4_4  and  C7_7 
REMARK    2  A    between atoms: C6_6  and  C7_7 
REMARK    3  A    between atoms: C7_7  and  O9_9 
ROOT
HETATM    1  C1  UNL     1     -35.149  14.427  -6.916  1.00 20.00     0.035 C 
HETATM    2  C2  UNL     1     -36.201  15.478  -7.204  1.00 20.00     0.168 C 
HETATM    3  C3  UNL     1     -36.444  14.785  -4.994  1.00 20.00     0.174 C 
HETATM    4  C4  UNL     1     -35.005  14.541  -5.414  1.00 20.00     0.040 C 
HETATM    5  O8  UNL     1     -37.055  15.538  -6.053  1.00 20.00    -0.391 OA
ENDROOT
BRANCH   4   6
HETATM    6  C7  UNL     1     -34.372  13.331  -4.756  1.00 20.00     0.124 C 
BRANCH   6   7
HETATM    7  C6  UNL     1     -33.332  13.742  -3.709  1.00 20.00     0.027 C 
HETATM    8  C5  UNL     1     -33.016  15.232  -3.754  1.00 20.00     0.007 C 
ENDBRANCH   6   7
BRANCH   6   9
HETATM    9  O9  UNL     1     -35.391  12.561  -4.119  1.00 20.00    -0.395 OA
HETATM   10  H23 UNL     1     -34.936  11.874  -3.608  1.00 20.00     0.210 HD
ENDBRANCH   6   9
ENDBRANCH   4   6
TORSDOF 3
ENDMDL
MODEL 5
REMARK VINA RESULT:      -4.0     11.776     12.629
REMARK  3 active torsions:
REMARK  status: ('A' for Active; 'I' for Inactive)
REMARK    1  A    between atoms: C4_4  and  C7_7 
REMARK    2  A    between atoms: C6_6  and  C7_7 
REMARK    3  A    between atoms: C7_7  and  O9_9 
ROOT
HETATM    1  C1  UNL     1     -33.729  15.410  -3.333  1.00 20.00     0.035 C 
HETATM    2  C2  UNL     1     -33.849  16.485  -2.273  1.00 20.00     0.168 C 
HETATM    3  C3  UNL     1     -35.990  15.938  -3.008  1.00 20.00     0.174 C 
HETATM    4  C4  UNL     1     -35.084  14.743  -3.249  1.00 20.00     0.040 C 
HETATM    5  O8  UNL     1     -35.229  16.877  -2.233  1.00 20.00    -0.391 OA
ENDROOT
BRANCH   4   6
HETATM    6  C7  UNL     1     -35.456  13.931  -4.474  1.00 20.00     0.124 C 
BRANCH   6   7
HETATM    7  C6  UNL     1     -34.544  14.259  -5.660  1.00 20.00     0.027 C 
HETATM    8  C5  UNL     1     -35.317  14.421  -6.962  1.00 20.00     0.007 C 
ENDBRANCH   6   7
BRANCH   6   9
HETATM    9  O9  UNL     1     -35.334  12.542  -4.167  1.00 20.00    -0.395 OA
HETATM   10  H23 UNL     1     -34.681  12.475  -3.454  1.00 20.00     0.210 HD
ENDBRANCH   6   9
ENDBRANCH   4   6
TORSDOF 3
ENDMDL
MODEL 6
REMARK VINA RESULT:      -3.9     12.099     12.995
REMARK  3 active torsions:
REMARK  status: ('A' for Active; 'I' for Inactive)
REMARK    1  A    between atoms: C4_4  and  C7_7 
REMARK    2  A    between atoms: C6_6  and  C7_7 
REMARK    3  A    between atoms: C7_7  and  O9_9 
ROOT
HETATM    1  C1  UNL     1     -34.405  16.346  -1.669  1.00 20.00     0.035 C 
HETATM    2  C2  UNL     1     -35.441  17.451  -1.686  1.00 20.00     0.168 C 
HETATM    3  C3  UNL     1     -34.466  17.326  -3.798  1.00 20.00     0.174 C 
HETATM    4  C4  UNL     1     -34.335  15.967  -3.132  1.00 20.00     0.040 C 
HETATM    5  O8  UNL     1     -35.321  18.113  -2.953  1.00 20.00    -0.391 OA
ENDROOT
BRANCH   4   6
HETATM    6  C7  UNL     1     -33.077  15.215  -3.520  1.00 20.00     0.124 C 
BRANCH   6   7
HETATM    7  C6  UNL     1     -33.371  13.736  -3.791  1.00 20.00     0.027 C 
HETATM    8  C5  UNL     1     -34.835  13.485  -4.131  1.00 20.00     0.007 C 
ENDBRANCH   6   7
BRANCH   6   9
HETATM    9  O9  UNL     1     -32.529  15.801  -4.699  1.00 20.00    -0.395 OA
HETATM   10  H23 UNL     1     -33.259  15.878  -5.333  1.00 20.00     0.210 HD
ENDBRANCH   6   9
ENDBRANCH   4   6
TORSDOF 3
ENDMDL
MODEL 7
REMARK VINA RESULT:      -3.8      1.769      2.603
REMARK  3 active torsions:
REMARK  status: ('A' for Active; 'I' for Inactive)
REMARK    1  A    between atoms: C4_4  and  C7_7 
REMARK    2  A    between atoms: C6_6  and  C7_7 
REMARK    3  A    between atoms: C7_7  and  O9_9 
ROOT
HETATM    1  C1  UNL     1     -33.535   6.443   4.960  1.00 20.00     0.035 C 
HETATM    2  C2  UNL     1     -34.682   5.456   5.032  1.00 20.00     0.168 C 
HETATM    3  C3  UNL     1     -34.017   5.647   2.808  1.00 20.00     0.174 C 
HETATM    4  C4  UNL     1     -32.835   6.008   3.691  1.00 20.00     0.040 C 
HETATM    5  O8  UNL     1     -35.033   5.129   3.680  1.00 20.00    -0.391 OA
ENDROOT
BRANCH   4   6
HETATM    6  C7  UNL     1     -31.923   7.061   3.092  1.00 20.00     0.124 C 
BRANCH   6   7
HETATM    7  C6  UNL     1     -32.713   8.085   2.271  1.00 20.00     0.027 C 
HETATM    8  C5  UNL     1     -31.891   8.681   1.136  1.00 20.00     0.007 C 
ENDBRANCH   6   7
BRANCH   6   9
HETATM    9  O9  UNL     1     -31.239   7.739   4.145  1.00 20.00    -0.395 OA
HETATM   10  H23 UNL     1     -31.901   7.917   4.832  1.00 20.00     0.210 HD
ENDBRANCH   6   9
ENDBRANCH   4   6
TORSDOF 3
ENDMDL
MODEL 8
REMARK VINA RESULT:      -3.7     12.301     13.666
REMARK  3 active torsions:
REMARK  status: ('A' for Active; 'I' for Inactive)
REMARK    1  A    between atoms: C4_4  and  C7_7 
REMARK    2  A    between atoms: C6_6  and  C7_7 
REMARK    3  A    between atoms: C7_7  and  O9_9 
ROOT
HETATM    1  C1  UNL     1     -34.000  16.019  -6.409  1.00 20.00     0.035 C 
HETATM    2  C2  UNL     1     -34.823  15.197  -7.380  1.00 20.00     0.168 C 
HETATM    3  C3  UNL     1     -34.677  14.030  -5.369  1.00 20.00     0.174 C 
HETATM    4  C4  UNL     1     -34.499  15.509  -5.075  1.00 20.00     0.040 C 
HETATM    5  O8  UNL     1     -35.071  13.933  -6.747  1.00 20.00    -0.391 OA
ENDROOT
BRANCH   4   6
HETATM    6  C7  UNL     1     -33.568  15.794  -3.913  1.00 20.00     0.124 C 
BRANCH   6   7
HETATM    7  C6  UNL     1     -34.286  15.636  -2.569  1.00 20.00     0.027 C 
HETATM    8  C5  UNL     1     -34.003  16.791  -1.617  1.00 20.00     0.007 C 
ENDBRANCH   6   7
BRANCH   6   9
HETATM    9  O9  UNL     1     -32.471  14.883  -3.961  1.00 20.00    -0.395 OA
HETATM   10  H23 UNL     1     -32.460  14.513  -4.858  1.00 20.00     0.210 HD
ENDBRANCH   6   9
ENDBRANCH   4   6
TORSDOF 3
ENDMDL
MODEL 9
REMARK VINA RESULT:      -3.7     11.629     12.762
REMARK  3 active torsions:
REMARK  status: ('A' for Active; 'I' for Inactive)
REMARK    1  A    between atoms: C4_4  and  C7_7 
REMARK    2  A    between atoms: C6_6  and  C7_7 
REMARK    3  A    between atoms: C7_7  and  O9_9 
ROOT
HETATM    1  C1  UNL     1     -34.289  15.032  -3.089  1.00 20.00     0.035 C 
HETATM    2  C2  UNL     1     -33.206  14.147  -3.669  1.00 20.00     0.168 C 
HETATM    3  C3  UNL     1     -35.272  13.327  -4.364  1.00 20.00     0.174 C 
HETATM    4  C4  UNL     1     -35.423  14.809  -4.066  1.00 20.00     0.040 C 
HETATM    5  O8  UNL     1     -33.867  13.040  -4.299  1.00 20.00    -0.391 OA
ENDROOT
BRANCH   4   6
HETATM    6  C7  UNL     1     -36.789  15.189  -3.530  1.00 20.00     0.124 C 
BRANCH   6   7
HETATM    7  C6  UNL     1     -37.323  16.457  -4.204  1.00 20.00     0.027 C 
HETATM    8  C5  UNL     1     -36.789  16.633  -5.620  1.00 20.00     0.007 C 
ENDBRANCH   6   7
BRANCH   6   9
HETATM    9  O9  UNL     1     -37.700  14.118  -3.773  1.00 20.00    -0.395 OA
HETATM   10  H23 UNL     1     -37.541  13.824  -4.683  1.00 20.00     0.210 HD
ENDBRANCH   6   9
ENDBRANCH   4   6
TORSDOF 3
ENDMDL
