MODEL 1
REMARK VINA RESULT:      -5.1      0.000      0.000
REMARK  4 active torsions:
REMARK  status: ('A' for Active; 'I' for Inactive)
REMARK    1  A    between atoms: C2_2  and  C3_3 
REMARK    2  A    between atoms: C3_3  and  C5_5 
REMARK    3  A    between atoms: C5_5  and  C6_6 
REMARK    4  A    between atoms: C6_6  and  C7_7 
ROOT
HETATM    1  C3  UNL     1     -34.227   5.737   3.976  1.00 20.00     0.154 C 
HETATM    2  O8  UNL     1     -35.246   5.736   3.282  1.00 20.00    -0.293 OA
ENDROOT
BRANCH   1   3
HETATM    3  C2  UNL     1     -34.346   5.504   5.456  1.00 20.00    -0.025 C 
HETATM    4  C1  UNL     1     -34.034   6.456   6.347  1.00 20.00     0.022 C 
HETATM    5  C4  UNL     1     -34.835   4.151   5.883  1.00 20.00     0.051 C 
ENDBRANCH   1   3
BRANCH   1   6
HETATM    6  C5  UNL     1     -32.849   5.973   3.369  1.00 20.00     0.084 C 
BRANCH   6   7
HETATM    7  C6  UNL     1     -32.471   7.457   3.352  1.00 20.00     0.023 C 
BRANCH   7   8
HETATM    8  C7  UNL     1     -32.003   7.945   1.985  1.00 20.00     0.115 C 
HETATM    9 CL9  UNL     1     -32.516   9.617   1.659  1.00 20.00    -0.130 Cl
ENDBRANCH   7   8
ENDBRANCH   6   7
ENDBRANCH   1   6
TORSDOF 4
ENDMDL
MODEL 2
REMARK VINA RESULT:      -5.0      0.086      1.174
REMARK  4 active torsions:
REMARK  status: ('A' for Active; 'I' for Inactive)
REMARK    1  A    between atoms: C2_2  and  C3_3 
REMARK    2  A    between atoms: C3_3  and  C5_5 
REMARK    3  A    between atoms: C5_5  and  C6_6 
REMARK    4  A    between atoms: C6_6  and  C7_7 
ROOT
HETATM    1  C3  UNL     1     -34.298   5.696   3.943  1.00 20.00     0.154 C 
HETATM    2  O8  UNL     1     -35.321   5.781   3.262  1.00 20.00    -0.293 OA
ENDROOT
BRANCH   1   3
HETATM    3  C2  UNL     1     -34.414   5.360   5.404  1.00 20.00    -0.025 C 
HETATM    4  C1  UNL     1     -34.820   4.151   5.819  1.00 20.00     0.022 C 
HETATM    5  C4  UNL     1     -34.050   6.447   6.372  1.00 20.00     0.051 C 
ENDBRANCH   1   3
BRANCH   1   6
HETATM    6  C5  UNL     1     -32.917   5.927   3.341  1.00 20.00     0.084 C 
BRANCH   6   7
HETATM    7  C6  UNL     1     -32.516   7.405   3.363  1.00 20.00     0.023 C 
BRANCH   7   8
HETATM    8  C7  UNL     1     -32.005   7.912   2.019  1.00 20.00     0.115 C 
HETATM    9 CL9  UNL     1     -32.539   9.576   1.685  1.00 20.00    -0.130 Cl
ENDBRANCH   7   8
ENDBRANCH   6   7
ENDBRANCH   1   6
TORSDOF 4
ENDMDL
MODEL 3
REMARK VINA RESULT:      -4.8      1.347      1.627
REMARK  4 active torsions:
REMARK  status: ('A' for Active; 'I' for Inactive)
REMARK    1  A    between atoms: C2_2  and  C3_3 
REMARK    2  A    between atoms: C3_3  and  C5_5 
REMARK    3  A    between atoms: C5_5  and  C6_6 
REMARK    4  A    between atoms: C6_6  and  C7_7 
ROOT
HETATM    1  C3  UNL     1     -33.549   6.180   4.616  1.00 20.00     0.154 C 
HETATM    2  O8  UNL     1     -33.235   6.837   5.611  1.00 20.00    -0.293 OA
ENDROOT
BRANCH   1   3
HETATM    3  C2  UNL     1     -34.764   5.295   4.675  1.00 20.00    -0.025 C 
HETATM    4  C1  UNL     1     -35.753   5.396   3.775  1.00 20.00     0.022 C 
HETATM    5  C4  UNL     1     -34.809   4.293   5.791  1.00 20.00     0.051 C 
ENDBRANCH   1   3
BRANCH   1   6
HETATM    6  C5  UNL     1     -32.735   6.241   3.330  1.00 20.00     0.084 C 
BRANCH   6   7
HETATM    7  C6  UNL     1     -31.940   7.545   3.210  1.00 20.00     0.023 C 
BRANCH   7   8
HETATM    8  C7  UNL     1     -31.954   8.133   1.804  1.00 20.00     0.115 C 
HETATM    9 CL9  UNL     1     -32.586   9.796   1.780  1.00 20.00    -0.130 Cl
ENDBRANCH   7   8
ENDBRANCH   6   7
ENDBRANCH   1   6
TORSDOF 4
ENDMDL
MODEL 4
REMARK VINA RESULT:      -4.6      1.267      1.852
REMARK  4 active torsions:
REMARK  status: ('A' for Active; 'I' for Inactive)
REMARK    1  A    between atoms: C2_2  and  C3_3 
REMARK    2  A    between atoms: C3_3  and  C5_5 
REMARK    3  A    between atoms: C5_5  and  C6_6 
REMARK    4  A    between atoms: C6_6  and  C7_7 
ROOT
HETATM    1  C3  UNL     1     -35.050   5.463   3.870  1.00 20.00     0.154 C 
HETATM    2  O8  UNL     1     -36.214   5.781   3.621  1.00 20.00    -0.293 OA
ENDROOT
BRANCH   1   3
HETATM    3  C2  UNL     1     -34.655   5.180   5.294  1.00 20.00    -0.025 C 
HETATM    4  C1  UNL     1     -34.722   3.945   5.810  1.00 20.00     0.022 C 
HETATM    5  C4  UNL     1     -34.181   6.352   6.102  1.00 20.00     0.051 C 
ENDBRANCH   1   3
BRANCH   1   6
HETATM    6  C5  UNL     1     -34.000   5.354   2.772  1.00 20.00     0.084 C 
BRANCH   6   7
HETATM    7  C6  UNL     1     -32.613   5.796   3.251  1.00 20.00     0.023 C 
BRANCH   7   8
HETATM    8  C7  UNL     1     -32.277   7.235   2.879  1.00 20.00     0.115 C 
HETATM    9 CL9  UNL     1     -31.145   7.977   4.033  1.00 20.00    -0.130 Cl
ENDBRANCH   7   8
ENDBRANCH   6   7
ENDBRANCH   1   6
TORSDOF 4
ENDMDL
MODEL 5
REMARK VINA RESULT:      -4.4      3.039      5.008
REMARK  4 active torsions:
REMARK  status: ('A' for Active; 'I' for Inactive)
REMARK    1  A    between atoms: C2_2  and  C3_3 
REMARK    2  A    between atoms: C3_3  and  C5_5 
REMARK    3  A    between atoms: C5_5  and  C6_6 
REMARK    4  A    between atoms: C6_6  and  C7_7 
ROOT
HETATM    1  C3  UNL     1     -32.056   7.572   2.915  1.00 20.00     0.154 C 
HETATM    2  O8  UNL     1     -31.247   7.757   3.825  1.00 20.00    -0.293 OA
ENDROOT
BRANCH   1   3
HETATM    3  C2  UNL     1     -32.128   8.561   1.784  1.00 20.00    -0.025 C 
HETATM    4  C1  UNL     1     -31.648   8.274   0.565  1.00 20.00     0.022 C 
HETATM    5  C4  UNL     1     -32.767   9.883   2.091  1.00 20.00     0.051 C 
ENDBRANCH   1   3
BRANCH   1   6
HETATM    6  C5  UNL     1     -32.988   6.367   2.908  1.00 20.00     0.084 C 
BRANCH   6   7
HETATM    7  C6  UNL     1     -33.959   6.380   4.093  1.00 20.00     0.023 C 
BRANCH   7   8
HETATM    8  C7  UNL     1     -34.901   5.180   4.115  1.00 20.00     0.115 C 
HETATM    9 CL9  UNL     1     -35.002   4.439   5.729  1.00 20.00    -0.130 Cl
ENDBRANCH   7   8
ENDBRANCH   6   7
ENDBRANCH   1   6
TORSDOF 4
ENDMDL
MODEL 6
REMARK VINA RESULT:      -4.3      2.333      4.264
REMARK  4 active torsions:
REMARK  status: ('A' for Active; 'I' for Inactive)
REMARK    1  A    between atoms: C2_2  and  C3_3 
REMARK    2  A    between atoms: C3_3  and  C5_5 
REMARK    3  A    between atoms: C5_5  and  C6_6 
REMARK    4  A    between atoms: C6_6  and  C7_7 
ROOT
HETATM    1  C3  UNL     1     -32.820   6.291   3.216  1.00 20.00     0.154 C 
HETATM    2  O8  UNL     1     -32.371   5.209   2.834  1.00 20.00    -0.293 OA
ENDROOT
BRANCH   1   3
HETATM    3  C2  UNL     1     -31.958   7.520   3.118  1.00 20.00    -0.025 C 
HETATM    4  C1  UNL     1     -31.132   7.882   4.110  1.00 20.00     0.022 C 
HETATM    5  C4  UNL     1     -32.071   8.316   1.852  1.00 20.00     0.051 C 
ENDBRANCH   1   3
BRANCH   1   6
HETATM    6  C5  UNL     1     -34.227   6.414   3.788  1.00 20.00     0.084 C 
BRANCH   6   7
HETATM    7  C6  UNL     1     -34.710   5.106   4.422  1.00 20.00     0.023 C 
BRANCH   7   8
HETATM    8  C7  UNL     1     -34.683   5.127   5.946  1.00 20.00     0.115 C 
HETATM    9 CL9  UNL     1     -34.015   6.648   6.582  1.00 20.00    -0.130 Cl
ENDBRANCH   7   8
ENDBRANCH   6   7
ENDBRANCH   1   6
TORSDOF 4
ENDMDL
MODEL 7
REMARK VINA RESULT:      -4.3      2.338      4.282
REMARK  4 active torsions:
REMARK  status: ('A' for Active; 'I' for Inactive)
REMARK    1  A    between atoms: C2_2  and  C3_3 
REMARK    2  A    between atoms: C3_3  and  C5_5 
REMARK    3  A    between atoms: C5_5  and  C6_6 
REMARK    4  A    between atoms: C6_6  and  C7_7 
ROOT
HETATM    1  C3  UNL     1     -32.845   6.298   3.216  1.00 20.00     0.154 C 
HETATM    2  O8  UNL     1     -32.379   5.205   2.890  1.00 20.00    -0.293 OA
ENDROOT
BRANCH   1   3
HETATM    3  C2  UNL     1     -32.010   7.536   3.035  1.00 20.00    -0.025 C 
HETATM    4  C1  UNL     1     -32.081   8.275   1.919  1.00 20.00     0.022 C 
HETATM    5  C4  UNL     1     -31.098   7.899   4.169  1.00 20.00     0.051 C 
ENDBRANCH   1   3
BRANCH   1   6
HETATM    6  C5  UNL     1     -34.246   6.425   3.801  1.00 20.00     0.084 C 
BRANCH   6   7
HETATM    7  C6  UNL     1     -34.728   5.118   4.438  1.00 20.00     0.023 C 
BRANCH   7   8
HETATM    8  C7  UNL     1     -34.705   5.145   5.963  1.00 20.00     0.115 C 
HETATM    9 CL9  UNL     1     -34.010   6.655   6.595  1.00 20.00    -0.130 Cl
ENDBRANCH   7   8
ENDBRANCH   6   7
ENDBRANCH   1   6
TORSDOF 4
ENDMDL
MODEL 8
REMARK VINA RESULT:      -4.2     11.175     12.186
REMARK  4 active torsions:
REMARK  status: ('A' for Active; 'I' for Inactive)
REMARK    1  A    between atoms: C2_2  and  C3_3 
REMARK    2  A    between atoms: C3_3  and  C5_5 
REMARK    3  A    between atoms: C5_5  and  C6_6 
REMARK    4  A    between atoms: C6_6  and  C7_7 
ROOT
HETATM    1  C3  UNL     1     -34.564  13.782  -4.624  1.00 20.00     0.154 C 
HETATM    2  O8  UNL     1     -35.047  12.671  -4.398  1.00 20.00    -0.293 OA
ENDROOT
BRANCH   1   3
HETATM    3  C2  UNL     1     -35.121  14.609  -5.749  1.00 20.00    -0.025 C 
HETATM    4  C1  UNL     1     -34.388  14.913  -6.830  1.00 20.00     0.022 C 
HETATM    5  C4  UNL     1     -36.539  15.075  -5.599  1.00 20.00     0.051 C 
ENDBRANCH   1   3
BRANCH   1   6
HETATM    6  C5  UNL     1     -33.414  14.337  -3.792  1.00 20.00     0.084 C 
BRANCH   6   7
HETATM    7  C6  UNL     1     -33.711  15.742  -3.259  1.00 20.00     0.023 C 
BRANCH   7   8
HETATM    8  C7  UNL     1     -34.902  15.788  -2.308  1.00 20.00     0.115 C 
HETATM    9 CL9  UNL     1     -34.498  16.580  -0.767  1.00 20.00    -0.130 Cl
ENDBRANCH   7   8
ENDBRANCH   6   7
ENDBRANCH   1   6
TORSDOF 4
ENDMDL
MODEL 9
REMARK VINA RESULT:      -4.0     11.393     12.158
REMARK  4 active torsions:
REMARK  status: ('A' for Active; 'I' for Inactive)
REMARK    1  A    between atoms: C2_2  and  C3_3 
REMARK    2  A    between atoms: C3_3  and  C5_5 
REMARK    3  A    between atoms: C5_5  and  C6_6 
REMARK    4  A    between atoms: C6_6  and  C7_7 
ROOT
HETATM    1  C3  UNL     1     -35.179  13.952  -3.943  1.00 20.00     0.154 C 
HETATM    2  O8  UNL     1     -34.876  12.771  -4.123  1.00 20.00    -0.293 OA
ENDROOT
BRANCH   1   3
HETATM    3  C2  UNL     1     -34.175  14.879  -3.316  1.00 20.00    -0.025 C 
HETATM    4  C1  UNL     1     -32.885  14.874  -3.683  1.00 20.00     0.022 C 
HETATM    5  C4  UNL     1     -34.693  15.810  -2.259  1.00 20.00     0.051 C 
ENDBRANCH   1   3
BRANCH   1   6
HETATM    6  C5  UNL     1     -36.546  14.494  -4.338  1.00 20.00     0.084 C 
BRANCH   6   7
HETATM    7  C6  UNL     1     -36.471  15.426  -5.551  1.00 20.00     0.023 C 
BRANCH   7   8
HETATM    8  C7  UNL     1     -35.923  14.746  -6.801  1.00 20.00     0.115 C 
HETATM    9 CL9  UNL     1     -34.240  15.216  -7.135  1.00 20.00    -0.130 Cl
ENDBRANCH   7   8
ENDBRANCH   6   7
ENDBRANCH   1   6
TORSDOF 4
ENDMDL
