MODEL 1
REMARK VINA RESULT:      -4.6      0.000      0.000
REMARK  1 active torsions:
REMARK  status: ('A' for Active; 'I' for Inactive)
REMARK    1  A    between atoms: C1_1  and  C4_4 
ROOT
HETATM    1  C1  UNL     1     -33.471   6.262   4.399  1.00 20.00     0.172 C 
HETATM    2  C2  UNL     1     -34.547   5.852   6.341  1.00 20.00     0.160 C 
HETATM    3  C3  UNL     1     -35.109   4.724   5.491  1.00 20.00     0.103 C 
HETATM    4  N5  UNL     1     -33.373   6.454   5.673  1.00 20.00    -0.278 NA
HETATM    5  S9  UNL     1     -34.807   5.306   3.812  1.00 20.00    -0.104 SA
ENDROOT
BRANCH   1   6
HETATM    6  C4  UNL     1     -32.484   6.777   3.409  1.00 20.00     0.440 C 
HETATM    7  F6  UNL     1     -31.933   5.770   2.696  1.00 20.00    -0.164 F 
HETATM    8  F7  UNL     1     -33.065   7.626   2.532  1.00 20.00    -0.164 F 
HETATM    9  F8  UNL     1     -31.478   7.445   4.016  1.00 20.00    -0.164 F 
ENDBRANCH   1   6
TORSDOF 1
ENDMDL
MODEL 2
REMARK VINA RESULT:      -4.6      0.013      1.260
REMARK  1 active torsions:
REMARK  status: ('A' for Active; 'I' for Inactive)
REMARK    1  A    between atoms: C1_1  and  C4_4 
ROOT
HETATM    1  C1  UNL     1     -33.479   6.254   4.406  1.00 20.00     0.172 C 
HETATM    2  C2  UNL     1     -34.552   5.845   6.349  1.00 20.00     0.160 C 
HETATM    3  C3  UNL     1     -35.117   4.718   5.499  1.00 20.00     0.103 C 
HETATM    4  N5  UNL     1     -33.379   6.445   5.680  1.00 20.00    -0.278 NA
HETATM    5  S9  UNL     1     -34.817   5.300   3.821  1.00 20.00    -0.104 SA
ENDROOT
BRANCH   1   6
HETATM    6  C4  UNL     1     -32.492   6.769   3.415  1.00 20.00     0.440 C 
HETATM    7  F6  UNL     1     -31.488   7.437   4.024  1.00 20.00    -0.164 F 
HETATM    8  F7  UNL     1     -31.938   5.761   2.705  1.00 20.00    -0.164 F 
HETATM    9  F8  UNL     1     -33.071   7.616   2.535  1.00 20.00    -0.164 F 
ENDBRANCH   1   6
TORSDOF 1
ENDMDL
MODEL 3
REMARK VINA RESULT:      -3.9      3.229      3.913
REMARK  1 active torsions:
REMARK  status: ('A' for Active; 'I' for Inactive)
REMARK    1  A    between atoms: C1_1  and  C4_4 
ROOT
HETATM    1  C1  UNL     1     -34.280   5.471   4.885  1.00 20.00     0.172 C 
HETATM    2  C2  UNL     1     -34.305   5.463   2.628  1.00 20.00     0.160 C 
HETATM    3  C3  UNL     1     -32.951   6.110   2.870  1.00 20.00     0.103 C 
HETATM    4  N5  UNL     1     -34.807   4.855   3.879  1.00 20.00    -0.278 NA
HETATM    5  S9  UNL     1     -33.096   6.709   4.563  1.00 20.00    -0.104 SA
ENDROOT
BRANCH   1   6
HETATM    6  C4  UNL     1     -34.600   5.151   6.305  1.00 20.00     0.440 C 
HETATM    7  F6  UNL     1     -33.603   4.448   6.886  1.00 20.00    -0.164 F 
HETATM    8  F7  UNL     1     -34.781   6.276   7.033  1.00 20.00    -0.164 F 
HETATM    9  F8  UNL     1     -35.729   4.416   6.405  1.00 20.00    -0.164 F 
ENDBRANCH   1   6
TORSDOF 1
ENDMDL
MODEL 4
REMARK VINA RESULT:      -3.8     11.847     12.960
REMARK  1 active torsions:
REMARK  status: ('A' for Active; 'I' for Inactive)
REMARK    1  A    between atoms: C1_1  and  C4_4 
ROOT
HETATM    1  C1  UNL     1     -33.833  15.089  -4.846  1.00 20.00     0.172 C 
HETATM    2  C2  UNL     1     -33.467  17.264  -5.327  1.00 20.00     0.160 C 
HETATM    3  C3  UNL     1     -34.574  16.961  -6.324  1.00 20.00     0.103 C 
HETATM    4  N5  UNL     1     -33.376  16.181  -4.326  1.00 20.00    -0.278 NA
HETATM    5  S9  UNL     1     -34.510  15.164  -6.451  1.00 20.00    -0.104 SA
ENDROOT
BRANCH   1   6
HETATM    6  C4  UNL     1     -33.849  13.781  -4.133  1.00 20.00     0.440 C 
HETATM    7  F6  UNL     1     -34.707  13.801  -3.089  1.00 20.00    -0.164 F 
HETATM    8  F7  UNL     1     -34.233  12.779  -4.955  1.00 20.00    -0.164 F 
HETATM    9  F8  UNL     1     -32.626  13.466  -3.650  1.00 20.00    -0.164 F 
ENDBRANCH   1   6
TORSDOF 1
ENDMDL
MODEL 5
REMARK VINA RESULT:      -3.8     11.843     12.969
REMARK  1 active torsions:
REMARK  status: ('A' for Active; 'I' for Inactive)
REMARK    1  A    between atoms: C1_1  and  C4_4 
ROOT
HETATM    1  C1  UNL     1     -33.836  15.083  -4.848  1.00 20.00     0.172 C 
HETATM    2  C2  UNL     1     -33.472  17.256  -5.337  1.00 20.00     0.160 C 
HETATM    3  C3  UNL     1     -34.586  16.951  -6.326  1.00 20.00     0.103 C 
HETATM    4  N5  UNL     1     -33.376  16.175  -4.333  1.00 20.00    -0.278 NA
HETATM    5  S9  UNL     1     -34.524  15.154  -6.448  1.00 20.00    -0.104 SA
ENDROOT
BRANCH   1   6
HETATM    6  C4  UNL     1     -33.849  13.776  -4.131  1.00 20.00     0.440 C 
HETATM    7  F6  UNL     1     -32.623  13.468  -3.653  1.00 20.00    -0.164 F 
HETATM    8  F7  UNL     1     -34.701  13.799  -3.082  1.00 20.00    -0.164 F 
HETATM    9  F8  UNL     1     -34.234  12.769  -4.946  1.00 20.00    -0.164 F 
ENDBRANCH   1   6
TORSDOF 1
ENDMDL
MODEL 6
REMARK VINA RESULT:      -3.8     11.874     13.020
REMARK  1 active torsions:
REMARK  status: ('A' for Active; 'I' for Inactive)
REMARK    1  A    between atoms: C1_1  and  C4_4 
ROOT
HETATM    1  C1  UNL     1     -33.960  15.104  -4.810  1.00 20.00     0.172 C 
HETATM    2  C2  UNL     1     -34.345  16.662  -6.398  1.00 20.00     0.160 C 
HETATM    3  C3  UNL     1     -33.526  17.487  -5.417  1.00 20.00     0.103 C 
HETATM    4  N5  UNL     1     -34.232  15.225  -6.068  1.00 20.00    -0.278 NA
HETATM    5  S9  UNL     1     -33.691  16.556  -3.884  1.00 20.00    -0.104 SA
ENDROOT
BRANCH   1   6
HETATM    6  C4  UNL     1     -33.823  13.790  -4.120  1.00 20.00     0.440 C 
HETATM    7  F6  UNL     1     -32.565  13.607  -3.661  1.00 20.00    -0.164 F 
HETATM    8  F7  UNL     1     -34.659  13.702  -3.061  1.00 20.00    -0.164 F 
HETATM    9  F8  UNL     1     -34.108  12.763  -4.950  1.00 20.00    -0.164 F 
ENDBRANCH   1   6
TORSDOF 1
ENDMDL
MODEL 7
REMARK VINA RESULT:      -3.8     11.888     12.956
REMARK  1 active torsions:
REMARK  status: ('A' for Active; 'I' for Inactive)
REMARK    1  A    between atoms: C1_1  and  C4_4 
ROOT
HETATM    1  C1  UNL     1     -34.198  14.676  -5.103  1.00 20.00     0.172 C 
HETATM    2  C2  UNL     1     -35.475  14.368  -6.939  1.00 20.00     0.160 C 
HETATM    3  C3  UNL     1     -34.592  15.507  -7.425  1.00 20.00     0.103 C 
HETATM    4  N5  UNL     1     -34.911  13.782  -5.705  1.00 20.00    -0.278 NA
HETATM    5  S9  UNL     1     -33.984  16.220  -5.887  1.00 20.00    -0.104 SA
ENDROOT
BRANCH   1   6
HETATM    6  C4  UNL     1     -33.517  14.446  -3.798  1.00 20.00     0.440 C 
HETATM    7  F6  UNL     1     -34.394  14.497  -2.771  1.00 20.00    -0.164 F 
HETATM    8  F7  UNL     1     -32.920  13.234  -3.763  1.00 20.00    -0.164 F 
HETATM    9  F8  UNL     1     -32.564  15.376  -3.567  1.00 20.00    -0.164 F 
ENDBRANCH   1   6
TORSDOF 1
ENDMDL
MODEL 8
REMARK VINA RESULT:      -3.8     11.888     12.936
REMARK  1 active torsions:
REMARK  status: ('A' for Active; 'I' for Inactive)
REMARK    1  A    between atoms: C1_1  and  C4_4 
ROOT
HETATM    1  C1  UNL     1     -34.198  14.677  -5.103  1.00 20.00     0.172 C 
HETATM    2  C2  UNL     1     -35.478  14.367  -6.936  1.00 20.00     0.160 C 
HETATM    3  C3  UNL     1     -34.597  15.507  -7.424  1.00 20.00     0.103 C 
HETATM    4  N5  UNL     1     -34.911  13.782  -5.703  1.00 20.00    -0.278 NA
HETATM    5  S9  UNL     1     -33.986  16.220  -5.886  1.00 20.00    -0.104 SA
ENDROOT
BRANCH   1   6
HETATM    6  C4  UNL     1     -33.514  14.447  -3.799  1.00 20.00     0.440 C 
HETATM    7  F6  UNL     1     -32.926  13.231  -3.761  1.00 20.00    -0.164 F 
HETATM    8  F7  UNL     1     -32.551  15.371  -3.580  1.00 20.00    -0.164 F 
HETATM    9  F8  UNL     1     -34.383  14.513  -2.766  1.00 20.00    -0.164 F 
ENDBRANCH   1   6
TORSDOF 1
ENDMDL
MODEL 9
REMARK VINA RESULT:      -3.8     11.626     12.460
REMARK  1 active torsions:
REMARK  status: ('A' for Active; 'I' for Inactive)
REMARK    1  A    between atoms: C1_1  and  C4_4 
ROOT
HETATM    1  C1  UNL     1     -33.814  15.377  -3.703  1.00 20.00     0.172 C 
HETATM    2  C2  UNL     1     -33.897  17.296  -2.516  1.00 20.00     0.160 C 
HETATM    3  C3  UNL     1     -34.001  17.858  -3.926  1.00 20.00     0.103 C 
HETATM    4  N5  UNL     1     -34.125  15.835  -2.535  1.00 20.00    -0.278 NA
HETATM    5  S9  UNL     1     -33.343  16.518  -4.935  1.00 20.00    -0.104 SA
ENDROOT
BRANCH   1   6
HETATM    6  C4  UNL     1     -33.877  13.933  -4.064  1.00 20.00     0.440 C 
HETATM    7  F6  UNL     1     -34.041  13.767  -5.395  1.00 20.00    -0.164 F 
HETATM    8  F7  UNL     1     -32.742  13.289  -3.712  1.00 20.00    -0.164 F 
HETATM    9  F8  UNL     1     -34.906  13.312  -3.446  1.00 20.00    -0.164 F 
ENDBRANCH   1   6
TORSDOF 1
ENDMDL
