MODEL 1
REMARK VINA RESULT:      -5.1      0.000      0.000
REMARK  2 active torsions:
REMARK  status: ('A' for Active; 'I' for Inactive)
REMARK    1  A    between atoms: C2_2  and  C3_3 
REMARK    2  A    between atoms: C2_2  and  C4_4 
ROOT
HETATM    1  C2  UNL     1     -33.859   6.166   4.563  1.00 20.00     0.154 C 
ENDROOT
BRANCH   1   2
HETATM    2  C3  UNL     1     -34.784   4.955   4.624  1.00 20.00     0.174 C 
HETATM    3  C1  UNL     1     -35.005   4.481   6.049  1.00 20.00     0.045 C 
HETATM    4  F5  UNL     1     -35.996   5.304   4.107  1.00 20.00    -0.250 F 
ENDBRANCH   1   2
BRANCH   1   5
HETATM    5  C4  UNL     1     -33.087   6.226   3.262  1.00 20.00     0.390 C 
HETATM    6  F6  UNL     1     -31.831   5.761   3.437  1.00 20.00    -0.171 F 
HETATM    7  F7  UNL     1     -32.994   7.490   2.799  1.00 20.00    -0.171 F 
HETATM    8  F8  UNL     1     -33.674   5.474   2.307  1.00 20.00    -0.171 F 
ENDBRANCH   1   5
TORSDOF 2
ENDMDL
MODEL 2
REMARK VINA RESULT:      -5.1      0.012      1.333
REMARK  2 active torsions:
REMARK  status: ('A' for Active; 'I' for Inactive)
REMARK    1  A    between atoms: C2_2  and  C3_3 
REMARK    2  A    between atoms: C2_2  and  C4_4 
ROOT
HETATM    1  C2  UNL     1     -33.861   6.163   4.556  1.00 20.00     0.154 C 
ENDROOT
BRANCH   1   2
HETATM    2  C3  UNL     1     -34.787   4.953   4.625  1.00 20.00     0.174 C 
HETATM    3  C1  UNL     1     -35.004   4.485   6.053  1.00 20.00     0.045 C 
HETATM    4  F5  UNL     1     -35.999   5.300   4.109  1.00 20.00    -0.250 F 
ENDBRANCH   1   2
BRANCH   1   5
HETATM    5  C4  UNL     1     -33.084   6.211   3.258  1.00 20.00     0.390 C 
HETATM    6  F6  UNL     1     -32.995   7.482   2.807  1.00 20.00    -0.171 F 
HETATM    7  F7  UNL     1     -33.680   5.476   2.296  1.00 20.00    -0.171 F 
HETATM    8  F8  UNL     1     -31.827   5.746   3.420  1.00 20.00    -0.171 F 
ENDBRANCH   1   5
TORSDOF 2
ENDMDL
MODEL 3
REMARK VINA RESULT:      -5.1      0.117      1.349
REMARK  2 active torsions:
REMARK  status: ('A' for Active; 'I' for Inactive)
REMARK    1  A    between atoms: C2_2  and  C3_3 
REMARK    2  A    between atoms: C2_2  and  C4_4 
ROOT
HETATM    1  C2  UNL     1     -33.811   6.138   4.474  1.00 20.00     0.154 C 
ENDROOT
BRANCH   1   2
HETATM    2  C3  UNL     1     -34.794   4.974   4.535  1.00 20.00     0.174 C 
HETATM    3  C1  UNL     1     -35.020   4.495   5.957  1.00 20.00     0.045 C 
HETATM    4  F5  UNL     1     -35.993   5.388   4.037  1.00 20.00    -0.250 F 
ENDBRANCH   1   2
BRANCH   1   5
HETATM    5  C4  UNL     1     -33.034   6.159   3.174  1.00 20.00     0.390 C 
HETATM    6  F6  UNL     1     -33.662   5.415   2.237  1.00 20.00    -0.171 F 
HETATM    7  F7  UNL     1     -31.793   5.656   3.332  1.00 20.00    -0.171 F 
HETATM    8  F8  UNL     1     -32.918   7.414   2.691  1.00 20.00    -0.171 F 
ENDBRANCH   1   5
TORSDOF 2
ENDMDL
MODEL 4
REMARK VINA RESULT:      -5.1      1.362      3.488
REMARK  2 active torsions:
REMARK  status: ('A' for Active; 'I' for Inactive)
REMARK    1  A    between atoms: C2_2  and  C3_3 
REMARK    2  A    between atoms: C2_2  and  C4_4 
ROOT
HETATM    1  C2  UNL     1     -33.836   5.577   4.865  1.00 20.00     0.154 C 
ENDROOT
BRANCH   1   2
HETATM    2  C3  UNL     1     -33.729   6.141   3.452  1.00 20.00     0.174 C 
HETATM    3  C1  UNL     1     -32.348   6.704   3.168  1.00 20.00     0.045 C 
HETATM    4  F5  UNL     1     -33.962   5.136   2.561  1.00 20.00    -0.250 F 
ENDBRANCH   1   2
BRANCH   1   5
HETATM    5  C4  UNL     1     -35.118   4.798   5.070  1.00 20.00     0.390 C 
HETATM    6  F6  UNL     1     -35.542   4.915   6.348  1.00 20.00    -0.171 F 
HETATM    7  F7  UNL     1     -34.945   3.485   4.815  1.00 20.00    -0.171 F 
HETATM    8  F8  UNL     1     -36.104   5.254   4.269  1.00 20.00    -0.171 F 
ENDBRANCH   1   5
TORSDOF 2
ENDMDL
MODEL 5
REMARK VINA RESULT:      -5.0      1.378      3.438
REMARK  2 active torsions:
REMARK  status: ('A' for Active; 'I' for Inactive)
REMARK    1  A    between atoms: C2_2  and  C3_3 
REMARK    2  A    between atoms: C2_2  and  C4_4 
ROOT
HETATM    1  C2  UNL     1     -33.830   5.546   4.863  1.00 20.00     0.154 C 
ENDROOT
BRANCH   1   2
HETATM    2  C3  UNL     1     -33.727   6.108   3.449  1.00 20.00     0.174 C 
HETATM    3  C1  UNL     1     -32.342   6.654   3.154  1.00 20.00     0.045 C 
HETATM    4  F5  UNL     1     -33.979   5.105   2.561  1.00 20.00    -0.250 F 
ENDBRANCH   1   2
BRANCH   1   5
HETATM    5  C4  UNL     1     -35.123   4.790   5.082  1.00 20.00     0.390 C 
HETATM    6  F6  UNL     1     -34.951   3.475   4.823  1.00 20.00    -0.171 F 
HETATM    7  F7  UNL     1     -36.103   5.242   4.273  1.00 20.00    -0.171 F 
HETATM    8  F8  UNL     1     -35.549   4.903   6.358  1.00 20.00    -0.171 F 
ENDBRANCH   1   5
TORSDOF 2
ENDMDL
MODEL 6
REMARK VINA RESULT:      -4.8      2.040      3.663
REMARK  2 active torsions:
REMARK  status: ('A' for Active; 'I' for Inactive)
REMARK    1  A    between atoms: C2_2  and  C3_3 
REMARK    2  A    between atoms: C2_2  and  C4_4 
ROOT
HETATM    1  C2  UNL     1     -34.404   5.124   4.628  1.00 20.00     0.154 C 
ENDROOT
BRANCH   1   2
HETATM    2  C3  UNL     1     -33.578   6.353   4.261  1.00 20.00     0.174 C 
HETATM    3  C1  UNL     1     -32.526   6.038   3.213  1.00 20.00     0.045 C 
HETATM    4  F5  UNL     1     -34.411   7.300   3.745  1.00 20.00    -0.250 F 
ENDBRANCH   1   2
BRANCH   1   5
HETATM    5  C4  UNL     1     -34.602   4.998   6.124  1.00 20.00     0.390 C 
HETATM    6  F6  UNL     1     -33.585   4.302   6.678  1.00 20.00    -0.171 F 
HETATM    7  F7  UNL     1     -35.749   4.352   6.418  1.00 20.00    -0.171 F 
HETATM    8  F8  UNL     1     -34.640   6.210   6.718  1.00 20.00    -0.171 F 
ENDBRANCH   1   5
TORSDOF 2
ENDMDL
MODEL 7
REMARK VINA RESULT:      -4.7      2.026      3.652
REMARK  2 active torsions:
REMARK  status: ('A' for Active; 'I' for Inactive)
REMARK    1  A    between atoms: C2_2  and  C3_3 
REMARK    2  A    between atoms: C2_2  and  C4_4 
ROOT
HETATM    1  C2  UNL     1     -34.482   5.130   4.603  1.00 20.00     0.154 C 
ENDROOT
BRANCH   1   2
HETATM    2  C3  UNL     1     -33.636   6.352   4.259  1.00 20.00     0.174 C 
HETATM    3  C1  UNL     1     -32.556   6.027   3.243  1.00 20.00     0.045 C 
HETATM    4  F5  UNL     1     -34.446   7.305   3.717  1.00 20.00    -0.250 F 
ENDBRANCH   1   2
BRANCH   1   5
HETATM    5  C4  UNL     1     -34.626   4.941   6.098  1.00 20.00     0.390 C 
HETATM    6  F6  UNL     1     -34.687   6.139   6.721  1.00 20.00    -0.171 F 
HETATM    7  F7  UNL     1     -33.579   4.264   6.614  1.00 20.00    -0.171 F 
HETATM    8  F8  UNL     1     -35.753   4.263   6.402  1.00 20.00    -0.171 F 
ENDBRANCH   1   5
TORSDOF 2
ENDMDL
MODEL 8
REMARK VINA RESULT:      -4.7      1.720      2.533
REMARK  2 active torsions:
REMARK  status: ('A' for Active; 'I' for Inactive)
REMARK    1  A    between atoms: C2_2  and  C3_3 
REMARK    2  A    between atoms: C2_2  and  C4_4 
ROOT
HETATM    1  C2  UNL     1     -34.144   6.338   4.433  1.00 20.00     0.154 C 
ENDROOT
BRANCH   1   2
HETATM    2  C3  UNL     1     -34.023   5.954   5.904  1.00 20.00     0.174 C 
HETATM    3  C1  UNL     1     -33.562   7.121   6.759  1.00 20.00     0.045 C 
HETATM    4  F5  UNL     1     -35.248   5.564   6.356  1.00 20.00    -0.250 F 
ENDBRANCH   1   2
BRANCH   1   5
HETATM    5  C4  UNL     1     -34.912   5.303   3.637  1.00 20.00     0.390 C 
HETATM    6  F6  UNL     1     -34.930   4.122   4.293  1.00 20.00    -0.171 F 
HETATM    7  F7  UNL     1     -34.350   5.092   2.429  1.00 20.00    -0.171 F 
HETATM    8  F8  UNL     1     -36.192   5.684   3.442  1.00 20.00    -0.171 F 
ENDBRANCH   1   5
TORSDOF 2
ENDMDL
MODEL 9
REMARK VINA RESULT:      -4.6      1.418      3.413
REMARK  2 active torsions:
REMARK  status: ('A' for Active; 'I' for Inactive)
REMARK    1  A    between atoms: C2_2  and  C3_3 
REMARK    2  A    between atoms: C2_2  and  C4_4 
ROOT
HETATM    1  C2  UNL     1     -33.823   6.432   3.942  1.00 20.00     0.154 C 
ENDROOT
BRANCH   1   2
HETATM    2  C3  UNL     1     -32.667   6.466   2.947  1.00 20.00     0.174 C 
HETATM    3  C1  UNL     1     -32.089   7.862   2.796  1.00 20.00     0.045 C 
HETATM    4  F5  UNL     1     -31.675   5.651   3.404  1.00 20.00    -0.250 F 
ENDBRANCH   1   2
BRANCH   1   5
HETATM    5  C4  UNL     1     -34.820   5.339   3.617  1.00 20.00     0.390 C 
HETATM    6  F6  UNL     1     -34.487   4.726   2.459  1.00 20.00    -0.171 F 
HETATM    7  F7  UNL     1     -36.067   5.833   3.475  1.00 20.00    -0.171 F 
HETATM    8  F8  UNL     1     -34.849   4.398   4.584  1.00 20.00    -0.171 F 
ENDBRANCH   1   5
TORSDOF 2
ENDMDL
