MODEL 1
REMARK VINA RESULT:      -4.0      0.000      0.000
REMARK  1 active torsions:
REMARK  status: ('A' for Active; 'I' for Inactive)
REMARK    1  A    between atoms: C4_4  and  C6_6 
ROOT
HETATM    1  C1  UNL     1     -35.154  13.186  -4.457  1.00 20.00     0.135 A 
HETATM    2  C2  UNL     1     -36.011  14.192  -4.067  1.00 20.00     0.136 A 
HETATM    3  C3  UNL     1     -33.388  14.356  -3.595  1.00 20.00     0.144 A 
HETATM    4  C4  UNL     1     -34.246  15.363  -3.207  1.00 20.00     0.065 A 
HETATM    5  N7  UNL     1     -33.827  13.250  -4.227  1.00 20.00    -0.270 NA
HETATM    6  N8  UNL     1     -35.571  15.299  -3.436  1.00 20.00    -0.261 NA
ENDROOT
BRANCH   4   7
HETATM    7  C6  UNL     1     -33.724  16.572  -2.511  1.00 20.00     0.107 C 
HETATM    8  C5  UNL     1     -33.852  17.840  -3.313  1.00 20.00     0.029 C 
HETATM    9 BR9  UNL     1     -34.633  16.792  -0.784  1.00 20.00    -0.085 Br
ENDBRANCH   4   7
TORSDOF 1
ENDMDL
MODEL 2
REMARK VINA RESULT:      -3.9      1.232      1.289
REMARK  1 active torsions:
REMARK  status: ('A' for Active; 'I' for Inactive)
REMARK    1  A    between atoms: C4_4  and  C6_6 
ROOT
HETATM    1  C1  UNL     1     -34.891  13.171  -5.429  1.00 20.00     0.135 A 
HETATM    2  C2  UNL     1     -34.765  14.415  -6.007  1.00 20.00     0.136 A 
HETATM    3  C3  UNL     1     -34.226  14.038  -3.419  1.00 20.00     0.144 A 
HETATM    4  C4  UNL     1     -34.100  15.282  -3.998  1.00 20.00     0.065 A 
HETATM    5  N7  UNL     1     -34.624  12.960  -4.124  1.00 20.00    -0.270 NA
HETATM    6  N8  UNL     1     -34.367  15.493  -5.301  1.00 20.00    -0.261 NA
ENDROOT
BRANCH   4   7
HETATM    7  C6  UNL     1     -33.657  16.451  -3.188  1.00 20.00     0.107 C 
HETATM    8  C5  UNL     1     -33.815  17.774  -3.889  1.00 20.00     0.029 C 
HETATM    9 BR9  UNL     1     -34.632  16.489  -1.484  1.00 20.00    -0.085 Br
ENDBRANCH   4   7
TORSDOF 1
ENDMDL
MODEL 3
REMARK VINA RESULT:      -3.8      0.918      1.605
REMARK  1 active torsions:
REMARK  status: ('A' for Active; 'I' for Inactive)
REMARK    1  A    between atoms: C4_4  and  C6_6 
ROOT
HETATM    1  C1  UNL     1     -35.173  13.417  -4.355  1.00 20.00     0.135 A 
HETATM    2  C2  UNL     1     -33.820  13.632  -4.208  1.00 20.00     0.136 A 
HETATM    3  C3  UNL     1     -35.604  15.344  -3.202  1.00 20.00     0.144 A 
HETATM    4  C4  UNL     1     -34.251  15.558  -3.054  1.00 20.00     0.065 A 
HETATM    5  N7  UNL     1     -36.090  14.270  -3.855  1.00 20.00    -0.270 NA
HETATM    6  N8  UNL     1     -33.335  14.706  -3.554  1.00 20.00    -0.261 NA
ENDROOT
BRANCH   4   7
HETATM    7  C6  UNL     1     -33.752  16.757  -2.325  1.00 20.00     0.107 C 
HETATM    8  C5  UNL     1     -33.881  18.041  -3.102  1.00 20.00     0.029 C 
HETATM    9 BR9  UNL     1     -34.686  16.931  -0.607  1.00 20.00    -0.085 Br
ENDBRANCH   4   7
TORSDOF 1
ENDMDL
MODEL 4
REMARK VINA RESULT:      -3.7      3.018      3.877
REMARK  1 active torsions:
REMARK  status: ('A' for Active; 'I' for Inactive)
REMARK    1  A    between atoms: C4_4  and  C6_6 
ROOT
HETATM    1  C1  UNL     1     -34.060  13.685  -3.413  1.00 20.00     0.135 A 
HETATM    2  C2  UNL     1     -33.625  14.935  -3.796  1.00 20.00     0.136 A 
HETATM    3  C3  UNL     1     -34.897  13.334  -5.512  1.00 20.00     0.144 A 
HETATM    4  C4  UNL     1     -34.464  14.585  -5.894  1.00 20.00     0.065 A 
HETATM    5  N7  UNL     1     -34.703  12.861  -4.265  1.00 20.00    -0.270 NA
HETATM    6  N8  UNL     1     -33.820  15.408  -5.043  1.00 20.00    -0.261 NA
ENDROOT
BRANCH   4   7
HETATM    7  C6  UNL     1     -34.697  15.074  -7.282  1.00 20.00     0.107 C 
HETATM    8  C5  UNL     1     -35.948  14.530  -7.918  1.00 20.00     0.029 C 
HETATM    9 BR9  UNL     1     -34.751  17.036  -7.297  1.00 20.00    -0.085 Br
ENDBRANCH   4   7
TORSDOF 1
ENDMDL
MODEL 5
REMARK VINA RESULT:      -3.5      2.321      3.618
REMARK  1 active torsions:
REMARK  status: ('A' for Active; 'I' for Inactive)
REMARK    1  A    between atoms: C4_4  and  C6_6 
ROOT
HETATM    1  C1  UNL     1     -38.421  16.223  -3.428  1.00 20.00     0.135 A 
HETATM    2  C2  UNL     1     -38.398  14.895  -3.795  1.00 20.00     0.136 A 
HETATM    3  C3  UNL     1     -36.144  16.202  -3.212  1.00 20.00     0.144 A 
HETATM    4  C4  UNL     1     -36.122  14.874  -3.578  1.00 20.00     0.065 A 
HETATM    5  N7  UNL     1     -37.294  16.901  -3.131  1.00 20.00    -0.270 NA
HETATM    6  N8  UNL     1     -37.247  14.196  -3.875  1.00 20.00    -0.261 NA
ENDROOT
BRANCH   4   7
HETATM    7  C6  UNL     1     -34.831  14.134  -3.656  1.00 20.00     0.107 C 
HETATM    8  C5  UNL     1     -34.721  13.225  -4.851  1.00 20.00     0.029 C 
HETATM    9 BR9  UNL     1     -33.333  15.403  -3.654  1.00 20.00    -0.085 Br
ENDBRANCH   4   7
TORSDOF 1
ENDMDL
MODEL 6
REMARK VINA RESULT:      -3.5      2.453      3.212
REMARK  1 active torsions:
REMARK  status: ('A' for Active; 'I' for Inactive)
REMARK    1  A    between atoms: C4_4  and  C6_6 
ROOT
HETATM    1  C1  UNL     1     -38.793  15.445  -3.570  1.00 20.00     0.135 A 
HETATM    2  C2  UNL     1     -38.167  16.621  -3.219  1.00 20.00     0.136 A 
HETATM    3  C3  UNL     1     -36.755  14.443  -3.844  1.00 20.00     0.144 A 
HETATM    4  C4  UNL     1     -36.129  15.620  -3.494  1.00 20.00     0.065 A 
HETATM    5  N7  UNL     1     -38.097  14.335  -3.888  1.00 20.00    -0.270 NA
HETATM    6  N8  UNL     1     -36.824  16.730  -3.176  1.00 20.00    -0.261 NA
ENDROOT
BRANCH   4   7
HETATM    7  C6  UNL     1     -34.643  15.703  -3.457  1.00 20.00     0.107 C 
HETATM    8  C5  UNL     1     -34.095  16.260  -2.170  1.00 20.00     0.029 C 
HETATM    9 BR9  UNL     1     -33.867  13.931  -3.790  1.00 20.00    -0.085 Br
ENDBRANCH   4   7
TORSDOF 1
ENDMDL
MODEL 7
REMARK VINA RESULT:      -3.5      2.495      3.937
REMARK  1 active torsions:
REMARK  status: ('A' for Active; 'I' for Inactive)
REMARK    1  A    between atoms: C4_4  and  C6_6 
ROOT
HETATM    1  C1  UNL     1     -34.060  17.623  -2.193  1.00 20.00     0.135 A 
HETATM    2  C2  UNL     1     -34.486  16.387  -1.759  1.00 20.00     0.136 A 
HETATM    3  C3  UNL     1     -33.695  16.764  -4.281  1.00 20.00     0.144 A 
HETATM    4  C4  UNL     1     -34.120  15.528  -3.846  1.00 20.00     0.065 A 
HETATM    5  N7  UNL     1     -33.658  17.834  -3.462  1.00 20.00    -0.270 NA
HETATM    6  N8  UNL     1     -34.523  15.317  -2.578  1.00 20.00    -0.261 NA
ENDROOT
BRANCH   4   7
HETATM    7  C6  UNL     1     -34.148  14.367  -4.780  1.00 20.00     0.107 C 
HETATM    8  C5  UNL     1     -35.113  13.284  -4.377  1.00 20.00     0.029 C 
HETATM    9 BR9  UNL     1     -34.570  14.982  -6.596  1.00 20.00    -0.085 Br
ENDBRANCH   4   7
TORSDOF 1
ENDMDL
MODEL 8
REMARK VINA RESULT:      -3.4      2.963      3.541
REMARK  1 active torsions:
REMARK  status: ('A' for Active; 'I' for Inactive)
REMARK    1  A    between atoms: C4_4  and  C6_6 
ROOT
HETATM    1  C1  UNL     1     -38.670  14.948  -4.708  1.00 20.00     0.135 A 
HETATM    2  C2  UNL     1     -38.137  15.396  -5.897  1.00 20.00     0.136 A 
HETATM    3  C3  UNL     1     -36.587  14.299  -4.021  1.00 20.00     0.144 A 
HETATM    4  C4  UNL     1     -36.055  14.746  -5.210  1.00 20.00     0.065 A 
HETATM    5  N7  UNL     1     -37.904  14.392  -3.748  1.00 20.00    -0.270 NA
HETATM    6  N8  UNL     1     -36.820  15.302  -6.170  1.00 20.00    -0.261 NA
ENDROOT
BRANCH   4   7
HETATM    7  C6  UNL     1     -34.595  14.626  -5.477  1.00 20.00     0.107 C 
HETATM    8  C5  UNL     1     -33.936  15.925  -5.861  1.00 20.00     0.029 C 
HETATM    9 BR9  UNL     1     -33.690  13.867  -3.908  1.00 20.00    -0.085 Br
ENDBRANCH   4   7
TORSDOF 1
ENDMDL
MODEL 9
REMARK VINA RESULT:      -3.4      2.253      3.277
REMARK  1 active torsions:
REMARK  status: ('A' for Active; 'I' for Inactive)
REMARK    1  A    between atoms: C4_4  and  C6_6 
ROOT
HETATM    1  C1  UNL     1     -33.484  13.708  -3.782  1.00 20.00     0.135 A 
HETATM    2  C2  UNL     1     -33.540  15.081  -3.888  1.00 20.00     0.136 A 
HETATM    3  C3  UNL     1     -35.667  13.567  -4.448  1.00 20.00     0.144 A 
HETATM    4  C4  UNL     1     -35.724  14.940  -4.553  1.00 20.00     0.065 A 
HETATM    5  N7  UNL     1     -34.546  12.927  -4.061  1.00 20.00    -0.270 NA
HETATM    6  N8  UNL     1     -34.663  15.721  -4.275  1.00 20.00    -0.261 NA
ENDROOT
BRANCH   4   7
HETATM    7  C6  UNL     1     -36.981  15.613  -4.983  1.00 20.00     0.107 C 
HETATM    8  C5  UNL     1     -37.282  15.461  -6.451  1.00 20.00     0.029 C 
HETATM    9 BR9  UNL     1     -38.494  14.939  -3.928  1.00 20.00    -0.085 Br
ENDBRANCH   4   7
TORSDOF 1
ENDMDL
