MODEL 1
REMARK VINA RESULT:      -5.0      0.000      0.000
REMARK  1 active torsions:
REMARK  status: ('A' for Active; 'I' for Inactive)
REMARK    1  A    between atoms: C3_3  and  C5_5 
ROOT
HETATM    1  C1  UNL     1     -34.415  16.833  -0.792  1.00 20.00     0.012 C 
HETATM    2  C2  UNL     1     -34.845  16.352  -1.805  1.00 20.00    -0.111 C 
HETATM    3  C4  UNL     1     -35.357  15.777  -3.015  1.00 20.00     0.088 A 
HETATM    4  C5  UNL     1     -34.631  14.598  -3.623  1.00 20.00     0.112 A 
HETATM    5  C6  UNL     1     -34.612  15.942  -4.329  1.00 20.00    -0.018 A 
HETATM    6  C7  UNL     1     -35.449  16.158  -5.568  1.00 20.00     0.017 C 
HETATM    7  C8  UNL     1     -33.292  16.677  -4.369  1.00 20.00     0.017 C 
ENDROOT
BRANCH   4   8
HETATM    8  C3  UNL     1     -35.436  13.521  -4.168  1.00 20.00     0.179 C 
HETATM    9  O9  UNL     1     -34.793  12.614  -4.764  1.00 20.00    -0.648 OA
HETATM   10  O10 UNL     1     -36.679  13.638  -3.971  1.00 20.00    -0.648 OA
ENDBRANCH   4   8
TORSDOF 1
ENDMDL
MODEL 2
REMARK VINA RESULT:      -4.6      2.073      2.731
REMARK  1 active torsions:
REMARK  status: ('A' for Active; 'I' for Inactive)
REMARK    1  A    between atoms: C3_3  and  C5_5 
ROOT
HETATM    1  C1  UNL     1     -34.771  17.377   0.203  1.00 20.00     0.012 C 
HETATM    2  C2  UNL     1     -34.655  16.705  -0.786  1.00 20.00    -0.111 C 
HETATM    3  C4  UNL     1     -34.517  15.903  -1.967  1.00 20.00     0.088 A 
HETATM    4  C5  UNL     1     -34.154  16.584  -3.268  1.00 20.00     0.112 A 
HETATM    5  C6  UNL     1     -35.539  15.990  -3.088  1.00 20.00    -0.018 A 
HETATM    6  C7  UNL     1     -35.905  14.698  -3.781  1.00 20.00     0.017 C 
HETATM    7  C8  UNL     1     -36.694  16.958  -2.992  1.00 20.00     0.017 C 
ENDROOT
BRANCH   4   8
HETATM    8  C3  UNL     1     -33.201  15.914  -4.134  1.00 20.00     0.179 C 
HETATM    9  O9  UNL     1     -32.541  14.984  -3.593  1.00 20.00    -0.648 OA
HETATM   10  O10 UNL     1     -33.162  16.354  -5.318  1.00 20.00    -0.648 OA
ENDBRANCH   4   8
TORSDOF 1
ENDMDL
MODEL 3
REMARK VINA RESULT:      -4.6      2.037      2.858
REMARK  1 active torsions:
REMARK  status: ('A' for Active; 'I' for Inactive)
REMARK    1  A    between atoms: C3_3  and  C5_5 
ROOT
HETATM    1  C1  UNL     1     -34.846  16.851  -0.547  1.00 20.00     0.012 C 
HETATM    2  C2  UNL     1     -34.576  16.278  -1.567  1.00 20.00    -0.111 C 
HETATM    3  C4  UNL     1     -34.256  15.593  -2.787  1.00 20.00     0.088 A 
HETATM    4  C5  UNL     1     -34.610  16.248  -4.102  1.00 20.00     0.112 A 
HETATM    5  C6  UNL     1     -35.352  15.001  -3.656  1.00 20.00    -0.018 A 
HETATM    6  C7  UNL     1     -35.062  13.671  -4.313  1.00 20.00     0.017 C 
HETATM    7  C8  UNL     1     -36.803  15.166  -3.270  1.00 20.00     0.017 C 
ENDROOT
BRANCH   4   8
HETATM    8  C3  UNL     1     -33.646  16.152  -5.183  1.00 20.00     0.179 C 
HETATM    9  O9  UNL     1     -34.126  16.252  -6.345  1.00 20.00    -0.648 OA
HETATM   10  O10 UNL     1     -32.451  15.981  -4.811  1.00 20.00    -0.648 OA
ENDBRANCH   4   8
TORSDOF 1
ENDMDL
MODEL 4
REMARK VINA RESULT:      -4.5     11.890     12.820
REMARK  1 active torsions:
REMARK  status: ('A' for Active; 'I' for Inactive)
REMARK    1  A    between atoms: C3_3  and  C5_5 
ROOT
HETATM    1  C1  UNL     1     -31.532   7.338   3.291  1.00 20.00     0.012 C 
HETATM    2  C2  UNL     1     -32.584   6.990   3.753  1.00 20.00    -0.111 C 
HETATM    3  C4  UNL     1     -33.841   6.573   4.306  1.00 20.00     0.088 A 
HETATM    4  C5  UNL     1     -33.971   5.161   4.830  1.00 20.00     0.112 A 
HETATM    5  C6  UNL     1     -34.716   5.571   3.573  1.00 20.00    -0.018 A 
HETATM    6  C7  UNL     1     -36.209   5.803   3.619  1.00 20.00     0.017 C 
HETATM    7  C8  UNL     1     -34.252   4.963   2.270  1.00 20.00     0.017 C 
ENDROOT
BRANCH   4   8
HETATM    8  C3  UNL     1     -34.711   4.967   6.064  1.00 20.00     0.179 C 
HETATM    9  O9  UNL     1     -34.695   5.944   6.862  1.00 20.00    -0.648 OA
HETATM   10  O10 UNL     1     -35.275   3.841   6.170  1.00 20.00    -0.648 OA
ENDBRANCH   4   8
TORSDOF 1
ENDMDL
MODEL 5
REMARK VINA RESULT:      -4.4      1.603      1.806
REMARK  1 active torsions:
REMARK  status: ('A' for Active; 'I' for Inactive)
REMARK    1  A    between atoms: C3_3  and  C5_5 
ROOT
HETATM    1  C1  UNL     1     -36.456  17.534  -3.025  1.00 20.00     0.012 C 
HETATM    2  C2  UNL     1     -36.029  16.604  -3.653  1.00 20.00    -0.111 C 
HETATM    3  C4  UNL     1     -35.517  15.494  -4.404  1.00 20.00     0.088 A 
HETATM    4  C5  UNL     1     -34.195  14.887  -3.993  1.00 20.00     0.112 A 
HETATM    5  C6  UNL     1     -34.299  15.656  -5.298  1.00 20.00    -0.018 A 
HETATM    6  C7  UNL     1     -34.313  14.916  -6.615  1.00 20.00     0.017 C 
HETATM    7  C8  UNL     1     -33.580  16.983  -5.371  1.00 20.00     0.017 C 
ENDROOT
BRANCH   4   8
HETATM    8  C3  UNL     1     -34.079  13.440  -4.029  1.00 20.00     0.179 C 
HETATM    9  O9  UNL     1     -32.918  12.987  -3.831  1.00 20.00    -0.648 OA
HETATM   10  O10 UNL     1     -35.161  12.829  -4.256  1.00 20.00    -0.648 OA
ENDBRANCH   4   8
TORSDOF 1
ENDMDL
MODEL 6
REMARK VINA RESULT:      -4.3      1.749      2.529
REMARK  1 active torsions:
REMARK  status: ('A' for Active; 'I' for Inactive)
REMARK    1  A    between atoms: C3_3  and  C5_5 
ROOT
HETATM    1  C1  UNL     1     -38.619  15.332  -3.449  1.00 20.00     0.012 C 
HETATM    2  C2  UNL     1     -37.580  15.054  -3.982  1.00 20.00    -0.111 C 
HETATM    3  C4  UNL     1     -36.337  14.722  -4.617  1.00 20.00     0.088 A 
HETATM    4  C5  UNL     1     -35.129  14.447  -3.750  1.00 20.00     0.112 A 
HETATM    5  C6  UNL     1     -35.175  15.700  -4.606  1.00 20.00    -0.018 A 
HETATM    6  C7  UNL     1     -34.343  15.787  -5.865  1.00 20.00     0.017 C 
HETATM    7  C8  UNL     1     -35.297  17.021  -3.884  1.00 20.00     0.017 C 
ENDROOT
BRANCH   4   8
HETATM    8  C3  UNL     1     -34.258  13.352  -4.139  1.00 20.00     0.179 C 
HETATM    9  O9  UNL     1     -33.083  13.410  -3.683  1.00 20.00    -0.648 OA
HETATM   10  O10 UNL     1     -34.798  12.486  -4.884  1.00 20.00    -0.648 OA
ENDBRANCH   4   8
TORSDOF 1
ENDMDL
MODEL 7
REMARK VINA RESULT:      -4.3      1.483      2.379
REMARK  1 active torsions:
REMARK  status: ('A' for Active; 'I' for Inactive)
REMARK    1  A    between atoms: C3_3  and  C5_5 
ROOT
HETATM    1  C1  UNL     1     -37.247  17.910  -3.809  1.00 20.00     0.012 C 
HETATM    2  C2  UNL     1     -36.397  17.105  -4.074  1.00 20.00    -0.111 C 
HETATM    3  C4  UNL     1     -35.381  16.143  -4.391  1.00 20.00     0.088 A 
HETATM    4  C5  UNL     1     -35.552  14.721  -3.905  1.00 20.00     0.112 A 
HETATM    5  C6  UNL     1     -34.465  15.597  -3.308  1.00 20.00    -0.018 A 
HETATM    6  C7  UNL     1     -33.019  15.372  -3.685  1.00 20.00     0.017 C 
HETATM    7  C8  UNL     1     -34.643  16.028  -1.871  1.00 20.00     0.017 C 
ENDROOT
BRANCH   4   8
HETATM    8  C3  UNL     1     -35.182  13.651  -4.814  1.00 20.00     0.179 C 
HETATM    9  O9  UNL     1     -34.940  12.539  -4.269  1.00 20.00    -0.648 OA
HETATM   10  O10 UNL     1     -35.154  13.980  -6.034  1.00 20.00    -0.648 OA
ENDBRANCH   4   8
TORSDOF 1
ENDMDL
MODEL 8
REMARK VINA RESULT:      -4.3      1.472      2.385
REMARK  1 active torsions:
REMARK  status: ('A' for Active; 'I' for Inactive)
REMARK    1  A    between atoms: C3_3  and  C5_5 
ROOT
HETATM    1  C1  UNL     1     -37.250  17.900  -3.746  1.00 20.00     0.012 C 
HETATM    2  C2  UNL     1     -36.397  17.102  -4.026  1.00 20.00    -0.111 C 
HETATM    3  C4  UNL     1     -35.378  16.149  -4.358  1.00 20.00     0.088 A 
HETATM    4  C5  UNL     1     -35.534  14.723  -3.879  1.00 20.00     0.112 A 
HETATM    5  C6  UNL     1     -34.447  15.604  -3.290  1.00 20.00    -0.018 A 
HETATM    6  C7  UNL     1     -33.003  15.391  -3.684  1.00 20.00     0.017 C 
HETATM    7  C8  UNL     1     -34.611  16.025  -1.848  1.00 20.00     0.017 C 
ENDROOT
BRANCH   4   8
HETATM    8  C3  UNL     1     -35.167  13.661  -4.798  1.00 20.00     0.179 C 
HETATM    9  O9  UNL     1     -35.127  13.991  -6.015  1.00 20.00    -0.648 OA
HETATM   10  O10 UNL     1     -34.935  12.546  -4.251  1.00 20.00    -0.648 OA
ENDBRANCH   4   8
TORSDOF 1
ENDMDL
MODEL 9
REMARK VINA RESULT:      -4.2      1.717      2.237
REMARK  1 active torsions:
REMARK  status: ('A' for Active; 'I' for Inactive)
REMARK    1  A    between atoms: C3_3  and  C5_5 
ROOT
HETATM    1  C1  UNL     1     -33.674  17.013  -1.529  1.00 20.00     0.012 C 
HETATM    2  C2  UNL     1     -34.361  16.628  -2.435  1.00 20.00    -0.111 C 
HETATM    3  C4  UNL     1     -35.181  16.165  -3.518  1.00 20.00     0.088 A 
HETATM    4  C5  UNL     1     -36.182  15.063  -3.252  1.00 20.00     0.112 A 
HETATM    5  C6  UNL     1     -34.967  14.787  -4.120  1.00 20.00    -0.018 A 
HETATM    6  C7  UNL     1     -35.120  14.664  -5.618  1.00 20.00     0.017 C 
HETATM    7  C8  UNL     1     -33.915  13.863  -3.554  1.00 20.00     0.017 C 
ENDROOT
BRANCH   4   8
HETATM    8  C3  UNL     1     -37.488  15.177  -3.873  1.00 20.00     0.179 C 
HETATM    9  O9  UNL     1     -37.760  16.311  -4.355  1.00 20.00    -0.648 OA
HETATM   10  O10 UNL     1     -38.179  14.119  -3.848  1.00 20.00    -0.648 OA
ENDBRANCH   4   8
TORSDOF 1
ENDMDL
