MODEL 1
REMARK VINA RESULT:      -5.2      0.000      0.000
REMARK  2 active torsions:
REMARK  status: ('A' for Active; 'I' for Inactive)
REMARK    1  A    between atoms: C3_3  and  C6_6 
REMARK    2  A    between atoms: C4_4  and  C7_7 
ROOT
HETATM    1  C1  UNL     1     -32.018   7.872   2.405  1.00 20.00    -0.176 C 
HETATM    2  C2  UNL     1     -32.024   8.469   1.252  1.00 20.00     0.091 C 
HETATM    3  C3  UNL     1     -32.009   7.276   3.560  1.00 20.00     0.072 C 
ENDROOT
BRANCH   3   4
HETATM    4  C6  UNL     1     -32.805   6.074   3.758  1.00 20.00     0.017 A 
HETATM    5  C5  UNL     1     -33.992   5.832   2.869  1.00 20.00     0.022 A 
HETATM    6  C7  UNL     1     -34.206   6.210   4.312  1.00 20.00     0.092 A 
BRANCH   6   7
HETATM    7  C4  UNL     1     -34.670   5.175   5.214  1.00 20.00     0.177 C 
HETATM    8  O8  UNL     1     -35.111   4.131   4.657  1.00 20.00    -0.648 OA
HETATM    9  O9  UNL     1     -34.572   5.459   6.441  1.00 20.00    -0.648 OA
ENDBRANCH   6   7
ENDBRANCH   3   4
TORSDOF 2
ENDMDL
MODEL 2
REMARK VINA RESULT:      -5.0      1.102      1.449
REMARK  2 active torsions:
REMARK  status: ('A' for Active; 'I' for Inactive)
REMARK    1  A    between atoms: C3_3  and  C6_6 
REMARK    2  A    between atoms: C4_4  and  C7_7 
ROOT
HETATM    1  C1  UNL     1     -32.115   7.765   2.390  1.00 20.00    -0.176 C 
HETATM    2  C2  UNL     1     -31.969   8.656   1.456  1.00 20.00     0.091 C 
HETATM    3  C3  UNL     1     -32.259   6.873   3.324  1.00 20.00     0.072 C 
ENDROOT
BRANCH   3   4
HETATM    4  C6  UNL     1     -33.575   6.633   3.897  1.00 20.00     0.017 A 
HETATM    5  C5  UNL     1     -33.736   6.665   5.390  1.00 20.00     0.022 A 
HETATM    6  C7  UNL     1     -33.815   5.349   4.660  1.00 20.00     0.092 A 
BRANCH   6   7
HETATM    7  C4  UNL     1     -35.120   4.731   4.532  1.00 20.00     0.177 C 
HETATM    8  O8  UNL     1     -35.969   5.394   3.872  1.00 20.00    -0.648 OA
HETATM    9  O9  UNL     1     -35.233   3.610   5.102  1.00 20.00    -0.648 OA
ENDBRANCH   6   7
ENDBRANCH   3   4
TORSDOF 2
ENDMDL
MODEL 3
REMARK VINA RESULT:      -4.9      0.874      1.682
REMARK  2 active torsions:
REMARK  status: ('A' for Active; 'I' for Inactive)
REMARK    1  A    between atoms: C3_3  and  C6_6 
REMARK    2  A    between atoms: C4_4  and  C7_7 
ROOT
HETATM    1  C1  UNL     1     -32.318   7.370   2.640  1.00 20.00    -0.176 C 
HETATM    2  C2  UNL     1     -32.115   8.457   1.959  1.00 20.00     0.091 C 
HETATM    3  C3  UNL     1     -32.519   6.281   3.321  1.00 20.00     0.072 C 
ENDROOT
BRANCH   3   4
HETATM    4  C6  UNL     1     -33.717   6.150   4.136  1.00 20.00     0.017 A 
HETATM    5  C5  UNL     1     -33.708   6.691   5.537  1.00 20.00     0.022 A 
HETATM    6  C7  UNL     1     -33.698   5.201   5.314  1.00 20.00     0.092 A 
BRANCH   6   7
HETATM    7  C4  UNL     1     -34.918   4.472   5.603  1.00 20.00     0.177 C 
HETATM    8  O8  UNL     1     -35.563   4.879   6.610  1.00 20.00    -0.648 OA
HETATM    9  O9  UNL     1     -35.169   3.524   4.808  1.00 20.00    -0.648 OA
ENDBRANCH   6   7
ENDBRANCH   3   4
TORSDOF 2
ENDMDL
MODEL 4
REMARK VINA RESULT:      -4.9     11.119     11.563
REMARK  2 active torsions:
REMARK  status: ('A' for Active; 'I' for Inactive)
REMARK    1  A    between atoms: C3_3  and  C6_6 
REMARK    2  A    between atoms: C4_4  and  C7_7 
ROOT
HETATM    1  C1  UNL     1     -34.420  16.888  -1.048  1.00 20.00    -0.176 C 
HETATM    2  C2  UNL     1     -34.793  17.239   0.145  1.00 20.00     0.091 C 
HETATM    3  C3  UNL     1     -34.046  16.540  -2.243  1.00 20.00     0.072 C 
ENDROOT
BRANCH   3   4
HETATM    4  C6  UNL     1     -34.182  15.155  -2.667  1.00 20.00     0.017 A 
HETATM    5  C5  UNL     1     -33.283  14.633  -3.751  1.00 20.00     0.022 A 
HETATM    6  C7  UNL     1     -34.743  14.864  -4.042  1.00 20.00     0.092 A 
BRANCH   6   7
HETATM    7  C4  UNL     1     -35.591  13.697  -4.183  1.00 20.00     0.177 C 
HETATM    8  O8  UNL     1     -34.997  12.637  -4.528  1.00 20.00    -0.648 OA
HETATM    9  O9  UNL     1     -36.815  13.899  -3.943  1.00 20.00    -0.648 OA
ENDBRANCH   6   7
ENDBRANCH   3   4
TORSDOF 2
ENDMDL
MODEL 5
REMARK VINA RESULT:      -4.9     11.134     11.592
REMARK  2 active torsions:
REMARK  status: ('A' for Active; 'I' for Inactive)
REMARK    1  A    between atoms: C3_3  and  C6_6 
REMARK    2  A    between atoms: C4_4  and  C7_7 
ROOT
HETATM    1  C1  UNL     1     -34.422  16.904  -1.049  1.00 20.00    -0.176 C 
HETATM    2  C2  UNL     1     -34.780  17.250   0.150  1.00 20.00     0.091 C 
HETATM    3  C3  UNL     1     -34.064  16.560  -2.251  1.00 20.00     0.072 C 
ENDROOT
BRANCH   3   4
HETATM    4  C6  UNL     1     -34.187  15.174  -2.672  1.00 20.00     0.017 A 
HETATM    5  C5  UNL     1     -33.278  14.656  -3.750  1.00 20.00     0.022 A 
HETATM    6  C7  UNL     1     -34.739  14.875  -4.049  1.00 20.00     0.092 A 
BRANCH   6   7
HETATM    7  C4  UNL     1     -35.578  13.702  -4.192  1.00 20.00     0.177 C 
HETATM    8  O8  UNL     1     -36.804  13.883  -3.953  1.00 20.00    -0.648 OA
HETATM    9  O9  UNL     1     -34.966  12.652  -4.535  1.00 20.00    -0.648 OA
ENDBRANCH   6   7
ENDBRANCH   3   4
TORSDOF 2
ENDMDL
MODEL 6
REMARK VINA RESULT:      -4.8      3.037      4.633
REMARK  2 active torsions:
REMARK  status: ('A' for Active; 'I' for Inactive)
REMARK    1  A    between atoms: C3_3  and  C6_6 
REMARK    2  A    between atoms: C4_4  and  C7_7 
ROOT
HETATM    1  C1  UNL     1     -34.322   5.422   5.212  1.00 20.00    -0.176 C 
HETATM    2  C2  UNL     1     -34.957   4.337   5.538  1.00 20.00     0.091 C 
HETATM    3  C3  UNL     1     -33.686   6.509   4.889  1.00 20.00     0.072 C 
ENDROOT
BRANCH   3   4
HETATM    4  C6  UNL     1     -33.334   6.753   3.499  1.00 20.00     0.017 A 
HETATM    5  C5  UNL     1     -32.118   6.082   2.927  1.00 20.00     0.022 A 
HETATM    6  C7  UNL     1     -32.097   7.566   3.191  1.00 20.00     0.092 A 
BRANCH   6   7
HETATM    7  C4  UNL     1     -32.148   8.452   2.045  1.00 20.00     0.177 C 
HETATM    8  O8  UNL     1     -32.762   9.540   2.231  1.00 20.00    -0.648 OA
HETATM    9  O9  UNL     1     -31.571   8.013   1.011  1.00 20.00    -0.648 OA
ENDBRANCH   6   7
ENDBRANCH   3   4
TORSDOF 2
ENDMDL
MODEL 7
REMARK VINA RESULT:      -4.5     10.768     11.629
REMARK  2 active torsions:
REMARK  status: ('A' for Active; 'I' for Inactive)
REMARK    1  A    between atoms: C3_3  and  C6_6 
REMARK    2  A    between atoms: C4_4  and  C7_7 
ROOT
HETATM    1  C1  UNL     1     -34.001  17.138  -1.114  1.00 20.00    -0.176 C 
HETATM    2  C2  UNL     1     -33.283  18.041  -0.518  1.00 20.00     0.091 C 
HETATM    3  C3  UNL     1     -34.721  16.234  -1.710  1.00 20.00     0.072 C 
ENDROOT
BRANCH   3   4
HETATM    4  C6  UNL     1     -34.220  15.589  -2.914  1.00 20.00     0.017 A 
HETATM    5  C5  UNL     1     -35.004  15.716  -4.188  1.00 20.00     0.022 A 
HETATM    6  C7  UNL     1     -34.965  14.394  -3.466  1.00 20.00     0.092 A 
BRANCH   6   7
HETATM    7  C4  UNL     1     -34.176  13.331  -4.056  1.00 20.00     0.177 C 
HETATM    8  O8  UNL     1     -33.005  13.210  -3.599  1.00 20.00    -0.648 OA
HETATM    9  O9  UNL     1     -34.768  12.667  -4.953  1.00 20.00    -0.648 OA
ENDBRANCH   6   7
ENDBRANCH   3   4
TORSDOF 2
ENDMDL
MODEL 8
REMARK VINA RESULT:      -4.5      2.619      4.345
REMARK  2 active torsions:
REMARK  status: ('A' for Active; 'I' for Inactive)
REMARK    1  A    between atoms: C3_3  and  C6_6 
REMARK    2  A    between atoms: C4_4  and  C7_7 
ROOT
HETATM    1  C1  UNL     1     -34.657   4.989   5.939  1.00 20.00    -0.176 C 
HETATM    2  C2  UNL     1     -35.229   3.824   5.943  1.00 20.00     0.091 C 
HETATM    3  C3  UNL     1     -34.084   6.156   5.937  1.00 20.00     0.072 C 
ENDROOT
BRANCH   3   4
HETATM    4  C6  UNL     1     -33.802   6.820   4.674  1.00 20.00     0.017 A 
HETATM    5  C5  UNL     1     -33.943   6.044   3.395  1.00 20.00     0.022 A 
HETATM    6  C7  UNL     1     -32.570   6.414   3.895  1.00 20.00     0.092 A 
BRANCH   6   7
HETATM    7  C4  UNL     1     -31.857   7.456   3.184  1.00 20.00     0.177 C 
HETATM    8  O8  UNL     1     -32.235   7.654   1.995  1.00 20.00    -0.648 OA
HETATM    9  O9  UNL     1     -30.948   8.025   3.850  1.00 20.00    -0.648 OA
ENDBRANCH   6   7
ENDBRANCH   3   4
TORSDOF 2
ENDMDL
MODEL 9
REMARK VINA RESULT:      -4.0     11.695     12.603
REMARK  2 active torsions:
REMARK  status: ('A' for Active; 'I' for Inactive)
REMARK    1  A    between atoms: C3_3  and  C6_6 
REMARK    2  A    between atoms: C4_4  and  C7_7 
ROOT
HETATM    1  C1  UNL     1     -34.331  16.423  -1.537  1.00 20.00    -0.176 C 
HETATM    2  C2  UNL     1     -34.873  16.986  -0.500  1.00 20.00     0.091 C 
HETATM    3  C3  UNL     1     -33.786  15.860  -2.574  1.00 20.00     0.072 C 
ENDROOT
BRANCH   3   4
HETATM    4  C6  UNL     1     -34.628  15.365  -3.653  1.00 20.00     0.017 A 
HETATM    5  C5  UNL     1     -34.802  13.883  -3.820  1.00 20.00     0.022 A 
HETATM    6  C7  UNL     1     -33.977  14.653  -4.818  1.00 20.00     0.092 A 
BRANCH   6   7
HETATM    7  C4  UNL     1     -34.546  14.868  -6.134  1.00 20.00     0.177 C 
HETATM    8  O8  UNL     1     -35.495  14.096  -6.444  1.00 20.00    -0.648 OA
HETATM    9  O9  UNL     1     -34.012  15.802  -6.796  1.00 20.00    -0.648 OA
ENDBRANCH   6   7
ENDBRANCH   3   4
TORSDOF 2
ENDMDL
