MODEL 1
REMARK VINA RESULT:      -3.9      0.000      0.000
REMARK  0 active torsions:
REMARK  status: ('A' for Active; 'I' for Inactive)
ROOT
HETATM    1  C1  UNL     1     -34.186  14.501  -3.459  1.00 20.00     0.025 A 
HETATM    2  C2  UNL     1     -34.619  15.656  -2.930  1.00 20.00     0.091 A 
HETATM    3  C3  UNL     1     -35.226  13.713  -4.172  1.00 20.00     0.227 A 
HETATM    4  C4  UNL     1     -32.807  13.925  -3.417  1.00 20.00     0.055 C 
HETATM    5  O5  UNL     1     -35.017  12.632  -4.705  1.00 20.00    -0.279 OA
HETATM    6  S6  UNL     1     -36.275  16.123  -3.100  1.00 20.00    -0.036 SA
HETATM    7  S7  UNL     1     -36.798  14.482  -4.183  1.00 20.00    -0.009 SA
HETATM    8 CL8  UNL     1     -33.587  16.733  -2.060  1.00 20.00    -0.075 Cl
ENDROOT
TORSDOF 0
ENDMDL
MODEL 2
REMARK VINA RESULT:      -3.8      3.000      3.309
REMARK  0 active torsions:
REMARK  status: ('A' for Active; 'I' for Inactive)
ROOT
HETATM    1  C1  UNL     1     -34.670  14.745  -6.106  1.00 20.00     0.025 A 
HETATM    2  C2  UNL     1     -34.178  15.979  -5.913  1.00 20.00     0.091 A 
HETATM    3  C3  UNL     1     -34.405  13.787  -5.000  1.00 20.00     0.227 A 
HETATM    4  C4  UNL     1     -35.438  14.231  -7.282  1.00 20.00     0.055 C 
HETATM    5  O5  UNL     1     -34.766  12.619  -5.009  1.00 20.00    -0.279 OA
HETATM    6  S6  UNL     1     -33.310  16.351  -4.465  1.00 20.00    -0.036 SA
HETATM    7  S7  UNL     1     -33.520  14.492  -3.665  1.00 20.00    -0.009 SA
HETATM    8 CL8  UNL     1     -34.367  17.254  -7.062  1.00 20.00    -0.075 Cl
ENDROOT
TORSDOF 0
ENDMDL
MODEL 3
REMARK VINA RESULT:      -3.5      2.131      2.588
REMARK  0 active torsions:
REMARK  status: ('A' for Active; 'I' for Inactive)
ROOT
HETATM    1  C1  UNL     1     -35.902  14.843  -3.689  1.00 20.00     0.025 A 
HETATM    2  C2  UNL     1     -35.390  15.985  -3.204  1.00 20.00     0.091 A 
HETATM    3  C3  UNL     1     -34.899  13.784  -3.982  1.00 20.00     0.227 A 
HETATM    4  C4  UNL     1     -37.335  14.517  -3.966  1.00 20.00     0.055 C 
HETATM    5  O5  UNL     1     -35.181  12.686  -4.440  1.00 20.00    -0.279 OA
HETATM    6  S6  UNL     1     -33.684  16.141  -2.968  1.00 20.00    -0.036 SA
HETATM    7  S7  UNL     1     -33.257  14.257  -3.605  1.00 20.00    -0.009 SA
HETATM    8 CL8  UNL     1     -36.366  17.349  -2.792  1.00 20.00    -0.075 Cl
ENDROOT
TORSDOF 0
ENDMDL
MODEL 4
REMARK VINA RESULT:      -3.5      2.393      2.471
REMARK  0 active torsions:
REMARK  status: ('A' for Active; 'I' for Inactive)
ROOT
HETATM    1  C1  UNL     1     -34.022  15.075  -4.747  1.00 20.00     0.025 A 
HETATM    2  C2  UNL     1     -34.059  16.212  -5.458  1.00 20.00     0.091 A 
HETATM    3  C3  UNL     1     -34.663  13.905  -5.407  1.00 20.00     0.227 A 
HETATM    4  C4  UNL     1     -33.424  14.848  -3.395  1.00 20.00     0.055 C 
HETATM    5  O5  UNL     1     -34.734  12.793  -4.904  1.00 20.00    -0.279 OA
HETATM    6  S6  UNL     1     -34.815  16.242  -7.012  1.00 20.00    -0.036 SA
HETATM    7  S7  UNL     1     -35.312  14.269  -6.990  1.00 20.00    -0.009 SA
HETATM    8 CL8  UNL     1     -33.376  17.694  -4.891  1.00 20.00    -0.075 Cl
ENDROOT
TORSDOF 0
ENDMDL
MODEL 5
REMARK VINA RESULT:      -3.5      2.033      2.201
REMARK  0 active torsions:
REMARK  status: ('A' for Active; 'I' for Inactive)
ROOT
HETATM    1  C1  UNL     1     -35.487  14.718  -3.955  1.00 20.00     0.025 A 
HETATM    2  C2  UNL     1     -34.683  15.788  -3.856  1.00 20.00     0.091 A 
HETATM    3  C3  UNL     1     -36.929  14.997  -3.717  1.00 20.00     0.227 A 
HETATM    4  C4  UNL     1     -35.111  13.305  -4.270  1.00 20.00     0.055 C 
HETATM    5  O5  UNL     1     -37.803  14.143  -3.754  1.00 20.00    -0.279 OA
HETATM    6  S6  UNL     1     -35.344  17.339  -3.474  1.00 20.00    -0.036 SA
HETATM    7  S7  UNL     1     -37.266  16.680  -3.379  1.00 20.00    -0.009 SA
HETATM    8 CL8  UNL     1     -32.975  15.701  -4.093  1.00 20.00    -0.075 Cl
ENDROOT
TORSDOF 0
ENDMDL
MODEL 6
REMARK VINA RESULT:      -3.5      2.326      2.858
REMARK  0 active torsions:
REMARK  status: ('A' for Active; 'I' for Inactive)
ROOT
HETATM    1  C1  UNL     1     -34.620  15.628  -2.904  1.00 20.00     0.025 A 
HETATM    2  C2  UNL     1     -34.174  14.516  -3.509  1.00 20.00     0.091 A 
HETATM    3  C3  UNL     1     -36.069  15.905  -3.094  1.00 20.00     0.227 A 
HETATM    4  C4  UNL     1     -33.844  16.604  -2.078  1.00 20.00     0.055 C 
HETATM    5  O5  UNL     1     -36.644  16.877  -2.628  1.00 20.00    -0.279 OA
HETATM    6  S6  UNL     1     -35.260  13.531  -4.425  1.00 20.00    -0.036 SA
HETATM    7  S7  UNL     1     -36.888  14.694  -4.056  1.00 20.00    -0.009 SA
HETATM    8 CL8  UNL     1     -32.529  13.997  -3.423  1.00 20.00    -0.075 Cl
ENDROOT
TORSDOF 0
ENDMDL
MODEL 7
REMARK VINA RESULT:      -3.5     11.919     12.158
REMARK  0 active torsions:
REMARK  status: ('A' for Active; 'I' for Inactive)
ROOT
HETATM    1  C1  UNL     1     -33.542   6.346   4.393  1.00 20.00     0.025 A 
HETATM    2  C2  UNL     1     -33.800   6.337   5.709  1.00 20.00     0.091 A 
HETATM    3  C3  UNL     1     -34.272   5.316   3.606  1.00 20.00     0.227 A 
HETATM    4  C4  UNL     1     -32.622   7.252   3.638  1.00 20.00     0.055 C 
HETATM    5  O5  UNL     1     -34.152   5.168   2.398  1.00 20.00    -0.279 OA
HETATM    6  S6  UNL     1     -34.907   5.184   6.370  1.00 20.00    -0.036 SA
HETATM    7  S7  UNL     1     -35.336   4.323   4.577  1.00 20.00    -0.009 SA
HETATM    8 CL8  UNL     1     -33.068   7.443   6.816  1.00 20.00    -0.075 Cl
ENDROOT
TORSDOF 0
ENDMDL
MODEL 8
REMARK VINA RESULT:      -3.4      2.494      2.891
REMARK  0 active torsions:
REMARK  status: ('A' for Active; 'I' for Inactive)
ROOT
HETATM    1  C1  UNL     1     -34.912  14.589  -3.769  1.00 20.00     0.025 A 
HETATM    2  C2  UNL     1     -36.031  15.269  -3.474  1.00 20.00     0.091 A 
HETATM    3  C3  UNL     1     -33.647  15.270  -3.383  1.00 20.00     0.227 A 
HETATM    4  C4  UNL     1     -34.790  13.251  -4.427  1.00 20.00     0.055 C 
HETATM    5  O5  UNL     1     -32.534  14.806  -3.585  1.00 20.00    -0.279 OA
HETATM    6  S6  UNL     1     -35.931  16.816  -2.708  1.00 20.00    -0.036 SA
HETATM    7  S7  UNL     1     -33.899  16.815  -2.602  1.00 20.00    -0.009 SA
HETATM    8 CL8  UNL     1     -37.612  14.671  -3.828  1.00 20.00    -0.075 Cl
ENDROOT
TORSDOF 0
ENDMDL
MODEL 9
REMARK VINA RESULT:      -3.4      1.907      2.347
REMARK  0 active torsions:
REMARK  status: ('A' for Active; 'I' for Inactive)
ROOT
HETATM    1  C1  UNL     1     -34.513  15.646  -3.033  1.00 20.00     0.025 A 
HETATM    2  C2  UNL     1     -35.833  15.727  -3.263  1.00 20.00     0.091 A 
HETATM    3  C3  UNL     1     -33.847  14.458  -3.632  1.00 20.00     0.227 A 
HETATM    4  C4  UNL     1     -33.650  16.591  -2.259  1.00 20.00     0.055 C 
HETATM    5  O5  UNL     1     -32.654  14.215  -3.515  1.00 20.00    -0.279 OA
HETATM    6  S6  UNL     1     -36.630  14.504  -4.190  1.00 20.00    -0.036 SA
HETATM    7  S7  UNL     1     -34.937  13.428  -4.533  1.00 20.00    -0.009 SA
HETATM    8 CL8  UNL     1     -36.810  17.020  -2.667  1.00 20.00    -0.075 Cl
ENDROOT
TORSDOF 0
ENDMDL
