MODEL 1
REMARK VINA RESULT:      -4.5      0.000      0.000
REMARK  2 active torsions:
REMARK  status: ('A' for Active; 'I' for Inactive)
REMARK    1  A    between atoms: C1_1  and  C3_3 
REMARK    2  A    between atoms: C1_1  and  O7_7 
ROOT
HETATM    1  C2  UNL     1     -34.263   5.988   6.235  1.00 20.00     0.055 A 
HETATM    2  C3  UNL     1     -34.804   5.619   4.894  1.00 20.00     0.122 A 
HETATM    3  C4  UNL     1     -34.473   4.553   5.873  1.00 20.00     0.184 A 
HETATM    4  F8  UNL     1     -35.542   3.897   6.458  1.00 20.00    -0.248 F 
ENDROOT
BRANCH   2   5
HETATM    5  C1  UNL     1     -33.914   5.786   3.699  1.00 20.00     0.265 C 
HETATM    6  O6  UNL     1     -34.139   5.293   2.603  1.00 20.00    -0.265 OA
BRANCH   5   7
HETATM    7  O7  UNL     1     -32.843   6.561   4.034  1.00 20.00    -0.326 OA
HETATM    8  C5  UNL     1     -32.200   7.225   2.943  1.00 20.00     0.213 C 
ENDBRANCH   5   7
ENDBRANCH   2   5
TORSDOF 2
ENDMDL
MODEL 2
REMARK VINA RESULT:      -4.5      1.678      1.925
REMARK  2 active torsions:
REMARK  status: ('A' for Active; 'I' for Inactive)
REMARK    1  A    between atoms: C1_1  and  C3_3 
REMARK    2  A    between atoms: C1_1  and  O7_7 
ROOT
HETATM    1  C2  UNL     1     -34.565   5.009   6.301  1.00 20.00     0.055 A 
HETATM    2  C3  UNL     1     -33.858   5.527   5.093  1.00 20.00     0.122 A 
HETATM    3  C4  UNL     1     -34.280   6.470   6.159  1.00 20.00     0.184 A 
HETATM    4  F8  UNL     1     -33.274   7.003   6.947  1.00 20.00    -0.248 F 
ENDROOT
BRANCH   2   5
HETATM    5  C1  UNL     1     -34.602   5.550   3.791  1.00 20.00     0.265 C 
HETATM    6  O6  UNL     1     -35.820   5.499   3.695  1.00 20.00    -0.265 OA
BRANCH   5   7
HETATM    7  O7  UNL     1     -33.712   5.636   2.760  1.00 20.00    -0.326 OA
HETATM    8  C5  UNL     1     -32.474   6.281   3.069  1.00 20.00     0.213 C 
ENDBRANCH   5   7
ENDBRANCH   2   5
TORSDOF 2
ENDMDL
MODEL 3
REMARK VINA RESULT:      -4.1      2.619      3.383
REMARK  2 active torsions:
REMARK  status: ('A' for Active; 'I' for Inactive)
REMARK    1  A    between atoms: C1_1  and  C3_3 
REMARK    2  A    between atoms: C1_1  and  O7_7 
ROOT
HETATM    1  C2  UNL     1     -34.377   5.402   2.747  1.00 20.00     0.055 A 
HETATM    2  C3  UNL     1     -34.495   5.866   4.161  1.00 20.00     0.122 A 
HETATM    3  C4  UNL     1     -33.160   5.805   3.516  1.00 20.00     0.184 A 
HETATM    4  F8  UNL     1     -32.573   7.016   3.193  1.00 20.00    -0.248 F 
ENDROOT
BRANCH   2   5
HETATM    5  C1  UNL     1     -34.822   4.852   5.216  1.00 20.00     0.265 C 
HETATM    6  O6  UNL     1     -35.091   3.682   4.983  1.00 20.00    -0.265 OA
BRANCH   5   7
HETATM    7  O7  UNL     1     -34.768   5.441   6.445  1.00 20.00    -0.326 OA
HETATM    8  C5  UNL     1     -33.995   6.641   6.519  1.00 20.00     0.213 C 
ENDBRANCH   5   7
ENDBRANCH   2   5
TORSDOF 2
ENDMDL
MODEL 4
REMARK VINA RESULT:      -4.1      2.681      3.892
REMARK  2 active torsions:
REMARK  status: ('A' for Active; 'I' for Inactive)
REMARK    1  A    between atoms: C1_1  and  C3_3 
REMARK    2  A    between atoms: C1_1  and  O7_7 
ROOT
HETATM    1  C2  UNL     1     -33.633   5.591   2.863  1.00 20.00     0.055 A 
HETATM    2  C3  UNL     1     -33.872   6.619   3.918  1.00 20.00     0.122 A 
HETATM    3  C4  UNL     1     -32.491   6.365   3.438  1.00 20.00     0.184 A 
HETATM    4  F8  UNL     1     -31.921   7.346   2.645  1.00 20.00    -0.248 F 
ENDROOT
BRANCH   2   5
HETATM    5  C1  UNL     1     -34.243   6.151   5.294  1.00 20.00     0.265 C 
HETATM    6  O6  UNL     1     -33.754   6.595   6.323  1.00 20.00    -0.265 OA
BRANCH   5   7
HETATM    7  O7  UNL     1     -35.191   5.175   5.202  1.00 20.00    -0.326 OA
HETATM    8  C5  UNL     1     -34.879   3.950   5.871  1.00 20.00     0.213 C 
ENDBRANCH   5   7
ENDBRANCH   2   5
TORSDOF 2
ENDMDL
MODEL 5
REMARK VINA RESULT:      -4.1      2.829      4.024
REMARK  2 active torsions:
REMARK  status: ('A' for Active; 'I' for Inactive)
REMARK    1  A    between atoms: C1_1  and  C3_3 
REMARK    2  A    between atoms: C1_1  and  O7_7 
ROOT
HETATM    1  C2  UNL     1     -31.529   7.444   3.749  1.00 20.00     0.055 A 
HETATM    2  C3  UNL     1     -32.382   6.449   3.035  1.00 20.00     0.122 A 
HETATM    3  C4  UNL     1     -32.303   7.844   2.535  1.00 20.00     0.184 A 
HETATM    4  F8  UNL     1     -31.593   8.042   1.362  1.00 20.00    -0.248 F 
ENDROOT
BRANCH   2   5
HETATM    5  C1  UNL     1     -33.653   6.001   3.692  1.00 20.00     0.265 C 
HETATM    6  O6  UNL     1     -34.520   5.344   3.133  1.00 20.00    -0.265 OA
BRANCH   5   7
HETATM    7  O7  UNL     1     -33.677   6.440   4.983  1.00 20.00    -0.326 OA
HETATM    8  C5  UNL     1     -34.395   5.611   5.901  1.00 20.00     0.213 C 
ENDBRANCH   5   7
ENDBRANCH   2   5
TORSDOF 2
ENDMDL
MODEL 6
REMARK VINA RESULT:      -4.0      1.641      1.852
REMARK  2 active torsions:
REMARK  status: ('A' for Active; 'I' for Inactive)
REMARK    1  A    between atoms: C1_1  and  C3_3 
REMARK    2  A    between atoms: C1_1  and  O7_7 
ROOT
HETATM    1  C2  UNL     1     -34.072   6.097   5.338  1.00 20.00     0.055 A 
HETATM    2  C3  UNL     1     -33.888   6.560   3.931  1.00 20.00     0.122 A 
HETATM    3  C4  UNL     1     -34.632   5.305   4.200  1.00 20.00     0.184 A 
HETATM    4  F8  UNL     1     -36.002   5.344   4.008  1.00 20.00    -0.248 F 
ENDROOT
BRANCH   2   5
HETATM    5  C1  UNL     1     -32.520   6.460   3.324  1.00 20.00     0.265 C 
HETATM    6  O6  UNL     1     -31.998   5.408   2.982  1.00 20.00    -0.265 OA
BRANCH   5   7
HETATM    7  O7  UNL     1     -31.975   7.705   3.222  1.00 20.00    -0.326 OA
HETATM    8  C5  UNL     1     -32.080   8.320   1.935  1.00 20.00     0.213 C 
ENDBRANCH   5   7
ENDBRANCH   2   5
TORSDOF 2
ENDMDL
MODEL 7
REMARK VINA RESULT:      -3.9      1.385      1.857
REMARK  2 active torsions:
REMARK  status: ('A' for Active; 'I' for Inactive)
REMARK    1  A    between atoms: C1_1  and  C3_3 
REMARK    2  A    between atoms: C1_1  and  O7_7 
ROOT
HETATM    1  C2  UNL     1     -35.567   5.681   3.763  1.00 20.00     0.055 A 
HETATM    2  C3  UNL     1     -34.123   5.315   3.673  1.00 20.00     0.122 A 
HETATM    3  C4  UNL     1     -34.928   4.855   4.831  1.00 20.00     0.184 A 
HETATM    4  F8  UNL     1     -35.243   3.507   4.871  1.00 20.00    -0.248 F 
ENDROOT
BRANCH   2   5
HETATM    5  C1  UNL     1     -33.103   6.390   3.899  1.00 20.00     0.265 C 
HETATM    6  O6  UNL     1     -32.975   7.004   4.949  1.00 20.00    -0.265 OA
BRANCH   5   7
HETATM    7  O7  UNL     1     -32.363   6.561   2.766  1.00 20.00    -0.326 OA
HETATM    8  C5  UNL     1     -32.119   7.919   2.390  1.00 20.00     0.213 C 
ENDBRANCH   5   7
ENDBRANCH   2   5
TORSDOF 2
ENDMDL
MODEL 8
REMARK VINA RESULT:      -3.7     12.071     12.861
REMARK  2 active torsions:
REMARK  status: ('A' for Active; 'I' for Inactive)
REMARK    1  A    between atoms: C1_1  and  C3_3 
REMARK    2  A    between atoms: C1_1  and  O7_7 
ROOT
HETATM    1  C2  UNL     1     -35.523  15.485  -3.043  1.00 20.00     0.055 A 
HETATM    2  C3  UNL     1     -34.518  14.417  -3.317  1.00 20.00     0.122 A 
HETATM    3  C4  UNL     1     -34.088  15.837  -3.271  1.00 20.00     0.184 A 
HETATM    4  F8  UNL     1     -33.343  16.223  -2.170  1.00 20.00    -0.248 F 
ENDROOT
BRANCH   2   5
HETATM    5  C1  UNL     1     -34.557  13.730  -4.649  1.00 20.00     0.265 C 
HETATM    6  O6  UNL     1     -34.782  12.537  -4.799  1.00 20.00    -0.265 OA
BRANCH   5   7
HETATM    7  O7  UNL     1     -34.306  14.636  -5.636  1.00 20.00    -0.326 OA
HETATM    8  C5  UNL     1     -35.094  14.490  -6.821  1.00 20.00     0.213 C 
ENDBRANCH   5   7
ENDBRANCH   2   5
TORSDOF 2
ENDMDL
MODEL 9
REMARK VINA RESULT:      -3.6     12.674     13.504
REMARK  2 active torsions:
REMARK  status: ('A' for Active; 'I' for Inactive)
REMARK    1  A    between atoms: C1_1  and  C3_3 
REMARK    2  A    between atoms: C1_1  and  O7_7 
ROOT
HETATM    1  C2  UNL     1     -35.972  14.927  -5.906  1.00 20.00     0.055 A 
HETATM    2  C3  UNL     1     -34.567  14.616  -5.511  1.00 20.00     0.122 A 
HETATM    3  C4  UNL     1     -35.044  14.261  -6.870  1.00 20.00     0.184 A 
HETATM    4  F8  UNL     1     -34.557  15.024  -7.918  1.00 20.00    -0.248 F 
ENDROOT
BRANCH   2   5
HETATM    5  C1  UNL     1     -34.333  13.508  -4.528  1.00 20.00     0.265 C 
HETATM    6  O6  UNL     1     -35.063  12.535  -4.407  1.00 20.00    -0.265 OA
BRANCH   5   7
HETATM    7  O7  UNL     1     -33.201  13.766  -3.813  1.00 20.00    -0.326 OA
HETATM    8  C5  UNL     1     -32.833  15.144  -3.718  1.00 20.00     0.213 C 
ENDBRANCH   5   7
ENDBRANCH   2   5
TORSDOF 2
ENDMDL
