MODEL 1
REMARK VINA RESULT:      -4.2      0.000      0.000
REMARK  1 active torsions:
REMARK  status: ('A' for Active; 'I' for Inactive)
REMARK    1  A    between atoms: C1_1  and  C2_2 
ROOT
HETATM    1  C2  UNL     1     -35.978  14.370  -4.373  1.00 20.00     0.064 A 
HETATM    2  C3  UNL     1     -34.615  14.744  -3.810  1.00 20.00    -0.030 A 
HETATM    3  C4  UNL     1     -35.091  15.330  -5.151  1.00 20.00    -0.030 A 
HETATM    4  C5  UNL     1     -33.547  13.671  -3.808  1.00 20.00     0.016 C 
HETATM    5  C6  UNL     1     -34.514  15.642  -2.597  1.00 20.00     0.016 C 
HETATM    6  C7  UNL     1     -35.453  16.797  -5.237  1.00 20.00     0.016 C 
HETATM    7  C8  UNL     1     -34.483  14.822  -6.441  1.00 20.00     0.016 C 
ENDROOT
BRANCH   1   8
HETATM    8  C1  UNL     1     -37.218  14.829  -3.731  1.00 20.00     0.237 C 
HETATM    9  O9  UNL     1     -38.263  14.185  -3.741  1.00 20.00    -0.306 OA
ENDBRANCH   1   8
TORSDOF 1
ENDMDL
MODEL 2
REMARK VINA RESULT:      -4.1      1.740      3.246
REMARK  1 active torsions:
REMARK  status: ('A' for Active; 'I' for Inactive)
REMARK    1  A    between atoms: C1_1  and  C2_2 
ROOT
HETATM    1  C2  UNL     1     -35.249  14.877  -4.210  1.00 20.00     0.064 A 
HETATM    2  C3  UNL     1     -34.740  16.225  -4.700  1.00 20.00    -0.030 A 
HETATM    3  C4  UNL     1     -34.113  15.559  -3.462  1.00 20.00    -0.030 A 
HETATM    4  C5  UNL     1     -35.652  17.419  -4.517  1.00 20.00     0.016 C 
HETATM    5  C6  UNL     1     -33.944  16.315  -5.983  1.00 20.00     0.016 C 
HETATM    6  C7  UNL     1     -32.707  15.004  -3.547  1.00 20.00     0.016 C 
HETATM    7  C8  UNL     1     -34.420  16.112  -2.087  1.00 20.00     0.016 C 
ENDROOT
BRANCH   1   8
HETATM    8  C1  UNL     1     -35.021  13.650  -4.986  1.00 20.00     0.237 C 
HETATM    9  O9  UNL     1     -35.008  12.528  -4.489  1.00 20.00    -0.306 OA
ENDBRANCH   1   8
TORSDOF 1
ENDMDL
MODEL 3
REMARK VINA RESULT:      -4.1      0.769      1.979
REMARK  1 active torsions:
REMARK  status: ('A' for Active; 'I' for Inactive)
REMARK    1  A    between atoms: C1_1  and  C2_2 
ROOT
HETATM    1  C2  UNL     1     -35.723  14.827  -3.434  1.00 20.00     0.064 A 
HETATM    2  C3  UNL     1     -34.718  15.958  -3.589  1.00 20.00    -0.030 A 
HETATM    3  C4  UNL     1     -34.490  14.612  -4.299  1.00 20.00    -0.030 A 
HETATM    4  C5  UNL     1     -33.877  16.310  -2.379  1.00 20.00     0.016 C 
HETATM    5  C6  UNL     1     -35.070  17.182  -4.405  1.00 20.00     0.016 C 
HETATM    6  C7  UNL     1     -34.623  14.532  -5.805  1.00 20.00     0.016 C 
HETATM    7  C8  UNL     1     -33.431  13.666  -3.774  1.00 20.00     0.016 C 
ENDROOT
BRANCH   1   8
HETATM    8  C1  UNL     1     -37.064  14.915  -4.029  1.00 20.00     0.237 C 
HETATM    9  O9  UNL     1     -37.988  14.166  -3.728  1.00 20.00    -0.306 OA
ENDBRANCH   1   8
TORSDOF 1
ENDMDL
MODEL 4
REMARK VINA RESULT:      -4.1      1.035      2.225
REMARK  1 active torsions:
REMARK  status: ('A' for Active; 'I' for Inactive)
REMARK    1  A    between atoms: C1_1  and  C2_2 
ROOT
HETATM    1  C2  UNL     1     -35.823  15.481  -4.669  1.00 20.00     0.064 A 
HETATM    2  C3  UNL     1     -34.738  14.640  -5.324  1.00 20.00    -0.030 A 
HETATM    3  C4  UNL     1     -34.363  15.832  -4.425  1.00 20.00    -0.030 A 
HETATM    4  C5  UNL     1     -34.574  14.763  -6.824  1.00 20.00     0.016 C 
HETATM    5  C6  UNL     1     -34.475  13.231  -4.842  1.00 20.00     0.016 C 
HETATM    6  C7  UNL     1     -33.738  15.576  -3.071  1.00 20.00     0.016 C 
HETATM    7  C8  UNL     1     -33.839  17.103  -5.058  1.00 20.00     0.016 C 
ENDROOT
BRANCH   1   8
HETATM    8  C1  UNL     1     -36.665  14.935  -3.595  1.00 20.00     0.237 C 
HETATM    9  O9  UNL     1     -37.644  14.223  -3.798  1.00 20.00    -0.306 OA
ENDBRANCH   1   8
TORSDOF 1
ENDMDL
MODEL 5
REMARK VINA RESULT:      -4.0      1.824      2.523
REMARK  1 active torsions:
REMARK  status: ('A' for Active; 'I' for Inactive)
REMARK    1  A    between atoms: C1_1  and  C2_2 
ROOT
HETATM    1  C2  UNL     1     -34.509  14.442  -3.681  1.00 20.00     0.064 A 
HETATM    2  C3  UNL     1     -35.298  15.609  -3.108  1.00 20.00    -0.030 A 
HETATM    3  C4  UNL     1     -34.504  15.774  -4.416  1.00 20.00    -0.030 A 
HETATM    4  C5  UNL     1     -34.774  16.245  -1.838  1.00 20.00     0.016 C 
HETATM    5  C6  UNL     1     -36.810  15.598  -3.149  1.00 20.00     0.016 C 
HETATM    6  C7  UNL     1     -35.248  15.920  -5.726  1.00 20.00     0.016 C 
HETATM    7  C8  UNL     1     -33.215  16.567  -4.407  1.00 20.00     0.016 C 
ENDROOT
BRANCH   1   8
HETATM    8  C1  UNL     1     -35.189  13.265  -4.241  1.00 20.00     0.237 C 
HETATM    9  O9  UNL     1     -34.651  12.474  -5.009  1.00 20.00    -0.306 OA
ENDBRANCH   1   8
TORSDOF 1
ENDMDL
MODEL 6
REMARK VINA RESULT:      -4.0      2.364      3.373
REMARK  1 active torsions:
REMARK  status: ('A' for Active; 'I' for Inactive)
REMARK    1  A    between atoms: C1_1  and  C2_2 
ROOT
HETATM    1  C2  UNL     1     -34.383  15.665  -4.725  1.00 20.00     0.064 A 
HETATM    2  C3  UNL     1     -35.070  15.333  -3.409  1.00 20.00    -0.030 A 
HETATM    3  C4  UNL     1     -34.186  14.287  -4.110  1.00 20.00    -0.030 A 
HETATM    4  C5  UNL     1     -36.575  15.169  -3.433  1.00 20.00     0.016 C 
HETATM    5  C6  UNL     1     -34.594  15.970  -2.122  1.00 20.00     0.016 C 
HETATM    6  C7  UNL     1     -32.852  13.911  -3.503  1.00 20.00     0.016 C 
HETATM    7  C8  UNL     1     -34.838  13.114  -4.811  1.00 20.00     0.016 C 
ENDROOT
BRANCH   1   8
HETATM    8  C1  UNL     1     -33.282  16.636  -4.785  1.00 20.00     0.237 C 
HETATM    9  O9  UNL     1     -33.396  17.760  -5.263  1.00 20.00    -0.306 OA
ENDBRANCH   1   8
TORSDOF 1
ENDMDL
MODEL 7
REMARK VINA RESULT:      -3.9      2.132      2.646
REMARK  1 active torsions:
REMARK  status: ('A' for Active; 'I' for Inactive)
REMARK    1  A    between atoms: C1_1  and  C2_2 
ROOT
HETATM    1  C2  UNL     1     -34.944  15.600  -3.042  1.00 20.00     0.064 A 
HETATM    2  C3  UNL     1     -34.291  14.500  -3.865  1.00 20.00    -0.030 A 
HETATM    3  C4  UNL     1     -34.570  15.878  -4.490  1.00 20.00    -0.030 A 
HETATM    4  C5  UNL     1     -35.155  13.319  -4.256  1.00 20.00     0.016 C 
HETATM    5  C6  UNL     1     -32.864  14.084  -3.581  1.00 20.00     0.016 C 
HETATM    6  C7  UNL     1     -33.412  16.798  -4.812  1.00 20.00     0.016 C 
HETATM    7  C8  UNL     1     -35.702  16.026  -5.484  1.00 20.00     0.016 C 
ENDROOT
BRANCH   1   8
HETATM    8  C1  UNL     1     -34.229  16.248  -1.933  1.00 20.00     0.237 C 
HETATM    9  O9  UNL     1     -34.698  16.370  -0.806  1.00 20.00    -0.306 OA
ENDBRANCH   1   8
TORSDOF 1
ENDMDL
MODEL 8
REMARK VINA RESULT:      -3.9      0.842      2.750
REMARK  1 active torsions:
REMARK  status: ('A' for Active; 'I' for Inactive)
REMARK    1  A    between atoms: C1_1  and  C2_2 
ROOT
HETATM    1  C2  UNL     1     -35.800  15.634  -4.299  1.00 20.00     0.064 A 
HETATM    2  C3  UNL     1     -34.604  15.738  -5.233  1.00 20.00    -0.030 A 
HETATM    3  C4  UNL     1     -34.437  15.158  -3.818  1.00 20.00    -0.030 A 
HETATM    4  C5  UNL     1     -34.075  17.125  -5.533  1.00 20.00     0.016 C 
HETATM    5  C6  UNL     1     -34.495  14.823  -6.433  1.00 20.00     0.016 C 
HETATM    6  C7  UNL     1     -34.168  13.679  -3.646  1.00 20.00     0.016 C 
HETATM    7  C8  UNL     1     -33.748  15.985  -2.753  1.00 20.00     0.016 C 
ENDROOT
BRANCH   1   8
HETATM    8  C1  UNL     1     -36.890  14.684  -4.560  1.00 20.00     0.237 C 
HETATM    9  O9  UNL     1     -37.644  14.263  -3.689  1.00 20.00    -0.306 OA
ENDBRANCH   1   8
TORSDOF 1
ENDMDL
MODEL 9
REMARK VINA RESULT:      -3.9      1.740      2.617
REMARK  1 active torsions:
REMARK  status: ('A' for Active; 'I' for Inactive)
REMARK    1  A    between atoms: C1_1  and  C2_2 
ROOT
HETATM    1  C2  UNL     1     -34.405  14.839  -5.033  1.00 20.00     0.064 A 
HETATM    2  C3  UNL     1     -34.132  16.112  -4.247  1.00 20.00    -0.030 A 
HETATM    3  C4  UNL     1     -35.574  15.714  -4.607  1.00 20.00    -0.030 A 
HETATM    4  C5  UNL     1     -33.473  17.257  -4.986  1.00 20.00     0.016 C 
HETATM    5  C6  UNL     1     -33.673  16.032  -2.807  1.00 20.00     0.016 C 
HETATM    6  C7  UNL     1     -36.513  15.246  -3.515  1.00 20.00     0.016 C 
HETATM    7  C8  UNL     1     -36.306  16.474  -5.693  1.00 20.00     0.016 C 
ENDROOT
BRANCH   1   8
HETATM    8  C1  UNL     1     -34.188  13.514  -4.436  1.00 20.00     0.237 C 
HETATM    9  O9  UNL     1     -34.801  12.508  -4.780  1.00 20.00    -0.306 OA
ENDBRANCH   1   8
TORSDOF 1
ENDMDL
