MODEL 1
REMARK VINA RESULT:      -3.8      0.000      0.000
REMARK  2 active torsions:
REMARK  status: ('A' for Active; 'I' for Inactive)
REMARK    1  A    between atoms: C1_1  and  C4_4 
REMARK    2  A    between atoms: C4_4  and  C5_5 
ROOT
HETATM    1  C4  UNL     1     -34.972  15.030  -4.772  1.00 20.00     0.137 C 
ENDROOT
BRANCH   1   2
HETATM    2  C1  UNL     1     -35.699  13.790  -4.242  1.00 20.00     0.174 C 
HETATM    3  O6  UNL     1     -35.018  12.726  -4.250  1.00 20.00    -0.648 OA
HETATM    4  O7  UNL     1     -36.895  13.981  -3.884  1.00 20.00    -0.648 OA
ENDBRANCH   1   2
BRANCH   1   5
HETATM    5  C5  UNL     1     -34.046  15.719  -3.756  1.00 20.00     0.039 C 
HETATM    6  C2  UNL     1     -33.639  17.125  -4.211  1.00 20.00     0.032 C 
HETATM    7  C3  UNL     1     -34.668  15.776  -2.357  1.00 20.00     0.032 C 
HETATM    8 CL8  UNL     1     -32.539  14.727  -3.642  1.00 20.00    -0.119 Cl
ENDBRANCH   1   5
TORSDOF 2
ENDMDL
MODEL 2
REMARK VINA RESULT:      -3.8      1.800      2.428
REMARK  2 active torsions:
REMARK  status: ('A' for Active; 'I' for Inactive)
REMARK    1  A    between atoms: C1_1  and  C4_4 
REMARK    2  A    between atoms: C4_4  and  C5_5 
ROOT
HETATM    1  C4  UNL     1     -34.873  14.895  -3.915  1.00 20.00     0.137 C 
ENDROOT
BRANCH   1   2
HETATM    2  C1  UNL     1     -34.318  13.472  -4.035  1.00 20.00     0.174 C 
HETATM    3  O6  UNL     1     -35.158  12.598  -4.389  1.00 20.00    -0.648 OA
HETATM    4  O7  UNL     1     -33.096  13.347  -3.743  1.00 20.00    -0.648 OA
ENDBRANCH   1   2
BRANCH   1   5
HETATM    5  C5  UNL     1     -34.574  15.809  -5.115  1.00 20.00     0.039 C 
HETATM    6  C2  UNL     1     -35.706  16.809  -5.372  1.00 20.00     0.032 C 
HETATM    7  C3  UNL     1     -33.242  16.549  -4.955  1.00 20.00     0.032 C 
HETATM    8 CL8  UNL     1     -34.439  14.753  -6.576  1.00 20.00    -0.119 Cl
ENDBRANCH   1   5
TORSDOF 2
ENDMDL
MODEL 3
REMARK VINA RESULT:      -3.8      2.046      2.711
REMARK  2 active torsions:
REMARK  status: ('A' for Active; 'I' for Inactive)
REMARK    1  A    between atoms: C1_1  and  C4_4 
REMARK    2  A    between atoms: C4_4  and  C5_5 
ROOT
HETATM    1  C4  UNL     1     -34.872  14.891  -4.024  1.00 20.00     0.137 C 
ENDROOT
BRANCH   1   2
HETATM    2  C1  UNL     1     -34.318  13.463  -4.067  1.00 20.00     0.174 C 
HETATM    3  O6  UNL     1     -35.149  12.576  -4.408  1.00 20.00    -0.648 OA
HETATM    4  O7  UNL     1     -33.105  13.349  -3.733  1.00 20.00    -0.648 OA
ENDBRANCH   1   2
BRANCH   1   5
HETATM    5  C5  UNL     1     -34.535  15.752  -5.253  1.00 20.00     0.039 C 
HETATM    6  C2  UNL     1     -33.226  16.526  -5.071  1.00 20.00     0.032 C 
HETATM    7  C3  UNL     1     -34.482  14.921  -6.539  1.00 20.00     0.032 C 
HETATM    8 CL8  UNL     1     -35.863  16.965  -5.442  1.00 20.00    -0.119 Cl
ENDBRANCH   1   5
TORSDOF 2
ENDMDL
MODEL 4
REMARK VINA RESULT:      -3.7      1.502      2.098
REMARK  2 active torsions:
REMARK  status: ('A' for Active; 'I' for Inactive)
REMARK    1  A    between atoms: C1_1  and  C4_4 
REMARK    2  A    between atoms: C4_4  and  C5_5 
ROOT
HETATM    1  C4  UNL     1     -35.077  14.924  -3.914  1.00 20.00     0.137 C 
ENDROOT
BRANCH   1   2
HETATM    2  C1  UNL     1     -34.994  13.743  -4.888  1.00 20.00     0.174 C 
HETATM    3  O6  UNL     1     -34.911  14.060  -6.108  1.00 20.00    -0.648 OA
HETATM    4  O7  UNL     1     -35.042  12.601  -4.351  1.00 20.00    -0.648 OA
ENDBRANCH   1   2
BRANCH   1   5
HETATM    5  C5  UNL     1     -33.742  15.639  -3.650  1.00 20.00     0.039 C 
HETATM    6  C2  UNL     1     -32.566  14.658  -3.596  1.00 20.00     0.032 C 
HETATM    7  C3  UNL     1     -33.465  16.738  -4.681  1.00 20.00     0.032 C 
HETATM    8 CL8  UNL     1     -33.865  16.430  -2.029  1.00 20.00    -0.119 Cl
ENDBRANCH   1   5
TORSDOF 2
ENDMDL
MODEL 5
REMARK VINA RESULT:      -3.7      1.521      1.969
REMARK  2 active torsions:
REMARK  status: ('A' for Active; 'I' for Inactive)
REMARK    1  A    between atoms: C1_1  and  C4_4 
REMARK    2  A    between atoms: C4_4  and  C5_5 
ROOT
HETATM    1  C4  UNL     1     -35.065  14.911  -3.944  1.00 20.00     0.137 C 
ENDROOT
BRANCH   1   2
HETATM    2  C1  UNL     1     -34.957  13.747  -4.934  1.00 20.00     0.174 C 
HETATM    3  O6  UNL     1     -34.827  14.083  -6.144  1.00 20.00    -0.648 OA
HETATM    4  O7  UNL     1     -35.035  12.596  -4.419  1.00 20.00    -0.648 OA
ENDBRANCH   1   2
BRANCH   1   5
HETATM    5  C5  UNL     1     -33.730  15.593  -3.600  1.00 20.00     0.039 C 
HETATM    6  C2  UNL     1     -33.808  16.379  -2.287  1.00 20.00     0.032 C 
HETATM    7  C3  UNL     1     -32.572  14.592  -3.548  1.00 20.00     0.032 C 
HETATM    8 CL8  UNL     1     -33.372  16.774  -4.921  1.00 20.00    -0.119 Cl
ENDBRANCH   1   5
TORSDOF 2
ENDMDL
MODEL 6
REMARK VINA RESULT:      -3.7      1.693      2.486
REMARK  2 active torsions:
REMARK  status: ('A' for Active; 'I' for Inactive)
REMARK    1  A    between atoms: C1_1  and  C4_4 
REMARK    2  A    between atoms: C4_4  and  C5_5 
ROOT
HETATM    1  C4  UNL     1     -34.870  14.885  -3.998  1.00 20.00     0.137 C 
ENDROOT
BRANCH   1   2
HETATM    2  C1  UNL     1     -34.309  13.460  -4.056  1.00 20.00     0.174 C 
HETATM    3  O6  UNL     1     -35.143  12.569  -4.380  1.00 20.00    -0.648 OA
HETATM    4  O7  UNL     1     -33.089  13.352  -3.749  1.00 20.00    -0.648 OA
ENDBRANCH   1   2
BRANCH   1   5
HETATM    5  C5  UNL     1     -34.655  15.716  -5.274  1.00 20.00     0.039 C 
HETATM    6  C2  UNL     1     -34.545  14.834  -6.522  1.00 20.00     0.032 C 
HETATM    7  C3  UNL     1     -35.751  16.768  -5.467  1.00 20.00     0.032 C 
HETATM    8 CL8  UNL     1     -33.085  16.593  -5.088  1.00 20.00    -0.119 Cl
ENDBRANCH   1   5
TORSDOF 2
ENDMDL
MODEL 7
REMARK VINA RESULT:      -3.7      1.772      1.997
REMARK  2 active torsions:
REMARK  status: ('A' for Active; 'I' for Inactive)
REMARK    1  A    between atoms: C1_1  and  C4_4 
REMARK    2  A    between atoms: C4_4  and  C5_5 
ROOT
HETATM    1  C4  UNL     1     -34.059  14.545  -3.437  1.00 20.00     0.137 C 
ENDROOT
BRANCH   1   2
HETATM    2  C1  UNL     1     -34.545  13.723  -4.635  1.00 20.00     0.174 C 
HETATM    3  O6  UNL     1     -35.051  12.602  -4.346  1.00 20.00    -0.648 OA
HETATM    4  O7  UNL     1     -34.358  14.258  -5.764  1.00 20.00    -0.648 OA
ENDBRANCH   1   2
BRANCH   1   5
HETATM    5  C5  UNL     1     -34.891  15.802  -3.136  1.00 20.00     0.039 C 
HETATM    6  C2  UNL     1     -34.426  17.010  -3.957  1.00 20.00     0.032 C 
HETATM    7  C3  UNL     1     -36.389  15.564  -3.350  1.00 20.00     0.032 C 
HETATM    8 CL8  UNL     1     -34.647  16.205  -1.390  1.00 20.00    -0.119 Cl
ENDBRANCH   1   5
TORSDOF 2
ENDMDL
MODEL 8
REMARK VINA RESULT:      -3.3      1.869      2.496
REMARK  2 active torsions:
REMARK  status: ('A' for Active; 'I' for Inactive)
REMARK    1  A    between atoms: C1_1  and  C4_4 
REMARK    2  A    between atoms: C4_4  and  C5_5 
ROOT
HETATM    1  C4  UNL     1     -36.068  15.441  -5.188  1.00 20.00     0.137 C 
ENDROOT
BRANCH   1   2
HETATM    2  C1  UNL     1     -36.507  14.939  -3.809  1.00 20.00     0.174 C 
HETATM    3  O6  UNL     1     -37.431  14.077  -3.822  1.00 20.00    -0.648 OA
HETATM    4  O7  UNL     1     -35.908  15.466  -2.830  1.00 20.00    -0.648 OA
ENDBRANCH   1   2
BRANCH   1   5
HETATM    5  C5  UNL     1     -34.653  15.013  -5.611  1.00 20.00     0.039 C 
HETATM    6  C2  UNL     1     -34.532  14.850  -7.129  1.00 20.00     0.032 C 
HETATM    7  C3  UNL     1     -33.582  15.981  -5.097  1.00 20.00     0.032 C 
HETATM    8 CL8  UNL     1     -34.332  13.398  -4.862  1.00 20.00    -0.119 Cl
ENDBRANCH   1   5
TORSDOF 2
ENDMDL
MODEL 9
REMARK VINA RESULT:      -3.3      1.887      2.336
REMARK  2 active torsions:
REMARK  status: ('A' for Active; 'I' for Inactive)
REMARK    1  A    between atoms: C1_1  and  C4_4 
REMARK    2  A    between atoms: C4_4  and  C5_5 
ROOT
HETATM    1  C4  UNL     1     -35.358  15.017  -3.278  1.00 20.00     0.137 C 
ENDROOT
BRANCH   1   2
HETATM    2  C1  UNL     1     -36.741  15.146  -3.925  1.00 20.00     0.174 C 
HETATM    3  O6  UNL     1     -36.958  16.245  -4.510  1.00 20.00    -0.648 OA
HETATM    4  O7  UNL     1     -37.498  14.147  -3.775  1.00 20.00    -0.648 OA
ENDBRANCH   1   2
BRANCH   1   5
HETATM    5  C5  UNL     1     -34.210  14.727  -4.259  1.00 20.00     0.039 C 
HETATM    6  C2  UNL     1     -33.480  16.005  -4.683  1.00 20.00     0.032 C 
HETATM    7  C3  UNL     1     -33.212  13.713  -3.691  1.00 20.00     0.032 C 
HETATM    8 CL8  UNL     1     -34.941  13.999  -5.744  1.00 20.00    -0.119 Cl
ENDBRANCH   1   5
TORSDOF 2
ENDMDL
