MODEL 1
REMARK VINA RESULT:      -3.7      0.000      0.000
REMARK  0 active torsions:
REMARK  status: ('A' for Active; 'I' for Inactive)
ROOT
HETATM    1  C1  UNL     1     -33.050   6.231   3.733  1.00 20.00     0.064 C 
HETATM    2  C2  UNL     1     -34.201   6.428   5.928  1.00 20.00     0.030 C 
HETATM    3  C3  UNL     1     -33.976   4.991   6.379  1.00 20.00     0.075 C 
HETATM    4  C4  UNL     1     -35.332   5.305   4.079  1.00 20.00     0.093 C 
HETATM    5  C5  UNL     1     -34.348   6.425   4.406  1.00 20.00     0.103 C 
HETATM    6  N6  UNL     1     -32.030   6.078   3.203  1.00 20.00    -0.197 NA
HETATM    7  S7  UNL     1     -35.012   3.982   5.285  1.00 20.00    -0.168 SA
ENDROOT
TORSDOF 0
ENDMDL
MODEL 2
REMARK VINA RESULT:      -3.6     12.481     13.119
REMARK  0 active torsions:
REMARK  status: ('A' for Active; 'I' for Inactive)
ROOT
HETATM    1  C1  UNL     1     -34.404  13.760  -3.912  1.00 20.00     0.064 C 
HETATM    2  C2  UNL     1     -34.634  15.728  -2.410  1.00 20.00     0.030 C 
HETATM    3  C3  UNL     1     -35.673  16.469  -3.240  1.00 20.00     0.075 C 
HETATM    4  C4  UNL     1     -33.343  15.938  -4.471  1.00 20.00     0.093 C 
HETATM    5  C5  UNL     1     -33.730  14.955  -3.370  1.00 20.00     0.103 C 
HETATM    6  N6  UNL     1     -34.935  12.821  -4.338  1.00 20.00    -0.197 NA
HETATM    7  S7  UNL     1     -34.796  16.998  -4.736  1.00 20.00    -0.168 SA
ENDROOT
TORSDOF 0
ENDMDL
MODEL 3
REMARK VINA RESULT:      -3.5     12.594     13.200
REMARK  0 active torsions:
REMARK  status: ('A' for Active; 'I' for Inactive)
ROOT
HETATM    1  C1  UNL     1     -36.061  14.025  -4.262  1.00 20.00     0.064 C 
HETATM    2  C2  UNL     1     -33.616  13.821  -3.861  1.00 20.00     0.030 C 
HETATM    3  C3  UNL     1     -33.367  15.283  -3.517  1.00 20.00     0.075 C 
HETATM    4  C4  UNL     1     -34.409  14.805  -5.949  1.00 20.00     0.093 C 
HETATM    5  C5  UNL     1     -34.750  13.766  -4.884  1.00 20.00     0.103 C 
HETATM    6  N6  UNL     1     -37.093  14.230  -3.772  1.00 20.00    -0.197 NA
HETATM    7  S7  UNL     1     -33.612  16.184  -5.072  1.00 20.00    -0.168 SA
ENDROOT
TORSDOF 0
ENDMDL
MODEL 4
REMARK VINA RESULT:      -3.5     12.407     12.980
REMARK  0 active torsions:
REMARK  status: ('A' for Active; 'I' for Inactive)
ROOT
HETATM    1  C1  UNL     1     -33.411  16.100  -4.336  1.00 20.00     0.064 C 
HETATM    2  C2  UNL     1     -33.812  13.722  -3.732  1.00 20.00     0.030 C 
HETATM    3  C3  UNL     1     -34.941  13.472  -4.723  1.00 20.00     0.075 C 
HETATM    4  C4  UNL     1     -35.355  15.437  -2.935  1.00 20.00     0.093 C 
HETATM    5  C5  UNL     1     -33.892  15.182  -3.287  1.00 20.00     0.103 C 
HETATM    6  N6  UNL     1     -33.032  16.822  -5.161  1.00 20.00    -0.197 NA
HETATM    7  S7  UNL     1     -36.336  14.454  -4.110  1.00 20.00    -0.168 SA
ENDROOT
TORSDOF 0
ENDMDL
MODEL 5
REMARK VINA RESULT:      -3.3     12.403     13.133
REMARK  0 active torsions:
REMARK  status: ('A' for Active; 'I' for Inactive)
ROOT
HETATM    1  C1  UNL     1     -36.694  14.417  -4.342  1.00 20.00     0.064 C 
HETATM    2  C2  UNL     1     -34.534  13.320  -4.901  1.00 20.00     0.030 C 
HETATM    3  C3  UNL     1     -33.783  13.754  -3.650  1.00 20.00     0.075 C 
HETATM    4  C4  UNL     1     -34.760  15.734  -5.183  1.00 20.00     0.093 C 
HETATM    5  C5  UNL     1     -35.535  14.421  -5.253  1.00 20.00     0.103 C 
HETATM    6  N6  UNL     1     -37.607  14.414  -3.626  1.00 20.00    -0.197 NA
HETATM    7  S7  UNL     1     -33.568  15.546  -3.823  1.00 20.00    -0.168 SA
ENDROOT
TORSDOF 0
ENDMDL
MODEL 6
REMARK VINA RESULT:      -3.2     12.548     13.293
REMARK  0 active torsions:
REMARK  status: ('A' for Active; 'I' for Inactive)
ROOT
HETATM    1  C1  UNL     1     -35.123  13.734  -4.600  1.00 20.00     0.064 C 
HETATM    2  C2  UNL     1     -34.409  16.003  -5.324  1.00 20.00     0.030 C 
HETATM    3  C3  UNL     1     -33.206  16.118  -4.398  1.00 20.00     0.075 C 
HETATM    4  C4  UNL     1     -35.582  15.737  -3.199  1.00 20.00     0.093 C 
HETATM    5  C5  UNL     1     -35.472  15.167  -4.611  1.00 20.00     0.103 C 
HETATM    6  N6  UNL     1     -34.848  12.607  -4.591  1.00 20.00    -0.197 NA
HETATM    7  S7  UNL     1     -33.902  16.249  -2.729  1.00 20.00    -0.168 SA
ENDROOT
TORSDOF 0
ENDMDL
MODEL 7
REMARK VINA RESULT:      -3.2     12.567     13.150
REMARK  0 active torsions:
REMARK  status: ('A' for Active; 'I' for Inactive)
ROOT
HETATM    1  C1  UNL     1     -34.802  16.184  -1.670  1.00 20.00     0.064 C 
HETATM    2  C2  UNL     1     -34.234  14.412  -3.319  1.00 20.00     0.030 C 
HETATM    3  C3  UNL     1     -32.922  15.022  -3.794  1.00 20.00     0.075 C 
HETATM    4  C4  UNL     1     -35.114  16.547  -4.110  1.00 20.00     0.093 C 
HETATM    5  C5  UNL     1     -35.177  15.557  -2.951  1.00 20.00     0.103 C 
HETATM    6  N6  UNL     1     -34.507  16.677  -0.662  1.00 20.00    -0.197 NA
HETATM    7  S7  UNL     1     -33.396  16.515  -4.708  1.00 20.00    -0.168 SA
ENDROOT
TORSDOF 0
ENDMDL
MODEL 8
REMARK VINA RESULT:      -3.2     13.525     14.272
REMARK  0 active torsions:
REMARK  status: ('A' for Active; 'I' for Inactive)
ROOT
HETATM    1  C1  UNL     1     -34.819  13.555  -5.250  1.00 20.00     0.064 C 
HETATM    2  C2  UNL     1     -34.093  15.835  -5.923  1.00 20.00     0.030 C 
HETATM    3  C3  UNL     1     -35.201  16.596  -5.206  1.00 20.00     0.075 C 
HETATM    4  C4  UNL     1     -36.000  14.805  -7.046  1.00 20.00     0.093 C 
HETATM    5  C5  UNL     1     -34.664  14.492  -6.377  1.00 20.00     0.103 C 
HETATM    6  N6  UNL     1     -34.941  12.817  -4.363  1.00 20.00    -0.197 NA
HETATM    7  S7  UNL     1     -36.718  16.193  -6.116  1.00 20.00    -0.168 SA
ENDROOT
TORSDOF 0
ENDMDL
MODEL 9
REMARK VINA RESULT:      -3.2     12.384     13.219
REMARK  0 active torsions:
REMARK  status: ('A' for Active; 'I' for Inactive)
ROOT
HETATM    1  C1  UNL     1     -34.129  15.835  -2.495  1.00 20.00     0.064 C 
HETATM    2  C2  UNL     1     -33.307  16.087  -4.828  1.00 20.00     0.030 C 
HETATM    3  C3  UNL     1     -34.595  15.664  -5.520  1.00 20.00     0.075 C 
HETATM    4  C4  UNL     1     -33.501  13.854  -3.860  1.00 20.00     0.093 C 
HETATM    5  C5  UNL     1     -33.202  15.311  -3.515  1.00 20.00     0.103 C 
HETATM    6  N6  UNL     1     -34.858  16.248  -1.693  1.00 20.00    -0.197 NA
HETATM    7  S7  UNL     1     -34.764  13.893  -5.168  1.00 20.00    -0.168 SA
ENDROOT
TORSDOF 0
ENDMDL
