MODEL 1
REMARK VINA RESULT:      -4.3      0.000      0.000
REMARK  1 active torsions:
REMARK  status: ('A' for Active; 'I' for Inactive)
REMARK    1  A    between atoms: C2_2  and  C8_8 
ROOT
HETATM    1  C1  UNL     1     -33.719  17.190  -3.530  1.00 20.00     0.203 C 
HETATM    2  C2  UNL     1     -33.874  16.067  -2.502  1.00 20.00     0.244 C 
HETATM    3  C3  UNL     1     -33.923  14.467  -4.302  1.00 20.00     0.245 C 
HETATM    4  C4  UNL     1     -33.768  15.609  -5.324  1.00 20.00     0.150 C 
HETATM    5  C5  UNL     1     -34.667  13.258  -4.866  1.00 20.00     0.045 C 
HETATM    6  C6  UNL     1     -35.064  16.083  -5.985  1.00 20.00     0.042 C 
HETATM    7  N9  UNL     1     -34.612  14.946  -3.096  1.00 20.00     0.097 N 
HETATM    8  O10 UNL     1     -33.079  16.712  -4.715  1.00 20.00    -0.382 OA
HETATM    9  H27 UNL     1     -34.689  14.187  -2.419  1.00 20.00     0.317 HD
ENDROOT
BRANCH   2  10
HETATM   10  C8  UNL     1     -34.610  16.561  -1.262  1.00 20.00     0.033 C 
HETATM   11  C7  UNL     1     -33.857  17.648  -0.567  1.00 20.00     0.007 C 
ENDBRANCH   2  10
TORSDOF 1
ENDMDL
MODEL 2
REMARK VINA RESULT:      -4.2      1.827      2.234
REMARK  1 active torsions:
REMARK  status: ('A' for Active; 'I' for Inactive)
REMARK    1  A    between atoms: C2_2  and  C8_8 
ROOT
HETATM    1  C1  UNL     1     -33.474  14.512  -3.611  1.00 20.00     0.203 C 
HETATM    2  C2  UNL     1     -34.482  15.252  -2.729  1.00 20.00     0.244 C 
HETATM    3  C3  UNL     1     -36.264  14.427  -4.124  1.00 20.00     0.245 C 
HETATM    4  C4  UNL     1     -35.236  13.689  -5.004  1.00 20.00     0.150 C 
HETATM    5  C5  UNL     1     -37.527  14.824  -4.886  1.00 20.00     0.045 C 
HETATM    6  C6  UNL     1     -34.837  14.407  -6.294  1.00 20.00     0.042 C 
HETATM    7  N9  UNL     1     -35.660  15.623  -3.521  1.00 20.00     0.097 N 
HETATM    8  O10 UNL     1     -34.075  13.369  -4.223  1.00 20.00    -0.382 OA
HETATM    9  H27 UNL     1     -36.343  16.090  -2.924  1.00 20.00     0.317 HD
ENDROOT
BRANCH   2  10
HETATM   10  C8  UNL     1     -33.859  16.505  -2.124  1.00 20.00     0.033 C 
HETATM   11  C7  UNL     1     -34.449  16.829  -0.790  1.00 20.00     0.007 C 
ENDBRANCH   2  10
TORSDOF 1
ENDMDL
MODEL 3
REMARK VINA RESULT:      -4.0      1.795      1.816
REMARK  1 active torsions:
REMARK  status: ('A' for Active; 'I' for Inactive)
REMARK    1  A    between atoms: C2_2  and  C8_8 
ROOT
HETATM    1  C1  UNL     1     -33.561  15.947  -3.690  1.00 20.00     0.203 C 
HETATM    2  C2  UNL     1     -34.345  15.865  -2.378  1.00 20.00     0.244 C 
HETATM    3  C3  UNL     1     -36.178  14.856  -3.571  1.00 20.00     0.245 C 
HETATM    4  C4  UNL     1     -35.377  14.948  -4.884  1.00 20.00     0.150 C 
HETATM    5  C5  UNL     1     -37.689  14.902  -3.790  1.00 20.00     0.045 C 
HETATM    6  C6  UNL     1     -35.717  16.138  -5.783  1.00 20.00     0.042 C 
HETATM    7  N9  UNL     1     -35.785  15.933  -2.652  1.00 20.00     0.097 N 
HETATM    8  O10 UNL     1     -33.971  14.919  -4.594  1.00 20.00    -0.382 OA
HETATM    9  H27 UNL     1     -36.306  15.849  -1.780  1.00 20.00     0.317 HD
ENDROOT
BRANCH   2  10
HETATM   10  C8  UNL     1     -33.951  16.998  -1.436  1.00 20.00     0.033 C 
HETATM   11  C7  UNL     1     -34.786  17.004  -0.198  1.00 20.00     0.007 C 
ENDBRANCH   2  10
TORSDOF 1
ENDMDL
MODEL 4
REMARK VINA RESULT:      -4.0      1.674      1.813
REMARK  1 active torsions:
REMARK  status: ('A' for Active; 'I' for Inactive)
REMARK    1  A    between atoms: C2_2  and  C8_8 
ROOT
HETATM    1  C1  UNL     1     -35.576  17.173  -3.207  1.00 20.00     0.203 C 
HETATM    2  C2  UNL     1     -34.167  16.635  -2.953  1.00 20.00     0.244 C 
HETATM    3  C3  UNL     1     -34.622  14.813  -4.462  1.00 20.00     0.245 C 
HETATM    4  C4  UNL     1     -36.039  15.367  -4.706  1.00 20.00     0.150 C 
HETATM    5  C5  UNL     1     -34.534  13.299  -4.638  1.00 20.00     0.045 C 
HETATM    6  C6  UNL     1     -37.155  14.703  -3.896  1.00 20.00     0.042 C 
HETATM    7  N9  UNL     1     -34.152  15.177  -3.118  1.00 20.00     0.097 N 
HETATM    8  O10 UNL     1     -36.043  16.788  -4.502  1.00 20.00    -0.382 OA
HETATM    9  H27 UNL     1     -33.206  14.824  -2.977  1.00 20.00     0.317 HD
ENDROOT
BRANCH   2  10
HETATM   10  C8  UNL     1     -33.692  16.994  -1.550  1.00 20.00     0.033 C 
HETATM   11  C7  UNL     1     -34.768  16.798  -0.533  1.00 20.00     0.007 C 
ENDBRANCH   2  10
TORSDOF 1
ENDMDL
MODEL 5
REMARK VINA RESULT:      -3.9      1.729      2.420
REMARK  1 active torsions:
REMARK  status: ('A' for Active; 'I' for Inactive)
REMARK    1  A    between atoms: C2_2  and  C8_8 
ROOT
HETATM    1  C1  UNL     1     -35.432  15.193  -2.747  1.00 20.00     0.203 C 
HETATM    2  C2  UNL     1     -34.790  16.501  -3.212  1.00 20.00     0.244 C 
HETATM    3  C3  UNL     1     -34.927  15.724  -5.488  1.00 20.00     0.245 C 
HETATM    4  C4  UNL     1     -35.571  14.411  -5.003  1.00 20.00     0.150 C 
HETATM    5  C5  UNL     1     -34.147  15.560  -6.791  1.00 20.00     0.045 C 
HETATM    6  C6  UNL     1     -34.621  13.220  -4.871  1.00 20.00     0.042 C 
HETATM    7  N9  UNL     1     -34.041  16.275  -4.454  1.00 20.00     0.097 N 
HETATM    8  O10 UNL     1     -36.267  14.643  -3.768  1.00 20.00    -0.382 OA
HETATM    9  H27 UNL     1     -33.638  17.154  -4.777  1.00 20.00     0.317 HD
ENDROOT
BRANCH   2  10
HETATM   10  C8  UNL     1     -33.853  17.057  -2.146  1.00 20.00     0.033 C 
HETATM   11  C7  UNL     1     -34.420  16.899  -0.773  1.00 20.00     0.007 C 
ENDBRANCH   2  10
TORSDOF 1
ENDMDL
MODEL 6
REMARK VINA RESULT:      -3.9      1.868      4.271
REMARK  1 active torsions:
REMARK  status: ('A' for Active; 'I' for Inactive)
REMARK    1  A    between atoms: C2_2  and  C8_8 
ROOT
HETATM    1  C1  UNL     1     -34.434  13.726  -4.997  1.00 20.00     0.203 C 
HETATM    2  C2  UNL     1     -34.408  14.683  -6.190  1.00 20.00     0.244 C 
HETATM    3  C3  UNL     1     -33.451  16.378  -4.770  1.00 20.00     0.245 C 
HETATM    4  C4  UNL     1     -33.486  15.402  -3.578  1.00 20.00     0.150 C 
HETATM    5  C5  UNL     1     -33.552  17.842  -4.346  1.00 20.00     0.045 C 
HETATM    6  C6  UNL     1     -34.672  15.566  -2.626  1.00 20.00     0.042 C 
HETATM    7  N9  UNL     1     -34.528  16.068  -5.720  1.00 20.00     0.097 N 
HETATM    8  O10 UNL     1     -33.406  14.051  -4.059  1.00 20.00    -0.382 OA
HETATM    9  H27 UNL     1     -34.481  16.706  -6.514  1.00 20.00     0.317 HD
ENDROOT
BRANCH   2  10
HETATM   10  C8  UNL     1     -35.541  14.374  -7.162  1.00 20.00     0.033 C 
HETATM   11  C7  UNL     1     -36.754  15.201  -6.880  1.00 20.00     0.007 C 
ENDBRANCH   2  10
TORSDOF 1
ENDMDL
MODEL 7
REMARK VINA RESULT:      -3.9      2.271      4.199
REMARK  1 active torsions:
REMARK  status: ('A' for Active; 'I' for Inactive)
REMARK    1  A    between atoms: C2_2  and  C8_8 
ROOT
HETATM    1  C1  UNL     1     -36.306  14.725  -5.460  1.00 20.00     0.203 C 
HETATM    2  C2  UNL     1     -35.059  14.406  -6.287  1.00 20.00     0.244 C 
HETATM    3  C3  UNL     1     -33.800  14.175  -4.246  1.00 20.00     0.245 C 
HETATM    4  C4  UNL     1     -35.064  14.500  -3.428  1.00 20.00     0.150 C 
HETATM    5  C5  UNL     1     -32.509  14.575  -3.535  1.00 20.00     0.045 C 
HETATM    6  C6  UNL     1     -35.185  15.948  -2.948  1.00 20.00     0.042 C 
HETATM    7  N9  UNL     1     -33.857  14.830  -5.561  1.00 20.00     0.097 N 
HETATM    8  O10 UNL     1     -36.232  14.115  -4.170  1.00 20.00    -0.382 OA
HETATM    9  H27 UNL     1     -33.026  14.590  -6.101  1.00 20.00     0.317 HD
ENDROOT
BRANCH   2  10
HETATM   10  C8  UNL     1     -35.110  15.105  -7.641  1.00 20.00     0.033 C 
HETATM   11  C7  UNL     1     -34.677  16.532  -7.545  1.00 20.00     0.007 C 
ENDBRANCH   2  10
TORSDOF 1
ENDMDL
MODEL 8
REMARK VINA RESULT:      -3.8      1.783      3.600
REMARK  1 active torsions:
REMARK  status: ('A' for Active; 'I' for Inactive)
REMARK    1  A    between atoms: C2_2  and  C8_8 
ROOT
HETATM    1  C1  UNL     1     -33.311  16.670  -5.239  1.00 20.00     0.203 C 
HETATM    2  C2  UNL     1     -33.717  17.963  -4.528  1.00 20.00     0.244 C 
HETATM    3  C3  UNL     1     -33.801  16.755  -2.445  1.00 20.00     0.245 C 
HETATM    4  C4  UNL     1     -33.394  15.462  -3.177  1.00 20.00     0.150 C 
HETATM    5  C5  UNL     1     -34.641  16.496  -1.196  1.00 20.00     0.045 C 
HETATM    6  C6  UNL     1     -34.543  14.517  -3.534  1.00 20.00     0.042 C 
HETATM    7  N9  UNL     1     -34.536  17.649  -3.352  1.00 20.00     0.097 N 
HETATM    8  O10 UNL     1     -32.627  15.790  -4.346  1.00 20.00    -0.382 OA
HETATM    9  H27 UNL     1     -34.781  18.510  -2.863  1.00 20.00     0.317 HD
ENDROOT
BRANCH   2  10
HETATM   10  C8  UNL     1     -34.499  18.877  -5.464  1.00 20.00     0.033 C 
HETATM   11  C7  UNL     1     -33.851  18.982  -6.806  1.00 20.00     0.007 C 
ENDBRANCH   2  10
TORSDOF 1
ENDMDL
MODEL 9
REMARK VINA RESULT:      -3.7      1.518      3.688
REMARK  1 active torsions:
REMARK  status: ('A' for Active; 'I' for Inactive)
REMARK    1  A    between atoms: C2_2  and  C8_8 
ROOT
HETATM    1  C1  UNL     1     -35.488  16.193  -4.631  1.00 20.00     0.203 C 
HETATM    2  C2  UNL     1     -35.556  15.090  -3.573  1.00 20.00     0.244 C 
HETATM    3  C3  UNL     1     -35.244  16.755  -1.860  1.00 20.00     0.245 C 
HETATM    4  C4  UNL     1     -35.176  17.853  -2.938  1.00 20.00     0.150 C 
HETATM    5  C5  UNL     1     -34.454  17.104  -0.600  1.00 20.00     0.045 C 
HETATM    6  C6  UNL     1     -33.768  18.298  -3.337  1.00 20.00     0.042 C 
HETATM    7  N9  UNL     1     -34.764  15.475  -2.399  1.00 20.00     0.097 N 
HETATM    8  O10 UNL     1     -35.924  17.443  -4.093  1.00 20.00    -0.382 OA
HETATM    9  H27 UNL     1     -34.835  14.751  -1.684  1.00 20.00     0.317 HD
ENDROOT
BRANCH   2  10
HETATM   10  C8  UNL     1     -35.035  13.769  -4.128  1.00 20.00     0.033 C 
HETATM   11  C7  UNL     1     -33.572  13.602  -3.879  1.00 20.00     0.007 C 
ENDBRANCH   2  10
TORSDOF 1
ENDMDL
