MODEL 1
REMARK VINA RESULT:      -4.2      0.000      0.000
REMARK  2 active torsions:
REMARK  status: ('A' for Active; 'I' for Inactive)
REMARK    1  A    between atoms: C8_8  and  C9_9 
REMARK    2  A    between atoms: C8_8  and  N10_10 
ROOT
HETATM    1  C1  UNL     1     -33.376  15.603  -4.626  1.00 20.00     0.039 C 
HETATM    2  C2  UNL     1     -35.871  15.334  -4.619  1.00 20.00     0.039 C 
HETATM    3  C3  UNL     1     -33.433  15.767  -3.104  1.00 20.00     0.273 C 
HETATM    4  C4  UNL     1     -35.843  15.508  -3.097  1.00 20.00     0.273 C 
HETATM    5  C5  UNL     1     -34.551  14.772  -5.187  1.00 20.00    -0.044 C 
HETATM    6  C6  UNL     1     -34.568  14.884  -6.721  1.00 20.00     0.015 C 
HETATM    7  C7  UNL     1     -34.390  13.285  -4.819  1.00 20.00     0.015 C 
HETATM    8  N10 UNL     1     -34.713  16.346  -2.680  1.00 20.00     0.089 N 
ENDROOT
BRANCH   8   9
HETATM    9  C8  UNL     1     -34.730  16.545  -1.232  1.00 20.00     0.287 C 
BRANCH   9  10
HETATM   10  C9  UNL     1     -33.747  17.610  -0.777  1.00 20.00     0.144 C 
HETATM   11 CL11 UNL     1     -34.073  18.120   0.899  1.00 20.00    -0.129 Cl
ENDBRANCH   9  10
ENDBRANCH   8   9
TORSDOF 2
ENDMDL
MODEL 2
REMARK VINA RESULT:      -4.1      0.911      1.030
REMARK  2 active torsions:
REMARK  status: ('A' for Active; 'I' for Inactive)
REMARK    1  A    between atoms: C8_8  and  C9_9 
REMARK    2  A    between atoms: C8_8  and  N10_10 
ROOT
HETATM    1  C1  UNL     1     -33.872  15.743  -5.617  1.00 20.00     0.039 C 
HETATM    2  C2  UNL     1     -36.191  15.252  -4.795  1.00 20.00     0.039 C 
HETATM    3  C3  UNL     1     -33.544  16.304  -4.230  1.00 20.00     0.273 C 
HETATM    4  C4  UNL     1     -35.785  15.830  -3.435  1.00 20.00     0.273 C 
HETATM    5  C5  UNL     1     -34.996  14.686  -5.591  1.00 20.00    -0.044 C 
HETATM    6  C6  UNL     1     -35.442  14.379  -7.031  1.00 20.00     0.015 C 
HETATM    7  C7  UNL     1     -34.494  13.374  -4.958  1.00 20.00     0.015 C 
HETATM    8  N10 UNL     1     -34.742  16.852  -3.583  1.00 20.00     0.089 N 
ENDROOT
BRANCH   8   9
HETATM    9  C8  UNL     1     -34.404  17.430  -2.284  1.00 20.00     0.287 C 
BRANCH   9  10
HETATM   10  C9  UNL     1     -34.605  16.453  -1.139  1.00 20.00     0.144 C 
HETATM   11 CL11 UNL     1     -34.943  17.304   0.389  1.00 20.00    -0.129 Cl
ENDBRANCH   9  10
ENDBRANCH   8   9
TORSDOF 2
ENDMDL
MODEL 3
REMARK VINA RESULT:      -4.0      0.983      2.026
REMARK  2 active torsions:
REMARK  status: ('A' for Active; 'I' for Inactive)
REMARK    1  A    between atoms: C8_8  and  C9_9 
REMARK    2  A    between atoms: C8_8  and  N10_10 
ROOT
HETATM    1  C1  UNL     1     -36.065  14.724  -3.785  1.00 20.00     0.039 C 
HETATM    2  C2  UNL     1     -33.581  14.848  -3.457  1.00 20.00     0.039 C 
HETATM    3  C3  UNL     1     -36.188  16.054  -3.036  1.00 20.00     0.273 C 
HETATM    4  C4  UNL     1     -33.787  16.175  -2.718  1.00 20.00     0.273 C 
HETATM    5  C5  UNL     1     -34.697  14.546  -4.478  1.00 20.00    -0.044 C 
HETATM    6  C6  UNL     1     -34.559  13.094  -4.969  1.00 20.00     0.015 C 
HETATM    7  C7  UNL     1     -34.582  15.475  -5.701  1.00 20.00     0.015 C 
HETATM    8  N10 UNL     1     -35.101  16.219  -2.064  1.00 20.00     0.089 N 
ENDROOT
BRANCH   8   9
HETATM    9  C8  UNL     1     -35.262  17.468  -1.321  1.00 20.00     0.287 C 
BRANCH   9  10
HETATM   10  C9  UNL     1     -34.695  17.388   0.085  1.00 20.00     0.144 C 
HETATM   11 CL11 UNL     1     -33.195  18.337   0.235  1.00 20.00    -0.129 Cl
ENDBRANCH   9  10
ENDBRANCH   8   9
TORSDOF 2
ENDMDL
MODEL 4
REMARK VINA RESULT:      -4.0      1.084      1.917
REMARK  2 active torsions:
REMARK  status: ('A' for Active; 'I' for Inactive)
REMARK    1  A    between atoms: C8_8  and  C9_9 
REMARK    2  A    between atoms: C8_8  and  N10_10 
ROOT
HETATM    1  C1  UNL     1     -34.871  14.605  -4.337  1.00 20.00     0.039 C 
HETATM    2  C2  UNL     1     -33.638  16.482  -5.456  1.00 20.00     0.039 C 
HETATM    3  C3  UNL     1     -34.848  15.419  -3.040  1.00 20.00     0.273 C 
HETATM    4  C4  UNL     1     -33.656  17.233  -4.121  1.00 20.00     0.273 C 
HETATM    5  C5  UNL     1     -34.807  15.485  -5.604  1.00 20.00    -0.044 C 
HETATM    6  C6  UNL     1     -34.564  14.593  -6.834  1.00 20.00     0.015 C 
HETATM    7  C7  UNL     1     -36.137  16.234  -5.814  1.00 20.00     0.015 C 
HETATM    8  N10 UNL     1     -33.675  16.300  -2.988  1.00 20.00     0.089 N 
ENDROOT
BRANCH   8   9
HETATM    9  C8  UNL     1     -33.639  17.031  -1.722  1.00 20.00     0.287 C 
BRANCH   9  10
HETATM   10  C9  UNL     1     -34.761  16.625  -0.782  1.00 20.00     0.144 C 
HETATM   11 CL11 UNL     1     -34.767  17.628   0.691  1.00 20.00    -0.129 Cl
ENDBRANCH   9  10
ENDBRANCH   8   9
TORSDOF 2
ENDMDL
MODEL 5
REMARK VINA RESULT:      -3.9      2.880      5.035
REMARK  2 active torsions:
REMARK  status: ('A' for Active; 'I' for Inactive)
REMARK    1  A    between atoms: C8_8  and  C9_9 
REMARK    2  A    between atoms: C8_8  and  N10_10 
ROOT
HETATM    1  C1  UNL     1     -34.540  16.283  -1.524  1.00 20.00     0.039 C 
HETATM    2  C2  UNL     1     -34.804  18.667  -2.261  1.00 20.00     0.039 C 
HETATM    3  C3  UNL     1     -33.682  16.038  -2.769  1.00 20.00     0.273 C 
HETATM    4  C4  UNL     1     -33.936  18.341  -3.482  1.00 20.00     0.273 C 
HETATM    5  C5  UNL     1     -34.513  17.752  -1.053  1.00 20.00    -0.044 C 
HETATM    6  C6  UNL     1     -35.596  17.965   0.019  1.00 20.00     0.015 C 
HETATM    7  C7  UNL     1     -33.149  18.097  -0.426  1.00 20.00     0.015 C 
HETATM    8  N10 UNL     1     -34.071  16.931  -3.866  1.00 20.00     0.089 N 
ENDROOT
BRANCH   8   9
HETATM    9  C8  UNL     1     -33.279  16.649  -5.062  1.00 20.00     0.287 C 
BRANCH   9  10
HETATM   10  C9  UNL     1     -34.119  16.103  -6.204  1.00 20.00     0.144 C 
HETATM   11 CL11 UNL     1     -34.544  14.394  -5.937  1.00 20.00    -0.129 Cl
ENDBRANCH   9  10
ENDBRANCH   8   9
TORSDOF 2
ENDMDL
MODEL 6
REMARK VINA RESULT:      -3.9      3.068      4.928
REMARK  2 active torsions:
REMARK  status: ('A' for Active; 'I' for Inactive)
REMARK    1  A    between atoms: C8_8  and  C9_9 
REMARK    2  A    between atoms: C8_8  and  N10_10 
ROOT
HETATM    1  C1  UNL     1     -33.846  18.216  -1.966  1.00 20.00     0.039 C 
HETATM    2  C2  UNL     1     -34.764  15.881  -1.950  1.00 20.00     0.039 C 
HETATM    3  C3  UNL     1     -33.723  18.111  -3.489  1.00 20.00     0.273 C 
HETATM    4  C4  UNL     1     -34.610  15.855  -3.475  1.00 20.00     0.273 C 
HETATM    5  C5  UNL     1     -34.949  17.305  -1.386  1.00 20.00    -0.044 C 
HETATM    6  C6  UNL     1     -34.825  17.266   0.147  1.00 20.00     0.015 C 
HETATM    7  C7  UNL     1     -36.346  17.852  -1.737  1.00 20.00     0.015 C 
HETATM    8  N10 UNL     1     -33.509  16.722  -3.911  1.00 20.00     0.089 N 
ENDROOT
BRANCH   8   9
HETATM    9  C8  UNL     1     -33.342  16.646  -5.361  1.00 20.00     0.287 C 
BRANCH   9  10
HETATM   10  C9  UNL     1     -34.628  16.279  -6.080  1.00 20.00     0.144 C 
HETATM   11 CL11 UNL     1     -34.377  14.922  -7.207  1.00 20.00    -0.129 Cl
ENDBRANCH   9  10
ENDBRANCH   8   9
TORSDOF 2
ENDMDL
MODEL 7
REMARK VINA RESULT:      -3.8      3.141      4.936
REMARK  2 active torsions:
REMARK  status: ('A' for Active; 'I' for Inactive)
REMARK    1  A    between atoms: C8_8  and  C9_9 
REMARK    2  A    between atoms: C8_8  and  N10_10 
ROOT
HETATM    1  C1  UNL     1     -35.115  14.794  -3.584  1.00 20.00     0.039 C 
HETATM    2  C2  UNL     1     -33.774  16.555  -4.766  1.00 20.00     0.039 C 
HETATM    3  C3  UNL     1     -35.356  14.127  -4.942  1.00 20.00     0.273 C 
HETATM    4  C4  UNL     1     -34.061  15.829  -6.084  1.00 20.00     0.273 C 
HETATM    5  C5  UNL     1     -33.811  15.618  -3.541  1.00 20.00    -0.044 C 
HETATM    6  C6  UNL     1     -33.783  16.461  -2.254  1.00 20.00     0.015 C 
HETATM    7  C7  UNL     1     -32.580  14.691  -3.529  1.00 20.00     0.015 C 
HETATM    8  N10 UNL     1     -35.342  15.115  -6.028  1.00 20.00     0.089 N 
ENDROOT
BRANCH   8   9
HETATM    9  C8  UNL     1     -35.625  14.471  -7.310  1.00 20.00     0.287 C 
BRANCH   9  10
HETATM   10  C9  UNL     1     -36.938  14.933  -7.918  1.00 20.00     0.144 C 
HETATM   11 CL11 UNL     1     -37.769  16.098  -6.857  1.00 20.00    -0.129 Cl
ENDBRANCH   9  10
ENDBRANCH   8   9
TORSDOF 2
ENDMDL
MODEL 8
REMARK VINA RESULT:      -3.8      1.014      1.851
REMARK  2 active torsions:
REMARK  status: ('A' for Active; 'I' for Inactive)
REMARK    1  A    between atoms: C8_8  and  C9_9 
REMARK    2  A    between atoms: C8_8  and  N10_10 
ROOT
HETATM    1  C1  UNL     1     -36.037  15.902  -4.938  1.00 20.00     0.039 C 
HETATM    2  C2  UNL     1     -34.142  14.292  -4.605  1.00 20.00     0.039 C 
HETATM    3  C3  UNL     1     -35.617  16.599  -3.641  1.00 20.00     0.273 C 
HETATM    4  C4  UNL     1     -33.786  15.043  -3.317  1.00 20.00     0.273 C 
HETATM    5  C5  UNL     1     -34.868  15.177  -5.639  1.00 20.00    -0.044 C 
HETATM    6  C6  UNL     1     -35.420  14.291  -6.769  1.00 20.00     0.015 C 
HETATM    7  C7  UNL     1     -33.893  16.194  -6.264  1.00 20.00     0.015 C 
HETATM    8  N10 UNL     1     -34.976  15.656  -2.716  1.00 20.00     0.089 N 
ENDROOT
BRANCH   8   9
HETATM    9  C8  UNL     1     -34.629  16.325  -1.462  1.00 20.00     0.287 C 
BRANCH   9  10
HETATM   10  C9  UNL     1     -33.918  17.649  -1.683  1.00 20.00     0.144 C 
HETATM   11 CL11 UNL     1     -33.069  18.182  -0.211  1.00 20.00    -0.129 Cl
ENDBRANCH   9  10
ENDBRANCH   8   9
TORSDOF 2
ENDMDL
MODEL 9
REMARK VINA RESULT:      -3.8      2.878      4.699
REMARK  2 active torsions:
REMARK  status: ('A' for Active; 'I' for Inactive)
REMARK    1  A    between atoms: C8_8  and  C9_9 
REMARK    2  A    between atoms: C8_8  and  N10_10 
ROOT
HETATM    1  C1  UNL     1     -33.397  15.925  -2.979  1.00 20.00     0.039 C 
HETATM    2  C2  UNL     1     -35.904  15.816  -2.958  1.00 20.00     0.039 C 
HETATM    3  C3  UNL     1     -33.442  15.682  -4.490  1.00 20.00     0.273 C 
HETATM    4  C4  UNL     1     -35.864  15.576  -4.471  1.00 20.00     0.273 C 
HETATM    5  C5  UNL     1     -34.678  16.595  -2.437  1.00 20.00    -0.044 C 
HETATM    6  C6  UNL     1     -34.664  16.555  -0.899  1.00 20.00     0.015 C 
HETATM    7  C7  UNL     1     -34.747  18.071  -2.875  1.00 20.00     0.015 C 
HETATM    8  N10 UNL     1     -34.624  14.898  -4.867  1.00 20.00     0.089 N 
ENDROOT
BRANCH   8   9
HETATM    9  C8  UNL     1     -34.624  14.630  -6.304  1.00 20.00     0.287 C 
BRANCH   9  10
HETATM   10  C9  UNL     1     -35.519  15.584  -7.077  1.00 20.00     0.144 C 
HETATM   11 CL11 UNL     1     -34.597  16.973  -7.705  1.00 20.00    -0.129 Cl
ENDBRANCH   9  10
ENDBRANCH   8   9
TORSDOF 2
ENDMDL
