MODEL 1
REMARK VINA RESULT:      -4.7      0.000      0.000
REMARK  3 active torsions:
REMARK  status: ('A' for Active; 'I' for Inactive)
REMARK    1  A    between atoms: C3_3  and  C4_4 
REMARK    2  A    between atoms: C4_4  and  C5_5 
REMARK    3  A    between atoms: C5_5  and  C6_6 
ROOT
HETATM    1  C4  UNL     1     -34.760   5.554   3.815  1.00 20.00     0.005 C 
ENDROOT
BRANCH   1   2
HETATM    2  C3  UNL     1     -34.188   5.072   5.138  1.00 20.00    -0.014 A 
HETATM    3  C1  UNL     1     -34.513   5.798   6.414  1.00 20.00     0.005 A 
HETATM    4  C2  UNL     1     -35.083   4.430   6.162  1.00 20.00     0.005 A 
ENDBRANCH   1   2
BRANCH   1   5
HETATM    5  C5  UNL     1     -33.664   5.750   2.768  1.00 20.00     0.015 C 
BRANCH   5   6
HETATM    6  C6  UNL     1     -32.486   6.523   3.346  1.00 20.00     0.114 C 
HETATM    7 CL7  UNL     1     -32.078   7.905   2.302  1.00 20.00    -0.130 Cl
ENDBRANCH   5   6
ENDBRANCH   1   5
TORSDOF 3
ENDMDL
MODEL 2
REMARK VINA RESULT:      -4.5      2.392      3.948
REMARK  3 active torsions:
REMARK  status: ('A' for Active; 'I' for Inactive)
REMARK    1  A    between atoms: C3_3  and  C4_4 
REMARK    2  A    between atoms: C4_4  and  C5_5 
REMARK    3  A    between atoms: C5_5  and  C6_6 
ROOT
HETATM    1  C4  UNL     1     -33.892   6.524   4.071  1.00 20.00     0.005 C 
ENDROOT
BRANCH   1   2
HETATM    2  C3  UNL     1     -32.588   6.518   3.289  1.00 20.00    -0.014 A 
HETATM    3  C1  UNL     1     -32.238   7.671   2.390  1.00 20.00     0.005 A 
HETATM    4  C2  UNL     1     -31.474   7.454   3.666  1.00 20.00     0.005 A 
ENDBRANCH   1   2
BRANCH   1   5
HETATM    5  C5  UNL     1     -34.801   5.368   3.655  1.00 20.00     0.015 C 
BRANCH   5   6
HETATM    6  C6  UNL     1     -35.144   4.484   4.847  1.00 20.00     0.114 C 
HETATM    7 CL7  UNL     1     -34.720   5.302   6.369  1.00 20.00    -0.130 Cl
ENDBRANCH   5   6
ENDBRANCH   1   5
TORSDOF 3
ENDMDL
MODEL 3
REMARK VINA RESULT:      -4.4      1.324      2.177
REMARK  3 active torsions:
REMARK  status: ('A' for Active; 'I' for Inactive)
REMARK    1  A    between atoms: C3_3  and  C4_4 
REMARK    2  A    between atoms: C4_4  and  C5_5 
REMARK    3  A    between atoms: C5_5  and  C6_6 
ROOT
HETATM    1  C4  UNL     1     -32.688   6.211   3.277  1.00 20.00     0.005 C 
ENDROOT
BRANCH   1   2
HETATM    2  C3  UNL     1     -34.000   6.351   4.033  1.00 20.00    -0.014 A 
HETATM    3  C1  UNL     1     -35.099   5.343   3.837  1.00 20.00     0.005 A 
HETATM    4  C2  UNL     1     -34.344   5.389   5.136  1.00 20.00     0.005 A 
ENDBRANCH   1   2
BRANCH   1   5
HETATM    5  C5  UNL     1     -31.950   7.546   3.183  1.00 20.00     0.015 C 
BRANCH   5   6
HETATM    6  C6  UNL     1     -31.967   8.082   1.758  1.00 20.00     0.114 C 
HETATM    7 CL7  UNL     1     -32.545   9.765   1.735  1.00 20.00    -0.130 Cl
ENDBRANCH   5   6
ENDBRANCH   1   5
TORSDOF 3
ENDMDL
MODEL 4
REMARK VINA RESULT:      -4.3      2.223      3.849
REMARK  3 active torsions:
REMARK  status: ('A' for Active; 'I' for Inactive)
REMARK    1  A    between atoms: C3_3  and  C4_4 
REMARK    2  A    between atoms: C4_4  and  C5_5 
REMARK    3  A    between atoms: C5_5  and  C6_6 
ROOT
HETATM    1  C4  UNL     1     -33.714   5.606   3.115  1.00 20.00     0.005 C 
ENDROOT
BRANCH   1   2
HETATM    2  C3  UNL     1     -33.137   6.988   3.379  1.00 20.00    -0.014 A 
HETATM    3  C1  UNL     1     -31.670   7.155   3.661  1.00 20.00     0.005 A 
HETATM    4  C2  UNL     1     -32.246   7.644   2.361  1.00 20.00     0.005 A 
ENDBRANCH   1   2
BRANCH   1   5
HETATM    5  C5  UNL     1     -35.088   5.439   3.763  1.00 20.00     0.015 C 
BRANCH   5   6
HETATM    6  C6  UNL     1     -34.994   4.618   5.042  1.00 20.00     0.114 C 
HETATM    7 CL7  UNL     1     -34.538   5.655   6.413  1.00 20.00    -0.130 Cl
ENDBRANCH   5   6
ENDBRANCH   1   5
TORSDOF 3
ENDMDL
MODEL 5
REMARK VINA RESULT:      -4.0      2.695      4.766
REMARK  3 active torsions:
REMARK  status: ('A' for Active; 'I' for Inactive)
REMARK    1  A    between atoms: C3_3  and  C4_4 
REMARK    2  A    between atoms: C4_4  and  C5_5 
REMARK    3  A    between atoms: C5_5  and  C6_6 
ROOT
HETATM    1  C4  UNL     1     -31.805   7.557   3.055  1.00 20.00     0.005 C 
ENDROOT
BRANCH   1   2
HETATM    2  C3  UNL     1     -32.515   8.241   1.898  1.00 20.00    -0.014 A 
HETATM    3  C1  UNL     1     -32.429   9.733   1.730  1.00 20.00     0.005 A 
HETATM    4  C2  UNL     1     -31.722   8.825   0.762  1.00 20.00     0.005 A 
ENDBRANCH   1   2
BRANCH   1   5
HETATM    5  C5  UNL     1     -32.407   6.184   3.350  1.00 20.00     0.015 C 
BRANCH   5   6
HETATM    6  C6  UNL     1     -33.616   6.301   4.269  1.00 20.00     0.114 C 
HETATM    7 CL7  UNL     1     -34.993   5.394   3.602  1.00 20.00    -0.130 Cl
ENDBRANCH   5   6
ENDBRANCH   1   5
TORSDOF 3
ENDMDL
MODEL 6
REMARK VINA RESULT:      -3.4     11.752     12.319
REMARK  3 active torsions:
REMARK  status: ('A' for Active; 'I' for Inactive)
REMARK    1  A    between atoms: C3_3  and  C4_4 
REMARK    2  A    between atoms: C4_4  and  C5_5 
REMARK    3  A    between atoms: C5_5  and  C6_6 
ROOT
HETATM    1  C4  UNL     1     -33.480  15.193  -3.382  1.00 20.00     0.005 C 
ENDROOT
BRANCH   1   2
HETATM    2  C3  UNL     1     -34.716  15.530  -2.562  1.00 20.00    -0.014 A 
HETATM    3  C1  UNL     1     -34.604  16.411  -1.349  1.00 20.00     0.005 A 
HETATM    4  C2  UNL     1     -35.286  16.921  -2.588  1.00 20.00     0.005 A 
ENDBRANCH   1   2
BRANCH   1   5
HETATM    5  C5  UNL     1     -33.460  13.720  -3.787  1.00 20.00     0.015 C 
BRANCH   5   6
HETATM    6  C6  UNL     1     -34.672  13.369  -4.640  1.00 20.00     0.114 C 
HETATM    7 CL7  UNL     1     -34.723  14.391  -6.095  1.00 20.00    -0.130 Cl
ENDBRANCH   5   6
ENDBRANCH   1   5
TORSDOF 3
ENDMDL
MODEL 7
REMARK VINA RESULT:      -3.3     11.799     12.672
REMARK  3 active torsions:
REMARK  status: ('A' for Active; 'I' for Inactive)
REMARK    1  A    between atoms: C3_3  and  C4_4 
REMARK    2  A    between atoms: C4_4  and  C5_5 
REMARK    3  A    between atoms: C5_5  and  C6_6 
ROOT
HETATM    1  C4  UNL     1     -33.161  14.877  -3.597  1.00 20.00     0.005 C 
ENDROOT
BRANCH   1   2
HETATM    2  C3  UNL     1     -34.180  13.751  -3.639  1.00 20.00    -0.014 A 
HETATM    3  C1  UNL     1     -35.590  14.020  -4.087  1.00 20.00     0.005 A 
HETATM    4  C2  UNL     1     -34.666  13.217  -4.958  1.00 20.00     0.005 A 
ENDBRANCH   1   2
BRANCH   1   5
HETATM    5  C5  UNL     1     -33.685  16.080  -2.813  1.00 20.00     0.015 C 
BRANCH   5   6
HETATM    6  C6  UNL     1     -33.793  17.310  -3.704  1.00 20.00     0.114 C 
HETATM    7 CL7  UNL     1     -33.362  16.902  -5.381  1.00 20.00    -0.130 Cl
ENDBRANCH   5   6
ENDBRANCH   1   5
TORSDOF 3
ENDMDL
MODEL 8
REMARK VINA RESULT:      -3.3     11.958     12.609
REMARK  3 active torsions:
REMARK  status: ('A' for Active; 'I' for Inactive)
REMARK    1  A    between atoms: C3_3  and  C4_4 
REMARK    2  A    between atoms: C4_4  and  C5_5 
REMARK    3  A    between atoms: C5_5  and  C6_6 
ROOT
HETATM    1  C4  UNL     1     -34.046  17.076  -3.291  1.00 20.00     0.005 C 
ENDROOT
BRANCH   1   2
HETATM    2  C3  UNL     1     -33.686  16.686  -1.867  1.00 20.00    -0.014 A 
HETATM    3  C1  UNL     1     -33.684  17.719  -0.775  1.00 20.00     0.005 A 
HETATM    4  C2  UNL     1     -34.744  16.654  -0.799  1.00 20.00     0.005 A 
ENDBRANCH   1   2
BRANCH   1   5
HETATM    5  C5  UNL     1     -33.336  16.189  -4.313  1.00 20.00     0.015 C 
BRANCH   5   6
HETATM    6  C6  UNL     1     -32.866  14.888  -3.677  1.00 20.00     0.114 C 
HETATM    7 CL7  UNL     1     -34.170  13.677  -3.706  1.00 20.00    -0.130 Cl
ENDBRANCH   5   6
ENDBRANCH   1   5
TORSDOF 3
ENDMDL
MODEL 9
REMARK VINA RESULT:      -3.3     11.964     12.266
REMARK  3 active torsions:
REMARK  status: ('A' for Active; 'I' for Inactive)
REMARK    1  A    between atoms: C3_3  and  C4_4 
REMARK    2  A    between atoms: C4_4  and  C5_5 
REMARK    3  A    between atoms: C5_5  and  C6_6 
ROOT
HETATM    1  C4  UNL     1     -35.490  16.348  -2.650  1.00 20.00     0.005 C 
ENDROOT
BRANCH   1   2
HETATM    2  C3  UNL     1     -34.529  16.270  -1.475  1.00 20.00    -0.014 A 
HETATM    3  C1  UNL     1     -33.662  17.448  -1.125  1.00 20.00     0.005 A 
HETATM    4  C2  UNL     1     -34.799  17.056  -0.222  1.00 20.00     0.005 A 
ENDBRANCH   1   2
BRANCH   1   5
HETATM    5  C5  UNL     1     -35.604  15.006  -3.372  1.00 20.00     0.015 C 
BRANCH   5   6
HETATM    6  C6  UNL     1     -34.477  14.828  -4.381  1.00 20.00     0.114 C 
HETATM    7 CL7  UNL     1     -33.239  13.723  -3.739  1.00 20.00    -0.130 Cl
ENDBRANCH   5   6
ENDBRANCH   1   5
TORSDOF 3
ENDMDL
