MODEL 1
REMARK VINA RESULT:      -4.2      0.000      0.000
REMARK  1 active torsions:
REMARK  status: ('A' for Active; 'I' for Inactive)
REMARK    1  A    between atoms: C1_1  and  C2_2 
ROOT
HETATM    1  C1  UNL     1     -34.919   4.798   4.712  1.00 20.00     0.417 C 
HETATM    2  F3  UNL     1     -36.002   5.362   4.122  1.00 20.00    -0.208 F 
HETATM    3  F4  UNL     1     -35.123   3.459   4.716  1.00 20.00    -0.208 F 
ENDROOT
BRANCH   1   4
HETATM    4  C2  UNL     1     -34.797   5.300   6.124  1.00 20.00     0.417 C 
HETATM    5  F5  UNL     1     -33.979   4.484   6.830  1.00 20.00    -0.208 F 
HETATM    6  F6  UNL     1     -34.227   6.529   6.120  1.00 20.00    -0.208 F 
ENDBRANCH   1   4
TORSDOF 1
ENDMDL
MODEL 2
REMARK VINA RESULT:      -4.2      0.048      2.423
REMARK  1 active torsions:
REMARK  status: ('A' for Active; 'I' for Inactive)
REMARK    1  A    between atoms: C1_1  and  C2_2 
ROOT
HETATM    1  C1  UNL     1     -34.774   5.343   6.108  1.00 20.00     0.417 C 
HETATM    2  F3  UNL     1     -34.157   6.550   6.069  1.00 20.00    -0.208 F 
HETATM    3  F4  UNL     1     -33.987   4.520   6.841  1.00 20.00    -0.208 F 
ENDROOT
BRANCH   1   4
HETATM    4  C2  UNL     1     -34.913   4.804   4.711  1.00 20.00     0.417 C 
HETATM    5  F5  UNL     1     -35.123   3.467   4.755  1.00 20.00    -0.208 F 
HETATM    6  F6  UNL     1     -35.999   5.357   4.118  1.00 20.00    -0.208 F 
ENDBRANCH   1   4
TORSDOF 1
ENDMDL
MODEL 3
REMARK VINA RESULT:      -4.2      1.112      1.803
REMARK  1 active torsions:
REMARK  status: ('A' for Active; 'I' for Inactive)
REMARK    1  A    between atoms: C1_1  and  C2_2 
ROOT
HETATM    1  C1  UNL     1     -34.636   5.340   4.517  1.00 20.00     0.417 C 
HETATM    2  F3  UNL     1     -34.271   6.619   4.250  1.00 20.00    -0.208 F 
HETATM    3  F4  UNL     1     -35.932   5.213   4.144  1.00 20.00    -0.208 F 
ENDROOT
BRANCH   1   4
HETATM    4  C2  UNL     1     -34.502   5.075   5.990  1.00 20.00     0.417 C 
HETATM    5  F5  UNL     1     -34.600   6.238   6.676  1.00 20.00    -0.208 F 
HETATM    6  F6  UNL     1     -35.522   4.284   6.403  1.00 20.00    -0.208 F 
ENDBRANCH   1   4
TORSDOF 1
ENDMDL
MODEL 4
REMARK VINA RESULT:      -4.2      1.108      2.525
REMARK  1 active torsions:
REMARK  status: ('A' for Active; 'I' for Inactive)
REMARK    1  A    between atoms: C1_1  and  C2_2 
ROOT
HETATM    1  C1  UNL     1     -34.481   5.117   5.957  1.00 20.00     0.417 C 
HETATM    2  F3  UNL     1     -35.510   4.340   6.378  1.00 20.00    -0.208 F 
HETATM    3  F4  UNL     1     -34.556   6.281   6.646  1.00 20.00    -0.208 F 
ENDROOT
BRANCH   1   4
HETATM    4  C2  UNL     1     -34.623   5.387   4.485  1.00 20.00     0.417 C 
HETATM    5  F5  UNL     1     -35.917   5.237   4.115  1.00 20.00    -0.208 F 
HETATM    6  F6  UNL     1     -34.283   6.673   4.226  1.00 20.00    -0.208 F 
ENDBRANCH   1   4
TORSDOF 1
ENDMDL
MODEL 5
REMARK VINA RESULT:      -4.2      0.973      1.378
REMARK  1 active torsions:
REMARK  status: ('A' for Active; 'I' for Inactive)
REMARK    1  A    between atoms: C1_1  and  C2_2 
ROOT
HETATM    1  C1  UNL     1     -34.781   5.310   4.486  1.00 20.00     0.417 C 
HETATM    2  F3  UNL     1     -34.237   6.546   4.367  1.00 20.00    -0.208 F 
HETATM    3  F4  UNL     1     -35.995   5.353   3.885  1.00 20.00    -0.208 F 
ENDROOT
BRANCH   1   4
HETATM    4  C2  UNL     1     -34.946   4.971   5.942  1.00 20.00     0.417 C 
HETATM    5  F5  UNL     1     -34.074   3.994   6.286  1.00 20.00    -0.208 F 
HETATM    6  F6  UNL     1     -34.646   6.055   6.696  1.00 20.00    -0.208 F 
ENDBRANCH   1   4
TORSDOF 1
ENDMDL
MODEL 6
REMARK VINA RESULT:      -4.1      1.002      2.732
REMARK  1 active torsions:
REMARK  status: ('A' for Active; 'I' for Inactive)
REMARK    1  A    between atoms: C1_1  and  C2_2 
ROOT
HETATM    1  C1  UNL     1     -34.097   5.849   5.692  1.00 20.00     0.417 C 
HETATM    2  F3  UNL     1     -34.353   6.642   6.761  1.00 20.00    -0.208 F 
HETATM    3  F4  UNL     1     -34.096   6.647   4.597  1.00 20.00    -0.208 F 
ENDROOT
BRANCH   1   4
HETATM    4  C2  UNL     1     -35.178   4.811   5.564  1.00 20.00     0.417 C 
HETATM    5  F5  UNL     1     -35.819   4.961   4.381  1.00 20.00    -0.208 F 
HETATM    6  F6  UNL     1     -34.621   3.576   5.561  1.00 20.00    -0.208 F 
ENDBRANCH   1   4
TORSDOF 1
ENDMDL
MODEL 7
REMARK VINA RESULT:      -4.1      0.688      2.623
REMARK  1 active torsions:
REMARK  status: ('A' for Active; 'I' for Inactive)
REMARK    1  A    between atoms: C1_1  and  C2_2 
ROOT
HETATM    1  C1  UNL     1     -34.732   5.324   6.187  1.00 20.00     0.417 C 
HETATM    2  F3  UNL     1     -33.960   6.437   6.132  1.00 20.00    -0.208 F 
HETATM    3  F4  UNL     1     -33.945   4.318   6.640  1.00 20.00    -0.208 F 
ENDROOT
BRANCH   1   4
HETATM    4  C2  UNL     1     -35.238   4.993   4.810  1.00 20.00     0.417 C 
HETATM    5  F5  UNL     1     -34.465   5.601   3.879  1.00 20.00    -0.208 F 
HETATM    6  F6  UNL     1     -35.139   3.658   4.600  1.00 20.00    -0.208 F 
ENDBRANCH   1   4
TORSDOF 1
ENDMDL
MODEL 8
REMARK VINA RESULT:      -4.1      0.995      1.927
REMARK  1 active torsions:
REMARK  status: ('A' for Active; 'I' for Inactive)
REMARK    1  A    between atoms: C1_1  and  C2_2 
ROOT
HETATM    1  C1  UNL     1     -35.159   4.836   5.569  1.00 20.00     0.417 C 
HETATM    2  F3  UNL     1     -34.599   3.601   5.581  1.00 20.00    -0.208 F 
HETATM    3  F4  UNL     1     -35.827   4.955   4.396  1.00 20.00    -0.208 F 
ENDROOT
BRANCH   1   4
HETATM    4  C2  UNL     1     -34.080   5.879   5.649  1.00 20.00     0.417 C 
HETATM    5  F5  UNL     1     -34.115   6.660   4.544  1.00 20.00    -0.208 F 
HETATM    6  F6  UNL     1     -34.310   6.687   6.713  1.00 20.00    -0.208 F 
ENDBRANCH   1   4
TORSDOF 1
ENDMDL
MODEL 9
REMARK VINA RESULT:      -4.1      1.139      2.469
REMARK  1 active torsions:
REMARK  status: ('A' for Active; 'I' for Inactive)
REMARK    1  A    between atoms: C1_1  and  C2_2 
ROOT
HETATM    1  C1  UNL     1     -34.029   5.892   5.432  1.00 20.00     0.417 C 
HETATM    2  F3  UNL     1     -34.389   6.521   6.577  1.00 20.00    -0.208 F 
HETATM    3  F4  UNL     1     -34.181   6.785   4.425  1.00 20.00    -0.208 F 
ENDROOT
BRANCH   1   4
HETATM    4  C2  UNL     1     -34.930   4.710   5.203  1.00 20.00     0.417 C 
HETATM    5  F5  UNL     1     -35.526   4.355   6.366  1.00 20.00    -0.208 F 
HETATM    6  F6  UNL     1     -35.916   5.053   4.339  1.00 20.00    -0.208 F 
ENDBRANCH   1   4
TORSDOF 1
ENDMDL
