MODEL 1
REMARK VINA RESULT:      -5.1      0.000      0.000
REMARK  5 active torsions:
REMARK  status: ('A' for Active; 'I' for Inactive)
REMARK    1  A    between atoms: C1_1  and  C3_3 
REMARK    2  A    between atoms: C3_3  and  C4_4 
REMARK    3  A    between atoms: C4_4  and  C5_5 
REMARK    4  A    between atoms: C5_5  and  C6_6 
REMARK    5  A    between atoms: C6_6  and  C7_7 
ROOT
HETATM    1  C4  UNL     1     -33.594   5.447   2.884  1.00 20.00     0.004 C 
ENDROOT
BRANCH   1   2
HETATM    2  C3  UNL     1     -32.310   6.214   3.208  1.00 20.00     0.028 C 
BRANCH   2   3
HETATM    3  C1  UNL     1     -32.446   7.670   2.870  1.00 20.00    -0.015 C 
HETATM    4  C2  UNL     1     -32.083   8.189   1.694  1.00 20.00     0.080 C 
HETATM    5 CL8  UNL     1     -32.250   9.852   1.317  1.00 20.00    -0.097 Cl
ENDBRANCH   2   3
ENDBRANCH   1   2
BRANCH   1   6
HETATM    6  C5  UNL     1     -34.734   5.852   3.823  1.00 20.00     0.001 C 
BRANCH   6   7
HETATM    7  C6  UNL     1     -35.121   4.699   4.755  1.00 20.00     0.015 C 
BRANCH   7   8
HETATM    8  C7  UNL     1     -34.739   4.947   6.211  1.00 20.00     0.114 C 
HETATM    9 CL9  UNL     1     -34.028   6.559   6.450  1.00 20.00    -0.130 Cl
ENDBRANCH   7   8
ENDBRANCH   6   7
ENDBRANCH   1   6
TORSDOF 5
ENDMDL
MODEL 2
REMARK VINA RESULT:      -4.6      1.176      1.241
REMARK  5 active torsions:
REMARK  status: ('A' for Active; 'I' for Inactive)
REMARK    1  A    between atoms: C1_1  and  C3_3 
REMARK    2  A    between atoms: C3_3  and  C4_4 
REMARK    3  A    between atoms: C4_4  and  C5_5 
REMARK    4  A    between atoms: C5_5  and  C6_6 
REMARK    5  A    between atoms: C6_6  and  C7_7 
ROOT
HETATM    1  C4  UNL     1     -33.431   5.807   2.831  1.00 20.00     0.004 C 
ENDROOT
BRANCH   1   2
HETATM    2  C3  UNL     1     -32.146   6.395   3.419  1.00 20.00     0.028 C 
BRANCH   2   3
HETATM    3  C1  UNL     1     -31.824   7.724   2.801  1.00 20.00    -0.015 C 
HETATM    4  C2  UNL     1     -32.563   8.288   1.842  1.00 20.00     0.080 C 
HETATM    5 CL8  UNL     1     -32.188   9.809   1.148  1.00 20.00    -0.097 Cl
ENDBRANCH   2   3
ENDBRANCH   1   2
BRANCH   1   6
HETATM    6  C5  UNL     1     -34.546   5.752   3.880  1.00 20.00     0.001 C 
BRANCH   6   7
HETATM    7  C6  UNL     1     -34.082   6.349   5.213  1.00 20.00     0.015 C 
BRANCH   7   8
HETATM    8  C7  UNL     1     -34.482   5.509   6.422  1.00 20.00     0.114 C 
HETATM    9 CL9  UNL     1     -35.130   3.922   5.947  1.00 20.00    -0.130 Cl
ENDBRANCH   7   8
ENDBRANCH   6   7
ENDBRANCH   1   6
TORSDOF 5
ENDMDL
MODEL 3
REMARK VINA RESULT:      -4.5      1.334      1.890
REMARK  5 active torsions:
REMARK  status: ('A' for Active; 'I' for Inactive)
REMARK    1  A    between atoms: C1_1  and  C3_3 
REMARK    2  A    between atoms: C3_3  and  C4_4 
REMARK    3  A    between atoms: C4_4  and  C5_5 
REMARK    4  A    between atoms: C5_5  and  C6_6 
REMARK    5  A    between atoms: C6_6  and  C7_7 
ROOT
HETATM    1  C4  UNL     1     -35.275   5.369   3.828  1.00 20.00     0.004 C 
ENDROOT
BRANCH   1   2
HETATM    2  C3  UNL     1     -34.225   5.353   2.715  1.00 20.00     0.028 C 
BRANCH   2   3
HETATM    3  C1  UNL     1     -32.928   5.947   3.182  1.00 20.00    -0.015 C 
HETATM    4  C2  UNL     1     -32.607   7.233   3.018  1.00 20.00     0.080 C 
HETATM    5 CL8  UNL     1     -31.126   7.901   3.561  1.00 20.00    -0.097 Cl
ENDBRANCH   2   3
ENDBRANCH   1   2
BRANCH   1   6
HETATM    6  C5  UNL     1     -35.171   4.120   4.708  1.00 20.00     0.001 C 
BRANCH   6   7
HETATM    7  C6  UNL     1     -34.370   4.405   5.982  1.00 20.00     0.015 C 
BRANCH   7   8
HETATM    8  C7  UNL     1     -34.745   5.726   6.647  1.00 20.00     0.114 C 
HETATM    9 CL9  UNL     1     -33.426   6.916   6.559  1.00 20.00    -0.130 Cl
ENDBRANCH   7   8
ENDBRANCH   6   7
ENDBRANCH   1   6
TORSDOF 5
ENDMDL
MODEL 4
REMARK VINA RESULT:      -4.4      0.951      1.126
REMARK  5 active torsions:
REMARK  status: ('A' for Active; 'I' for Inactive)
REMARK    1  A    between atoms: C1_1  and  C3_3 
REMARK    2  A    between atoms: C3_3  and  C4_4 
REMARK    3  A    between atoms: C4_4  and  C5_5 
REMARK    4  A    between atoms: C5_5  and  C6_6 
REMARK    5  A    between atoms: C6_6  and  C7_7 
ROOT
HETATM    1  C4  UNL     1     -32.773   6.071   3.378  1.00 20.00     0.004 C 
ENDROOT
BRANCH   1   2
HETATM    2  C3  UNL     1     -31.818   7.267   3.379  1.00 20.00     0.028 C 
BRANCH   2   3
HETATM    3  C1  UNL     1     -31.792   7.944   2.039  1.00 20.00    -0.015 C 
HETATM    4  C2  UNL     1     -32.462   9.068   1.770  1.00 20.00     0.080 C 
HETATM    5 CL8  UNL     1     -32.420   9.834   0.238  1.00 20.00    -0.097 Cl
ENDBRANCH   2   3
ENDBRANCH   1   2
BRANCH   1   6
HETATM    6  C5  UNL     1     -34.129   6.443   3.984  1.00 20.00     0.001 C 
BRANCH   6   7
HETATM    7  C6  UNL     1     -35.118   5.277   3.884  1.00 20.00     0.015 C 
BRANCH   7   8
HETATM    8  C7  UNL     1     -35.144   4.400   5.133  1.00 20.00     0.114 C 
HETATM    9 CL9  UNL     1     -34.535   5.260   6.565  1.00 20.00    -0.130 Cl
ENDBRANCH   7   8
ENDBRANCH   6   7
ENDBRANCH   1   6
TORSDOF 5
ENDMDL
MODEL 5
REMARK VINA RESULT:      -4.2      1.685      4.136
REMARK  5 active torsions:
REMARK  status: ('A' for Active; 'I' for Inactive)
REMARK    1  A    between atoms: C1_1  and  C3_3 
REMARK    2  A    between atoms: C3_3  and  C4_4 
REMARK    3  A    between atoms: C4_4  and  C5_5 
REMARK    4  A    between atoms: C5_5  and  C6_6 
REMARK    5  A    between atoms: C6_6  and  C7_7 
ROOT
HETATM    1  C4  UNL     1     -35.416   5.213   4.159  1.00 20.00     0.004 C 
ENDROOT
BRANCH   1   2
HETATM    2  C3  UNL     1     -35.006   4.437   5.413  1.00 20.00     0.028 C 
BRANCH   2   3
HETATM    3  C1  UNL     1     -34.336   5.334   6.413  1.00 20.00    -0.015 C 
HETATM    4  C2  UNL     1     -34.100   6.630   6.196  1.00 20.00     0.080 C 
HETATM    5 CL8  UNL     1     -33.341   7.646   7.348  1.00 20.00    -0.097 Cl
ENDBRANCH   2   3
ENDBRANCH   1   2
BRANCH   1   6
HETATM    6  C5  UNL     1     -34.384   5.045   3.040  1.00 20.00     0.001 C 
BRANCH   6   7
HETATM    7  C6  UNL     1     -33.574   6.329   2.837  1.00 20.00     0.015 C 
BRANCH   7   8
HETATM    8  C7  UNL     1     -32.097   6.172   3.185  1.00 20.00     0.114 C 
HETATM    9 CL9  UNL     1     -31.393   7.682   3.809  1.00 20.00    -0.130 Cl
ENDBRANCH   7   8
ENDBRANCH   6   7
ENDBRANCH   1   6
TORSDOF 5
ENDMDL
MODEL 6
REMARK VINA RESULT:      -4.1      1.080      4.358
REMARK  5 active torsions:
REMARK  status: ('A' for Active; 'I' for Inactive)
REMARK    1  A    between atoms: C1_1  and  C3_3 
REMARK    2  A    between atoms: C3_3  and  C4_4 
REMARK    3  A    between atoms: C4_4  and  C5_5 
REMARK    4  A    between atoms: C5_5  and  C6_6 
REMARK    5  A    between atoms: C6_6  and  C7_7 
ROOT
HETATM    1  C4  UNL     1     -34.879   5.680   3.717  1.00 20.00     0.004 C 
ENDROOT
BRANCH   1   2
HETATM    2  C3  UNL     1     -34.906   4.796   4.966  1.00 20.00     0.028 C 
BRANCH   2   3
HETATM    3  C1  UNL     1     -34.448   5.553   6.178  1.00 20.00    -0.015 C 
HETATM    4  C2  UNL     1     -33.977   6.802   6.132  1.00 20.00     0.080 C 
HETATM    5 CL8  UNL     1     -33.464   7.658   7.524  1.00 20.00    -0.097 Cl
ENDBRANCH   2   3
ENDBRANCH   1   2
BRANCH   1   6
HETATM    6  C5  UNL     1     -33.778   5.238   2.748  1.00 20.00     0.001 C 
BRANCH   6   7
HETATM    7  C6  UNL     1     -32.468   5.984   3.019  1.00 20.00     0.015 C 
BRANCH   7   8
HETATM    8  C7  UNL     1     -32.620   7.502   2.975  1.00 20.00     0.114 C 
HETATM    9 CL9  UNL     1     -31.874   8.206   1.522  1.00 20.00    -0.130 Cl
ENDBRANCH   7   8
ENDBRANCH   6   7
ENDBRANCH   1   6
TORSDOF 5
ENDMDL
MODEL 7
REMARK VINA RESULT:      -4.1      1.274      5.257
REMARK  5 active torsions:
REMARK  status: ('A' for Active; 'I' for Inactive)
REMARK    1  A    between atoms: C1_1  and  C3_3 
REMARK    2  A    between atoms: C3_3  and  C4_4 
REMARK    3  A    between atoms: C4_4  and  C5_5 
REMARK    4  A    between atoms: C5_5  and  C6_6 
REMARK    5  A    between atoms: C6_6  and  C7_7 
ROOT
HETATM    1  C4  UNL     1     -32.256   6.071   3.333  1.00 20.00     0.004 C 
ENDROOT
BRANCH   1   2
HETATM    2  C3  UNL     1     -33.740   6.143   2.963  1.00 20.00     0.028 C 
BRANCH   2   3
HETATM    3  C1  UNL     1     -34.577   5.339   3.915  1.00 20.00    -0.015 C 
HETATM    4  C2  UNL     1     -34.323   5.249   5.223  1.00 20.00     0.080 C 
HETATM    5 CL8  UNL     1     -35.289   4.333   6.301  1.00 20.00    -0.097 Cl
ENDBRANCH   2   3
ENDBRANCH   1   2
BRANCH   1   6
HETATM    6  C5  UNL     1     -31.607   7.458   3.290  1.00 20.00     0.001 C 
BRANCH   6   7
HETATM    7  C6  UNL     1     -32.379   8.402   2.363  1.00 20.00     0.015 C 
BRANCH   7   8
HETATM    8  C7  UNL     1     -31.666   8.664   1.040  1.00 20.00     0.114 C 
HETATM    9 CL9  UNL     1     -32.805   9.071  -0.264  1.00 20.00    -0.130 Cl
ENDBRANCH   7   8
ENDBRANCH   6   7
ENDBRANCH   1   6
TORSDOF 5
ENDMDL
MODEL 8
REMARK VINA RESULT:      -3.8     10.887     11.881
REMARK  5 active torsions:
REMARK  status: ('A' for Active; 'I' for Inactive)
REMARK    1  A    between atoms: C1_1  and  C3_3 
REMARK    2  A    between atoms: C3_3  and  C4_4 
REMARK    3  A    between atoms: C4_4  and  C5_5 
REMARK    4  A    between atoms: C5_5  and  C6_6 
REMARK    5  A    between atoms: C6_6  and  C7_7 
ROOT
HETATM    1  C4  UNL     1     -33.699  16.223  -3.092  1.00 20.00     0.004 C 
ENDROOT
BRANCH   1   2
HETATM    2  C3  UNL     1     -34.814  15.936  -2.084  1.00 20.00     0.028 C 
BRANCH   2   3
HETATM    3  C1  UNL     1     -34.578  16.661  -0.791  1.00 20.00    -0.015 C 
HETATM    4  C2  UNL     1     -33.708  17.666  -0.659  1.00 20.00     0.080 C 
HETATM    5 CL8  UNL     1     -33.451  18.490   0.821  1.00 20.00    -0.097 Cl
ENDBRANCH   2   3
ENDBRANCH   1   2
BRANCH   1   6
HETATM    6  C5  UNL     1     -33.168  14.929  -3.715  1.00 20.00     0.001 C 
BRANCH   6   7
HETATM    7  C6  UNL     1     -34.205  13.804  -3.623  1.00 20.00     0.015 C 
BRANCH   7   8
HETATM    8  C7  UNL     1     -34.703  13.331  -4.985  1.00 20.00     0.114 C 
HETATM    9 CL9  UNL     1     -34.470  14.562  -6.247  1.00 20.00    -0.130 Cl
ENDBRANCH   7   8
ENDBRANCH   6   7
ENDBRANCH   1   6
TORSDOF 5
ENDMDL
MODEL 9
REMARK VINA RESULT:      -3.7     10.773     12.024
REMARK  5 active torsions:
REMARK  status: ('A' for Active; 'I' for Inactive)
REMARK    1  A    between atoms: C1_1  and  C3_3 
REMARK    2  A    between atoms: C3_3  and  C4_4 
REMARK    3  A    between atoms: C4_4  and  C5_5 
REMARK    4  A    between atoms: C5_5  and  C6_6 
REMARK    5  A    between atoms: C6_6  and  C7_7 
ROOT
HETATM    1  C4  UNL     1     -34.554  15.004  -3.094  1.00 20.00     0.004 C 
ENDROOT
BRANCH   1   2
HETATM    2  C3  UNL     1     -33.514  16.113  -2.912  1.00 20.00     0.028 C 
BRANCH   2   3
HETATM    3  C1  UNL     1     -33.834  16.969  -1.722  1.00 20.00    -0.015 C 
HETATM    4  C2  UNL     1     -34.663  16.591  -0.746  1.00 20.00     0.080 C 
HETATM    5 CL8  UNL     1     -35.016  17.574   0.612  1.00 20.00    -0.097 Cl
ENDBRANCH   2   3
ENDBRANCH   1   2
BRANCH   1   6
HETATM    6  C5  UNL     1     -33.931  13.759  -3.732  1.00 20.00     0.001 C 
BRANCH   6   7
HETATM    7  C6  UNL     1     -34.738  13.299  -4.951  1.00 20.00     0.015 C 
BRANCH   7   8
HETATM    8  C7  UNL     1     -35.361  14.452  -5.732  1.00 20.00     0.114 C 
HETATM    9 CL9  UNL     1     -34.319  14.994  -7.067  1.00 20.00    -0.130 Cl
ENDBRANCH   7   8
ENDBRANCH   6   7
ENDBRANCH   1   6
TORSDOF 5
ENDMDL
