MODEL 1
REMARK VINA RESULT:      -3.3      0.000      0.000
REMARK  2 active torsions:
REMARK  status: ('A' for Active; 'I' for Inactive)
REMARK    1  A    between atoms: C4_4  and  C5_5 
REMARK    2  A    between atoms: C5_5  and  N6_6 
ROOT
HETATM    1  C1  UNL     1     -33.334  17.021  -5.039  1.00 20.00     0.158 C 
HETATM    2  N6  UNL     1     -32.942  16.040  -4.531  1.00 20.00    -0.264 NA
HETATM    3  S7  UNL     1     -33.829  18.368  -5.728  1.00 20.00    -0.055 SA
ENDROOT
BRANCH   2   4
HETATM    4  C5  UNL     1     -33.966  15.000  -4.341  1.00 20.00     0.060 C 
HETATM    5  C2  UNL     1     -34.513  14.630  -5.725  1.00 20.00     0.041 C 
HETATM    6  C3  UNL     1     -33.287  13.778  -3.714  1.00 20.00     0.041 C 
BRANCH   4   7
HETATM    7  C4  UNL     1     -35.103  15.559  -3.472  1.00 20.00     0.147 C 
HETATM    8 CL8  UNL     1     -34.575  16.034  -1.834  1.00 20.00    -0.128 Cl
ENDBRANCH   4   7
ENDBRANCH   2   4
TORSDOF 2
ENDMDL
MODEL 2
REMARK VINA RESULT:      -3.3      2.813      3.211
REMARK  2 active torsions:
REMARK  status: ('A' for Active; 'I' for Inactive)
REMARK    1  A    between atoms: C4_4  and  C5_5 
REMARK    2  A    between atoms: C5_5  and  N6_6 
ROOT
HETATM    1  C1  UNL     1     -34.989  15.782  -2.600  1.00 20.00     0.158 C 
HETATM    2  N6  UNL     1     -35.332  15.198  -3.556  1.00 20.00    -0.264 NA
HETATM    3  S7  UNL     1     -34.562  16.577  -1.289  1.00 20.00    -0.055 SA
ENDROOT
BRANCH   2   4
HETATM    4  C5  UNL     1     -34.235  14.797  -4.453  1.00 20.00     0.060 C 
HETATM    5  C2  UNL     1     -33.455  16.063  -4.826  1.00 20.00     0.041 C 
HETATM    6  C3  UNL     1     -33.321  13.840  -3.681  1.00 20.00     0.041 C 
BRANCH   4   7
HETATM    7  C4  UNL     1     -34.823  14.162  -5.723  1.00 20.00     0.147 C 
HETATM    8 CL8  UNL     1     -34.319  14.984  -7.224  1.00 20.00    -0.128 Cl
ENDBRANCH   4   7
ENDBRANCH   2   4
TORSDOF 2
ENDMDL
MODEL 3
REMARK VINA RESULT:      -3.2      1.859      2.134
REMARK  2 active torsions:
REMARK  status: ('A' for Active; 'I' for Inactive)
REMARK    1  A    between atoms: C4_4  and  C5_5 
REMARK    2  A    between atoms: C5_5  and  N6_6 
ROOT
HETATM    1  C1  UNL     1     -34.574  15.324  -5.946  1.00 20.00     0.158 C 
HETATM    2  N6  UNL     1     -34.073  15.904  -5.059  1.00 20.00    -0.264 NA
HETATM    3  S7  UNL     1     -35.240  14.565  -7.177  1.00 20.00    -0.055 SA
ENDROOT
BRANCH   2   4
HETATM    4  C5  UNL     1     -34.255  15.276  -3.739  1.00 20.00     0.060 C 
HETATM    5  C2  UNL     1     -35.763  15.127  -3.501  1.00 20.00     0.041 C 
HETATM    6  C3  UNL     1     -33.603  13.891  -3.782  1.00 20.00     0.041 C 
BRANCH   4   7
HETATM    7  C4  UNL     1     -33.650  16.184  -2.657  1.00 20.00     0.147 C 
HETATM    8 CL8  UNL     1     -34.673  16.329  -1.202  1.00 20.00    -0.128 Cl
ENDBRANCH   4   7
ENDBRANCH   2   4
TORSDOF 2
ENDMDL
MODEL 4
REMARK VINA RESULT:      -3.2      3.076      3.488
REMARK  2 active torsions:
REMARK  status: ('A' for Active; 'I' for Inactive)
REMARK    1  A    between atoms: C4_4  and  C5_5 
REMARK    2  A    between atoms: C5_5  and  N6_6 
ROOT
HETATM    1  C1  UNL     1     -36.340  15.019  -3.529  1.00 20.00     0.158 C 
HETATM    2  N6  UNL     1     -35.217  15.126  -3.213  1.00 20.00    -0.264 NA
HETATM    3  S7  UNL     1     -37.877  14.886  -3.921  1.00 20.00    -0.055 SA
ENDROOT
BRANCH   2   4
HETATM    4  C5  UNL     1     -34.250  14.784  -4.269  1.00 20.00     0.060 C 
HETATM    5  C2  UNL     1     -32.843  14.940  -3.678  1.00 20.00     0.041 C 
HETATM    6  C3  UNL     1     -34.481  13.323  -4.666  1.00 20.00     0.041 C 
BRANCH   4   7
HETATM    7  C4  UNL     1     -34.422  15.754  -5.449  1.00 20.00     0.147 C 
HETATM    8 CL8  UNL     1     -34.335  14.955  -7.042  1.00 20.00    -0.128 Cl
ENDBRANCH   4   7
ENDBRANCH   2   4
TORSDOF 2
ENDMDL
MODEL 5
REMARK VINA RESULT:      -3.2      3.492      3.980
REMARK  2 active torsions:
REMARK  status: ('A' for Active; 'I' for Inactive)
REMARK    1  A    between atoms: C4_4  and  C5_5 
REMARK    2  A    between atoms: C5_5  and  N6_6 
ROOT
HETATM    1  C1  UNL     1     -38.214  15.036  -3.674  1.00 20.00     0.158 C 
HETATM    2  N6  UNL     1     -37.440  14.162  -3.785  1.00 20.00    -0.264 NA
HETATM    3  S7  UNL     1     -39.293  16.196  -3.516  1.00 20.00    -0.055 SA
ENDROOT
BRANCH   2   4
HETATM    4  C5  UNL     1     -36.073  14.596  -4.115  1.00 20.00     0.060 C 
HETATM    5  C2  UNL     1     -36.141  15.390  -5.424  1.00 20.00     0.041 C 
HETATM    6  C3  UNL     1     -35.581  15.508  -2.987  1.00 20.00     0.041 C 
BRANCH   4   7
HETATM    7  C4  UNL     1     -35.181  13.359  -4.310  1.00 20.00     0.147 C 
HETATM    8 CL8  UNL     1     -33.481  13.630  -3.840  1.00 20.00    -0.128 Cl
ENDBRANCH   4   7
ENDBRANCH   2   4
TORSDOF 2
ENDMDL
MODEL 6
REMARK VINA RESULT:      -3.2      2.519      3.096
REMARK  2 active torsions:
REMARK  status: ('A' for Active; 'I' for Inactive)
REMARK    1  A    between atoms: C4_4  and  C5_5 
REMARK    2  A    between atoms: C5_5  and  N6_6 
ROOT
HETATM    1  C1  UNL     1     -34.967  15.859  -2.598  1.00 20.00     0.158 C 
HETATM    2  N6  UNL     1     -35.258  15.337  -3.606  1.00 20.00    -0.264 NA
HETATM    3  S7  UNL     1     -34.611  16.571  -1.219  1.00 20.00    -0.055 SA
ENDROOT
BRANCH   2   4
HETATM    4  C5  UNL     1     -34.112  14.943  -4.442  1.00 20.00     0.060 C 
HETATM    5  C2  UNL     1     -33.411  13.770  -3.745  1.00 20.00     0.041 C 
HETATM    6  C3  UNL     1     -34.654  14.483  -5.799  1.00 20.00     0.041 C 
BRANCH   4   7
HETATM    7  C4  UNL     1     -33.139  16.126  -4.560  1.00 20.00     0.147 C 
HETATM    8 CL8  UNL     1     -33.662  17.359  -5.739  1.00 20.00    -0.128 Cl
ENDBRANCH   4   7
ENDBRANCH   2   4
TORSDOF 2
ENDMDL
MODEL 7
REMARK VINA RESULT:      -3.2      1.875      2.211
REMARK  2 active torsions:
REMARK  status: ('A' for Active; 'I' for Inactive)
REMARK    1  A    between atoms: C4_4  and  C5_5 
REMARK    2  A    between atoms: C5_5  and  N6_6 
ROOT
HETATM    1  C1  UNL     1     -33.383  17.049  -4.822  1.00 20.00     0.158 C 
HETATM    2  N6  UNL     1     -33.076  15.951  -4.553  1.00 20.00    -0.264 NA
HETATM    3  S7  UNL     1     -33.763  18.548  -5.202  1.00 20.00    -0.055 SA
ENDROOT
BRANCH   2   4
HETATM    4  C5  UNL     1     -34.159  15.139  -3.972  1.00 20.00     0.060 C 
HETATM    5  C2  UNL     1     -33.636  13.705  -3.828  1.00 20.00     0.041 C 
HETATM    6  C3  UNL     1     -34.484  15.708  -2.587  1.00 20.00     0.041 C 
BRANCH   4   7
HETATM    7  C4  UNL     1     -35.368  15.153  -4.919  1.00 20.00     0.147 C 
HETATM    8 CL8  UNL     1     -35.113  14.203  -6.408  1.00 20.00    -0.128 Cl
ENDBRANCH   4   7
ENDBRANCH   2   4
TORSDOF 2
ENDMDL
MODEL 8
REMARK VINA RESULT:      -3.1     12.841     13.295
REMARK  2 active torsions:
REMARK  status: ('A' for Active; 'I' for Inactive)
REMARK    1  A    between atoms: C4_4  and  C5_5 
REMARK    2  A    between atoms: C5_5  and  N6_6 
ROOT
HETATM    1  C1  UNL     1     -42.015   7.253  -2.806  1.00 20.00     0.158 C 
HETATM    2  N6  UNL     1     -41.270   6.674  -2.112  1.00 20.00    -0.264 NA
HETATM    3  S7  UNL     1     -42.999   8.067  -3.757  1.00 20.00    -0.055 SA
ENDROOT
BRANCH   2   4
HETATM    4  C5  UNL     1     -41.813   5.434  -1.532  1.00 20.00     0.060 C 
HETATM    5  C2  UNL     1     -40.654   4.694  -0.852  1.00 20.00     0.041 C 
HETATM    6  C3  UNL     1     -42.860   5.822  -0.483  1.00 20.00     0.041 C 
BRANCH   4   7
HETATM    7  C4  UNL     1     -42.393   4.560  -2.655  1.00 20.00     0.147 C 
HETATM    8 CL8  UNL     1     -41.559   2.992  -2.834  1.00 20.00    -0.128 Cl
ENDBRANCH   4   7
ENDBRANCH   2   4
TORSDOF 2
ENDMDL
MODEL 9
REMARK VINA RESULT:      -3.1     13.663     14.172
REMARK  2 active torsions:
REMARK  status: ('A' for Active; 'I' for Inactive)
REMARK    1  A    between atoms: C4_4  and  C5_5 
REMARK    2  A    between atoms: C5_5  and  N6_6 
ROOT
HETATM    1  C1  UNL     1     -41.393   3.509  -2.383  1.00 20.00     0.158 C 
HETATM    2  N6  UNL     1     -40.813   4.284  -1.723  1.00 20.00    -0.264 NA
HETATM    3  S7  UNL     1     -42.147   2.434  -3.284  1.00 20.00    -0.055 SA
ENDROOT
BRANCH   2   4
HETATM    4  C5  UNL     1     -41.642   5.382  -1.200  1.00 20.00     0.060 C 
HETATM    5  C2  UNL     1     -40.786   6.177  -0.207  1.00 20.00     0.041 C 
HETATM    6  C3  UNL     1     -42.030   6.282  -2.377  1.00 20.00     0.041 C 
BRANCH   4   7
HETATM    7  C4  UNL     1     -42.863   4.796  -0.472  1.00 20.00     0.147 C 
HETATM    8 CL8  UNL     1     -43.123   5.494   1.149  1.00 20.00    -0.128 Cl
ENDBRANCH   4   7
ENDBRANCH   2   4
TORSDOF 2
ENDMDL
