MODEL 1
REMARK VINA RESULT:      -5.0      0.000      0.000
REMARK  3 active torsions:
REMARK  status: ('A' for Active; 'I' for Inactive)
REMARK    1  A    between atoms: C3_3  and  C7_7 
REMARK    2  A    between atoms: C5_5  and  C6_6 
REMARK    3  A    between atoms: C6_6  and  C7_7 
ROOT
HETATM    1  C1  UNL     1     -31.788   7.307   3.297  1.00 20.00     0.012 C 
HETATM    2  C2  UNL     1     -32.700   6.553   3.092  1.00 20.00    -0.117 C 
HETATM    3  C5  UNL     1     -33.815   5.629   2.837  1.00 20.00     0.093 C 
ENDROOT
BRANCH   3   4
HETATM    4  C6  UNL     1     -34.840   5.627   3.978  1.00 20.00     0.023 C 
BRANCH   4   5
HETATM    5  C7  UNL     1     -34.274   5.165   5.331  1.00 20.00     0.044 C 
HETATM    6  C4  UNL     1     -35.069   3.976   5.867  1.00 20.00     0.017 C 
BRANCH   5   7
HETATM    7  C3  UNL     1     -34.304   6.255   6.389  1.00 20.00     0.235 C 
HETATM    8  O8  UNL     1     -33.381   7.026   6.631  1.00 20.00    -0.306 OA
ENDBRANCH   5   7
ENDBRANCH   4   5
ENDBRANCH   3   4
TORSDOF 3
ENDMDL
MODEL 2
REMARK VINA RESULT:      -4.9      1.777      2.250
REMARK  3 active torsions:
REMARK  status: ('A' for Active; 'I' for Inactive)
REMARK    1  A    between atoms: C3_3  and  C7_7 
REMARK    2  A    between atoms: C5_5  and  C6_6 
REMARK    3  A    between atoms: C6_6  and  C7_7 
ROOT
HETATM    1  C1  UNL     1     -32.095   8.280   1.881  1.00 20.00     0.012 C 
HETATM    2  C2  UNL     1     -32.290   7.454   2.730  1.00 20.00    -0.117 C 
HETATM    3  C5  UNL     1     -32.523   6.443   3.772  1.00 20.00     0.093 C 
ENDROOT
BRANCH   3   4
HETATM    4  C6  UNL     1     -33.955   5.895   3.738  1.00 20.00     0.023 C 
BRANCH   4   5
HETATM    5  C7  UNL     1     -34.637   5.829   5.115  1.00 20.00     0.044 C 
HETATM    6  C4  UNL     1     -33.799   6.559   6.163  1.00 20.00     0.017 C 
BRANCH   5   7
HETATM    7  C3  UNL     1     -34.849   4.407   5.604  1.00 20.00     0.235 C 
HETATM    8  O8  UNL     1     -35.139   3.453   4.888  1.00 20.00    -0.306 OA
ENDBRANCH   5   7
ENDBRANCH   4   5
ENDBRANCH   3   4
TORSDOF 3
ENDMDL
MODEL 3
REMARK VINA RESULT:      -4.3      2.321      4.317
REMARK  3 active torsions:
REMARK  status: ('A' for Active; 'I' for Inactive)
REMARK    1  A    between atoms: C3_3  and  C7_7 
REMARK    2  A    between atoms: C5_5  and  C6_6 
REMARK    3  A    between atoms: C6_6  and  C7_7 
ROOT
HETATM    1  C1  UNL     1     -34.921   4.340   5.865  1.00 20.00     0.012 C 
HETATM    2  C2  UNL     1     -34.424   5.298   5.338  1.00 20.00    -0.117 C 
HETATM    3  C5  UNL     1     -33.818   6.474   4.697  1.00 20.00     0.093 C 
ENDROOT
BRANCH   3   4
HETATM    4  C6  UNL     1     -33.247   6.150   3.311  1.00 20.00     0.023 C 
BRANCH   4   5
HETATM    5  C7  UNL     1     -32.029   7.003   2.918  1.00 20.00     0.044 C 
HETATM    6  C4  UNL     1     -31.386   7.624   4.157  1.00 20.00     0.017 C 
BRANCH   5   7
HETATM    7  C3  UNL     1     -32.380   8.133   1.965  1.00 20.00     0.235 C 
HETATM    8  O8  UNL     1     -31.630   8.588   1.107  1.00 20.00    -0.306 OA
ENDBRANCH   5   7
ENDBRANCH   4   5
ENDBRANCH   3   4
TORSDOF 3
ENDMDL
MODEL 4
REMARK VINA RESULT:      -4.2      2.205      4.010
REMARK  3 active torsions:
REMARK  status: ('A' for Active; 'I' for Inactive)
REMARK    1  A    between atoms: C3_3  and  C7_7 
REMARK    2  A    between atoms: C5_5  and  C6_6 
REMARK    3  A    between atoms: C6_6  and  C7_7 
ROOT
HETATM    1  C1  UNL     1     -35.084   4.375   6.268  1.00 20.00     0.012 C 
HETATM    2  C2  UNL     1     -35.011   4.855   5.170  1.00 20.00    -0.117 C 
HETATM    3  C5  UNL     1     -34.925   5.438   3.823  1.00 20.00     0.093 C 
ENDROOT
BRANCH   3   4
HETATM    4  C6  UNL     1     -34.048   6.696   3.790  1.00 20.00     0.023 C 
BRANCH   4   5
HETATM    5  C7  UNL     1     -32.923   6.651   2.742  1.00 20.00     0.044 C 
HETATM    6  C4  UNL     1     -31.869   5.616   3.130  1.00 20.00     0.017 C 
BRANCH   5   7
HETATM    7  C3  UNL     1     -32.217   7.986   2.573  1.00 20.00     0.235 C 
HETATM    8  O8  UNL     1     -31.802   8.432   1.508  1.00 20.00    -0.306 OA
ENDBRANCH   5   7
ENDBRANCH   4   5
ENDBRANCH   3   4
TORSDOF 3
ENDMDL
MODEL 5
REMARK VINA RESULT:      -4.1     11.816     12.445
REMARK  3 active torsions:
REMARK  status: ('A' for Active; 'I' for Inactive)
REMARK    1  A    between atoms: C3_3  and  C7_7 
REMARK    2  A    between atoms: C5_5  and  C6_6 
REMARK    3  A    between atoms: C6_6  and  C7_7 
ROOT
HETATM    1  C1  UNL     1     -35.038  17.354   0.489  1.00 20.00     0.012 C 
HETATM    2  C2  UNL     1     -34.586  17.006  -0.568  1.00 20.00    -0.117 C 
HETATM    3  C5  UNL     1     -34.029  16.583  -1.861  1.00 20.00     0.093 C 
ENDROOT
BRANCH   3   4
HETATM    4  C6  UNL     1     -34.957  15.616  -2.605  1.00 20.00     0.023 C 
BRANCH   4   5
HETATM    5  C7  UNL     1     -34.239  14.402  -3.220  1.00 20.00     0.044 C 
HETATM    6  C4  UNL     1     -32.891  14.817  -3.805  1.00 20.00     0.017 C 
BRANCH   5   7
HETATM    7  C3  UNL     1     -35.039  13.740  -4.328  1.00 20.00     0.235 C 
HETATM    8  O8  UNL     1     -34.862  12.596  -4.736  1.00 20.00    -0.306 OA
ENDBRANCH   5   7
ENDBRANCH   4   5
ENDBRANCH   3   4
TORSDOF 3
ENDMDL
MODEL 6
REMARK VINA RESULT:      -4.1      1.795      3.314
REMARK  3 active torsions:
REMARK  status: ('A' for Active; 'I' for Inactive)
REMARK    1  A    between atoms: C3_3  and  C7_7 
REMARK    2  A    between atoms: C5_5  and  C6_6 
REMARK    3  A    between atoms: C6_6  and  C7_7 
ROOT
HETATM    1  C1  UNL     1     -33.637   7.139   6.720  1.00 20.00     0.012 C 
HETATM    2  C2  UNL     1     -34.155   6.072   6.532  1.00 20.00    -0.117 C 
HETATM    3  C5  UNL     1     -34.789   4.765   6.309  1.00 20.00     0.093 C 
ENDROOT
BRANCH   3   4
HETATM    4  C6  UNL     1     -35.004   4.471   4.819  1.00 20.00     0.023 C 
BRANCH   4   5
HETATM    5  C7  UNL     1     -34.851   5.701   3.907  1.00 20.00     0.044 C 
HETATM    6  C4  UNL     1     -36.138   5.950   3.123  1.00 20.00     0.017 C 
BRANCH   5   7
HETATM    7  C3  UNL     1     -33.720   5.557   2.903  1.00 20.00     0.235 C 
HETATM    8  O8  UNL     1     -32.585   5.997   3.054  1.00 20.00    -0.306 OA
ENDBRANCH   5   7
ENDBRANCH   4   5
ENDBRANCH   3   4
TORSDOF 3
ENDMDL
MODEL 7
REMARK VINA RESULT:      -4.0      1.768      4.021
REMARK  3 active torsions:
REMARK  status: ('A' for Active; 'I' for Inactive)
REMARK    1  A    between atoms: C3_3  and  C7_7 
REMARK    2  A    between atoms: C5_5  and  C6_6 
REMARK    3  A    between atoms: C6_6  and  C7_7 
ROOT
HETATM    1  C1  UNL     1     -35.171   4.059   6.119  1.00 20.00     0.012 C 
HETATM    2  C2  UNL     1     -34.599   5.114   6.158  1.00 20.00    -0.117 C 
HETATM    3  C5  UNL     1     -33.898   6.406   6.213  1.00 20.00     0.093 C 
ENDROOT
BRANCH   3   4
HETATM    4  C6  UNL     1     -33.776   7.058   4.830  1.00 20.00     0.023 C 
BRANCH   4   5
HETATM    5  C7  UNL     1     -32.799   6.343   3.881  1.00 20.00     0.044 C 
HETATM    6  C4  UNL     1     -31.826   7.343   3.260  1.00 20.00     0.017 C 
BRANCH   5   7
HETATM    7  C3  UNL     1     -33.501   5.617   2.746  1.00 20.00     0.235 C 
HETATM    8  O8  UNL     1     -34.673   5.255   2.761  1.00 20.00    -0.306 OA
ENDBRANCH   5   7
ENDBRANCH   4   5
ENDBRANCH   3   4
TORSDOF 3
ENDMDL
MODEL 8
REMARK VINA RESULT:      -4.0      1.935      3.950
REMARK  3 active torsions:
REMARK  status: ('A' for Active; 'I' for Inactive)
REMARK    1  A    between atoms: C3_3  and  C7_7 
REMARK    2  A    between atoms: C5_5  and  C6_6 
REMARK    3  A    between atoms: C6_6  and  C7_7 
ROOT
HETATM    1  C1  UNL     1     -35.194   4.062   6.021  1.00 20.00     0.012 C 
HETATM    2  C2  UNL     1     -34.693   5.152   5.960  1.00 20.00    -0.117 C 
HETATM    3  C5  UNL     1     -34.084   6.488   5.888  1.00 20.00     0.093 C 
ENDROOT
BRANCH   3   4
HETATM    4  C6  UNL     1     -32.902   6.535   4.913  1.00 20.00     0.023 C 
BRANCH   4   5
HETATM    5  C7  UNL     1     -33.301   6.808   3.452  1.00 20.00     0.044 C 
HETATM    6  C4  UNL     1     -33.672   5.507   2.745  1.00 20.00     0.017 C 
BRANCH   5   7
HETATM    7  C3  UNL     1     -32.194   7.470   2.650  1.00 20.00     0.235 C 
HETATM    8  O8  UNL     1     -32.301   8.536   2.050  1.00 20.00    -0.306 OA
ENDBRANCH   5   7
ENDBRANCH   4   5
ENDBRANCH   3   4
TORSDOF 3
ENDMDL
MODEL 9
REMARK VINA RESULT:      -3.9     12.011     12.600
REMARK  3 active torsions:
REMARK  status: ('A' for Active; 'I' for Inactive)
REMARK    1  A    between atoms: C3_3  and  C7_7 
REMARK    2  A    between atoms: C5_5  and  C6_6 
REMARK    3  A    between atoms: C6_6  and  C7_7 
ROOT
HETATM    1  C1  UNL     1     -34.794  16.988  -0.244  1.00 20.00     0.012 C 
HETATM    2  C2  UNL     1     -34.338  16.663  -1.306  1.00 20.00    -0.117 C 
HETATM    3  C5  UNL     1     -33.778  16.271  -2.608  1.00 20.00     0.093 C 
ENDROOT
BRANCH   3   4
HETATM    4  C6  UNL     1     -34.237  14.873  -3.040  1.00 20.00     0.023 C 
BRANCH   4   5
HETATM    5  C7  UNL     1     -35.203  14.871  -4.238  1.00 20.00     0.044 C 
HETATM    6  C4  UNL     1     -36.652  14.805  -3.758  1.00 20.00     0.017 C 
BRANCH   5   7
HETATM    7  C3  UNL     1     -34.975  13.702  -5.180  1.00 20.00     0.235 C 
HETATM    8  O8  UNL     1     -34.784  12.542  -4.829  1.00 20.00    -0.306 OA
ENDBRANCH   5   7
ENDBRANCH   4   5
ENDBRANCH   3   4
TORSDOF 3
ENDMDL
