MODEL 1
REMARK VINA RESULT:      -5.4      0.000      0.000
REMARK  2 active torsions:
REMARK  status: ('A' for Active; 'I' for Inactive)
REMARK    1  A    between atoms: C1_1  and  C2_2 
REMARK    2  A    between atoms: C2_2  and  C3_3 
ROOT
HETATM    1  C2  UNL     1     -33.935   6.109   3.792  1.00 20.00     0.365 C 
HETATM    2  F5  UNL     1     -34.254   5.238   2.792  1.00 20.00    -0.193 F 
HETATM    3  F6  UNL     1     -34.699   7.216   3.578  1.00 20.00    -0.193 F 
ENDROOT
BRANCH   1   4
HETATM    4  C1  UNL     1     -32.471   6.489   3.629  1.00 20.00     0.345 C 
HETATM    5  F4  UNL     1     -31.805   5.395   3.159  1.00 20.00    -0.226 F 
HETATM    6 CL9  UNL     1     -32.218   7.821   2.486  1.00 20.00    -0.083 Cl
ENDBRANCH   1   4
BRANCH   1   7
HETATM    7  C3  UNL     1     -34.356   5.488   5.113  1.00 20.00     0.388 C 
HETATM    8  F7  UNL     1     -33.662   4.333   5.291  1.00 20.00    -0.181 F 
HETATM    9  F8  UNL     1     -35.666   5.141   5.080  1.00 20.00    -0.181 F 
HETATM   10 CL10 UNL     1     -34.062   6.553   6.498  1.00 20.00    -0.042 Cl
ENDBRANCH   1   7
TORSDOF 2
ENDMDL
MODEL 2
REMARK VINA RESULT:      -5.3      1.407      3.477
REMARK  2 active torsions:
REMARK  status: ('A' for Active; 'I' for Inactive)
REMARK    1  A    between atoms: C1_1  and  C2_2 
REMARK    2  A    between atoms: C2_2  and  C3_3 
ROOT
HETATM    1  C2  UNL     1     -33.791   6.186   3.809  1.00 20.00     0.365 C 
HETATM    2  F5  UNL     1     -34.647   7.247   3.816  1.00 20.00    -0.193 F 
HETATM    3  F6  UNL     1     -34.181   5.401   2.766  1.00 20.00    -0.193 F 
ENDROOT
BRANCH   1   4
HETATM    4  C1  UNL     1     -33.995   5.414   5.103  1.00 20.00     0.345 C 
HETATM    5  F4  UNL     1     -34.389   6.302   6.061  1.00 20.00    -0.226 F 
HETATM    6 CL9  UNL     1     -35.235   4.152   4.976  1.00 20.00    -0.083 Cl
ENDBRANCH   1   4
BRANCH   1   7
HETATM    7  C3  UNL     1     -32.394   6.706   3.514  1.00 20.00     0.388 C 
HETATM    8  F7  UNL     1     -31.581   5.647   3.259  1.00 20.00    -0.181 F 
HETATM    9  F8  UNL     1     -31.876   7.327   4.602  1.00 20.00    -0.181 F 
HETATM   10 CL10 UNL     1     -32.349   7.809   2.127  1.00 20.00    -0.042 Cl
ENDBRANCH   1   7
TORSDOF 2
ENDMDL
MODEL 3
REMARK VINA RESULT:      -5.2      1.263      1.380
REMARK  2 active torsions:
REMARK  status: ('A' for Active; 'I' for Inactive)
REMARK    1  A    between atoms: C1_1  and  C2_2 
REMARK    2  A    between atoms: C2_2  and  C3_3 
ROOT
HETATM    1  C2  UNL     1     -34.659   5.779   4.240  1.00 20.00     0.365 C 
HETATM    2  F5  UNL     1     -35.858   5.273   3.835  1.00 20.00    -0.193 F 
HETATM    3  F6  UNL     1     -34.771   7.132   4.131  1.00 20.00    -0.193 F 
ENDROOT
BRANCH   1   4
HETATM    4  C1  UNL     1     -33.596   5.297   3.264  1.00 20.00     0.345 C 
HETATM    5  F4  UNL     1     -34.198   5.100   2.056  1.00 20.00    -0.226 F 
HETATM    6 CL9  UNL     1     -32.276   6.459   3.040  1.00 20.00    -0.083 Cl
ENDBRANCH   1   4
BRANCH   1   7
HETATM    7  C3  UNL     1     -34.471   5.436   5.709  1.00 20.00     0.388 C 
HETATM    8  F7  UNL     1     -33.679   4.335   5.800  1.00 20.00    -0.181 F 
HETATM    9  F8  UNL     1     -35.656   5.098   6.274  1.00 20.00    -0.181 F 
HETATM   10 CL10 UNL     1     -33.730   6.753   6.634  1.00 20.00    -0.042 Cl
ENDBRANCH   1   7
TORSDOF 2
ENDMDL
MODEL 4
REMARK VINA RESULT:      -5.1      1.371      1.645
REMARK  2 active torsions:
REMARK  status: ('A' for Active; 'I' for Inactive)
REMARK    1  A    between atoms: C1_1  and  C2_2 
REMARK    2  A    between atoms: C2_2  and  C3_3 
ROOT
HETATM    1  C2  UNL     1     -34.038   6.175   4.411  1.00 20.00     0.365 C 
HETATM    2  F5  UNL     1     -34.728   7.247   3.927  1.00 20.00    -0.193 F 
HETATM    3  F6  UNL     1     -33.568   6.556   5.631  1.00 20.00    -0.193 F 
ENDROOT
BRANCH   1   4
HETATM    4  C1  UNL     1     -32.853   5.930   3.488  1.00 20.00     0.345 C 
HETATM    5  F4  UNL     1     -33.343   5.642   2.248  1.00 20.00    -0.226 F 
HETATM    6 CL9  UNL     1     -31.777   7.332   3.345  1.00 20.00    -0.083 Cl
ENDBRANCH   1   4
BRANCH   1   7
HETATM    7  C3  UNL     1     -35.018   5.033   4.615  1.00 20.00     0.388 C 
HETATM    8  F7  UNL     1     -34.571   3.949   3.927  1.00 20.00    -0.181 F 
HETATM    9  F8  UNL     1     -36.228   5.342   4.087  1.00 20.00    -0.181 F 
HETATM   10 CL10 UNL     1     -35.213   4.589   6.319  1.00 20.00    -0.042 Cl
ENDBRANCH   1   7
TORSDOF 2
ENDMDL
MODEL 5
REMARK VINA RESULT:      -5.1      1.553      3.322
REMARK  2 active torsions:
REMARK  status: ('A' for Active; 'I' for Inactive)
REMARK    1  A    between atoms: C1_1  and  C2_2 
REMARK    2  A    between atoms: C2_2  and  C3_3 
ROOT
HETATM    1  C2  UNL     1     -34.988   4.984   4.617  1.00 20.00     0.365 C 
HETATM    2  F5  UNL     1     -36.263   5.349   4.300  1.00 20.00    -0.193 F 
HETATM    3  F6  UNL     1     -34.897   3.658   4.323  1.00 20.00    -0.193 F 
ENDROOT
BRANCH   1   4
HETATM    4  C1  UNL     1     -34.812   5.165   6.117  1.00 20.00     0.345 C 
HETATM    5  F4  UNL     1     -34.015   4.154   6.569  1.00 20.00    -0.226 F 
HETATM    6 CL9  UNL     1     -34.047   6.705   6.551  1.00 20.00    -0.083 Cl
ENDBRANCH   1   4
BRANCH   1   7
HETATM    7  C3  UNL     1     -34.037   5.739   3.703  1.00 20.00     0.388 C 
HETATM    8  F7  UNL     1     -32.776   5.627   4.199  1.00 20.00    -0.181 F 
HETATM    9  F8  UNL     1     -34.327   7.063   3.701  1.00 20.00    -0.181 F 
HETATM   10 CL10 UNL     1     -34.054   5.129   2.039  1.00 20.00    -0.042 Cl
ENDBRANCH   1   7
TORSDOF 2
ENDMDL
MODEL 6
REMARK VINA RESULT:      -5.0      1.475      3.244
REMARK  2 active torsions:
REMARK  status: ('A' for Active; 'I' for Inactive)
REMARK    1  A    between atoms: C1_1  and  C2_2 
REMARK    2  A    between atoms: C2_2  and  C3_3 
ROOT
HETATM    1  C2  UNL     1     -35.015   4.963   4.531  1.00 20.00     0.365 C 
HETATM    2  F5  UNL     1     -36.327   5.242   4.283  1.00 20.00    -0.193 F 
HETATM    3  F6  UNL     1     -34.854   3.643   4.236  1.00 20.00    -0.193 F 
ENDROOT
BRANCH   1   4
HETATM    4  C1  UNL     1     -34.770   5.164   6.019  1.00 20.00     0.345 C 
HETATM    5  F4  UNL     1     -33.950   4.161   6.446  1.00 20.00    -0.226 F 
HETATM    6 CL9  UNL     1     -33.991   6.712   6.395  1.00 20.00    -0.083 Cl
ENDBRANCH   1   4
BRANCH   1   7
HETATM    7  C3  UNL     1     -34.168   5.772   3.563  1.00 20.00     0.388 C 
HETATM    8  F7  UNL     1     -34.553   7.074   3.633  1.00 20.00    -0.181 F 
HETATM    9  F8  UNL     1     -34.395   5.378   2.286  1.00 20.00    -0.181 F 
HETATM   10 CL10 UNL     1     -32.434   5.668   3.914  1.00 20.00    -0.042 Cl
ENDBRANCH   1   7
TORSDOF 2
ENDMDL
MODEL 7
REMARK VINA RESULT:      -5.0      1.560      1.985
REMARK  2 active torsions:
REMARK  status: ('A' for Active; 'I' for Inactive)
REMARK    1  A    between atoms: C1_1  and  C2_2 
REMARK    2  A    between atoms: C2_2  and  C3_3 
ROOT
HETATM    1  C2  UNL     1     -33.977   6.200   4.614  1.00 20.00     0.365 C 
HETATM    2  F5  UNL     1     -34.751   7.220   4.145  1.00 20.00    -0.193 F 
HETATM    3  F6  UNL     1     -33.211   6.740   5.603  1.00 20.00    -0.193 F 
ENDROOT
BRANCH   1   4
HETATM    4  C1  UNL     1     -33.066   5.749   3.483  1.00 20.00     0.345 C 
HETATM    5  F4  UNL     1     -33.852   5.254   2.485  1.00 20.00    -0.226 F 
HETATM    6 CL9  UNL     1     -32.083   7.063   2.811  1.00 20.00    -0.083 Cl
ENDBRANCH   1   4
BRANCH   1   7
HETATM    7  C3  UNL     1     -34.892   5.160   5.237  1.00 20.00     0.388 C 
HETATM    8  F7  UNL     1     -36.029   5.082   4.497  1.00 20.00    -0.181 F 
HETATM    9  F8  UNL     1     -35.275   5.544   6.480  1.00 20.00    -0.181 F 
HETATM   10 CL10 UNL     1     -34.151   3.552   5.319  1.00 20.00    -0.042 Cl
ENDBRANCH   1   7
TORSDOF 2
ENDMDL
MODEL 8
REMARK VINA RESULT:      -4.9      1.508      3.473
REMARK  2 active torsions:
REMARK  status: ('A' for Active; 'I' for Inactive)
REMARK    1  A    between atoms: C1_1  and  C2_2 
REMARK    2  A    between atoms: C2_2  and  C3_3 
ROOT
HETATM    1  C2  UNL     1     -33.542   6.445   4.462  1.00 20.00     0.365 C 
HETATM    2  F5  UNL     1     -32.775   7.187   5.311  1.00 20.00    -0.193 F 
HETATM    3  F6  UNL     1     -34.611   7.228   4.147  1.00 20.00    -0.193 F 
ENDROOT
BRANCH   1   4
HETATM    4  C1  UNL     1     -34.038   5.227   5.227  1.00 20.00     0.345 C 
HETATM    5  F4  UNL     1     -34.288   5.614   6.511  1.00 20.00    -0.226 F 
HETATM    6 CL9  UNL     1     -35.531   4.542   4.557  1.00 20.00    -0.083 Cl
ENDBRANCH   1   4
BRANCH   1   7
HETATM    7  C3  UNL     1     -32.743   6.200   3.194  1.00 20.00     0.388 C 
HETATM    8  F7  UNL     1     -33.507   5.477   2.332  1.00 20.00    -0.181 F 
HETATM    9  F8  UNL     1     -31.650   5.442   3.457  1.00 20.00    -0.181 F 
HETATM   10 CL10 UNL     1     -32.242   7.700   2.395  1.00 20.00    -0.042 Cl
ENDBRANCH   1   7
TORSDOF 2
ENDMDL
MODEL 9
REMARK VINA RESULT:      -4.8      1.782      3.034
REMARK  2 active torsions:
REMARK  status: ('A' for Active; 'I' for Inactive)
REMARK    1  A    between atoms: C1_1  and  C2_2 
REMARK    2  A    between atoms: C2_2  and  C3_3 
ROOT
HETATM    1  C2  UNL     1     -34.094   6.061   4.593  1.00 20.00     0.365 C 
HETATM    2  F5  UNL     1     -32.791   5.703   4.411  1.00 20.00    -0.193 F 
HETATM    3  F6  UNL     1     -34.205   7.325   4.096  1.00 20.00    -0.193 F 
ENDROOT
BRANCH   1   4
HETATM    4  C1  UNL     1     -34.361   6.101   6.090  1.00 20.00     0.345 C 
HETATM    5  F4  UNL     1     -34.026   4.884   6.606  1.00 20.00    -0.226 F 
HETATM    6 CL9  UNL     1     -33.415   7.339   6.936  1.00 20.00    -0.083 Cl
ENDBRANCH   1   4
BRANCH   1   7
HETATM    7  C3  UNL     1     -34.961   5.142   3.749  1.00 20.00     0.388 C 
HETATM    8  F7  UNL     1     -36.204   5.683   3.654  1.00 20.00    -0.181 F 
HETATM    9  F8  UNL     1     -35.116   3.941   4.357  1.00 20.00    -0.181 F 
HETATM   10 CL10 UNL     1     -34.317   4.898   2.116  1.00 20.00    -0.042 Cl
ENDBRANCH   1   7
TORSDOF 2
ENDMDL
