MODEL 1
REMARK VINA RESULT:      -5.8      0.000      0.000
REMARK  2 active torsions:
REMARK  status: ('A' for Active; 'I' for Inactive)
REMARK    1  A    between atoms: C1_1  and  C2_2 
REMARK    2  A    between atoms: C2_2  and  C3_3 
ROOT
HETATM    1  C2  UNL     1     -35.063   4.962   4.557  1.00 20.00     0.396 C 
HETATM    2  F6  UNL     1     -34.950   3.638   4.280  1.00 20.00    -0.190 F 
HETATM    3  F7  UNL     1     -36.318   5.332   4.199  1.00 20.00    -0.190 F 
ENDROOT
BRANCH   1   4
HETATM    4  C1  UNL     1     -34.892   5.169   6.043  1.00 20.00     0.434 C 
HETATM    5  F4  UNL     1     -34.388   6.409   6.266  1.00 20.00    -0.207 F 
HETATM    6  F5  UNL     1     -33.994   4.286   6.539  1.00 20.00    -0.207 F 
ENDBRANCH   1   4
BRANCH   1   7
HETATM    7  C3  UNL     1     -34.069   5.726   3.721  1.00 20.00     0.460 C 
HETATM    8  F8  UNL     1     -34.076   5.280   2.446  1.00 20.00    -0.165 F 
HETATM    9  F9  UNL     1     -32.815   5.582   4.200  1.00 20.00    -0.165 F 
HETATM   10  F10 UNL     1     -34.355   7.045   3.697  1.00 20.00    -0.165 F 
ENDBRANCH   1   7
TORSDOF 2
ENDMDL
MODEL 2
REMARK VINA RESULT:      -5.8      0.006      1.194
REMARK  2 active torsions:
REMARK  status: ('A' for Active; 'I' for Inactive)
REMARK    1  A    between atoms: C1_1  and  C2_2 
REMARK    2  A    between atoms: C2_2  and  C3_3 
ROOT
HETATM    1  C2  UNL     1     -35.064   4.962   4.558  1.00 20.00     0.396 C 
HETATM    2  F6  UNL     1     -34.954   3.637   4.283  1.00 20.00    -0.190 F 
HETATM    3  F7  UNL     1     -36.318   5.334   4.200  1.00 20.00    -0.190 F 
ENDROOT
BRANCH   1   4
HETATM    4  C1  UNL     1     -34.891   5.172   6.043  1.00 20.00     0.434 C 
HETATM    5  F4  UNL     1     -34.386   6.411   6.263  1.00 20.00    -0.207 F 
HETATM    6  F5  UNL     1     -33.992   4.289   6.540  1.00 20.00    -0.207 F 
ENDBRANCH   1   4
BRANCH   1   7
HETATM    7  C3  UNL     1     -34.068   5.721   3.719  1.00 20.00     0.460 C 
HETATM    8  F8  UNL     1     -34.364   7.039   3.702  1.00 20.00    -0.165 F 
HETATM    9  F9  UNL     1     -34.069   5.282   2.443  1.00 20.00    -0.165 F 
HETATM   10  F10 UNL     1     -32.814   5.587   4.203  1.00 20.00    -0.165 F 
ENDBRANCH   1   7
TORSDOF 2
ENDMDL
MODEL 3
REMARK VINA RESULT:      -5.8      0.006      1.195
REMARK  2 active torsions:
REMARK  status: ('A' for Active; 'I' for Inactive)
REMARK    1  A    between atoms: C1_1  and  C2_2 
REMARK    2  A    between atoms: C2_2  and  C3_3 
ROOT
HETATM    1  C2  UNL     1     -35.065   4.962   4.558  1.00 20.00     0.396 C 
HETATM    2  F6  UNL     1     -34.952   3.637   4.284  1.00 20.00    -0.190 F 
HETATM    3  F7  UNL     1     -36.320   5.331   4.200  1.00 20.00    -0.190 F 
ENDROOT
BRANCH   1   4
HETATM    4  C1  UNL     1     -34.892   5.172   6.042  1.00 20.00     0.434 C 
HETATM    5  F4  UNL     1     -34.385   6.412   6.262  1.00 20.00    -0.207 F 
HETATM    6  F5  UNL     1     -33.994   4.289   6.540  1.00 20.00    -0.207 F 
ENDBRANCH   1   4
BRANCH   1   7
HETATM    7  C3  UNL     1     -34.072   5.723   3.718  1.00 20.00     0.460 C 
HETATM    8  F8  UNL     1     -32.821   5.578   4.208  1.00 20.00    -0.165 F 
HETATM    9  F9  UNL     1     -34.356   7.042   3.701  1.00 20.00    -0.165 F 
HETATM   10  F10 UNL     1     -34.066   5.283   2.442  1.00 20.00    -0.165 F 
ENDBRANCH   1   7
TORSDOF 2
ENDMDL
MODEL 4
REMARK VINA RESULT:      -5.7      0.657      3.047
REMARK  2 active torsions:
REMARK  status: ('A' for Active; 'I' for Inactive)
REMARK    1  A    between atoms: C1_1  and  C2_2 
REMARK    2  A    between atoms: C2_2  and  C3_3 
ROOT
HETATM    1  C2  UNL     1     -34.966   4.872   4.609  1.00 20.00     0.396 C 
HETATM    2  F6  UNL     1     -36.202   5.345   4.302  1.00 20.00    -0.190 F 
HETATM    3  F7  UNL     1     -34.952   3.560   4.264  1.00 20.00    -0.190 F 
ENDROOT
BRANCH   1   4
HETATM    4  C1  UNL     1     -33.940   5.610   3.785  1.00 20.00     0.434 C 
HETATM    5  F4  UNL     1     -34.211   6.939   3.819  1.00 20.00    -0.207 F 
HETATM    6  F5  UNL     1     -34.015   5.229   2.488  1.00 20.00    -0.207 F 
ENDBRANCH   1   4
BRANCH   1   7
HETATM    7  C3  UNL     1     -34.750   4.991   6.095  1.00 20.00     0.460 C 
HETATM    8  F8  UNL     1     -35.821   4.524   6.773  1.00 20.00    -0.165 F 
HETATM    9  F9  UNL     1     -34.562   6.277   6.460  1.00 20.00    -0.165 F 
HETATM   10  F10 UNL     1     -33.671   4.285   6.494  1.00 20.00    -0.165 F 
ENDBRANCH   1   7
TORSDOF 2
ENDMDL
MODEL 5
REMARK VINA RESULT:      -5.6      0.695      2.337
REMARK  2 active torsions:
REMARK  status: ('A' for Active; 'I' for Inactive)
REMARK    1  A    between atoms: C1_1  and  C2_2 
REMARK    2  A    between atoms: C2_2  and  C3_3 
ROOT
HETATM    1  C2  UNL     1     -34.118   6.010   4.634  1.00 20.00     0.396 C 
HETATM    2  F6  UNL     1     -34.231   7.291   4.198  1.00 20.00    -0.190 F 
HETATM    3  F7  UNL     1     -32.823   5.647   4.452  1.00 20.00    -0.190 F 
ENDROOT
BRANCH   1   4
HETATM    4  C1  UNL     1     -34.442   5.962   6.107  1.00 20.00     0.434 C 
HETATM    5  F4  UNL     1     -33.800   6.976   6.739  1.00 20.00    -0.207 F 
HETATM    6  F5  UNL     1     -33.983   4.810   6.651  1.00 20.00    -0.207 F 
ENDBRANCH   1   4
BRANCH   1   7
HETATM    7  C3  UNL     1     -34.999   5.125   3.790  1.00 20.00     0.460 C 
HETATM    8  F8  UNL     1     -34.454   4.933   2.569  1.00 20.00    -0.165 F 
HETATM    9  F9  UNL     1     -36.219   5.676   3.614  1.00 20.00    -0.165 F 
HETATM   10  F10 UNL     1     -35.169   3.914   4.360  1.00 20.00    -0.165 F 
ENDBRANCH   1   7
TORSDOF 2
ENDMDL
MODEL 6
REMARK VINA RESULT:      -5.4      0.981      3.038
REMARK  2 active torsions:
REMARK  status: ('A' for Active; 'I' for Inactive)
REMARK    1  A    between atoms: C1_1  and  C2_2 
REMARK    2  A    between atoms: C2_2  and  C3_3 
ROOT
HETATM    1  C2  UNL     1     -34.467   5.720   4.775  1.00 20.00     0.396 C 
HETATM    2  F6  UNL     1     -34.292   6.713   5.684  1.00 20.00    -0.190 F 
HETATM    3  F7  UNL     1     -35.566   6.043   4.048  1.00 20.00    -0.190 F 
ENDROOT
BRANCH   1   4
HETATM    4  C1  UNL     1     -33.266   5.673   3.862  1.00 20.00     0.434 C 
HETATM    5  F4  UNL     1     -32.648   6.881   3.874  1.00 20.00    -0.207 F 
HETATM    6  F5  UNL     1     -33.656   5.446   2.585  1.00 20.00    -0.207 F 
ENDBRANCH   1   4
BRANCH   1   7
HETATM    7  C3  UNL     1     -34.724   4.427   5.505  1.00 20.00     0.460 C 
HETATM    8  F8  UNL     1     -35.179   3.481   4.655  1.00 20.00    -0.165 F 
HETATM    9  F9  UNL     1     -35.649   4.588   6.474  1.00 20.00    -0.165 F 
HETATM   10  F10 UNL     1     -33.598   3.955   6.081  1.00 20.00    -0.165 F 
ENDBRANCH   1   7
TORSDOF 2
ENDMDL
MODEL 7
REMARK VINA RESULT:      -5.3      1.004      2.276
REMARK  2 active torsions:
REMARK  status: ('A' for Active; 'I' for Inactive)
REMARK    1  A    between atoms: C1_1  and  C2_2 
REMARK    2  A    between atoms: C2_2  and  C3_3 
ROOT
HETATM    1  C2  UNL     1     -34.538   5.137   5.893  1.00 20.00     0.396 C 
HETATM    2  F6  UNL     1     -33.775   4.158   6.444  1.00 20.00    -0.190 F 
HETATM    3  F7  UNL     1     -35.610   5.304   6.707  1.00 20.00    -0.190 F 
ENDROOT
BRANCH   1   4
HETATM    4  C1  UNL     1     -33.741   6.418   5.856  1.00 20.00     0.434 C 
HETATM    5  F4  UNL     1     -34.077   7.184   6.924  1.00 20.00    -0.207 F 
HETATM    6  F5  UNL     1     -34.052   7.133   4.749  1.00 20.00    -0.207 F 
ENDBRANCH   1   4
BRANCH   1   7
HETATM    7  C3  UNL     1     -35.016   4.682   4.539  1.00 20.00     0.460 C 
HETATM    8  F8  UNL     1     -35.209   3.345   4.525  1.00 20.00    -0.165 F 
HETATM    9  F9  UNL     1     -34.115   4.977   3.578  1.00 20.00    -0.165 F 
HETATM   10  F10 UNL     1     -36.185   5.270   4.206  1.00 20.00    -0.165 F 
ENDBRANCH   1   7
TORSDOF 2
ENDMDL
MODEL 8
REMARK VINA RESULT:      -5.3      1.316      2.365
REMARK  2 active torsions:
REMARK  status: ('A' for Active; 'I' for Inactive)
REMARK    1  A    between atoms: C1_1  and  C2_2 
REMARK    2  A    between atoms: C2_2  and  C3_3 
ROOT
HETATM    1  C2  UNL     1     -33.993   6.102   3.779  1.00 20.00     0.396 C 
HETATM    2  F6  UNL     1     -34.442   5.262   2.811  1.00 20.00    -0.190 F 
HETATM    3  F7  UNL     1     -34.804   7.189   3.762  1.00 20.00    -0.190 F 
ENDROOT
BRANCH   1   4
HETATM    4  C1  UNL     1     -34.112   5.417   5.118  1.00 20.00     0.434 C 
HETATM    5  F4  UNL     1     -35.216   4.628   5.120  1.00 20.00    -0.207 F 
HETATM    6  F5  UNL     1     -34.285   6.333   6.101  1.00 20.00    -0.207 F 
ENDBRANCH   1   4
BRANCH   1   7
HETATM    7  C3  UNL     1     -32.589   6.532   3.442  1.00 20.00     0.460 C 
HETATM    8  F8  UNL     1     -32.043   7.226   4.464  1.00 20.00    -0.165 F 
HETATM    9  F9  UNL     1     -32.569   7.325   2.350  1.00 20.00    -0.165 F 
HETATM   10  F10 UNL     1     -31.794   5.469   3.196  1.00 20.00    -0.165 F 
ENDBRANCH   1   7
TORSDOF 2
ENDMDL
MODEL 9
REMARK VINA RESULT:      -5.3      1.013      3.192
REMARK  2 active torsions:
REMARK  status: ('A' for Active; 'I' for Inactive)
REMARK    1  A    between atoms: C1_1  and  C2_2 
REMARK    2  A    between atoms: C2_2  and  C3_3 
ROOT
HETATM    1  C2  UNL     1     -34.092   5.827   4.497  1.00 20.00     0.396 C 
HETATM    2  F6  UNL     1     -32.777   5.645   4.214  1.00 20.00    -0.190 F 
HETATM    3  F7  UNL     1     -34.328   7.161   4.425  1.00 20.00    -0.190 F 
ENDROOT
BRANCH   1   4
HETATM    4  C1  UNL     1     -34.921   5.121   3.452  1.00 20.00     0.434 C 
HETATM    5  F4  UNL     1     -34.271   5.161   2.263  1.00 20.00    -0.207 F 
HETATM    6  F5  UNL     1     -36.100   5.764   3.275  1.00 20.00    -0.207 F 
ENDBRANCH   1   4
BRANCH   1   7
HETATM    7  C3  UNL     1     -34.361   5.356   5.903  1.00 20.00     0.460 C 
HETATM    8  F8  UNL     1     -33.657   4.236   6.175  1.00 20.00    -0.165 F 
HETATM    9  F9  UNL     1     -35.669   5.075   6.083  1.00 20.00    -0.165 F 
HETATM   10  F10 UNL     1     -34.010   6.292   6.811  1.00 20.00    -0.165 F 
ENDBRANCH   1   7
TORSDOF 2
ENDMDL
