MODEL 1
REMARK VINA RESULT:      -5.1      0.000      0.000
REMARK  0 active torsions:
REMARK  status: ('A' for Active; 'I' for Inactive)
ROOT
HETATM    1  C1  UNL     1     -34.397   5.562   6.551  1.00 20.00    -0.030 A 
HETATM    2  C2  UNL     1     -35.161   4.637   5.960  1.00 20.00    -0.030 A 
HETATM    3  C3  UNL     1     -33.493   6.494   5.805  1.00 20.00     0.036 A 
HETATM    4  C4  UNL     1     -35.205   4.421   4.479  1.00 20.00     0.036 A 
HETATM    5  C5  UNL     1     -34.891   6.858   3.650  1.00 20.00     0.020 A 
HETATM    6  C6  UNL     1     -33.573   6.472   4.286  1.00 20.00    -0.032 A 
HETATM    7  C7  UNL     1     -34.448   5.411   3.609  1.00 20.00    -0.032 A 
HETATM    8  C8  UNL     1     -32.313   6.963   3.617  1.00 20.00     0.016 C 
HETATM    9  C9  UNL     1     -34.060   4.847   2.264  1.00 20.00     0.016 C 
ENDROOT
TORSDOF 0
ENDMDL
MODEL 2
REMARK VINA RESULT:      -4.3     11.858     13.382
REMARK  0 active torsions:
REMARK  status: ('A' for Active; 'I' for Inactive)
ROOT
HETATM    1  C1  UNL     1     -34.626  14.439  -6.215  1.00 20.00    -0.030 A 
HETATM    2  C2  UNL     1     -35.048  13.654  -5.218  1.00 20.00    -0.030 A 
HETATM    3  C3  UNL     1     -34.015  15.790  -6.007  1.00 20.00     0.036 A 
HETATM    4  C4  UNL     1     -34.963  14.031  -3.771  1.00 20.00     0.036 A 
HETATM    5  C5  UNL     1     -32.747  15.379  -3.781  1.00 20.00     0.020 A 
HETATM    6  C6  UNL     1     -33.733  16.211  -4.573  1.00 20.00    -0.032 A 
HETATM    7  C7  UNL     1     -34.218  15.312  -3.430  1.00 20.00    -0.032 A 
HETATM    8  C8  UNL     1     -33.673  17.708  -4.393  1.00 20.00     0.016 C 
HETATM    9  C9  UNL     1     -34.641  15.913  -2.112  1.00 20.00     0.016 C 
ENDROOT
TORSDOF 0
ENDMDL
MODEL 3
REMARK VINA RESULT:      -4.3     12.236     13.568
REMARK  0 active torsions:
REMARK  status: ('A' for Active; 'I' for Inactive)
ROOT
HETATM    1  C1  UNL     1     -32.953  14.959  -3.621  1.00 20.00    -0.030 A 
HETATM    2  C2  UNL     1     -33.505  13.764  -3.853  1.00 20.00    -0.030 A 
HETATM    3  C3  UNL     1     -33.231  16.177  -4.447  1.00 20.00     0.036 A 
HETATM    4  C4  UNL     1     -34.469  13.497  -4.968  1.00 20.00     0.036 A 
HETATM    5  C5  UNL     1     -35.723  15.766  -5.042  1.00 20.00     0.020 A 
HETATM    6  C6  UNL     1     -34.314  16.064  -5.509  1.00 20.00    -0.032 A 
HETATM    7  C7  UNL     1     -34.946  14.693  -5.775  1.00 20.00    -0.032 A 
HETATM    8  C8  UNL     1     -34.155  17.061  -6.630  1.00 20.00     0.016 C 
HETATM    9  C9  UNL     1     -35.418  14.326  -7.161  1.00 20.00     0.016 C 
ENDROOT
TORSDOF 0
ENDMDL
MODEL 4
REMARK VINA RESULT:      -4.2     11.636     12.787
REMARK  0 active torsions:
REMARK  status: ('A' for Active; 'I' for Inactive)
ROOT
HETATM    1  C1  UNL     1     -33.456  13.897  -3.924  1.00 20.00    -0.030 A 
HETATM    2  C2  UNL     1     -34.739  13.522  -3.970  1.00 20.00    -0.030 A 
HETATM    3  C3  UNL     1     -33.010  15.294  -3.625  1.00 20.00     0.036 A 
HETATM    4  C4  UNL     1     -35.886  14.455  -3.729  1.00 20.00     0.036 A 
HETATM    5  C5  UNL     1     -34.842  16.008  -1.932  1.00 20.00     0.020 A 
HETATM    6  C6  UNL     1     -34.080  16.292  -3.209  1.00 20.00    -0.032 A 
HETATM    7  C7  UNL     1     -35.550  15.862  -3.262  1.00 20.00    -0.032 A 
HETATM    8  C8  UNL     1     -33.693  17.726  -3.477  1.00 20.00     0.016 C 
HETATM    9  C9  UNL     1     -36.628  16.869  -3.583  1.00 20.00     0.016 C 
ENDROOT
TORSDOF 0
ENDMDL
MODEL 5
REMARK VINA RESULT:      -4.2     12.044     13.614
REMARK  0 active torsions:
REMARK  status: ('A' for Active; 'I' for Inactive)
ROOT
HETATM    1  C1  UNL     1     -33.725  17.373  -5.578  1.00 20.00    -0.030 A 
HETATM    2  C2  UNL     1     -33.951  16.333  -6.388  1.00 20.00    -0.030 A 
HETATM    3  C3  UNL     1     -33.769  17.288  -4.084  1.00 20.00     0.036 A 
HETATM    4  C4  UNL     1     -34.277  14.955  -5.898  1.00 20.00     0.036 A 
HETATM    5  C5  UNL     1     -32.846  14.889  -3.736  1.00 20.00     0.020 A 
HETATM    6  C6  UNL     1     -33.935  15.906  -3.472  1.00 20.00    -0.032 A 
HETATM    7  C7  UNL     1     -34.195  14.714  -4.399  1.00 20.00    -0.032 A 
HETATM    8  C8  UNL     1     -34.528  15.937  -2.085  1.00 20.00     0.016 C 
HETATM    9  C9  UNL     1     -35.047  13.557  -3.936  1.00 20.00     0.016 C 
ENDROOT
TORSDOF 0
ENDMDL
MODEL 6
REMARK VINA RESULT:      -4.2      0.831      2.108
REMARK  0 active torsions:
REMARK  status: ('A' for Active; 'I' for Inactive)
ROOT
HETATM    1  C1  UNL     1     -33.262   7.349   5.603  1.00 20.00    -0.030 A 
HETATM    2  C2  UNL     1     -33.869   6.664   6.578  1.00 20.00    -0.030 A 
HETATM    3  C3  UNL     1     -33.256   6.922   4.168  1.00 20.00     0.036 A 
HETATM    4  C4  UNL     1     -34.616   5.385   6.354  1.00 20.00     0.036 A 
HETATM    5  C5  UNL     1     -35.610   5.844   4.003  1.00 20.00     0.020 A 
HETATM    6  C6  UNL     1     -34.116   5.723   3.796  1.00 20.00    -0.032 A 
HETATM    7  C7  UNL     1     -34.810   4.938   4.915  1.00 20.00    -0.032 A 
HETATM    8  C8  UNL     1     -33.646   5.019   2.547  1.00 20.00     0.016 C 
HETATM    9  C9  UNL     1     -35.033   3.451   4.779  1.00 20.00     0.016 C 
ENDROOT
TORSDOF 0
ENDMDL
MODEL 7
REMARK VINA RESULT:      -4.1     12.249     13.787
REMARK  0 active torsions:
REMARK  status: ('A' for Active; 'I' for Inactive)
ROOT
HETATM    1  C1  UNL     1     -33.933  13.772  -3.762  1.00 20.00    -0.030 A 
HETATM    2  C2  UNL     1     -33.052  14.777  -3.738  1.00 20.00    -0.030 A 
HETATM    3  C3  UNL     1     -35.161  13.765  -4.618  1.00 20.00     0.036 A 
HETATM    4  C4  UNL     1     -33.186  16.019  -4.565  1.00 20.00     0.036 A 
HETATM    5  C5  UNL     1     -34.274  15.030  -6.702  1.00 20.00     0.020 A 
HETATM    6  C6  UNL     1     -35.320  14.902  -5.616  1.00 20.00    -0.032 A 
HETATM    7  C7  UNL     1     -34.310  16.054  -5.588  1.00 20.00    -0.032 A 
HETATM    8  C8  UNL     1     -36.755  15.154  -6.007  1.00 20.00     0.016 C 
HETATM    9  C9  UNL     1     -34.739  17.454  -5.952  1.00 20.00     0.016 C 
ENDROOT
TORSDOF 0
ENDMDL
MODEL 8
REMARK VINA RESULT:      -4.1     12.056     13.458
REMARK  0 active torsions:
REMARK  status: ('A' for Active; 'I' for Inactive)
ROOT
HETATM    1  C1  UNL     1     -31.788  19.005   0.390  1.00 20.00    -0.030 A 
HETATM    2  C2  UNL     1     -32.026  19.262   1.680  1.00 20.00    -0.030 A 
HETATM    3  C3  UNL     1     -32.757  18.301  -0.509  1.00 20.00     0.036 A 
HETATM    4  C4  UNL     1     -33.290  18.877   2.385  1.00 20.00     0.036 A 
HETATM    5  C5  UNL     1     -34.998  19.180   0.456  1.00 20.00     0.020 A 
HETATM    6  C6  UNL     1     -34.137  18.002   0.056  1.00 20.00    -0.032 A 
HETATM    7  C7  UNL     1     -34.409  18.296   1.535  1.00 20.00    -0.032 A 
HETATM    8  C8  UNL     1     -34.824  16.847  -0.631  1.00 20.00     0.016 C 
HETATM    9  C9  UNL     1     -35.368  17.435   2.321  1.00 20.00     0.016 C 
ENDROOT
TORSDOF 0
ENDMDL
MODEL 9
REMARK VINA RESULT:      -4.1     12.146     13.110
REMARK  0 active torsions:
REMARK  status: ('A' for Active; 'I' for Inactive)
ROOT
HETATM    1  C1  UNL     1     -34.786  15.889  -2.329  1.00 20.00    -0.030 A 
HETATM    2  C2  UNL     1     -33.569  15.883  -2.884  1.00 20.00    -0.030 A 
HETATM    3  C3  UNL     1     -36.033  15.496  -3.058  1.00 20.00     0.036 A 
HETATM    4  C4  UNL     1     -33.306  15.484  -4.303  1.00 20.00     0.036 A 
HETATM    5  C5  UNL     1     -35.095  13.629  -4.596  1.00 20.00     0.020 A 
HETATM    6  C6  UNL     1     -35.869  14.922  -4.457  1.00 20.00    -0.032 A 
HETATM    7  C7  UNL     1     -34.474  14.917  -5.093  1.00 20.00    -0.032 A 
HETATM    8  C8  UNL     1     -37.099  15.086  -5.316  1.00 20.00     0.016 C 
HETATM    9  C9  UNL     1     -34.315  15.074  -6.586  1.00 20.00     0.016 C 
ENDROOT
TORSDOF 0
ENDMDL
