MODEL 1
REMARK VINA RESULT:      -5.2      0.000      0.000
REMARK  4 active torsions:
REMARK  status: ('A' for Active; 'I' for Inactive)
REMARK    1  A    between atoms: C2_2  and  C8_8 
REMARK    2  A    between atoms: C3_3  and  C9_9 
REMARK    3  A    between atoms: C8_8  and  C9_9 
REMARK    4  A    between atoms: C9_9  and  C10_10 
ROOT
HETATM    1  C1  UNL     1     -32.223   8.464   1.789  1.00 20.00    -0.111 C 
HETATM    2  C2  UNL     1     -32.282   7.574   2.594  1.00 20.00    -0.106 C 
HETATM    3  C4  UNL     1     -32.156   9.547   0.810  1.00 20.00     0.112 C 
ENDROOT
BRANCH   2   4
HETATM    4  C8  UNL     1     -32.351   6.484   3.581  1.00 20.00     0.106 C 
BRANCH   4   5
HETATM    5  C9  UNL     1     -33.729   6.360   4.259  1.00 20.00     0.069 C 
BRANCH   5   6
HETATM    6  C3  UNL     1     -34.659   5.556   3.342  1.00 20.00     0.128 C 
HETATM    7  C5  UNL     1     -36.137   5.823   3.469  1.00 20.00     0.091 C 
HETATM    8  O11 UNL     1     -34.232   4.746   2.519  1.00 20.00    -0.298 OA
ENDBRANCH   5   6
BRANCH   5   9
HETATM    9  C10 UNL     1     -33.711   5.777   5.699  1.00 20.00    -0.011 C 
HETATM   10  C6  UNL     1     -34.775   4.680   5.858  1.00 20.00     0.010 C 
HETATM   11  C7  UNL     1     -33.953   6.850   6.767  1.00 20.00     0.010 C 
ENDBRANCH   5   9
ENDBRANCH   4   5
ENDBRANCH   2   4
TORSDOF 4
ENDMDL
MODEL 2
REMARK VINA RESULT:      -5.1     10.820     12.165
REMARK  4 active torsions:
REMARK  status: ('A' for Active; 'I' for Inactive)
REMARK    1  A    between atoms: C2_2  and  C8_8 
REMARK    2  A    between atoms: C3_3  and  C9_9 
REMARK    3  A    between atoms: C8_8  and  C9_9 
REMARK    4  A    between atoms: C9_9  and  C10_10 
ROOT
HETATM    1  C1  UNL     1     -34.380  17.130  -0.609  1.00 20.00    -0.111 C 
HETATM    2  C2  UNL     1     -34.700  16.358  -1.472  1.00 20.00    -0.106 C 
HETATM    3  C4  UNL     1     -33.990  18.070   0.440  1.00 20.00     0.112 C 
ENDROOT
BRANCH   2   4
HETATM    4  C8  UNL     1     -35.093  15.412  -2.529  1.00 20.00     0.106 C 
BRANCH   4   5
HETATM    5  C9  UNL     1     -34.066  15.313  -3.674  1.00 20.00     0.069 C 
BRANCH   5   6
HETATM    6  C3  UNL     1     -33.818  13.832  -3.986  1.00 20.00     0.128 C 
HETATM    7  C5  UNL     1     -34.781  13.168  -4.938  1.00 20.00     0.091 C 
HETATM    8  O11 UNL     1     -32.869  13.209  -3.511  1.00 20.00    -0.298 OA
ENDBRANCH   5   6
BRANCH   5   9
HETATM    9  C10 UNL     1     -34.423  16.111  -4.958  1.00 20.00    -0.011 C 
HETATM   10  C6  UNL     1     -33.405  17.234  -5.205  1.00 20.00     0.010 C 
HETATM   11  C7  UNL     1     -35.825  16.728  -4.892  1.00 20.00     0.010 C 
ENDBRANCH   5   9
ENDBRANCH   4   5
ENDBRANCH   2   4
TORSDOF 4
ENDMDL
MODEL 3
REMARK VINA RESULT:      -5.1     11.186     12.458
REMARK  4 active torsions:
REMARK  status: ('A' for Active; 'I' for Inactive)
REMARK    1  A    between atoms: C2_2  and  C8_8 
REMARK    2  A    between atoms: C3_3  and  C9_9 
REMARK    3  A    between atoms: C8_8  and  C9_9 
REMARK    4  A    between atoms: C9_9  and  C10_10 
ROOT
HETATM    1  C1  UNL     1     -34.660  16.770  -0.737  1.00 20.00    -0.111 C 
HETATM    2  C2  UNL     1     -34.310  16.218  -1.745  1.00 20.00    -0.106 C 
HETATM    3  C4  UNL     1     -35.086  17.439   0.491  1.00 20.00     0.112 C 
ENDROOT
BRANCH   2   4
HETATM    4  C8  UNL     1     -33.881  15.543  -2.980  1.00 20.00     0.106 C 
BRANCH   4   5
HETATM    5  C9  UNL     1     -34.807  15.818  -4.181  1.00 20.00     0.069 C 
BRANCH   5   6
HETATM    6  C3  UNL     1     -33.956  16.320  -5.354  1.00 20.00     0.128 C 
HETATM    7  C5  UNL     1     -34.421  15.947  -6.739  1.00 20.00     0.091 C 
HETATM    8  O11 UNL     1     -32.953  17.015  -5.190  1.00 20.00    -0.298 OA
ENDBRANCH   5   6
BRANCH   5   9
HETATM    9  C10 UNL     1     -35.715  14.631  -4.606  1.00 20.00    -0.011 C 
HETATM   10  C6  UNL     1     -37.080  14.710  -3.908  1.00 20.00     0.010 C 
HETATM   11  C7  UNL     1     -35.083  13.270  -4.291  1.00 20.00     0.010 C 
ENDBRANCH   5   9
ENDBRANCH   4   5
ENDBRANCH   2   4
TORSDOF 4
ENDMDL
MODEL 4
REMARK VINA RESULT:      -5.1     11.143     12.365
REMARK  4 active torsions:
REMARK  status: ('A' for Active; 'I' for Inactive)
REMARK    1  A    between atoms: C2_2  and  C8_8 
REMARK    2  A    between atoms: C3_3  and  C9_9 
REMARK    3  A    between atoms: C8_8  and  C9_9 
REMARK    4  A    between atoms: C9_9  and  C10_10 
ROOT
HETATM    1  C1  UNL     1     -34.250  16.301  -1.783  1.00 20.00    -0.111 C 
HETATM    2  C2  UNL     1     -33.735  15.725  -2.702  1.00 20.00    -0.106 C 
HETATM    3  C4  UNL     1     -34.878  17.000  -0.662  1.00 20.00     0.112 C 
ENDROOT
BRANCH   2   4
HETATM    4  C8  UNL     1     -33.103  15.020  -3.829  1.00 20.00     0.106 C 
BRANCH   4   5
HETATM    5  C9  UNL     1     -34.079  14.710  -4.981  1.00 20.00     0.069 C 
BRANCH   5   6
HETATM    6  C3  UNL     1     -35.213  13.828  -4.442  1.00 20.00     0.128 C 
HETATM    7  C5  UNL     1     -36.538  14.503  -4.192  1.00 20.00     0.091 C 
HETATM    8  O11 UNL     1     -35.070  12.622  -4.243  1.00 20.00    -0.298 OA
ENDBRANCH   5   6
BRANCH   5   9
HETATM    9  C10 UNL     1     -34.635  15.950  -5.734  1.00 20.00    -0.011 C 
HETATM   10  C6  UNL     1     -34.880  15.625  -7.215  1.00 20.00     0.010 C 
HETATM   11  C7  UNL     1     -33.693  17.156  -5.648  1.00 20.00     0.010 C 
ENDBRANCH   5   9
ENDBRANCH   4   5
ENDBRANCH   2   4
TORSDOF 4
ENDMDL
MODEL 5
REMARK VINA RESULT:      -5.0     10.639     11.818
REMARK  4 active torsions:
REMARK  status: ('A' for Active; 'I' for Inactive)
REMARK    1  A    between atoms: C2_2  and  C8_8 
REMARK    2  A    between atoms: C3_3  and  C9_9 
REMARK    3  A    between atoms: C8_8  and  C9_9 
REMARK    4  A    between atoms: C9_9  and  C10_10 
ROOT
HETATM    1  C1  UNL     1     -34.817  16.963  -0.641  1.00 20.00    -0.111 C 
HETATM    2  C2  UNL     1     -34.828  16.553  -1.770  1.00 20.00    -0.106 C 
HETATM    3  C4  UNL     1     -34.804  17.464   0.733  1.00 20.00     0.112 C 
ENDROOT
BRANCH   2   4
HETATM    4  C8  UNL     1     -34.842  16.050  -3.153  1.00 20.00     0.106 C 
BRANCH   4   5
HETATM    5  C9  UNL     1     -35.587  14.710  -3.308  1.00 20.00     0.069 C 
BRANCH   5   6
HETATM    6  C3  UNL     1     -36.997  14.989  -3.842  1.00 20.00     0.128 C 
HETATM    7  C5  UNL     1     -37.225  16.330  -4.492  1.00 20.00     0.091 C 
HETATM    8  O11 UNL     1     -37.903  14.157  -3.774  1.00 20.00    -0.298 OA
ENDBRANCH   5   6
BRANCH   5   9
HETATM    9  C10 UNL     1     -34.858  13.640  -4.167  1.00 20.00    -0.011 C 
HETATM   10  C6  UNL     1     -33.376  13.539  -3.773  1.00 20.00     0.010 C 
HETATM   11  C7  UNL     1     -34.944  13.937  -5.668  1.00 20.00     0.010 C 
ENDBRANCH   5   9
ENDBRANCH   4   5
ENDBRANCH   2   4
TORSDOF 4
ENDMDL
MODEL 6
REMARK VINA RESULT:      -4.8     11.071     12.031
REMARK  4 active torsions:
REMARK  status: ('A' for Active; 'I' for Inactive)
REMARK    1  A    between atoms: C2_2  and  C8_8 
REMARK    2  A    between atoms: C3_3  and  C9_9 
REMARK    3  A    between atoms: C8_8  and  C9_9 
REMARK    4  A    between atoms: C9_9  and  C10_10 
ROOT
HETATM    1  C1  UNL     1     -34.931  17.242   0.295  1.00 20.00    -0.111 C 
HETATM    2  C2  UNL     1     -34.465  16.898  -0.758  1.00 20.00    -0.106 C 
HETATM    3  C4  UNL     1     -35.500  17.662   1.574  1.00 20.00     0.112 C 
ENDROOT
BRANCH   2   4
HETATM    4  C8  UNL     1     -33.893  16.476  -2.046  1.00 20.00     0.106 C 
BRANCH   4   5
HETATM    5  C9  UNL     1     -34.863  15.634  -2.899  1.00 20.00     0.069 C 
BRANCH   5   6
HETATM    6  C3  UNL     1     -35.893  16.571  -3.543  1.00 20.00     0.128 C 
HETATM    7  C5  UNL     1     -37.342  16.171  -3.427  1.00 20.00     0.091 C 
HETATM    8  O11 UNL     1     -35.569  17.616  -4.109  1.00 20.00    -0.298 OA
ENDBRANCH   5   6
BRANCH   5   9
HETATM    9  C10 UNL     1     -34.192  14.716  -3.958  1.00 20.00    -0.011 C 
HETATM   10  C6  UNL     1     -34.954  13.389  -4.092  1.00 20.00     0.010 C 
HETATM   11  C7  UNL     1     -32.729  14.408  -3.620  1.00 20.00     0.010 C 
ENDBRANCH   5   9
ENDBRANCH   4   5
ENDBRANCH   2   4
TORSDOF 4
ENDMDL
MODEL 7
REMARK VINA RESULT:      -4.7     10.973     12.454
REMARK  4 active torsions:
REMARK  status: ('A' for Active; 'I' for Inactive)
REMARK    1  A    between atoms: C2_2  and  C8_8 
REMARK    2  A    between atoms: C3_3  and  C9_9 
REMARK    3  A    between atoms: C8_8  and  C9_9 
REMARK    4  A    between atoms: C9_9  and  C10_10 
ROOT
HETATM    1  C1  UNL     1     -34.617  17.029  -0.439  1.00 20.00    -0.111 C 
HETATM    2  C2  UNL     1     -34.134  16.708  -1.491  1.00 20.00    -0.106 C 
HETATM    3  C4  UNL     1     -35.207  17.421   0.840  1.00 20.00     0.112 C 
ENDROOT
BRANCH   2   4
HETATM    4  C8  UNL     1     -33.541  16.313  -2.779  1.00 20.00     0.106 C 
BRANCH   4   5
HETATM    5  C9  UNL     1     -34.582  15.837  -3.811  1.00 20.00     0.069 C 
BRANCH   5   6
HETATM    6  C3  UNL     1     -34.674  16.879  -4.934  1.00 20.00     0.128 C 
HETATM    7  C5  UNL     1     -33.575  17.909  -4.997  1.00 20.00     0.091 C 
HETATM    8  O11 UNL     1     -35.582  16.871  -5.765  1.00 20.00    -0.298 OA
ENDBRANCH   5   6
BRANCH   5   9
HETATM    9  C10 UNL     1     -34.349  14.410  -4.380  1.00 20.00    -0.011 C 
HETATM   10  C6  UNL     1     -35.618  13.556  -4.247  1.00 20.00     0.010 C 
HETATM   11  C7  UNL     1     -33.195  13.683  -3.681  1.00 20.00     0.010 C 
ENDBRANCH   5   9
ENDBRANCH   4   5
ENDBRANCH   2   4
TORSDOF 4
ENDMDL
MODEL 8
REMARK VINA RESULT:      -4.7     10.481     11.992
REMARK  4 active torsions:
REMARK  status: ('A' for Active; 'I' for Inactive)
REMARK    1  A    between atoms: C2_2  and  C8_8 
REMARK    2  A    between atoms: C3_3  and  C9_9 
REMARK    3  A    between atoms: C8_8  and  C9_9 
REMARK    4  A    between atoms: C9_9  and  C10_10 
ROOT
HETATM    1  C1  UNL     1     -38.607  15.304  -3.981  1.00 20.00    -0.111 C 
HETATM    2  C2  UNL     1     -37.424  15.409  -4.166  1.00 20.00    -0.106 C 
HETATM    3  C4  UNL     1     -40.046  15.179  -3.753  1.00 20.00     0.112 C 
ENDROOT
BRANCH   2   4
HETATM    4  C8  UNL     1     -35.976  15.536  -4.394  1.00 20.00     0.106 C 
BRANCH   4   5
HETATM    5  C9  UNL     1     -35.123  14.968  -3.244  1.00 20.00     0.069 C 
BRANCH   5   6
HETATM    6  C3  UNL     1     -34.404  13.707  -3.739  1.00 20.00     0.128 C 
HETATM    7  C5  UNL     1     -32.906  13.671  -3.576  1.00 20.00     0.091 C 
HETATM    8  O11 UNL     1     -35.011  12.752  -4.225  1.00 20.00    -0.298 OA
ENDBRANCH   5   6
BRANCH   5   9
HETATM    9  C10 UNL     1     -34.128  15.970  -2.597  1.00 20.00    -0.011 C 
HETATM   10  C6  UNL     1     -34.634  16.434  -1.223  1.00 20.00     0.010 C 
HETATM   11  C7  UNL     1     -33.890  17.206  -3.472  1.00 20.00     0.010 C 
ENDBRANCH   5   9
ENDBRANCH   4   5
ENDBRANCH   2   4
TORSDOF 4
ENDMDL
MODEL 9
REMARK VINA RESULT:      -4.7     11.059     12.078
REMARK  4 active torsions:
REMARK  status: ('A' for Active; 'I' for Inactive)
REMARK    1  A    between atoms: C2_2  and  C8_8 
REMARK    2  A    between atoms: C3_3  and  C9_9 
REMARK    3  A    between atoms: C8_8  and  C9_9 
REMARK    4  A    between atoms: C9_9  and  C10_10 
ROOT
HETATM    1  C1  UNL     1     -34.676  16.601  -1.027  1.00 20.00    -0.111 C 
HETATM    2  C2  UNL     1     -34.411  15.891  -1.958  1.00 20.00    -0.106 C 
HETATM    3  C4  UNL     1     -35.002  17.467   0.106  1.00 20.00     0.112 C 
ENDROOT
BRANCH   2   4
HETATM    4  C8  UNL     1     -34.084  15.019  -3.098  1.00 20.00     0.106 C 
BRANCH   4   5
HETATM    5  C9  UNL     1     -34.986  15.254  -4.325  1.00 20.00     0.069 C 
BRANCH   5   6
HETATM    6  C3  UNL     1     -35.040  13.962  -5.152  1.00 20.00     0.128 C 
HETATM    7  C5  UNL     1     -35.165  14.117  -6.646  1.00 20.00     0.091 C 
HETATM    8  O11 UNL     1     -34.959  12.847  -4.636  1.00 20.00    -0.298 OA
ENDBRANCH   5   6
BRANCH   5   9
HETATM    9  C10 UNL     1     -36.413  15.784  -4.011  1.00 20.00    -0.011 C 
HETATM   10  C6  UNL     1     -37.426  14.630  -3.963  1.00 20.00     0.010 C 
HETATM   11  C7  UNL     1     -36.893  16.814  -5.039  1.00 20.00     0.010 C 
ENDBRANCH   5   9
ENDBRANCH   4   5
ENDBRANCH   2   4
TORSDOF 4
ENDMDL
