MODEL 1
REMARK VINA RESULT:      -4.2      0.000      0.000
REMARK  6 active torsions:
REMARK  status: ('A' for Active; 'I' for Inactive)
REMARK    1  A    between atoms: C5_5  and  C6_6 
REMARK    2  A    between atoms: C5_5  and  C7_7 
REMARK    3  A    between atoms: C6_6  and  C9_9 
REMARK    4  A    between atoms: C7_7  and  O11_11 
REMARK    5  A    between atoms: C8_8  and  C9_9 
REMARK    6  A    between atoms: C9_9  and  C10_10 
ROOT
HETATM    1  C9  UNL     1     -34.357  16.112  -2.612  1.00 20.00     0.007 C 
ENDROOT
BRANCH   1   2
HETATM    2  C6  UNL     1     -35.472  16.791  -3.456  1.00 20.00     0.008 C 
BRANCH   2   3
HETATM    3  C5  UNL     1     -36.848  16.121  -3.323  1.00 20.00     0.027 C 
BRANCH   3   4
HETATM    4  C7  UNL     1     -36.897  14.768  -4.024  1.00 20.00     0.167 C 
BRANCH   4   5
HETATM    5  O11 UNL     1     -38.122  14.113  -3.728  1.00 20.00    -0.396 OA
HETATM    6  C4  UNL     1     -39.235  14.827  -4.251  1.00 20.00     0.201 C 
ENDBRANCH   4   5
ENDBRANCH   3   4
ENDBRANCH   2   3
ENDBRANCH   1   2
BRANCH   1   7
HETATM    7  C8  UNL     1     -33.861  16.999  -1.421  1.00 20.00    -0.017 C 
HETATM    8  C1  UNL     1     -33.546  18.438  -1.849  1.00 20.00     0.010 C 
HETATM    9  C2  UNL     1     -34.768  17.023  -0.189  1.00 20.00     0.010 C 
ENDBRANCH   1   7
BRANCH   1  10
HETATM   10  C10 UNL     1     -33.225  15.506  -3.498  1.00 20.00     0.082 C 
HETATM   11  C3  UNL     1     -33.133  16.168  -4.874  1.00 20.00     0.027 C 
HETATM   12 CL12 UNL     1     -33.380  13.740  -3.737  1.00 20.00    -0.125 Cl
ENDBRANCH   1  10
TORSDOF 6
ENDMDL
MODEL 2
REMARK VINA RESULT:      -4.2      2.422      2.815
REMARK  6 active torsions:
REMARK  status: ('A' for Active; 'I' for Inactive)
REMARK    1  A    between atoms: C5_5  and  C6_6 
REMARK    2  A    between atoms: C5_5  and  C7_7 
REMARK    3  A    between atoms: C6_6  and  C9_9 
REMARK    4  A    between atoms: C7_7  and  O11_11 
REMARK    5  A    between atoms: C8_8  and  C9_9 
REMARK    6  A    between atoms: C9_9  and  C10_10 
ROOT
HETATM    1  C9  UNL     1     -33.881  16.491  -2.890  1.00 20.00     0.007 C 
ENDROOT
BRANCH   1   2
HETATM    2  C6  UNL     1     -34.699  15.169  -2.851  1.00 20.00     0.008 C 
BRANCH   2   3
HETATM    3  C5  UNL     1     -34.024  13.999  -3.581  1.00 20.00     0.027 C 
BRANCH   3   4
HETATM    4  C7  UNL     1     -34.820  13.551  -4.803  1.00 20.00     0.167 C 
BRANCH   4   5
HETATM    5  O11 UNL     1     -34.388  14.268  -5.950  1.00 20.00    -0.396 OA
HETATM    6  C4  UNL     1     -35.432  14.399  -6.907  1.00 20.00     0.201 C 
ENDBRANCH   4   5
ENDBRANCH   3   4
ENDBRANCH   2   3
ENDBRANCH   1   2
BRANCH   1   7
HETATM    7  C8  UNL     1     -33.666  17.124  -1.474  1.00 20.00    -0.017 C 
HETATM    8  C1  UNL     1     -33.409  18.635  -1.538  1.00 20.00     0.010 C 
HETATM    9  C2  UNL     1     -34.762  16.838  -0.446  1.00 20.00     0.010 C 
ENDBRANCH   1   7
BRANCH   1  10
HETATM   10  C10 UNL     1     -34.398  17.478  -3.982  1.00 20.00     0.082 C 
HETATM   11  C3  UNL     1     -35.858  17.229  -4.361  1.00 20.00     0.027 C 
HETATM   12 CL12 UNL     1     -33.419  17.455  -5.480  1.00 20.00    -0.125 Cl
ENDBRANCH   1  10
TORSDOF 6
ENDMDL
MODEL 3
REMARK VINA RESULT:      -4.1      2.520      3.120
REMARK  6 active torsions:
REMARK  status: ('A' for Active; 'I' for Inactive)
REMARK    1  A    between atoms: C5_5  and  C6_6 
REMARK    2  A    between atoms: C5_5  and  C7_7 
REMARK    3  A    between atoms: C6_6  and  C9_9 
REMARK    4  A    between atoms: C7_7  and  O11_11 
REMARK    5  A    between atoms: C8_8  and  C9_9 
REMARK    6  A    between atoms: C9_9  and  C10_10 
ROOT
HETATM    1  C9  UNL     1     -34.249  16.195  -3.383  1.00 20.00     0.007 C 
ENDROOT
BRANCH   1   2
HETATM    2  C6  UNL     1     -33.262  16.423  -4.562  1.00 20.00     0.008 C 
BRANCH   2   3
HETATM    3  C5  UNL     1     -33.755  17.445  -5.597  1.00 20.00     0.027 C 
BRANCH   3   4
HETATM    4  C7  UNL     1     -34.389  16.773  -6.810  1.00 20.00     0.167 C 
BRANCH   4   5
HETATM    5  O11 UNL     1     -34.032  15.399  -6.844  1.00 20.00    -0.396 OA
HETATM    6  C4  UNL     1     -35.069  14.603  -7.404  1.00 20.00     0.201 C 
ENDBRANCH   4   5
ENDBRANCH   3   4
ENDBRANCH   2   3
ENDBRANCH   1   2
BRANCH   1   7
HETATM    7  C8  UNL     1     -33.785  16.877  -2.052  1.00 20.00    -0.017 C 
HETATM    8  C1  UNL     1     -33.620  18.395  -2.195  1.00 20.00     0.010 C 
HETATM    9  C2  UNL     1     -34.637  16.573  -0.818  1.00 20.00     0.010 C 
ENDBRANCH   1   7
BRANCH   1  10
HETATM   10  C10 UNL     1     -34.675  14.701  -3.243  1.00 20.00     0.082 C 
HETATM   11  C3  UNL     1     -33.633  13.733  -3.809  1.00 20.00     0.027 C 
HETATM   12 CL12 UNL     1     -36.250  14.337  -4.012  1.00 20.00    -0.125 Cl
ENDBRANCH   1  10
TORSDOF 6
ENDMDL
MODEL 4
REMARK VINA RESULT:      -4.1      2.172      3.515
REMARK  6 active torsions:
REMARK  status: ('A' for Active; 'I' for Inactive)
REMARK    1  A    between atoms: C5_5  and  C6_6 
REMARK    2  A    between atoms: C5_5  and  C7_7 
REMARK    3  A    between atoms: C6_6  and  C9_9 
REMARK    4  A    between atoms: C7_7  and  O11_11 
REMARK    5  A    between atoms: C8_8  and  C9_9 
REMARK    6  A    between atoms: C9_9  and  C10_10 
ROOT
HETATM    1  C9  UNL     1     -33.942  16.365  -3.251  1.00 20.00     0.007 C 
ENDROOT
BRANCH   1   2
HETATM    2  C6  UNL     1     -32.944  15.264  -3.708  1.00 20.00     0.008 C 
BRANCH   2   3
HETATM    3  C5  UNL     1     -33.494  13.835  -3.582  1.00 20.00     0.027 C 
BRANCH   3   4
HETATM    4  C7  UNL     1     -34.365  13.450  -4.772  1.00 20.00     0.167 C 
BRANCH   4   5
HETATM    5  O11 UNL     1     -35.659  13.071  -4.324  1.00 20.00    -0.396 OA
HETATM    6  C4  UNL     1     -36.521  14.196  -4.209  1.00 20.00     0.201 C 
ENDBRANCH   4   5
ENDBRANCH   3   4
ENDBRANCH   2   3
ENDBRANCH   1   2
BRANCH   1   7
HETATM    7  C8  UNL     1     -34.195  17.458  -4.344  1.00 20.00    -0.017 C 
HETATM    8  C1  UNL     1     -33.577  17.090  -5.698  1.00 20.00     0.010 C 
HETATM    9  C2  UNL     1     -35.654  17.868  -4.546  1.00 20.00     0.010 C 
ENDBRANCH   1   7
BRANCH   1  10
HETATM   10  C10 UNL     1     -33.608  16.918  -1.831  1.00 20.00     0.082 C 
HETATM   11  C3  UNL     1     -34.688  16.588  -0.799  1.00 20.00     0.027 C 
HETATM   12 CL12 UNL     1     -33.332  18.686  -1.805  1.00 20.00    -0.125 Cl
ENDBRANCH   1  10
TORSDOF 6
ENDMDL
MODEL 5
REMARK VINA RESULT:      -4.0      1.748      3.171
REMARK  6 active torsions:
REMARK  status: ('A' for Active; 'I' for Inactive)
REMARK    1  A    between atoms: C5_5  and  C6_6 
REMARK    2  A    between atoms: C5_5  and  C7_7 
REMARK    3  A    between atoms: C6_6  and  C9_9 
REMARK    4  A    between atoms: C7_7  and  O11_11 
REMARK    5  A    between atoms: C8_8  and  C9_9 
REMARK    6  A    between atoms: C9_9  and  C10_10 
ROOT
HETATM    1  C9  UNL     1     -34.253  16.575  -2.813  1.00 20.00     0.007 C 
ENDROOT
BRANCH   1   2
HETATM    2  C6  UNL     1     -35.488  15.670  -2.542  1.00 20.00     0.008 C 
BRANCH   2   3
HETATM    3  C5  UNL     1     -36.664  15.920  -3.498  1.00 20.00     0.027 C 
BRANCH   3   4
HETATM    4  C7  UNL     1     -37.070  14.656  -4.249  1.00 20.00     0.167 C 
BRANCH   4   5
HETATM    5  O11 UNL     1     -38.326  14.193  -3.774  1.00 20.00    -0.396 OA
HETATM    6  C4  UNL     1     -39.173  15.271  -3.400  1.00 20.00     0.201 C 
ENDBRANCH   4   5
ENDBRANCH   3   4
ENDBRANCH   2   3
ENDBRANCH   1   2
BRANCH   1   7
HETATM    7  C8  UNL     1     -33.201  15.913  -3.765  1.00 20.00    -0.017 C 
HETATM    8  C1  UNL     1     -33.265  14.381  -3.739  1.00 20.00     0.010 C 
HETATM    9  C2  UNL     1     -33.221  16.399  -5.216  1.00 20.00     0.010 C 
ENDBRANCH   1   7
BRANCH   1  10
HETATM   10  C10 UNL     1     -33.665  17.186  -1.503  1.00 20.00     0.082 C 
HETATM   11  C3  UNL     1     -34.613  17.052  -0.310  1.00 20.00     0.027 C 
HETATM   12 CL12 UNL     1     -33.211  18.909  -1.666  1.00 20.00    -0.125 Cl
ENDBRANCH   1  10
TORSDOF 6
ENDMDL
MODEL 6
REMARK VINA RESULT:      -4.0      2.691      4.063
REMARK  6 active torsions:
REMARK  status: ('A' for Active; 'I' for Inactive)
REMARK    1  A    between atoms: C5_5  and  C6_6 
REMARK    2  A    between atoms: C5_5  and  C7_7 
REMARK    3  A    between atoms: C6_6  and  C9_9 
REMARK    4  A    between atoms: C7_7  and  O11_11 
REMARK    5  A    between atoms: C8_8  and  C9_9 
REMARK    6  A    between atoms: C9_9  and  C10_10 
ROOT
HETATM    1  C9  UNL     1     -33.784  16.238  -3.230  1.00 20.00     0.007 C 
ENDROOT
BRANCH   1   2
HETATM    2  C6  UNL     1     -34.451  17.167  -4.283  1.00 20.00     0.008 C 
BRANCH   2   3
HETATM    3  C5  UNL     1     -33.665  17.283  -5.597  1.00 20.00     0.027 C 
BRANCH   3   4
HETATM    4  C7  UNL     1     -34.428  16.687  -6.776  1.00 20.00     0.167 C 
BRANCH   4   5
HETATM    5  O11 UNL     1     -34.076  15.320  -6.938  1.00 20.00    -0.396 OA
HETATM    6  C4  UNL     1     -35.195  14.536  -7.333  1.00 20.00     0.201 C 
ENDBRANCH   4   5
ENDBRANCH   3   4
ENDBRANCH   2   3
ENDBRANCH   1   2
BRANCH   1   7
HETATM    7  C8  UNL     1     -34.437  14.817  -3.161  1.00 20.00    -0.017 C 
HETATM    8  C1  UNL     1     -35.873  14.803  -3.700  1.00 20.00     0.010 C 
HETATM    9  C2  UNL     1     -33.639  13.687  -3.814  1.00 20.00     0.010 C 
ENDBRANCH   1   7
BRANCH   1  10
HETATM   10  C10 UNL     1     -33.592  16.943  -1.852  1.00 20.00     0.082 C 
HETATM   11  C3  UNL     1     -34.698  16.600  -0.853  1.00 20.00     0.027 C 
HETATM   12 CL12 UNL     1     -33.483  18.725  -1.974  1.00 20.00    -0.125 Cl
ENDBRANCH   1  10
TORSDOF 6
ENDMDL
MODEL 7
REMARK VINA RESULT:      -4.0     11.261     12.146
REMARK  6 active torsions:
REMARK  status: ('A' for Active; 'I' for Inactive)
REMARK    1  A    between atoms: C5_5  and  C6_6 
REMARK    2  A    between atoms: C5_5  and  C7_7 
REMARK    3  A    between atoms: C6_6  and  C9_9 
REMARK    4  A    between atoms: C7_7  and  O11_11 
REMARK    5  A    between atoms: C8_8  and  C9_9 
REMARK    6  A    between atoms: C9_9  and  C10_10 
ROOT
HETATM    1  C9  UNL     1     -33.823   6.134   4.299  1.00 20.00     0.007 C 
ENDROOT
BRANCH   1   2
HETATM    2  C6  UNL     1     -32.401   6.178   3.674  1.00 20.00     0.008 C 
BRANCH   2   3
HETATM    3  C5  UNL     1     -31.858   7.599   3.462  1.00 20.00     0.027 C 
BRANCH   3   4
HETATM    4  C7  UNL     1     -31.873   8.005   1.992  1.00 20.00     0.167 C 
BRANCH   4   5
HETATM    5  O11 UNL     1     -32.439   9.300   1.853  1.00 20.00    -0.396 OA
HETATM    6  C4  UNL     1     -32.512   9.694   0.489  1.00 20.00     0.201 C 
ENDBRANCH   4   5
ENDBRANCH   3   4
ENDBRANCH   2   3
ENDBRANCH   1   2
BRANCH   1   7
HETATM    7  C8  UNL     1     -33.815   5.788   5.826  1.00 20.00    -0.017 C 
HETATM    8  C1  UNL     1     -33.829   7.040   6.713  1.00 20.00     0.010 C 
HETATM    9  C2  UNL     1     -34.904   4.821   6.293  1.00 20.00     0.010 C 
ENDBRANCH   1   7
BRANCH   1  10
HETATM   10  C10 UNL     1     -34.825   5.301   3.440  1.00 20.00     0.082 C 
HETATM   11  C3  UNL     1     -34.306   5.025   2.028  1.00 20.00     0.027 C 
HETATM   12 CL12 UNL     1     -36.442   6.056   3.304  1.00 20.00    -0.125 Cl
ENDBRANCH   1  10
TORSDOF 6
ENDMDL
MODEL 8
REMARK VINA RESULT:      -4.0      2.921      4.633
REMARK  6 active torsions:
REMARK  status: ('A' for Active; 'I' for Inactive)
REMARK    1  A    between atoms: C5_5  and  C6_6 
REMARK    2  A    between atoms: C5_5  and  C7_7 
REMARK    3  A    between atoms: C6_6  and  C9_9 
REMARK    4  A    between atoms: C7_7  and  O11_11 
REMARK    5  A    between atoms: C8_8  and  C9_9 
REMARK    6  A    between atoms: C9_9  and  C10_10 
ROOT
HETATM    1  C9  UNL     1     -34.155  15.786  -4.174  1.00 20.00     0.007 C 
ENDROOT
BRANCH   1   2
HETATM    2  C6  UNL     1     -33.680  16.192  -2.750  1.00 20.00     0.008 C 
BRANCH   2   3
HETATM    3  C5  UNL     1     -34.794  16.171  -1.693  1.00 20.00     0.027 C 
BRANCH   3   4
HETATM    4  C7  UNL     1     -34.472  17.069  -0.504  1.00 20.00     0.167 C 
BRANCH   4   5
HETATM    5  O11 UNL     1     -33.234  17.731  -0.718  1.00 20.00    -0.396 OA
HETATM    6  C4  UNL     1     -33.011  18.749   0.250  1.00 20.00     0.201 C 
ENDBRANCH   4   5
ENDBRANCH   3   4
ENDBRANCH   2   3
ENDBRANCH   1   2
BRANCH   1   7
HETATM    7  C8  UNL     1     -34.093  14.242  -4.426  1.00 20.00    -0.017 C 
HETATM    8  C1  UNL     1     -33.020  13.549  -3.576  1.00 20.00     0.010 C 
HETATM    9  C2  UNL     1     -35.419  13.492  -4.282  1.00 20.00     0.010 C 
ENDBRANCH   1   7
BRANCH   1  10
HETATM   10  C10 UNL     1     -33.508  16.663  -5.289  1.00 20.00     0.082 C 
HETATM   11  C3  UNL     1     -33.592  18.160  -4.988  1.00 20.00     0.027 C 
HETATM   12 CL12 UNL     1     -34.208  16.379  -6.911  1.00 20.00    -0.125 Cl
ENDBRANCH   1  10
TORSDOF 6
ENDMDL
MODEL 9
REMARK VINA RESULT:      -4.0      3.108      4.882
REMARK  6 active torsions:
REMARK  status: ('A' for Active; 'I' for Inactive)
REMARK    1  A    between atoms: C5_5  and  C6_6 
REMARK    2  A    between atoms: C5_5  and  C7_7 
REMARK    3  A    between atoms: C6_6  and  C9_9 
REMARK    4  A    between atoms: C7_7  and  O11_11 
REMARK    5  A    between atoms: C8_8  and  C9_9 
REMARK    6  A    between atoms: C9_9  and  C10_10 
ROOT
HETATM    1  C9  UNL     1     -34.726  15.577  -3.347  1.00 20.00     0.007 C 
ENDROOT
BRANCH   1   2
HETATM    2  C6  UNL     1     -33.937  16.314  -2.228  1.00 20.00     0.008 C 
BRANCH   2   3
HETATM    3  C5  UNL     1     -34.767  16.605  -0.969  1.00 20.00     0.027 C 
BRANCH   3   4
HETATM    4  C7  UNL     1     -34.151  17.710  -0.119  1.00 20.00     0.167 C 
BRANCH   4   5
HETATM    5  O11 UNL     1     -32.888  18.084  -0.651  1.00 20.00    -0.396 OA
HETATM    6  C4  UNL     1     -32.388  19.262  -0.032  1.00 20.00     0.201 C 
ENDBRANCH   4   5
ENDBRANCH   3   4
ENDBRANCH   2   3
ENDBRANCH   1   2
BRANCH   1   7
HETATM    7  C8  UNL     1     -34.372  14.055  -3.449  1.00 20.00    -0.017 C 
HETATM    8  C1  UNL     1     -35.131  13.350  -4.580  1.00 20.00     0.010 C 
HETATM    9  C2  UNL     1     -32.882  13.726  -3.553  1.00 20.00     0.010 C 
ENDBRANCH   1   7
BRANCH   1  10
HETATM   10  C10 UNL     1     -34.701  16.352  -4.701  1.00 20.00     0.082 C 
HETATM   11  C3  UNL     1     -33.667  17.478  -4.719  1.00 20.00     0.027 C 
HETATM   12 CL12 UNL     1     -36.289  17.044  -5.151  1.00 20.00    -0.125 Cl
ENDBRANCH   1  10
TORSDOF 6
ENDMDL
