MODEL 1
REMARK VINA RESULT:      -4.5      0.000      0.000
REMARK  4 active torsions:
REMARK  status: ('A' for Active; 'I' for Inactive)
REMARK    1  A    between atoms: C2_2  and  C8_8 
REMARK    2  A    between atoms: C3_3  and  C9_9 
REMARK    3  A    between atoms: C8_8  and  C9_9 
REMARK    4  A    between atoms: C9_9  and  C10_10 
ROOT
HETATM    1  C9  UNL     1     -34.196  15.548  -3.926  1.00 20.00     0.062 C 
ENDROOT
BRANCH   1   2
HETATM    2  C3  UNL     1     -34.065  14.022  -3.964  1.00 20.00     0.127 C 
HETATM    3  C5  UNL     1     -35.313  13.243  -4.299  1.00 20.00     0.091 C 
HETATM    4  O11 UNL     1     -33.009  13.442  -3.714  1.00 20.00    -0.298 OA
ENDBRANCH   1   2
BRANCH   1   5
HETATM    5  C8  UNL     1     -33.711  16.114  -2.573  1.00 20.00     0.045 C 
BRANCH   5   6
HETATM    6  C2  UNL     1     -34.816  16.724  -1.735  1.00 20.00    -0.092 C 
HETATM    7  C1  UNL     1     -34.686  16.884  -0.408  1.00 20.00     0.014 C 
HETATM    8  C4  UNL     1     -36.088  17.100  -2.441  1.00 20.00     0.042 C 
ENDBRANCH   5   6
ENDBRANCH   1   5
BRANCH   1   9
HETATM    9  C10 UNL     1     -33.482  16.155  -5.163  1.00 20.00    -0.011 C 
HETATM   10  C6  UNL     1     -33.452  17.686  -5.091  1.00 20.00     0.010 C 
HETATM   11  C7  UNL     1     -34.078  15.714  -6.502  1.00 20.00     0.010 C 
ENDBRANCH   1   9
TORSDOF 4
ENDMDL
MODEL 2
REMARK VINA RESULT:      -4.4      1.994      2.848
REMARK  4 active torsions:
REMARK  status: ('A' for Active; 'I' for Inactive)
REMARK    1  A    between atoms: C2_2  and  C8_8 
REMARK    2  A    between atoms: C3_3  and  C9_9 
REMARK    3  A    between atoms: C8_8  and  C9_9 
REMARK    4  A    between atoms: C9_9  and  C10_10 
ROOT
HETATM    1  C9  UNL     1     -35.618  15.369  -4.080  1.00 20.00     0.062 C 
ENDROOT
BRANCH   1   2
HETATM    2  C3  UNL     1     -37.114  15.233  -3.776  1.00 20.00     0.127 C 
HETATM    3  C5  UNL     1     -37.860  16.506  -3.459  1.00 20.00     0.091 C 
HETATM    4  O11 UNL     1     -37.690  14.145  -3.763  1.00 20.00    -0.298 OA
ENDBRANCH   1   2
BRANCH   1   5
HETATM    5  C8  UNL     1     -34.772  15.167  -2.804  1.00 20.00     0.045 C 
BRANCH   5   6
HETATM    6  C2  UNL     1     -34.388  16.461  -2.115  1.00 20.00    -0.092 C 
HETATM    7  C1  UNL     1     -34.594  16.646  -0.801  1.00 20.00     0.014 C 
HETATM    8  C4  UNL     1     -33.811  17.552  -2.972  1.00 20.00     0.042 C 
ENDBRANCH   5   6
ENDBRANCH   1   5
BRANCH   1   9
HETATM    9  C10 UNL     1     -35.245  14.419  -5.249  1.00 20.00    -0.011 C 
HETATM   10  C6  UNL     1     -34.439  13.215  -4.749  1.00 20.00     0.010 C 
HETATM   11  C7  UNL     1     -34.489  15.106  -6.390  1.00 20.00     0.010 C 
ENDBRANCH   1   9
TORSDOF 4
ENDMDL
MODEL 3
REMARK VINA RESULT:      -4.4      1.417      1.995
REMARK  4 active torsions:
REMARK  status: ('A' for Active; 'I' for Inactive)
REMARK    1  A    between atoms: C2_2  and  C8_8 
REMARK    2  A    between atoms: C3_3  and  C9_9 
REMARK    3  A    between atoms: C8_8  and  C9_9 
REMARK    4  A    between atoms: C9_9  and  C10_10 
ROOT
HETATM    1  C9  UNL     1     -34.876  15.121  -3.413  1.00 20.00     0.062 C 
ENDROOT
BRANCH   1   2
HETATM    2  C3  UNL     1     -34.421  13.701  -3.770  1.00 20.00     0.127 C 
HETATM    3  C5  UNL     1     -32.956  13.392  -3.583  1.00 20.00     0.091 C 
HETATM    4  O11 UNL     1     -35.193  12.851  -4.211  1.00 20.00    -0.298 OA
ENDBRANCH   1   2
BRANCH   1   5
HETATM    5  C8  UNL     1     -33.684  15.985  -2.947  1.00 20.00     0.045 C 
BRANCH   5   6
HETATM    6  C2  UNL     1     -34.038  16.974  -1.854  1.00 20.00    -0.092 C 
HETATM    7  C1  UNL     1     -34.694  16.592  -0.747  1.00 20.00     0.014 C 
HETATM    8  C4  UNL     1     -33.667  18.412  -2.081  1.00 20.00     0.042 C 
ENDBRANCH   5   6
ENDBRANCH   1   5
BRANCH   1   9
HETATM    9  C10 UNL     1     -35.669  15.719  -4.605  1.00 20.00    -0.011 C 
HETATM   10  C6  UNL     1     -34.751  16.521  -5.536  1.00 20.00     0.010 C 
HETATM   11  C7  UNL     1     -36.860  16.585  -4.187  1.00 20.00     0.010 C 
ENDBRANCH   1   9
TORSDOF 4
ENDMDL
MODEL 4
REMARK VINA RESULT:      -4.4      2.011      2.990
REMARK  4 active torsions:
REMARK  status: ('A' for Active; 'I' for Inactive)
REMARK    1  A    between atoms: C2_2  and  C8_8 
REMARK    2  A    between atoms: C3_3  and  C9_9 
REMARK    3  A    between atoms: C8_8  and  C9_9 
REMARK    4  A    between atoms: C9_9  and  C10_10 
ROOT
HETATM    1  C9  UNL     1     -35.643  15.296  -4.043  1.00 20.00     0.062 C 
ENDROOT
BRANCH   1   2
HETATM    2  C3  UNL     1     -37.148  15.220  -3.761  1.00 20.00     0.127 C 
HETATM    3  C5  UNL     1     -37.848  16.523  -3.466  1.00 20.00     0.091 C 
HETATM    4  O11 UNL     1     -37.765  14.155  -3.747  1.00 20.00    -0.298 OA
ENDBRANCH   1   2
BRANCH   1   5
HETATM    5  C8  UNL     1     -34.826  15.170  -2.739  1.00 20.00     0.045 C 
BRANCH   5   6
HETATM    6  C2  UNL     1     -34.393  16.501  -2.159  1.00 20.00    -0.092 C 
HETATM    7  C1  UNL     1     -33.809  17.442  -2.918  1.00 20.00     0.014 C 
HETATM    8  C4  UNL     1     -34.601  16.710  -0.686  1.00 20.00     0.042 C 
ENDBRANCH   5   6
ENDBRANCH   1   5
BRANCH   1   9
HETATM    9  C10 UNL     1     -35.273  14.252  -5.130  1.00 20.00    -0.011 C 
HETATM   10  C6  UNL     1     -34.272  13.223  -4.593  1.00 20.00     0.010 C 
HETATM   11  C7  UNL     1     -34.734  14.868  -6.424  1.00 20.00     0.010 C 
ENDBRANCH   1   9
TORSDOF 4
ENDMDL
MODEL 5
REMARK VINA RESULT:      -4.3      1.314      2.024
REMARK  4 active torsions:
REMARK  status: ('A' for Active; 'I' for Inactive)
REMARK    1  A    between atoms: C2_2  and  C8_8 
REMARK    2  A    between atoms: C3_3  and  C9_9 
REMARK    3  A    between atoms: C8_8  and  C9_9 
REMARK    4  A    between atoms: C9_9  and  C10_10 
ROOT
HETATM    1  C9  UNL     1     -34.917  14.968  -4.930  1.00 20.00     0.062 C 
ENDROOT
BRANCH   1   2
HETATM    2  C3  UNL     1     -34.416  13.645  -4.339  1.00 20.00     0.127 C 
HETATM    3  C5  UNL     1     -33.076  13.677  -3.649  1.00 20.00     0.091 C 
HETATM    4  O11 UNL     1     -35.052  12.596  -4.435  1.00 20.00    -0.298 OA
ENDBRANCH   1   2
BRANCH   1   5
HETATM    5  C8  UNL     1     -34.460  16.168  -4.072  1.00 20.00     0.045 C 
BRANCH   5   6
HETATM    6  C2  UNL     1     -35.347  16.433  -2.872  1.00 20.00    -0.092 C 
HETATM    7  C1  UNL     1     -36.640  16.766  -3.014  1.00 20.00     0.014 C 
HETATM    8  C4  UNL     1     -34.709  16.356  -1.514  1.00 20.00     0.042 C 
ENDBRANCH   5   6
ENDBRANCH   1   5
BRANCH   1   9
HETATM    9  C10 UNL     1     -34.497  15.055  -6.421  1.00 20.00    -0.011 C 
HETATM   10  C6  UNL     1     -34.225  16.505  -6.838  1.00 20.00     0.010 C 
HETATM   11  C7  UNL     1     -35.502  14.422  -7.387  1.00 20.00     0.010 C 
ENDBRANCH   1   9
TORSDOF 4
ENDMDL
MODEL 6
REMARK VINA RESULT:      -4.3      1.994      3.624
REMARK  4 active torsions:
REMARK  status: ('A' for Active; 'I' for Inactive)
REMARK    1  A    between atoms: C2_2  and  C8_8 
REMARK    2  A    between atoms: C3_3  and  C9_9 
REMARK    3  A    between atoms: C8_8  and  C9_9 
REMARK    4  A    between atoms: C9_9  and  C10_10 
ROOT
HETATM    1  C9  UNL     1     -33.846  16.601  -2.827  1.00 20.00     0.062 C 
ENDROOT
BRANCH   1   2
HETATM    2  C3  UNL     1     -33.840  17.401  -1.520  1.00 20.00     0.127 C 
HETATM    3  C5  UNL     1     -34.697  16.871  -0.397  1.00 20.00     0.091 C 
HETATM    4  O11 UNL     1     -33.192  18.439  -1.383  1.00 20.00    -0.298 OA
ENDBRANCH   1   2
BRANCH   1   5
HETATM    5  C8  UNL     1     -34.760  15.361  -2.715  1.00 20.00     0.045 C 
BRANCH   5   6
HETATM    6  C2  UNL     1     -34.280  14.174  -3.525  1.00 20.00    -0.092 C 
HETATM    7  C1  UNL     1     -32.981  13.841  -3.583  1.00 20.00     0.014 C 
HETATM    8  C4  UNL     1     -35.313  13.410  -4.304  1.00 20.00     0.042 C 
ENDBRANCH   5   6
ENDBRANCH   1   5
BRANCH   1   9
HETATM    9  C10 UNL     1     -34.198  17.547  -4.005  1.00 20.00    -0.011 C 
HETATM   10  C6  UNL     1     -35.704  17.543  -4.290  1.00 20.00     0.010 C 
HETATM   11  C7  UNL     1     -33.430  17.245  -5.295  1.00 20.00     0.010 C 
ENDBRANCH   1   9
TORSDOF 4
ENDMDL
MODEL 7
REMARK VINA RESULT:      -4.2      1.667      4.149
REMARK  4 active torsions:
REMARK  status: ('A' for Active; 'I' for Inactive)
REMARK    1  A    between atoms: C2_2  and  C8_8 
REMARK    2  A    between atoms: C3_3  and  C9_9 
REMARK    3  A    between atoms: C8_8  and  C9_9 
REMARK    4  A    between atoms: C9_9  and  C10_10 
ROOT
HETATM    1  C9  UNL     1     -34.455  15.891  -3.992  1.00 20.00     0.062 C 
ENDROOT
BRANCH   1   2
HETATM    2  C3  UNL     1     -34.167  16.829  -2.815  1.00 20.00     0.127 C 
HETATM    3  C5  UNL     1     -34.613  16.361  -1.452  1.00 20.00     0.091 C 
HETATM    4  O11 UNL     1     -33.621  17.922  -2.959  1.00 20.00    -0.298 OA
ENDBRANCH   1   2
BRANCH   1   5
HETATM    5  C8  UNL     1     -33.488  16.159  -5.166  1.00 20.00     0.045 C 
BRANCH   5   6
HETATM    6  C2  UNL     1     -34.167  16.196  -6.520  1.00 20.00    -0.092 C 
HETATM    7  C1  UNL     1     -34.370  15.077  -7.235  1.00 20.00     0.014 C 
HETATM    8  C4  UNL     1     -34.564  17.542  -7.055  1.00 20.00     0.042 C 
ENDBRANCH   5   6
ENDBRANCH   1   5
BRANCH   1   9
HETATM    9  C10 UNL     1     -34.454  14.423  -3.489  1.00 20.00    -0.011 C 
HETATM   10  C6  UNL     1     -33.071  13.782  -3.650  1.00 20.00     0.010 C 
HETATM   11  C7  UNL     1     -35.511  13.538  -4.155  1.00 20.00     0.010 C 
ENDBRANCH   1   9
TORSDOF 4
ENDMDL
MODEL 8
REMARK VINA RESULT:      -4.1      2.321      3.435
REMARK  4 active torsions:
REMARK  status: ('A' for Active; 'I' for Inactive)
REMARK    1  A    between atoms: C2_2  and  C8_8 
REMARK    2  A    between atoms: C3_3  and  C9_9 
REMARK    3  A    between atoms: C8_8  and  C9_9 
REMARK    4  A    between atoms: C9_9  and  C10_10 
ROOT
HETATM    1  C9  UNL     1     -35.435  14.920  -4.154  1.00 20.00     0.062 C 
ENDROOT
BRANCH   1   2
HETATM    2  C3  UNL     1     -35.092  13.788  -5.128  1.00 20.00     0.127 C 
HETATM    3  C5  UNL     1     -35.055  14.143  -6.593  1.00 20.00     0.091 C 
HETATM    4  O11 UNL     1     -34.878  12.635  -4.753  1.00 20.00    -0.298 OA
ENDBRANCH   1   2
BRANCH   1   5
HETATM    5  C8  UNL     1     -36.859  14.750  -3.583  1.00 20.00     0.045 C 
BRANCH   5   6
HETATM    6  C2  UNL     1     -37.943  15.343  -4.461  1.00 20.00    -0.092 C 
HETATM    7  C1  UNL     1     -37.730  16.450  -5.191  1.00 20.00     0.014 C 
HETATM    8  C4  UNL     1     -39.285  14.669  -4.447  1.00 20.00     0.042 C 
ENDBRANCH   5   6
ENDBRANCH   1   5
BRANCH   1   9
HETATM    9  C10 UNL     1     -34.324  15.021  -3.074  1.00 20.00    -0.011 C 
HETATM   10  C6  UNL     1     -34.675  16.069  -2.013  1.00 20.00     0.010 C 
HETATM   11  C7  UNL     1     -32.931  15.310  -3.641  1.00 20.00     0.010 C 
ENDBRANCH   1   9
TORSDOF 4
ENDMDL
MODEL 9
REMARK VINA RESULT:      -4.0      2.113      4.181
REMARK  4 active torsions:
REMARK  status: ('A' for Active; 'I' for Inactive)
REMARK    1  A    between atoms: C2_2  and  C8_8 
REMARK    2  A    between atoms: C3_3  and  C9_9 
REMARK    3  A    between atoms: C8_8  and  C9_9 
REMARK    4  A    between atoms: C9_9  and  C10_10 
ROOT
HETATM    1  C9  UNL     1     -35.616  15.073  -4.510  1.00 20.00     0.062 C 
ENDROOT
BRANCH   1   2
HETATM    2  C3  UNL     1     -37.058  15.136  -3.995  1.00 20.00     0.127 C 
HETATM    3  C5  UNL     1     -37.642  16.511  -3.782  1.00 20.00     0.091 C 
HETATM    4  O11 UNL     1     -37.714  14.126  -3.740  1.00 20.00    -0.298 OA
ENDBRANCH   1   2
BRANCH   1   5
HETATM    5  C8  UNL     1     -35.209  16.401  -5.185  1.00 20.00     0.045 C 
BRANCH   5   6
HETATM    6  C2  UNL     1     -34.766  16.242  -6.626  1.00 20.00    -0.092 C 
HETATM    7  C1  UNL     1     -34.526  17.306  -7.409  1.00 20.00     0.014 C 
HETATM    8  C4  UNL     1     -34.652  14.843  -7.160  1.00 20.00     0.042 C 
ENDBRANCH   5   6
ENDBRANCH   1   5
BRANCH   1   9
HETATM    9  C10 UNL     1     -34.678  14.633  -3.354  1.00 20.00    -0.011 C 
HETATM   10  C6  UNL     1     -34.136  15.845  -2.588  1.00 20.00     0.010 C 
HETATM   11  C7  UNL     1     -33.515  13.745  -3.803  1.00 20.00     0.010 C 
ENDBRANCH   1   9
TORSDOF 4
ENDMDL
