MODEL 1
REMARK VINA RESULT:      -4.4      0.000      0.000
REMARK  2 active torsions:
REMARK  status: ('A' for Active; 'I' for Inactive)
REMARK    1  A    between atoms: C3_3  and  C8_8 
REMARK    2  A    between atoms: C4_4  and  C7_7 
ROOT
HETATM    1  C1  UNL     1     -32.687  18.651  -0.228  1.00 20.00     0.065 C 
HETATM    2  C8  UNL     1     -33.923  17.882  -0.472  1.00 20.00     0.183 C 
HETATM    3  N9  UNL     1     -31.711  19.252  -0.044  1.00 20.00    -0.197 NA
ENDROOT
BRANCH   2   4
HETATM    4  C3  UNL     1     -33.901  17.247  -1.805  1.00 20.00     0.055 A 
HETATM    5  C2  UNL     1     -33.668  17.894  -3.001  1.00 20.00     0.079 A 
HETATM    6  S11 UNL     1     -33.737  16.764  -4.289  1.00 20.00    -0.084 SA
HETATM    7  C4  UNL     1     -34.070  15.524  -3.151  1.00 20.00     0.079 A 
HETATM    8  N10 UNL     1     -34.132  15.888  -1.889  1.00 20.00    -0.249 NA
BRANCH   7   9
HETATM    9  C7  UNL     1     -34.283  14.063  -3.583  1.00 20.00     0.045 A 
HETATM   10  C5  UNL     1     -34.417  13.758  -5.056  1.00 20.00     0.012 A 
HETATM   11  C6  UNL     1     -35.620  13.670  -4.168  1.00 20.00     0.012 A 
ENDBRANCH   7   9
ENDBRANCH   2   4
TORSDOF 2
ENDMDL
MODEL 2
REMARK VINA RESULT:      -4.3      2.288      5.146
REMARK  2 active torsions:
REMARK  status: ('A' for Active; 'I' for Inactive)
REMARK    1  A    between atoms: C3_3  and  C8_8 
REMARK    2  A    between atoms: C4_4  and  C7_7 
ROOT
HETATM    1  C1  UNL     1     -34.778  13.669  -5.121  1.00 20.00     0.065 C 
HETATM    2  C8  UNL     1     -34.806  15.106  -5.456  1.00 20.00     0.183 C 
HETATM    3  N9  UNL     1     -34.758  12.541  -4.849  1.00 20.00    -0.197 NA
ENDROOT
BRANCH   2   4
HETATM    4  C3  UNL     1     -35.251  15.913  -4.302  1.00 20.00     0.055 A 
HETATM    5  C2  UNL     1     -36.288  16.822  -4.306  1.00 20.00     0.079 A 
HETATM    6  S11 UNL     1     -36.448  17.522  -2.749  1.00 20.00    -0.084 SA
HETATM    7  C4  UNL     1     -35.131  16.562  -2.210  1.00 20.00     0.079 A 
HETATM    8  N10 UNL     1     -34.586  15.763  -3.100  1.00 20.00    -0.249 NA
BRANCH   7   9
HETATM    9  C7  UNL     1     -34.617  16.632  -0.762  1.00 20.00     0.045 A 
HETATM   10  C5  UNL     1     -35.114  17.746   0.129  1.00 20.00     0.012 A 
HETATM   11  C6  UNL     1     -33.703  17.770  -0.373  1.00 20.00     0.012 A 
ENDBRANCH   7   9
ENDBRANCH   2   4
TORSDOF 2
ENDMDL
MODEL 3
REMARK VINA RESULT:      -4.1      2.302      3.290
REMARK  2 active torsions:
REMARK  status: ('A' for Active; 'I' for Inactive)
REMARK    1  A    between atoms: C3_3  and  C8_8 
REMARK    2  A    between atoms: C4_4  and  C7_7 
ROOT
HETATM    1  C1  UNL     1     -34.285  16.729  -1.484  1.00 20.00     0.065 C 
HETATM    2  C8  UNL     1     -33.648  16.854  -2.809  1.00 20.00     0.183 C 
HETATM    3  N9  UNL     1     -34.792  16.622  -0.445  1.00 20.00    -0.197 NA
ENDROOT
BRANCH   2   4
HETATM    4  C3  UNL     1     -34.022  15.729  -3.689  1.00 20.00     0.055 A 
HETATM    5  C2  UNL     1     -34.327  14.450  -3.274  1.00 20.00     0.079 A 
HETATM    6  S11 UNL     1     -34.702  13.477  -4.636  1.00 20.00    -0.084 SA
HETATM    7  C4  UNL     1     -34.426  14.834  -5.650  1.00 20.00     0.079 A 
HETATM    8  N10 UNL     1     -34.078  15.951  -5.051  1.00 20.00    -0.249 NA
BRANCH   7   9
HETATM    9  C7  UNL     1     -34.579  14.748  -7.178  1.00 20.00     0.045 A 
HETATM   10  C5  UNL     1     -35.129  15.944  -7.918  1.00 20.00     0.012 A 
HETATM   11  C6  UNL     1     -35.971  14.715  -7.764  1.00 20.00     0.012 A 
ENDBRANCH   7   9
ENDBRANCH   2   4
TORSDOF 2
ENDMDL
MODEL 4
REMARK VINA RESULT:      -4.1      2.051      2.231
REMARK  2 active torsions:
REMARK  status: ('A' for Active; 'I' for Inactive)
REMARK    1  A    between atoms: C3_3  and  C8_8 
REMARK    2  A    between atoms: C4_4  and  C7_7 
ROOT
HETATM    1  C1  UNL     1     -34.842  17.365   0.363  1.00 20.00     0.065 C 
HETATM    2  C8  UNL     1     -34.116  17.130  -0.900  1.00 20.00     0.183 C 
HETATM    3  N9  UNL     1     -35.422  17.548   1.352  1.00 20.00    -0.197 NA
ENDROOT
BRANCH   2   4
HETATM    4  C3  UNL     1     -35.025  16.632  -1.952  1.00 20.00     0.055 A 
HETATM    5  C2  UNL     1     -36.165  17.267  -2.398  1.00 20.00     0.079 A 
HETATM    6  S11 UNL     1     -36.905  16.327  -3.627  1.00 20.00    -0.084 SA
HETATM    7  C4  UNL     1     -35.652  15.166  -3.458  1.00 20.00     0.079 A 
HETATM    8  N10 UNL     1     -34.729  15.427  -2.559  1.00 20.00    -0.249 NA
BRANCH   7   9
HETATM    9  C7  UNL     1     -35.611  13.889  -4.314  1.00 20.00     0.045 A 
HETATM   10  C5  UNL     1     -34.272  13.247  -4.592  1.00 20.00     0.012 A 
HETATM   11  C6  UNL     1     -34.995  13.961  -5.691  1.00 20.00     0.012 A 
ENDBRANCH   7   9
ENDBRANCH   2   4
TORSDOF 2
ENDMDL
MODEL 5
REMARK VINA RESULT:      -4.1      2.559      5.058
REMARK  2 active torsions:
REMARK  status: ('A' for Active; 'I' for Inactive)
REMARK    1  A    between atoms: C3_3  and  C8_8 
REMARK    2  A    between atoms: C4_4  and  C7_7 
ROOT
HETATM    1  C1  UNL     1     -37.973  15.001  -4.540  1.00 20.00     0.065 C 
HETATM    2  C8  UNL     1     -37.258  15.861  -5.502  1.00 20.00     0.183 C 
HETATM    3  N9  UNL     1     -38.527  14.322  -3.779  1.00 20.00    -0.197 NA
ENDROOT
BRANCH   2   4
HETATM    4  C3  UNL     1     -35.867  16.103  -5.069  1.00 20.00     0.055 A 
HETATM    5  C2  UNL     1     -34.785  16.295  -5.903  1.00 20.00     0.079 A 
HETATM    6  S11 UNL     1     -33.371  16.539  -4.965  1.00 20.00    -0.084 SA
HETATM    7  C4  UNL     1     -34.315  16.367  -3.542  1.00 20.00     0.079 A 
HETATM    8  N10 UNL     1     -35.599  16.143  -3.715  1.00 20.00    -0.249 NA
BRANCH   7   9
HETATM    9  C7  UNL     1     -33.692  16.470  -2.139  1.00 20.00     0.045 A 
HETATM   10  C5  UNL     1     -34.611  16.613  -0.949  1.00 20.00     0.012 A 
HETATM   11  C6  UNL     1     -33.791  17.783  -1.399  1.00 20.00     0.012 A 
ENDBRANCH   7   9
ENDBRANCH   2   4
TORSDOF 2
ENDMDL
MODEL 6
REMARK VINA RESULT:      -4.0      1.528      1.826
REMARK  2 active torsions:
REMARK  status: ('A' for Active; 'I' for Inactive)
REMARK    1  A    between atoms: C3_3  and  C8_8 
REMARK    2  A    between atoms: C4_4  and  C7_7 
ROOT
HETATM    1  C1  UNL     1     -33.946  17.493  -0.509  1.00 20.00     0.065 C 
HETATM    2  C8  UNL     1     -34.670  16.431  -1.233  1.00 20.00     0.183 C 
HETATM    3  N9  UNL     1     -33.371  18.330   0.053  1.00 20.00    -0.197 NA
ENDROOT
BRANCH   2   4
HETATM    4  C3  UNL     1     -34.367  16.470  -2.678  1.00 20.00     0.055 A 
HETATM    5  C2  UNL     1     -33.796  17.528  -3.353  1.00 20.00     0.079 A 
HETATM    6  S11 UNL     1     -33.630  17.130  -5.013  1.00 20.00    -0.084 SA
HETATM    7  C4  UNL     1     -34.329  15.597  -4.689  1.00 20.00     0.079 A 
HETATM    8  N10 UNL     1     -34.674  15.361  -3.443  1.00 20.00    -0.249 NA
BRANCH   7   9
HETATM    9  C7  UNL     1     -34.540  14.552  -5.799  1.00 20.00     0.045 A 
HETATM   10  C5  UNL     1     -34.398  14.987  -7.238  1.00 20.00     0.012 A 
HETATM   11  C6  UNL     1     -35.755  14.677  -6.688  1.00 20.00     0.012 A 
ENDBRANCH   7   9
ENDBRANCH   2   4
TORSDOF 2
ENDMDL
MODEL 7
REMARK VINA RESULT:      -4.0     13.492     16.269
REMARK  2 active torsions:
REMARK  status: ('A' for Active; 'I' for Inactive)
REMARK    1  A    between atoms: C3_3  and  C8_8 
REMARK    2  A    between atoms: C4_4  and  C7_7 
ROOT
HETATM    1  C1  UNL     1     -41.909   0.237  -3.778  1.00 20.00     0.065 C 
HETATM    2  C8  UNL     1     -41.520   1.621  -4.110  1.00 20.00     0.183 C 
HETATM    3  N9  UNL     1     -42.218  -0.849  -3.509  1.00 20.00    -0.197 NA
ENDROOT
BRANCH   2   4
HETATM    4  C3  UNL     1     -41.947   2.561  -3.055  1.00 20.00     0.055 A 
HETATM    5  C2  UNL     1     -43.217   2.656  -2.526  1.00 20.00     0.079 A 
HETATM    6  S11 UNL     1     -43.253   3.883  -1.328  1.00 20.00    -0.084 SA
HETATM    7  C4  UNL     1     -41.587   4.179  -1.618  1.00 20.00     0.079 A 
HETATM    8  N10 UNL     1     -41.011   3.434  -2.535  1.00 20.00    -0.249 NA
BRANCH   7   9
HETATM    9  C7  UNL     1     -40.809   5.257  -0.844  1.00 20.00     0.045 A 
HETATM   10  C5  UNL     1     -41.556   6.113   0.151  1.00 20.00     0.012 A 
HETATM   11  C6  UNL     1     -41.096   6.710  -1.143  1.00 20.00     0.012 A 
ENDBRANCH   7   9
ENDBRANCH   2   4
TORSDOF 2
ENDMDL
MODEL 8
REMARK VINA RESULT:      -3.8      1.471      1.751
REMARK  2 active torsions:
REMARK  status: ('A' for Active; 'I' for Inactive)
REMARK    1  A    between atoms: C3_3  and  C8_8 
REMARK    2  A    between atoms: C4_4  and  C7_7 
ROOT
HETATM    1  C1  UNL     1     -35.532  18.127  -0.038  1.00 20.00     0.065 C 
HETATM    2  C8  UNL     1     -34.126  17.837  -0.379  1.00 20.00     0.183 C 
HETATM    3  N9  UNL     1     -36.641  18.353   0.221  1.00 20.00    -0.197 NA
ENDROOT
BRANCH   2   4
HETATM    4  C3  UNL     1     -34.016  17.248  -1.729  1.00 20.00     0.055 A 
HETATM    5  C2  UNL     1     -33.730  17.938  -2.888  1.00 20.00     0.079 A 
HETATM    6  S11 UNL     1     -33.703  16.851  -4.214  1.00 20.00    -0.084 SA
HETATM    7  C4  UNL     1     -34.072  15.567  -3.137  1.00 20.00     0.079 A 
HETATM    8  N10 UNL     1     -34.213  15.888  -1.870  1.00 20.00    -0.249 NA
BRANCH   7   9
HETATM    9  C7  UNL     1     -34.229  14.118  -3.627  1.00 20.00     0.045 A 
HETATM   10  C5  UNL     1     -34.417  13.871  -5.105  1.00 20.00     0.012 A 
HETATM   11  C6  UNL     1     -35.569  13.679  -4.168  1.00 20.00     0.012 A 
ENDBRANCH   7   9
ENDBRANCH   2   4
TORSDOF 2
ENDMDL
MODEL 9
REMARK VINA RESULT:      -3.8     12.888     15.037
REMARK  2 active torsions:
REMARK  status: ('A' for Active; 'I' for Inactive)
REMARK    1  A    between atoms: C3_3  and  C8_8 
REMARK    2  A    between atoms: C4_4  and  C7_7 
ROOT
HETATM    1  C1  UNL     1     -41.199   6.715  -0.888  1.00 20.00     0.065 C 
HETATM    2  C8  UNL     1     -40.817   5.291  -0.814  1.00 20.00     0.183 C 
HETATM    3  N9  UNL     1     -41.504   7.833  -0.954  1.00 20.00    -0.197 NA
ENDROOT
BRANCH   2   4
HETATM    4  C3  UNL     1     -41.601   4.480  -1.767  1.00 20.00     0.055 A 
HETATM    5  C2  UNL     1     -42.917   4.697  -2.118  1.00 20.00     0.079 A 
HETATM    6  S11 UNL     1     -43.414   3.511  -3.253  1.00 20.00    -0.084 SA
HETATM    7  C4  UNL     1     -41.846   2.818  -3.176  1.00 20.00     0.079 A 
HETATM    8  N10 UNL     1     -40.986   3.402  -2.372  1.00 20.00    -0.249 NA
BRANCH   7   9
HETATM    9  C7  UNL     1     -41.468   1.579  -4.005  1.00 20.00     0.045 A 
HETATM   10  C5  UNL     1     -42.532   0.921  -4.850  1.00 20.00     0.012 A 
HETATM   11  C6  UNL     1     -42.045   0.239  -3.609  1.00 20.00     0.012 A 
ENDBRANCH   7   9
ENDBRANCH   2   4
TORSDOF 2
ENDMDL
