MODEL 1
REMARK VINA RESULT:      -5.5      0.000      0.000
REMARK  3 active torsions:
REMARK  status: ('A' for Active; 'I' for Inactive)
REMARK    1  A    between atoms: C3_3  and  C4_4 
REMARK    2  A    between atoms: C4_4  and  C5_5 
REMARK    3  A    between atoms: C4_4  and  O6_6 
ROOT
HETATM    1  C1  UNL     1     -33.278   7.386   6.828  1.00 20.00     0.012 C 
HETATM    2  C2  UNL     1     -34.025   6.487   6.555  1.00 20.00    -0.115 C 
HETATM    3  C3  UNL     1     -34.945   5.387   6.224  1.00 20.00     0.133 C 
ENDROOT
BRANCH   3   4
HETATM    4  C4  UNL     1     -34.539   4.694   4.922  1.00 20.00     0.236 C 
BRANCH   4   5
HETATM    5  C5  UNL     1     -34.873   5.544   3.710  1.00 20.00     0.413 C 
HETATM    6  F7  UNL     1     -36.209   5.676   3.561  1.00 20.00    -0.168 F 
HETATM    7  F8  UNL     1     -34.344   6.781   3.809  1.00 20.00    -0.168 F 
HETATM    8  F9  UNL     1     -34.393   4.978   2.580  1.00 20.00    -0.168 F 
ENDBRANCH   4   5
BRANCH   4   9
HETATM    9  O6  UNL     1     -35.249   3.461   4.815  1.00 20.00    -0.386 OA
HETATM   10  H14 UNL     1     -34.988   2.928   5.581  1.00 20.00     0.210 HD
ENDBRANCH   4   9
ENDBRANCH   3   4
TORSDOF 3
ENDMDL
MODEL 2
REMARK VINA RESULT:      -5.4      2.554      3.091
REMARK  3 active torsions:
REMARK  status: ('A' for Active; 'I' for Inactive)
REMARK    1  A    between atoms: C3_3  and  C4_4 
REMARK    2  A    between atoms: C4_4  and  C5_5 
REMARK    3  A    between atoms: C4_4  and  O6_6 
ROOT
HETATM    1  C1  UNL     1     -31.766   7.378   2.966  1.00 20.00     0.012 C 
HETATM    2  C2  UNL     1     -32.796   6.879   3.328  1.00 20.00    -0.115 C 
HETATM    3  C3  UNL     1     -34.062   6.268   3.766  1.00 20.00     0.133 C 
ENDROOT
BRANCH   3   4
HETATM    4  C4  UNL     1     -33.909   5.588   5.128  1.00 20.00     0.236 C 
BRANCH   4   5
HETATM    5  C5  UNL     1     -35.058   4.637   5.409  1.00 20.00     0.413 C 
HETATM    6  F7  UNL     1     -34.650   3.351   5.350  1.00 20.00    -0.168 F 
HETATM    7  F8  UNL     1     -35.590   4.847   6.631  1.00 20.00    -0.168 F 
HETATM    8  F9  UNL     1     -36.043   4.792   4.497  1.00 20.00    -0.168 F 
ENDBRANCH   4   5
BRANCH   4   9
HETATM    9  O6  UNL     1     -33.896   6.590   6.144  1.00 20.00    -0.386 OA
HETATM   10  H14 UNL     1     -33.010   6.982   6.130  1.00 20.00     0.210 HD
ENDBRANCH   4   9
ENDBRANCH   3   4
TORSDOF 3
ENDMDL
MODEL 3
REMARK VINA RESULT:      -5.4      2.554      3.146
REMARK  3 active torsions:
REMARK  status: ('A' for Active; 'I' for Inactive)
REMARK    1  A    between atoms: C3_3  and  C4_4 
REMARK    2  A    between atoms: C4_4  and  C5_5 
REMARK    3  A    between atoms: C4_4  and  O6_6 
ROOT
HETATM    1  C1  UNL     1     -31.770   7.378   2.955  1.00 20.00     0.012 C 
HETATM    2  C2  UNL     1     -32.802   6.886   3.324  1.00 20.00    -0.115 C 
HETATM    3  C3  UNL     1     -34.068   6.283   3.771  1.00 20.00     0.133 C 
ENDROOT
BRANCH   3   4
HETATM    4  C4  UNL     1     -33.908   5.593   5.127  1.00 20.00     0.236 C 
BRANCH   4   5
HETATM    5  C5  UNL     1     -35.051   4.633   5.403  1.00 20.00     0.413 C 
HETATM    6  F7  UNL     1     -36.043   4.785   4.498  1.00 20.00    -0.168 F 
HETATM    7  F8  UNL     1     -34.643   3.348   5.358  1.00 20.00    -0.168 F 
HETATM    8  F9  UNL     1     -35.581   4.857   6.626  1.00 20.00    -0.168 F 
ENDBRANCH   4   5
BRANCH   4   9
HETATM    9  O6  UNL     1     -33.898   6.586   6.151  1.00 20.00    -0.386 OA
HETATM   10  H14 UNL     1     -33.908   7.444   5.701  1.00 20.00     0.210 HD
ENDBRANCH   4   9
ENDBRANCH   3   4
TORSDOF 3
ENDMDL
MODEL 4
REMARK VINA RESULT:      -5.4      2.563      3.039
REMARK  3 active torsions:
REMARK  status: ('A' for Active; 'I' for Inactive)
REMARK    1  A    between atoms: C3_3  and  C4_4 
REMARK    2  A    between atoms: C4_4  and  C5_5 
REMARK    3  A    between atoms: C4_4  and  O6_6 
ROOT
HETATM    1  C1  UNL     1     -31.708   7.399   2.985  1.00 20.00     0.012 C 
HETATM    2  C2  UNL     1     -32.746   6.907   3.334  1.00 20.00    -0.115 C 
HETATM    3  C3  UNL     1     -34.021   6.304   3.756  1.00 20.00     0.133 C 
ENDROOT
BRANCH   3   4
HETATM    4  C4  UNL     1     -33.884   5.603   5.109  1.00 20.00     0.236 C 
BRANCH   4   5
HETATM    5  C5  UNL     1     -35.056   4.677   5.380  1.00 20.00     0.413 C 
HETATM    6  F7  UNL     1     -35.573   4.895   6.608  1.00 20.00    -0.168 F 
HETATM    7  F8  UNL     1     -36.044   4.850   4.478  1.00 20.00    -0.168 F 
HETATM    8  F9  UNL     1     -34.668   3.384   5.326  1.00 20.00    -0.168 F 
ENDBRANCH   4   5
BRANCH   4   9
HETATM    9  O6  UNL     1     -33.843   6.590   6.138  1.00 20.00    -0.386 OA
HETATM   10  H14 UNL     1     -32.935   6.596   6.477  1.00 20.00     0.210 HD
ENDBRANCH   4   9
ENDBRANCH   3   4
TORSDOF 3
ENDMDL
MODEL 5
REMARK VINA RESULT:      -5.3      2.630      3.335
REMARK  3 active torsions:
REMARK  status: ('A' for Active; 'I' for Inactive)
REMARK    1  A    between atoms: C3_3  and  C4_4 
REMARK    2  A    between atoms: C4_4  and  C5_5 
REMARK    3  A    between atoms: C4_4  and  O6_6 
ROOT
HETATM    1  C1  UNL     1     -35.186   4.159   5.904  1.00 20.00     0.012 C 
HETATM    2  C2  UNL     1     -34.883   4.763   4.911  1.00 20.00    -0.115 C 
HETATM    3  C3  UNL     1     -34.514   5.499   3.692  1.00 20.00     0.133 C 
ENDROOT
BRANCH   3   4
HETATM    4  C4  UNL     1     -33.678   6.738   4.021  1.00 20.00     0.236 C 
BRANCH   4   5
HETATM    5  C5  UNL     1     -32.410   6.794   3.189  1.00 20.00     0.413 C 
HETATM    6  F7  UNL     1     -31.400   7.366   3.880  1.00 20.00    -0.168 F 
HETATM    7  F8  UNL     1     -32.008   5.562   2.813  1.00 20.00    -0.168 F 
HETATM    8  F9  UNL     1     -32.602   7.526   2.070  1.00 20.00    -0.168 F 
ENDBRANCH   4   5
BRANCH   4   9
HETATM    9  O6  UNL     1     -33.311   6.693   5.399  1.00 20.00    -0.386 OA
HETATM   10  H14 UNL     1     -32.876   7.536   5.594  1.00 20.00     0.210 HD
ENDBRANCH   4   9
ENDBRANCH   3   4
TORSDOF 3
ENDMDL
MODEL 6
REMARK VINA RESULT:      -5.3      2.645      3.304
REMARK  3 active torsions:
REMARK  status: ('A' for Active; 'I' for Inactive)
REMARK    1  A    between atoms: C3_3  and  C4_4 
REMARK    2  A    between atoms: C4_4  and  C5_5 
REMARK    3  A    between atoms: C4_4  and  O6_6 
ROOT
HETATM    1  C1  UNL     1     -35.188   4.213   5.936  1.00 20.00     0.012 C 
HETATM    2  C2  UNL     1     -34.867   4.801   4.940  1.00 20.00    -0.115 C 
HETATM    3  C3  UNL     1     -34.477   5.519   3.716  1.00 20.00     0.133 C 
ENDROOT
BRANCH   3   4
HETATM    4  C4  UNL     1     -33.667   6.776   4.042  1.00 20.00     0.236 C 
BRANCH   4   5
HETATM    5  C5  UNL     1     -32.391   6.846   3.223  1.00 20.00     0.413 C 
HETATM    6  F7  UNL     1     -31.948   5.610   2.906  1.00 20.00    -0.168 F 
HETATM    7  F8  UNL     1     -32.576   7.527   2.073  1.00 20.00    -0.168 F 
HETATM    8  F9  UNL     1     -31.410   7.464   3.916  1.00 20.00    -0.168 F 
ENDBRANCH   4   5
BRANCH   4   9
HETATM    9  O6  UNL     1     -33.314   6.750   5.424  1.00 20.00    -0.386 OA
HETATM   10  H14 UNL     1     -33.594   7.600   5.795  1.00 20.00     0.210 HD
ENDBRANCH   4   9
ENDBRANCH   3   4
TORSDOF 3
ENDMDL
MODEL 7
REMARK VINA RESULT:      -5.3      2.444      3.055
REMARK  3 active torsions:
REMARK  status: ('A' for Active; 'I' for Inactive)
REMARK    1  A    between atoms: C3_3  and  C4_4 
REMARK    2  A    between atoms: C4_4  and  C5_5 
REMARK    3  A    between atoms: C4_4  and  O6_6 
ROOT
HETATM    1  C1  UNL     1     -31.901   7.349   3.351  1.00 20.00     0.012 C 
HETATM    2  C2  UNL     1     -32.716   6.471   3.426  1.00 20.00    -0.115 C 
HETATM    3  C3  UNL     1     -33.713   5.391   3.515  1.00 20.00     0.133 C 
ENDROOT
BRANCH   3   4
HETATM    4  C4  UNL     1     -34.833   5.747   4.495  1.00 20.00     0.236 C 
BRANCH   4   5
HETATM    5  C5  UNL     1     -34.505   5.297   5.906  1.00 20.00     0.413 C 
HETATM    6  F7  UNL     1     -35.630   5.060   6.616  1.00 20.00    -0.168 F 
HETATM    7  F8  UNL     1     -33.768   4.166   5.909  1.00 20.00    -0.168 F 
HETATM    8  F9  UNL     1     -33.805   6.248   6.563  1.00 20.00    -0.168 F 
ENDBRANCH   4   5
BRANCH   4   9
HETATM    9  O6  UNL     1     -36.031   5.092   4.081  1.00 20.00    -0.386 OA
HETATM   10  H14 UNL     1     -35.771   4.211   3.775  1.00 20.00     0.210 HD
ENDBRANCH   4   9
ENDBRANCH   3   4
TORSDOF 3
ENDMDL
MODEL 8
REMARK VINA RESULT:      -5.3      2.450      3.061
REMARK  3 active torsions:
REMARK  status: ('A' for Active; 'I' for Inactive)
REMARK    1  A    between atoms: C3_3  and  C4_4 
REMARK    2  A    between atoms: C4_4  and  C5_5 
REMARK    3  A    between atoms: C4_4  and  O6_6 
ROOT
HETATM    1  C1  UNL     1     -31.895   7.368   3.352  1.00 20.00     0.012 C 
HETATM    2  C2  UNL     1     -32.709   6.489   3.425  1.00 20.00    -0.115 C 
HETATM    3  C3  UNL     1     -33.704   5.407   3.512  1.00 20.00     0.133 C 
ENDROOT
BRANCH   3   4
HETATM    4  C4  UNL     1     -34.822   5.757   4.496  1.00 20.00     0.236 C 
BRANCH   4   5
HETATM    5  C5  UNL     1     -34.489   5.302   5.904  1.00 20.00     0.413 C 
HETATM    6  F7  UNL     1     -33.771   4.158   5.889  1.00 20.00    -0.168 F 
HETATM    7  F8  UNL     1     -33.773   6.231   6.571  1.00 20.00    -0.168 F 
HETATM    8  F9  UNL     1     -35.616   5.063   6.611  1.00 20.00    -0.168 F 
ENDBRANCH   4   5
BRANCH   4   9
HETATM    9  O6  UNL     1     -36.020   5.102   4.083  1.00 20.00    -0.386 OA
HETATM   10  H14 UNL     1     -36.723   5.769   4.116  1.00 20.00     0.210 HD
ENDBRANCH   4   9
ENDBRANCH   3   4
TORSDOF 3
ENDMDL
MODEL 9
REMARK VINA RESULT:      -4.6      1.614      2.027
REMARK  3 active torsions:
REMARK  status: ('A' for Active; 'I' for Inactive)
REMARK    1  A    between atoms: C3_3  and  C4_4 
REMARK    2  A    between atoms: C4_4  and  C5_5 
REMARK    3  A    between atoms: C4_4  and  O6_6 
ROOT
HETATM    1  C1  UNL     1     -33.381   7.825   7.357  1.00 20.00     0.012 C 
HETATM    2  C2  UNL     1     -33.718   6.915   6.649  1.00 20.00    -0.115 C 
HETATM    3  C3  UNL     1     -34.132   5.797   5.786  1.00 20.00     0.133 C 
ENDROOT
BRANCH   3   4
HETATM    4  C4  UNL     1     -34.137   6.205   4.311  1.00 20.00     0.236 C 
BRANCH   4   5
HETATM    5  C5  UNL     1     -34.966   5.250   3.471  1.00 20.00     0.413 C 
HETATM    6  F7  UNL     1     -34.379   5.019   2.277  1.00 20.00    -0.168 F 
HETATM    7  F8  UNL     1     -35.133   4.062   4.088  1.00 20.00    -0.168 F 
HETATM    8  F9  UNL     1     -36.191   5.766   3.228  1.00 20.00    -0.168 F 
ENDBRANCH   4   5
BRANCH   4   9
HETATM    9  O6  UNL     1     -32.797   6.185   3.823  1.00 20.00    -0.386 OA
HETATM   10  H14 UNL     1     -32.221   6.216   4.602  1.00 20.00     0.210 HD
ENDBRANCH   4   9
ENDBRANCH   3   4
TORSDOF 3
ENDMDL
