MODEL 1
REMARK VINA RESULT:      -3.9      0.000      0.000
REMARK  2 active torsions:
REMARK  status: ('A' for Active; 'I' for Inactive)
REMARK    1  A    between atoms: C5_5  and  C6_6 
REMARK    2  A    between atoms: C5_5  and  C7_7 
ROOT
HETATM    1  C1  UNL     1     -34.731  13.989  -4.115  1.00 20.00     0.079 C 
HETATM    2  C6  UNL     1     -34.609  15.429  -3.860  1.00 20.00     0.189 C 
HETATM    3  N8  UNL     1     -34.830  12.849  -4.312  1.00 20.00    -0.196 NA
HETATM    4 CL9  UNL     1     -33.406  16.039  -5.047  1.00 20.00    -0.109 Cl
ENDROOT
BRANCH   2   5
HETATM    5  C5  UNL     1     -34.119  15.753  -2.441  1.00 20.00     0.043 C 
BRANCH   5   6
HETATM    6  C7  UNL     1     -34.637  17.069  -1.786  1.00 20.00    -0.049 C 
HETATM    7  C2  UNL     1     -34.721  16.974  -0.256  1.00 20.00     0.014 C 
HETATM    8  C3  UNL     1     -33.745  18.263  -2.167  1.00 20.00     0.014 C 
HETATM    9  C4  UNL     1     -36.058  17.336  -2.328  1.00 20.00     0.014 C 
ENDBRANCH   5   6
ENDBRANCH   2   5
TORSDOF 2
ENDMDL
MODEL 2
REMARK VINA RESULT:      -3.9      0.084      1.432
REMARK  2 active torsions:
REMARK  status: ('A' for Active; 'I' for Inactive)
REMARK    1  A    between atoms: C5_5  and  C6_6 
REMARK    2  A    between atoms: C5_5  and  C7_7 
ROOT
HETATM    1  C1  UNL     1     -34.803  13.959  -4.106  1.00 20.00     0.079 C 
HETATM    2  C6  UNL     1     -34.660  15.397  -3.852  1.00 20.00     0.189 C 
HETATM    3  N8  UNL     1     -34.919  12.820  -4.302  1.00 20.00    -0.196 NA
HETATM    4 CL9  UNL     1     -33.402  15.976  -4.996  1.00 20.00    -0.109 Cl
ENDROOT
BRANCH   2   5
HETATM    5  C5  UNL     1     -34.217  15.716  -2.416  1.00 20.00     0.043 C 
BRANCH   5   6
HETATM    6  C7  UNL     1     -34.670  17.079  -1.812  1.00 20.00    -0.049 C 
HETATM    7  C2  UNL     1     -33.698  18.222  -2.138  1.00 20.00     0.014 C 
HETATM    8  C3  UNL     1     -36.077  17.461  -2.306  1.00 20.00     0.014 C 
HETATM    9  C4  UNL     1     -34.725  16.919  -0.278  1.00 20.00     0.014 C 
ENDBRANCH   5   6
ENDBRANCH   2   5
TORSDOF 2
ENDMDL
MODEL 3
REMARK VINA RESULT:      -3.8      0.084      1.452
REMARK  2 active torsions:
REMARK  status: ('A' for Active; 'I' for Inactive)
REMARK    1  A    between atoms: C5_5  and  C6_6 
REMARK    2  A    between atoms: C5_5  and  C7_7 
ROOT
HETATM    1  C1  UNL     1     -34.733  14.019  -4.051  1.00 20.00     0.079 C 
HETATM    2  C6  UNL     1     -34.606  15.462  -3.815  1.00 20.00     0.189 C 
HETATM    3  N8  UNL     1     -34.836  12.877  -4.232  1.00 20.00    -0.196 NA
HETATM    4 CL9  UNL     1     -33.375  16.046  -4.986  1.00 20.00    -0.109 Cl
ENDROOT
BRANCH   2   5
HETATM    5  C5  UNL     1     -34.143  15.804  -2.391  1.00 20.00     0.043 C 
BRANCH   5   6
HETATM    6  C7  UNL     1     -34.691  17.117  -1.755  1.00 20.00    -0.049 C 
HETATM    7  C2  UNL     1     -36.086  17.489  -2.277  1.00 20.00     0.014 C 
HETATM    8  C3  UNL     1     -34.741  17.007  -0.220  1.00 20.00     0.014 C 
HETATM    9  C4  UNL     1     -33.721  18.259  -2.125  1.00 20.00     0.014 C 
ENDBRANCH   5   6
ENDBRANCH   2   5
TORSDOF 2
ENDMDL
MODEL 4
REMARK VINA RESULT:      -3.8      2.516      4.103
REMARK  2 active torsions:
REMARK  status: ('A' for Active; 'I' for Inactive)
REMARK    1  A    between atoms: C5_5  and  C6_6 
REMARK    2  A    between atoms: C5_5  and  C7_7 
ROOT
HETATM    1  C1  UNL     1     -34.477  16.762  -0.882  1.00 20.00     0.079 C 
HETATM    2  C6  UNL     1     -33.976  16.387  -2.209  1.00 20.00     0.189 C 
HETATM    3  N8  UNL     1     -34.875  17.053   0.169  1.00 20.00    -0.196 NA
HETATM    4 CL9  UNL     1     -33.730  17.930  -3.096  1.00 20.00    -0.109 Cl
ENDROOT
BRANCH   2   5
HETATM    5  C5  UNL     1     -34.954  15.506  -2.999  1.00 20.00     0.043 C 
BRANCH   5   6
HETATM    6  C7  UNL     1     -34.354  14.561  -4.083  1.00 20.00    -0.049 C 
HETATM    7  C2  UNL     1     -35.169  13.272  -4.259  1.00 20.00     0.014 C 
HETATM    8  C3  UNL     1     -34.248  15.277  -5.441  1.00 20.00     0.014 C 
HETATM    9  C4  UNL     1     -32.930  14.170  -3.631  1.00 20.00     0.014 C 
ENDBRANCH   5   6
ENDBRANCH   2   5
TORSDOF 2
ENDMDL
MODEL 5
REMARK VINA RESULT:      -3.7      2.299      3.341
REMARK  2 active torsions:
REMARK  status: ('A' for Active; 'I' for Inactive)
REMARK    1  A    between atoms: C5_5  and  C6_6 
REMARK    2  A    between atoms: C5_5  and  C7_7 
ROOT
HETATM    1  C1  UNL     1     -37.315  14.726  -4.187  1.00 20.00     0.079 C 
HETATM    2  C6  UNL     1     -36.076  15.208  -4.807  1.00 20.00     0.189 C 
HETATM    3  N8  UNL     1     -38.293  14.343  -3.691  1.00 20.00    -0.196 NA
HETATM    4 CL9  UNL     1     -36.230  14.845  -6.560  1.00 20.00    -0.109 Cl
ENDROOT
BRANCH   2   5
HETATM    5  C5  UNL     1     -34.817  14.518  -4.262  1.00 20.00     0.043 C 
BRANCH   5   6
HETATM    6  C7  UNL     1     -33.643  15.431  -3.798  1.00 20.00    -0.049 C 
HETATM    7  C2  UNL     1     -33.241  16.462  -4.862  1.00 20.00     0.014 C 
HETATM    8  C3  UNL     1     -33.998  16.167  -2.494  1.00 20.00     0.014 C 
HETATM    9  C4  UNL     1     -32.423  14.525  -3.524  1.00 20.00     0.014 C 
ENDBRANCH   5   6
ENDBRANCH   2   5
TORSDOF 2
ENDMDL
MODEL 6
REMARK VINA RESULT:      -3.7      2.302      3.129
REMARK  2 active torsions:
REMARK  status: ('A' for Active; 'I' for Inactive)
REMARK    1  A    between atoms: C5_5  and  C6_6 
REMARK    2  A    between atoms: C5_5  and  C7_7 
ROOT
HETATM    1  C1  UNL     1     -37.380  14.727  -4.145  1.00 20.00     0.079 C 
HETATM    2  C6  UNL     1     -36.131  15.220  -4.737  1.00 20.00     0.189 C 
HETATM    3  N8  UNL     1     -38.366  14.337  -3.672  1.00 20.00    -0.196 NA
HETATM    4 CL9  UNL     1     -36.271  14.922  -6.503  1.00 20.00    -0.109 Cl
ENDROOT
BRANCH   2   5
HETATM    5  C5  UNL     1     -34.883  14.499  -4.205  1.00 20.00     0.043 C 
BRANCH   5   6
HETATM    6  C7  UNL     1     -33.678  15.382  -3.763  1.00 20.00    -0.049 C 
HETATM    7  C2  UNL     1     -32.402  14.563  -3.526  1.00 20.00     0.014 C 
HETATM    8  C3  UNL     1     -33.386  16.478  -4.804  1.00 20.00     0.014 C 
HETATM    9  C4  UNL     1     -34.061  16.069  -2.434  1.00 20.00     0.014 C 
ENDBRANCH   5   6
ENDBRANCH   2   5
TORSDOF 2
ENDMDL
MODEL 7
REMARK VINA RESULT:      -3.7      1.104      1.227
REMARK  2 active torsions:
REMARK  status: ('A' for Active; 'I' for Inactive)
REMARK    1  A    between atoms: C5_5  and  C6_6 
REMARK    2  A    between atoms: C5_5  and  C7_7 
ROOT
HETATM    1  C1  UNL     1     -34.774  13.890  -4.774  1.00 20.00     0.079 C 
HETATM    2  C6  UNL     1     -34.707  15.332  -5.032  1.00 20.00     0.189 C 
HETATM    3  N8  UNL     1     -34.828  12.749  -4.565  1.00 20.00    -0.196 NA
HETATM    4 CL9  UNL     1     -34.042  15.506  -6.692  1.00 20.00    -0.109 Cl
ENDROOT
BRANCH   2   5
HETATM    5  C5  UNL     1     -33.797  16.081  -4.047  1.00 20.00     0.043 C 
BRANCH   5   6
HETATM    6  C7  UNL     1     -34.485  16.958  -2.959  1.00 20.00    -0.049 C 
HETATM    7  C2  UNL     1     -34.617  16.232  -1.612  1.00 20.00     0.014 C 
HETATM    8  C3  UNL     1     -33.719  18.276  -2.746  1.00 20.00     0.014 C 
HETATM    9  C4  UNL     1     -35.905  17.301  -3.459  1.00 20.00     0.014 C 
ENDBRANCH   5   6
ENDBRANCH   2   5
TORSDOF 2
ENDMDL
MODEL 8
REMARK VINA RESULT:      -3.6      1.880      2.171
REMARK  2 active torsions:
REMARK  status: ('A' for Active; 'I' for Inactive)
REMARK    1  A    between atoms: C5_5  and  C6_6 
REMARK    2  A    between atoms: C5_5  and  C7_7 
ROOT
HETATM    1  C1  UNL     1     -36.782  14.617  -3.788  1.00 20.00     0.079 C 
HETATM    2  C6  UNL     1     -35.354  14.953  -3.772  1.00 20.00     0.189 C 
HETATM    3  N8  UNL     1     -37.914  14.355  -3.798  1.00 20.00    -0.196 NA
HETATM    4 CL9  UNL     1     -34.484  13.421  -4.121  1.00 20.00    -0.109 Cl
ENDROOT
BRANCH   2   5
HETATM    5  C5  UNL     1     -34.877  15.503  -2.419  1.00 20.00     0.043 C 
BRANCH   5   6
HETATM    6  C7  UNL     1     -34.579  17.030  -2.331  1.00 20.00    -0.049 C 
HETATM    7  C2  UNL     1     -35.857  17.880  -2.299  1.00 20.00     0.014 C 
HETATM    8  C3  UNL     1     -33.728  17.354  -1.090  1.00 20.00     0.014 C 
HETATM    9  C4  UNL     1     -33.772  17.425  -3.586  1.00 20.00     0.014 C 
ENDBRANCH   5   6
ENDBRANCH   2   5
TORSDOF 2
ENDMDL
MODEL 9
REMARK VINA RESULT:      -3.6      1.888      2.282
REMARK  2 active torsions:
REMARK  status: ('A' for Active; 'I' for Inactive)
REMARK    1  A    between atoms: C5_5  and  C6_6 
REMARK    2  A    between atoms: C5_5  and  C7_7 
ROOT
HETATM    1  C1  UNL     1     -35.428  13.594  -4.230  1.00 20.00     0.079 C 
HETATM    2  C6  UNL     1     -36.138  14.716  -3.604  1.00 20.00     0.189 C 
HETATM    3  N8  UNL     1     -34.862  12.709  -4.723  1.00 20.00    -0.196 NA
HETATM    4 CL9  UNL     1     -37.790  14.708  -4.311  1.00 20.00    -0.109 Cl
ENDROOT
BRANCH   2   5
HETATM    5  C5  UNL     1     -35.482  16.077  -3.880  1.00 20.00     0.043 C 
BRANCH   5   6
HETATM    6  C7  UNL     1     -34.295  16.499  -2.964  1.00 20.00    -0.049 C 
HETATM    7  C2  UNL     1     -34.609  16.325  -1.472  1.00 20.00     0.014 C 
HETATM    8  C3  UNL     1     -33.023  15.702  -3.307  1.00 20.00     0.014 C 
HETATM    9  C4  UNL     1     -34.010  17.995  -3.222  1.00 20.00     0.014 C 
ENDBRANCH   5   6
ENDBRANCH   2   5
TORSDOF 2
ENDMDL
