MODEL 1
REMARK VINA RESULT:      -4.6      0.000      0.000
REMARK  1 active torsions:
REMARK  status: ('A' for Active; 'I' for Inactive)
REMARK    1  A    between atoms: C8_8  and  N10_10 
ROOT
HETATM    1  C1  UNL     1     -34.510  13.541  -4.160  1.00 20.00     0.065 C 
HETATM    2  C4  UNL     1     -33.036  15.539  -3.962  1.00 20.00     0.051 C 
HETATM    3  C5  UNL     1     -33.634  16.937  -3.849  1.00 20.00     0.274 C 
HETATM    4  C6  UNL     1     -35.183  15.535  -2.843  1.00 20.00     0.292 C 
HETATM    5  C7  UNL     1     -34.042  14.614  -3.275  1.00 20.00     0.122 C 
HETATM    6  N9  UNL     1     -34.880  12.692  -4.858  1.00 20.00    -0.197 NA
HETATM    7  N10 UNL     1     -34.592  16.877  -2.736  1.00 20.00     0.094 N 
ENDROOT
BRANCH   7   8
HETATM    8  C8  UNL     1     -33.945  17.112  -1.418  1.00 20.00     0.223 A 
HETATM    9  C2  UNL     1     -34.257  18.353  -0.628  1.00 20.00     0.038 A 
HETATM   10  C3  UNL     1     -34.744  17.018  -0.148  1.00 20.00     0.038 A 
ENDBRANCH   7   8
TORSDOF 1
ENDMDL
MODEL 2
REMARK VINA RESULT:      -4.3      2.190      4.739
REMARK  1 active torsions:
REMARK  status: ('A' for Active; 'I' for Inactive)
REMARK    1  A    between atoms: C8_8  and  N10_10 
ROOT
HETATM    1  C1  UNL     1     -34.483  15.964  -2.141  1.00 20.00     0.065 C 
HETATM    2  C4  UNL     1     -34.113  13.897  -3.480  1.00 20.00     0.051 C 
HETATM    3  C5  UNL     1     -35.200  13.369  -4.409  1.00 20.00     0.274 C 
HETATM    4  C6  UNL     1     -35.487  15.669  -4.391  1.00 20.00     0.292 C 
HETATM    5  C7  UNL     1     -34.281  15.417  -3.487  1.00 20.00     0.122 C 
HETATM    6  N9  UNL     1     -34.642  16.397  -1.076  1.00 20.00    -0.197 NA
HETATM    7  N10 UNL     1     -35.575  14.496  -5.274  1.00 20.00     0.094 N 
ENDROOT
BRANCH   7   8
HETATM    8  C8  UNL     1     -34.696  14.613  -6.467  1.00 20.00     0.223 A 
HETATM    9  C2  UNL     1     -35.291  14.684  -7.846  1.00 20.00     0.038 A 
HETATM   10  C3  UNL     1     -34.637  15.895  -7.250  1.00 20.00     0.038 A 
ENDBRANCH   7   8
TORSDOF 1
ENDMDL
MODEL 3
REMARK VINA RESULT:      -4.1      1.881      2.573
REMARK  1 active torsions:
REMARK  status: ('A' for Active; 'I' for Inactive)
REMARK    1  A    between atoms: C8_8  and  N10_10 
ROOT
HETATM    1  C1  UNL     1     -35.469  14.465  -6.762  1.00 20.00     0.065 C 
HETATM    2  C4  UNL     1     -34.841  13.357  -4.622  1.00 20.00     0.051 C 
HETATM    3  C5  UNL     1     -33.663  13.869  -3.799  1.00 20.00     0.274 C 
HETATM    4  C6  UNL     1     -34.519  15.745  -4.859  1.00 20.00     0.292 C 
HETATM    5  C7  UNL     1     -35.425  14.595  -5.302  1.00 20.00     0.122 C 
HETATM    6  N9  UNL     1     -35.504  14.361  -7.917  1.00 20.00    -0.197 NA
HETATM    7  N10 UNL     1     -33.906  15.304  -3.598  1.00 20.00     0.094 N 
ENDROOT
BRANCH   7   8
HETATM    8  C8  UNL     1     -34.770  15.574  -2.418  1.00 20.00     0.223 A 
HETATM    9  C2  UNL     1     -34.356  16.588  -1.388  1.00 20.00     0.038 A 
HETATM   10  C3  UNL     1     -35.514  16.875  -2.298  1.00 20.00     0.038 A 
ENDBRANCH   7   8
TORSDOF 1
ENDMDL
MODEL 4
REMARK VINA RESULT:      -3.8      1.635      1.680
REMARK  1 active torsions:
REMARK  status: ('A' for Active; 'I' for Inactive)
REMARK    1  A    between atoms: C8_8  and  N10_10 
ROOT
HETATM    1  C1  UNL     1     -34.998  14.771  -6.254  1.00 20.00     0.065 C 
HETATM    2  C4  UNL     1     -33.276  16.343  -5.380  1.00 20.00     0.051 C 
HETATM    3  C5  UNL     1     -33.686  17.609  -4.637  1.00 20.00     0.274 C 
HETATM    4  C6  UNL     1     -35.353  16.067  -4.168  1.00 20.00     0.292 C 
HETATM    5  C7  UNL     1     -34.358  15.315  -5.051  1.00 20.00     0.122 C 
HETATM    6  N9  UNL     1     -35.503  14.341  -7.206  1.00 20.00    -0.197 NA
HETATM    7  N10 UNL     1     -34.592  17.173  -3.565  1.00 20.00     0.094 N 
ENDROOT
BRANCH   7   8
HETATM    8  C8  UNL     1     -33.862  16.760  -2.338  1.00 20.00     0.223 A 
HETATM    9  C2  UNL     1     -33.705  17.716  -1.188  1.00 20.00     0.038 A 
HETATM   10  C3  UNL     1     -34.603  16.523  -1.051  1.00 20.00     0.038 A 
ENDBRANCH   7   8
TORSDOF 1
ENDMDL
MODEL 5
REMARK VINA RESULT:      -3.8      1.571      4.432
REMARK  1 active torsions:
REMARK  status: ('A' for Active; 'I' for Inactive)
REMARK    1  A    between atoms: C8_8  and  N10_10 
ROOT
HETATM    1  C1  UNL     1     -33.816  17.413  -0.900  1.00 20.00     0.065 C 
HETATM    2  C4  UNL     1     -35.831  17.015  -2.308  1.00 20.00     0.051 C 
HETATM    3  C5  UNL     1     -35.719  16.958  -3.827  1.00 20.00     0.274 C 
HETATM    4  C6  UNL     1     -33.688  16.162  -3.040  1.00 20.00     0.292 C 
HETATM    5  C7  UNL     1     -34.504  16.466  -1.784  1.00 20.00     0.122 C 
HETATM    6  N9  UNL     1     -33.271  18.161  -0.201  1.00 20.00    -0.197 NA
HETATM    7  N10 UNL     1     -34.671  15.968  -4.117  1.00 20.00     0.094 N 
ENDROOT
BRANCH   7   8
HETATM    8  C8  UNL     1     -35.200  14.579  -4.163  1.00 20.00     0.223 A 
HETATM    9  C2  UNL     1     -34.885  13.684  -5.329  1.00 20.00     0.038 A 
HETATM   10  C3  UNL     1     -34.278  13.405  -3.987  1.00 20.00     0.038 A 
ENDBRANCH   7   8
TORSDOF 1
ENDMDL
MODEL 6
REMARK VINA RESULT:      -3.7      1.449      1.714
REMARK  1 active torsions:
REMARK  status: ('A' for Active; 'I' for Inactive)
REMARK    1  A    between atoms: C8_8  and  N10_10 
ROOT
HETATM    1  C1  UNL     1     -36.950  14.760  -3.800  1.00 20.00     0.065 C 
HETATM    2  C4  UNL     1     -34.468  14.783  -3.599  1.00 20.00     0.051 C 
HETATM    3  C5  UNL     1     -33.689  16.085  -3.750  1.00 20.00     0.274 C 
HETATM    4  C6  UNL     1     -35.735  16.707  -2.854  1.00 20.00     0.292 C 
HETATM    5  C7  UNL     1     -35.808  15.185  -2.983  1.00 20.00     0.122 C 
HETATM    6  N9  UNL     1     -37.854  14.423  -4.445  1.00 20.00    -0.197 NA
HETATM    7  N10 UNL     1     -34.302  17.034  -2.810  1.00 20.00     0.094 N 
ENDROOT
BRANCH   7   8
HETATM    8  C8  UNL     1     -33.734  16.922  -1.441  1.00 20.00     0.223 A 
HETATM    9  C2  UNL     1     -33.398  18.159  -0.653  1.00 20.00     0.038 A 
HETATM   10  C3  UNL     1     -34.556  17.299  -0.240  1.00 20.00     0.038 A 
ENDBRANCH   7   8
TORSDOF 1
ENDMDL
MODEL 7
REMARK VINA RESULT:      -3.6      1.774      1.836
REMARK  1 active torsions:
REMARK  status: ('A' for Active; 'I' for Inactive)
REMARK    1  A    between atoms: C8_8  and  N10_10 
ROOT
HETATM    1  C1  UNL     1     -34.934  13.717  -4.085  1.00 20.00     0.065 C 
HETATM    2  C4  UNL     1     -33.704  15.627  -3.065  1.00 20.00     0.051 C 
HETATM    3  C5  UNL     1     -33.792  17.021  -3.674  1.00 20.00     0.274 C 
HETATM    4  C6  UNL     1     -35.835  16.029  -4.141  1.00 20.00     0.292 C 
HETATM    5  C7  UNL     1     -35.060  14.978  -3.346  1.00 20.00     0.122 C 
HETATM    6  N9  UNL     1     -34.835  12.719  -4.669  1.00 20.00    -0.197 NA
HETATM    7  N10 UNL     1     -35.226  17.321  -3.790  1.00 20.00     0.094 N 
ENDROOT
BRANCH   7   8
HETATM    8  C8  UNL     1     -35.789  17.896  -2.540  1.00 20.00     0.223 A 
HETATM    9  C2  UNL     1     -36.546  19.195  -2.574  1.00 20.00     0.038 A 
HETATM   10  C3  UNL     1     -37.274  17.911  -2.308  1.00 20.00     0.038 A 
ENDBRANCH   7   8
TORSDOF 1
ENDMDL
MODEL 8
REMARK VINA RESULT:      -3.6      1.611      2.830
REMARK  1 active torsions:
REMARK  status: ('A' for Active; 'I' for Inactive)
REMARK    1  A    between atoms: C8_8  and  N10_10 
ROOT
HETATM    1  C1  UNL     1     -34.906  13.692  -4.375  1.00 20.00     0.065 C 
HETATM    2  C4  UNL     1     -34.823  15.527  -2.693  1.00 20.00     0.051 C 
HETATM    3  C5  UNL     1     -33.605  16.438  -2.597  1.00 20.00     0.274 C 
HETATM    4  C6  UNL     1     -33.729  15.829  -4.831  1.00 20.00     0.292 C 
HETATM    5  C7  UNL     1     -34.926  15.145  -4.169  1.00 20.00     0.122 C 
HETATM    6  N9  UNL     1     -34.892  12.544  -4.537  1.00 20.00    -0.197 NA
HETATM    7  N10 UNL     1     -33.382  16.958  -3.953  1.00 20.00     0.094 N 
ENDROOT
BRANCH   7   8
HETATM    8  C8  UNL     1     -34.193  18.171  -4.237  1.00 20.00     0.223 A 
HETATM    9  C2  UNL     1     -33.648  19.261  -5.117  1.00 20.00     0.038 A 
HETATM   10  C3  UNL     1     -34.774  18.399  -5.604  1.00 20.00     0.038 A 
ENDBRANCH   7   8
TORSDOF 1
ENDMDL
MODEL 9
REMARK VINA RESULT:      -3.6      2.109      2.546
REMARK  1 active torsions:
REMARK  status: ('A' for Active; 'I' for Inactive)
REMARK    1  A    between atoms: C8_8  and  N10_10 
ROOT
HETATM    1  C1  UNL     1     -34.644  16.442  -6.526  1.00 20.00     0.065 C 
HETATM    2  C4  UNL     1     -34.220  14.736  -4.763  1.00 20.00     0.051 C 
HETATM    3  C5  UNL     1     -33.213  15.003  -3.649  1.00 20.00     0.274 C 
HETATM    4  C6  UNL     1     -34.075  17.085  -4.197  1.00 20.00     0.292 C 
HETATM    5  C7  UNL     1     -34.811  16.102  -5.108  1.00 20.00     0.122 C 
HETATM    6  N9  UNL     1     -34.514  16.710  -7.647  1.00 20.00    -0.197 NA
HETATM    7  N10 UNL     1     -33.602  16.289  -3.054  1.00 20.00     0.094 N 
ENDROOT
BRANCH   7   8
HETATM    8  C8  UNL     1     -34.639  16.136  -1.999  1.00 20.00     0.223 A 
HETATM    9  C2  UNL     1     -34.467  16.801  -0.661  1.00 20.00     0.038 A 
HETATM   10  C3  UNL     1     -35.514  17.296  -1.614  1.00 20.00     0.038 A 
ENDBRANCH   7   8
TORSDOF 1
ENDMDL
