MODEL 1
REMARK VINA RESULT:      -4.2      0.000      0.000
REMARK  1 active torsions:
REMARK  status: ('A' for Active; 'I' for Inactive)
REMARK    1  A    between atoms: C8_8  and  N10_10 
ROOT
HETATM    1  C1  UNL     1     -32.173   8.268   2.143  1.00 20.00     0.065 C 
HETATM    2  C4  UNL     1     -32.532   5.802   2.158  1.00 20.00     0.051 C 
HETATM    3  C5  UNL     1     -33.716   5.198   2.900  1.00 20.00     0.274 C 
HETATM    4  C6  UNL     1     -33.165   7.106   4.098  1.00 20.00     0.292 C 
HETATM    5  C7  UNL     1     -32.149   7.049   2.959  1.00 20.00     0.122 C 
HETATM    6  N9  UNL     1     -32.193   9.233   1.498  1.00 20.00    -0.197 NA
HETATM    7  N10 UNL     1     -33.553   5.704   4.264  1.00 20.00     0.094 N 
ENDROOT
BRANCH   7   8
HETATM    8  C8  UNL     1     -34.762   5.530   5.096  1.00 20.00     0.223 A 
HETATM    9  C2  UNL     1     -35.122   4.175   5.641  1.00 20.00     0.038 A 
HETATM   10  C3  UNL     1     -34.643   5.252   6.569  1.00 20.00     0.038 A 
ENDBRANCH   7   8
TORSDOF 1
ENDMDL
MODEL 2
REMARK VINA RESULT:      -4.1     11.277     11.957
REMARK  1 active torsions:
REMARK  status: ('A' for Active; 'I' for Inactive)
REMARK    1  A    between atoms: C8_8  and  N10_10 
ROOT
HETATM    1  C1  UNL     1     -34.895  13.702  -4.589  1.00 20.00     0.065 C 
HETATM    2  C4  UNL     1     -33.728  15.890  -4.334  1.00 20.00     0.051 C 
HETATM    3  C5  UNL     1     -33.402  16.435  -2.950  1.00 20.00     0.274 C 
HETATM    4  C6  UNL     1     -35.350  15.207  -2.669  1.00 20.00     0.292 C 
HETATM    5  C7  UNL     1     -35.027  15.099  -4.158  1.00 20.00     0.122 C 
HETATM    6  N9  UNL     1     -34.790  12.597  -4.928  1.00 20.00    -0.197 NA
HETATM    7  N10 UNL     1     -34.705  16.464  -2.283  1.00 20.00     0.094 N 
ENDROOT
BRANCH   7   8
HETATM    8  C8  UNL     1     -34.604  16.640  -0.819  1.00 20.00     0.223 A 
HETATM    9  C2  UNL     1     -33.850  17.807  -0.243  1.00 20.00     0.038 A 
HETATM   10  C3  UNL     1     -35.345  17.752  -0.130  1.00 20.00     0.038 A 
ENDBRANCH   7   8
TORSDOF 1
ENDMDL
MODEL 3
REMARK VINA RESULT:      -4.1     11.336     12.515
REMARK  1 active torsions:
REMARK  status: ('A' for Active; 'I' for Inactive)
REMARK    1  A    between atoms: C8_8  and  N10_10 
ROOT
HETATM    1  C1  UNL     1     -35.177  14.583  -6.967  1.00 20.00     0.065 C 
HETATM    2  C4  UNL     1     -34.469  13.635  -4.773  1.00 20.00     0.051 C 
HETATM    3  C5  UNL     1     -34.786  14.367  -3.477  1.00 20.00     0.274 C 
HETATM    4  C6  UNL     1     -34.530  16.039  -5.065  1.00 20.00     0.292 C 
HETATM    5  C7  UNL     1     -34.276  14.736  -5.820  1.00 20.00     0.122 C 
HETATM    6  N9  UNL     1     -35.891  14.463  -7.874  1.00 20.00    -0.197 NA
HETATM    7  N10 UNL     1     -34.194  15.690  -3.683  1.00 20.00     0.094 N 
ENDROOT
BRANCH   7   8
HETATM    8  C8  UNL     1     -34.658  16.693  -2.701  1.00 20.00     0.223 A 
HETATM    9  C2  UNL     1     -34.717  16.354  -1.237  1.00 20.00     0.038 A 
HETATM   10  C3  UNL     1     -33.689  17.325  -1.739  1.00 20.00     0.038 A 
ENDBRANCH   7   8
TORSDOF 1
ENDMDL
MODEL 4
REMARK VINA RESULT:      -3.9     11.501     12.574
REMARK  1 active torsions:
REMARK  status: ('A' for Active; 'I' for Inactive)
REMARK    1  A    between atoms: C8_8  and  N10_10 
ROOT
HETATM    1  C1  UNL     1     -34.018  15.908  -6.241  1.00 20.00     0.065 C 
HETATM    2  C4  UNL     1     -33.927  14.627  -4.105  1.00 20.00     0.051 C 
HETATM    3  C5  UNL     1     -34.497  15.220  -2.824  1.00 20.00     0.274 C 
HETATM    4  C6  UNL     1     -33.752  17.043  -4.050  1.00 20.00     0.292 C 
HETATM    5  C7  UNL     1     -33.412  15.825  -4.908  1.00 20.00     0.122 C 
HETATM    6  N9  UNL     1     -34.499  15.975  -7.296  1.00 20.00    -0.197 NA
HETATM    7  N10 UNL     1     -33.784  16.492  -2.693  1.00 20.00     0.094 N 
ENDROOT
BRANCH   7   8
HETATM    8  C8  UNL     1     -34.402  17.405  -1.710  1.00 20.00     0.223 A 
HETATM    9  C2  UNL     1     -34.731  16.922  -0.324  1.00 20.00     0.038 A 
HETATM   10  C3  UNL     1     -33.614  17.902  -0.529  1.00 20.00     0.038 A 
ENDBRANCH   7   8
TORSDOF 1
ENDMDL
MODEL 5
REMARK VINA RESULT:      -3.9     11.464     13.049
REMARK  1 active torsions:
REMARK  status: ('A' for Active; 'I' for Inactive)
REMARK    1  A    between atoms: C8_8  and  N10_10 
ROOT
HETATM    1  C1  UNL     1     -34.656  16.210  -1.598  1.00 20.00     0.065 C 
HETATM    2  C4  UNL     1     -33.124  15.614  -3.471  1.00 20.00     0.051 C 
HETATM    3  C5  UNL     1     -33.528  15.881  -4.915  1.00 20.00     0.274 C 
HETATM    4  C6  UNL     1     -35.519  15.461  -3.800  1.00 20.00     0.292 C 
HETATM    5  C7  UNL     1     -34.433  15.312  -2.736  1.00 20.00     0.122 C 
HETATM    6  N9  UNL     1     -34.834  16.921  -0.697  1.00 20.00    -0.197 NA
HETATM    7  N10 UNL     1     -34.803  15.173  -5.045  1.00 20.00     0.094 N 
ENDROOT
BRANCH   7   8
HETATM    8  C8  UNL     1     -35.560  15.558  -6.254  1.00 20.00     0.223 A 
HETATM    9  C2  UNL     1     -34.842  15.825  -7.549  1.00 20.00     0.038 A 
HETATM   10  C3  UNL     1     -35.699  14.601  -7.406  1.00 20.00     0.038 A 
ENDBRANCH   7   8
TORSDOF 1
ENDMDL
MODEL 6
REMARK VINA RESULT:      -3.8     11.531     12.736
REMARK  1 active torsions:
REMARK  status: ('A' for Active; 'I' for Inactive)
REMARK    1  A    between atoms: C8_8  and  N10_10 
ROOT
HETATM    1  C1  UNL     1     -35.661  18.053   0.758  1.00 20.00     0.065 C 
HETATM    2  C4  UNL     1     -33.844  18.764  -0.794  1.00 20.00     0.051 C 
HETATM    3  C5  UNL     1     -33.753  18.180  -2.197  1.00 20.00     0.274 C 
HETATM    4  C6  UNL     1     -34.677  16.492  -0.901  1.00 20.00     0.292 C 
HETATM    5  C7  UNL     1     -34.430  17.644   0.071  1.00 20.00     0.122 C 
HETATM    6  N9  UNL     1     -36.634  18.376   1.300  1.00 20.00    -0.197 NA
HETATM    7  N10 UNL     1     -33.694  16.737  -1.959  1.00 20.00     0.094 N 
ENDROOT
BRANCH   7   8
HETATM    8  C8  UNL     1     -33.939  15.937  -3.177  1.00 20.00     0.223 A 
HETATM    9  C2  UNL     1     -33.242  16.278  -4.465  1.00 20.00     0.038 A 
HETATM   10  C3  UNL     1     -32.872  15.028  -3.722  1.00 20.00     0.038 A 
ENDBRANCH   7   8
TORSDOF 1
ENDMDL
MODEL 7
REMARK VINA RESULT:      -3.8     11.091     12.932
REMARK  1 active torsions:
REMARK  status: ('A' for Active; 'I' for Inactive)
REMARK    1  A    between atoms: C8_8  and  N10_10 
ROOT
HETATM    1  C1  UNL     1     -34.536  16.113  -2.004  1.00 20.00     0.065 C 
HETATM    2  C4  UNL     1     -34.281  14.115  -3.472  1.00 20.00     0.051 C 
HETATM    3  C5  UNL     1     -34.295  14.262  -4.987  1.00 20.00     0.274 C 
HETATM    4  C6  UNL     1     -35.673  15.957  -4.204  1.00 20.00     0.292 C 
HETATM    5  C7  UNL     1     -35.208  15.217  -2.952  1.00 20.00     0.122 C 
HETATM    6  N9  UNL     1     -34.005  16.823  -1.255  1.00 20.00    -0.197 NA
HETATM    7  N10 UNL     1     -35.569  14.936  -5.249  1.00 20.00     0.094 N 
ENDROOT
BRANCH   7   8
HETATM    8  C8  UNL     1     -35.663  15.489  -6.616  1.00 20.00     0.223 A 
HETATM    9  C2  UNL     1     -35.211  14.677  -7.798  1.00 20.00     0.038 A 
HETATM   10  C3  UNL     1     -36.672  14.950  -7.591  1.00 20.00     0.038 A 
ENDBRANCH   7   8
TORSDOF 1
ENDMDL
MODEL 8
REMARK VINA RESULT:      -3.8     11.606     12.964
REMARK  1 active torsions:
REMARK  status: ('A' for Active; 'I' for Inactive)
REMARK    1  A    between atoms: C8_8  and  N10_10 
ROOT
HETATM    1  C1  UNL     1     -34.442  16.667  -1.069  1.00 20.00     0.065 C 
HETATM    2  C4  UNL     1     -33.773  17.476  -3.330  1.00 20.00     0.051 C 
HETATM    3  C5  UNL     1     -34.593  17.104  -4.558  1.00 20.00     0.274 C 
HETATM    4  C6  UNL     1     -34.832  15.308  -3.109  1.00 20.00     0.292 C 
HETATM    5  C7  UNL     1     -33.908  16.282  -2.381  1.00 20.00     0.122 C 
HETATM    6  N9  UNL     1     -34.866  16.970  -0.033  1.00 20.00    -0.197 NA
HETATM    7  N10 UNL     1     -34.616  15.641  -4.519  1.00 20.00     0.094 N 
ENDROOT
BRANCH   7   8
HETATM    8  C8  UNL     1     -35.631  15.052  -5.417  1.00 20.00     0.223 A 
HETATM    9  C2  UNL     1     -35.837  15.607  -6.800  1.00 20.00     0.038 A 
HETATM   10  C3  UNL     1     -35.214  14.254  -6.622  1.00 20.00     0.038 A 
ENDBRANCH   7   8
TORSDOF 1
ENDMDL
MODEL 9
REMARK VINA RESULT:      -3.6     10.300     11.269
REMARK  1 active torsions:
REMARK  status: ('A' for Active; 'I' for Inactive)
REMARK    1  A    between atoms: C8_8  and  N10_10 
ROOT
HETATM    1  C1  UNL     1     -42.072   1.995  -4.034  1.00 20.00     0.065 C 
HETATM    2  C4  UNL     1     -43.404   3.981  -3.330  1.00 20.00     0.051 C 
HETATM    3  C5  UNL     1     -42.710   5.229  -2.802  1.00 20.00     0.274 C 
HETATM    4  C6  UNL     1     -41.338   3.466  -2.175  1.00 20.00     0.292 C 
HETATM    5  C7  UNL     1     -42.514   2.813  -2.898  1.00 20.00     0.122 C 
HETATM    6  N9  UNL     1     -41.722   1.349  -4.932  1.00 20.00    -0.197 NA
HETATM    7  N10 UNL     1     -41.909   4.723  -1.685  1.00 20.00     0.094 N 
ENDROOT
BRANCH   7   8
HETATM    8  C8  UNL     1     -40.887   5.684  -1.221  1.00 20.00     0.223 A 
HETATM    9  C2  UNL     1     -41.241   7.132  -1.016  1.00 20.00     0.038 A 
HETATM   10  C3  UNL     1     -40.952   6.257   0.168  1.00 20.00     0.038 A 
ENDBRANCH   7   8
TORSDOF 1
ENDMDL
