MODEL 1
REMARK VINA RESULT:      -4.2      0.000      0.000
REMARK  1 active torsions:
REMARK  status: ('A' for Active; 'I' for Inactive)
REMARK    1  A    between atoms: C3_3  and  C7_7 
ROOT
HETATM    1  C1  UNL     1     -34.904   5.022   3.876  1.00 20.00     0.304 C 
HETATM    2  C2  UNL     1     -34.060   5.279   5.110  1.00 20.00     0.148 C 
HETATM    3  C3  UNL     1     -33.536   6.803   3.490  1.00 20.00     0.360 C 
HETATM    4  C4  UNL     1     -34.849   5.233   6.403  1.00 20.00     0.041 C 
HETATM    5  N8  UNL     1     -34.066   5.606   2.836  1.00 20.00     0.115 N 
HETATM    6  O9  UNL     1     -33.519   6.594   4.913  1.00 20.00    -0.350 OA
HETATM    7  H24 UNL     1     -33.298   4.964   2.638  1.00 20.00     0.319 HD
ENDROOT
BRANCH   3   8
HETATM    8  C7  UNL     1     -32.129   7.104   3.008  1.00 20.00     0.036 C 
HETATM    9  C5  UNL     1     -32.150   8.116   1.863  1.00 20.00     0.014 C 
HETATM   10  C6  UNL     1     -31.259   7.619   4.157  1.00 20.00     0.014 C 
ENDBRANCH   3   8
TORSDOF 1
ENDMDL
MODEL 2
REMARK VINA RESULT:      -3.9     11.492     12.355
REMARK  1 active torsions:
REMARK  status: ('A' for Active; 'I' for Inactive)
REMARK    1  A    between atoms: C3_3  and  C7_7 
ROOT
HETATM    1  C1  UNL     1     -34.760  13.280  -4.730  1.00 20.00     0.304 C 
HETATM    2  C2  UNL     1     -35.113  14.540  -5.497  1.00 20.00     0.148 C 
HETATM    3  C3  UNL     1     -33.518  15.015  -3.933  1.00 20.00     0.360 C 
HETATM    4  C4  UNL     1     -35.197  14.334  -6.997  1.00 20.00     0.041 C 
HETATM    5  N8  UNL     1     -34.266  13.842  -3.480  1.00 20.00     0.115 N 
HETATM    6  O9  UNL     1     -34.056  15.462  -5.189  1.00 20.00    -0.350 OA
HETATM    7  H24 UNL     1     -35.064  14.148  -2.923  1.00 20.00     0.319 HD
ENDROOT
BRANCH   3   8
HETATM    8  C7  UNL     1     -33.610  16.140  -2.917  1.00 20.00     0.036 C 
HETATM    9  C5  UNL     1     -33.734  17.494  -3.615  1.00 20.00     0.014 C 
HETATM   10  C6  UNL     1     -34.790  15.920  -1.968  1.00 20.00     0.014 C 
ENDBRANCH   3   8
TORSDOF 1
ENDMDL
MODEL 3
REMARK VINA RESULT:      -3.9     11.430     12.287
REMARK  1 active torsions:
REMARK  status: ('A' for Active; 'I' for Inactive)
REMARK    1  A    between atoms: C3_3  and  C7_7 
ROOT
HETATM    1  C1  UNL     1     -33.724  17.271  -3.199  1.00 20.00     0.304 C 
HETATM    2  C2  UNL     1     -34.667  16.368  -2.427  1.00 20.00     0.148 C 
HETATM    3  C3  UNL     1     -33.524  15.140  -3.977  1.00 20.00     0.360 C 
HETATM    4  C4  UNL     1     -34.640  16.602  -0.929  1.00 20.00     0.041 C 
HETATM    5  N8  UNL     1     -33.577  16.526  -4.443  1.00 20.00     0.115 N 
HETATM    6  O9  UNL     1     -34.219  15.037  -2.722  1.00 20.00    -0.350 OA
HETATM    7  H24 UNL     1     -34.418  16.660  -5.004  1.00 20.00     0.319 HD
ENDROOT
BRANCH   3   8
HETATM    8  C7  UNL     1     -34.168  14.206  -4.987  1.00 20.00     0.036 C 
HETATM    9  C5  UNL     1     -35.227  13.329  -4.319  1.00 20.00     0.014 C 
HETATM   10  C6  UNL     1     -34.784  14.997  -6.142  1.00 20.00     0.014 C 
ENDBRANCH   3   8
TORSDOF 1
ENDMDL
MODEL 4
REMARK VINA RESULT:      -3.8      1.031      3.674
REMARK  1 active torsions:
REMARK  status: ('A' for Active; 'I' for Inactive)
REMARK    1  A    between atoms: C3_3  and  C7_7 
ROOT
HETATM    1  C1  UNL     1     -33.630   5.848   2.281  1.00 20.00     0.304 C 
HETATM    2  C2  UNL     1     -33.105   7.065   3.020  1.00 20.00     0.148 C 
HETATM    3  C3  UNL     1     -33.740   5.467   4.524  1.00 20.00     0.360 C 
HETATM    4  C4  UNL     1     -31.820   7.620   2.438  1.00 20.00     0.041 C 
HETATM    5  N8  UNL     1     -34.500   5.260   3.291  1.00 20.00     0.115 N 
HETATM    6  O9  UNL     1     -32.877   6.605   4.361  1.00 20.00    -0.350 OA
HETATM    7  H24 UNL     1     -35.363   5.804   3.333  1.00 20.00     0.319 HD
ENDROOT
BRANCH   3   8
HETATM    8  C7  UNL     1     -34.672   5.706   5.699  1.00 20.00     0.036 C 
HETATM    9  C5  UNL     1     -35.041   4.388   6.378  1.00 20.00     0.014 C 
HETATM   10  C6  UNL     1     -34.038   6.665   6.709  1.00 20.00     0.014 C 
ENDBRANCH   3   8
TORSDOF 1
ENDMDL
MODEL 5
REMARK VINA RESULT:      -3.8     11.366     11.883
REMARK  1 active torsions:
REMARK  status: ('A' for Active; 'I' for Inactive)
REMARK    1  A    between atoms: C3_3  and  C7_7 
ROOT
HETATM    1  C1  UNL     1     -36.392  14.838  -3.750  1.00 20.00     0.304 C 
HETATM    2  C2  UNL     1     -34.979  14.638  -4.265  1.00 20.00     0.148 C 
HETATM    3  C3  UNL     1     -34.911  15.501  -2.150  1.00 20.00     0.360 C 
HETATM    4  C4  UNL     1     -34.766  13.300  -4.945  1.00 20.00     0.041 C 
HETATM    5  N8  UNL     1     -36.184  15.888  -2.760  1.00 20.00     0.115 N 
HETATM    6  O9  UNL     1     -34.150  14.730  -3.096  1.00 20.00    -0.350 OA
HETATM    7  H24 UNL     1     -36.066  16.776  -3.248  1.00 20.00     0.319 HD
ENDROOT
BRANCH   3   8
HETATM    8  C7  UNL     1     -34.114  16.726  -1.741  1.00 20.00     0.036 C 
HETATM    9  C5  UNL     1     -34.302  17.859  -2.749  1.00 20.00     0.014 C 
HETATM   10  C6  UNL     1     -34.512  17.190  -0.339  1.00 20.00     0.014 C 
ENDBRANCH   3   8
TORSDOF 1
ENDMDL
MODEL 6
REMARK VINA RESULT:      -3.8     11.668     12.288
REMARK  1 active torsions:
REMARK  status: ('A' for Active; 'I' for Inactive)
REMARK    1  A    between atoms: C3_3  and  C7_7 
ROOT
HETATM    1  C1  UNL     1     -35.393  15.757  -3.096  1.00 20.00     0.304 C 
HETATM    2  C2  UNL     1     -34.065  16.456  -3.322  1.00 20.00     0.148 C 
HETATM    3  C3  UNL     1     -34.606  16.534  -1.104  1.00 20.00     0.360 C 
HETATM    4  C4  UNL     1     -33.123  15.688  -4.227  1.00 20.00     0.041 C 
HETATM    5  N8  UNL     1     -35.846  16.404  -1.871  1.00 20.00     0.115 N 
HETATM    6  O9  UNL     1     -33.492  16.581  -2.012  1.00 20.00    -0.350 OA
HETATM    7  H24 UNL     1     -36.194  17.334  -2.105  1.00 20.00     0.319 HD
ENDROOT
BRANCH   3   8
HETATM    8  C7  UNL     1     -34.623  17.797  -0.261  1.00 20.00     0.036 C 
HETATM    9  C5  UNL     1     -35.279  17.537   1.095  1.00 20.00     0.014 C 
HETATM   10  C6  UNL     1     -33.205  18.341  -0.070  1.00 20.00     0.014 C 
ENDBRANCH   3   8
TORSDOF 1
ENDMDL
MODEL 7
REMARK VINA RESULT:      -3.7     11.430     13.128
REMARK  1 active torsions:
REMARK  status: ('A' for Active; 'I' for Inactive)
REMARK    1  A    between atoms: C3_3  and  C7_7 
ROOT
HETATM    1  C1  UNL     1     -34.374  15.282  -7.155  1.00 20.00     0.304 C 
HETATM    2  C2  UNL     1     -35.653  14.508  -6.895  1.00 20.00     0.148 C 
HETATM    3  C3  UNL     1     -34.897  15.421  -4.942  1.00 20.00     0.360 C 
HETATM    4  C4  UNL     1     -36.740  14.772  -7.918  1.00 20.00     0.041 C 
HETATM    5  N8  UNL     1     -33.752  15.247  -5.837  1.00 20.00     0.115 N 
HETATM    6  O9  UNL     1     -36.085  14.945  -5.598  1.00 20.00    -0.350 OA
HETATM    7  H24 UNL     1     -33.350  14.321  -5.692  1.00 20.00     0.319 HD
ENDROOT
BRANCH   3   8
HETATM    8  C7  UNL     1     -34.693  14.651  -3.649  1.00 20.00     0.036 C 
HETATM    9  C5  UNL     1     -33.551  13.644  -3.790  1.00 20.00     0.014 C 
HETATM   10  C6  UNL     1     -34.419  15.605  -2.485  1.00 20.00     0.014 C 
ENDBRANCH   3   8
TORSDOF 1
ENDMDL
MODEL 8
REMARK VINA RESULT:      -3.6     11.400     12.388
REMARK  1 active torsions:
REMARK  status: ('A' for Active; 'I' for Inactive)
REMARK    1  A    between atoms: C3_3  and  C7_7 
ROOT
HETATM    1  C1  UNL     1     -34.826  17.187  -0.332  1.00 20.00     0.304 C 
HETATM    2  C2  UNL     1     -33.494  17.825  -0.677  1.00 20.00     0.148 C 
HETATM    3  C3  UNL     1     -34.311  16.717  -2.501  1.00 20.00     0.360 C 
HETATM    4  C4  UNL     1     -33.363  19.255  -0.191  1.00 20.00     0.041 C 
HETATM    5  N8  UNL     1     -34.876  16.099  -1.301  1.00 20.00     0.115 N 
HETATM    6  O9  UNL     1     -33.435  17.789  -2.111  1.00 20.00    -0.350 OA
HETATM    7  H24 UNL     1     -34.256  15.353  -0.984  1.00 20.00     0.319 HD
ENDROOT
BRANCH   3   8
HETATM    8  C7  UNL     1     -33.532  15.701  -3.316  1.00 20.00     0.036 C 
HETATM    9  C5  UNL     1     -34.302  14.385  -3.424  1.00 20.00     0.014 C 
HETATM   10  C6  UNL     1     -33.217  16.248  -4.709  1.00 20.00     0.014 C 
ENDBRANCH   3   8
TORSDOF 1
ENDMDL
MODEL 9
REMARK VINA RESULT:      -3.6     11.469     13.306
REMARK  1 active torsions:
REMARK  status: ('A' for Active; 'I' for Inactive)
REMARK    1  A    between atoms: C3_3  and  C7_7 
ROOT
HETATM    1  C1  UNL     1     -33.467  17.353  -5.212  1.00 20.00     0.304 C 
HETATM    2  C2  UNL     1     -34.027  16.373  -6.225  1.00 20.00     0.148 C 
HETATM    3  C3  UNL     1     -34.619  15.721  -4.117  1.00 20.00     0.360 C 
HETATM    4  C4  UNL     1     -34.673  17.043  -7.422  1.00 20.00     0.041 C 
HETATM    5  N8  UNL     1     -33.394  16.515  -4.022  1.00 20.00     0.115 N 
HETATM    6  O9  UNL     1     -35.009  15.619  -5.498  1.00 20.00    -0.350 OA
HETATM    7  H24 UNL     1     -32.586  15.897  -4.108  1.00 20.00     0.319 HD
ENDROOT
BRANCH   3   8
HETATM    8  C7  UNL     1     -34.405  14.328  -3.551  1.00 20.00     0.036 C 
HETATM    9  C5  UNL     1     -35.208  13.292  -4.338  1.00 20.00     0.014 C 
HETATM   10  C6  UNL     1     -32.920  13.963  -3.552  1.00 20.00     0.014 C 
ENDBRANCH   3   8
TORSDOF 1
ENDMDL
