MODEL 1
REMARK VINA RESULT:      -4.1      0.000      0.000
REMARK  1 active torsions:
REMARK  status: ('A' for Active; 'I' for Inactive)
REMARK    1  A    between atoms: C2_2  and  C7_7 
ROOT
HETATM    1  C1  UNL     1     -35.306   5.790   4.071  1.00 20.00     0.310 C 
HETATM    2  C2  UNL     1     -33.158   6.047   3.379  1.00 20.00     0.356 C 
HETATM    3  C3  UNL     1     -34.380   5.298   5.180  1.00 20.00     0.083 C 
HETATM    4  C4  UNL     1     -34.761   3.904   5.665  1.00 20.00     0.047 C 
HETATM    5  C5  UNL     1     -34.301   6.269   6.363  1.00 20.00     0.047 C 
HETATM    6  N8  UNL     1     -34.461   6.719   3.320  1.00 20.00     0.115 N 
HETATM    7  O9  UNL     1     -33.082   5.235   4.563  1.00 20.00    -0.345 OA
HETATM    8  H24 UNL     1     -34.783   6.805   2.358  1.00 20.00     0.319 HD
ENDROOT
BRANCH   2   9
HETATM    9  C7  UNL     1     -32.005   7.037   3.376  1.00 20.00     0.059 C 
HETATM   10  C6  UNL     1     -32.101   8.006   2.239  1.00 20.00     0.009 C 
ENDBRANCH   2   9
TORSDOF 1
ENDMDL
MODEL 2
REMARK VINA RESULT:      -4.0     11.635     12.588
REMARK  1 active torsions:
REMARK  status: ('A' for Active; 'I' for Inactive)
REMARK    1  A    between atoms: C2_2  and  C7_7 
ROOT
HETATM    1  C1  UNL     1     -35.978  14.893  -3.911  1.00 20.00     0.310 C 
HETATM    2  C2  UNL     1     -34.782  16.572  -2.956  1.00 20.00     0.356 C 
HETATM    3  C3  UNL     1     -34.553  14.840  -4.455  1.00 20.00     0.083 C 
HETATM    4  C4  UNL     1     -34.525  14.787  -5.979  1.00 20.00     0.047 C 
HETATM    5  C5  UNL     1     -33.734  13.685  -3.869  1.00 20.00     0.047 C 
HETATM    6  N8  UNL     1     -35.819  15.585  -2.631  1.00 20.00     0.115 N 
HETATM    7  O9  UNL     1     -33.957  16.078  -4.024  1.00 20.00    -0.345 OA
HETATM    8  H24 UNL     1     -36.686  16.045  -2.359  1.00 20.00     0.319 HD
ENDROOT
BRANCH   2   9
HETATM    9  C7  UNL     1     -33.907  16.893  -1.755  1.00 20.00     0.059 C 
HETATM   10  C6  UNL     1     -34.680  16.867  -0.475  1.00 20.00     0.009 C 
ENDBRANCH   2   9
TORSDOF 1
ENDMDL
MODEL 3
REMARK VINA RESULT:      -4.0     11.817     13.293
REMARK  1 active torsions:
REMARK  status: ('A' for Active; 'I' for Inactive)
REMARK    1  A    between atoms: C2_2  and  C7_7 
ROOT
HETATM    1  C1  UNL     1     -33.218  15.976  -3.854  1.00 20.00     0.310 C 
HETATM    2  C2  UNL     1     -34.213  16.010  -5.896  1.00 20.00     0.356 C 
HETATM    3  C3  UNL     1     -34.545  15.228  -3.756  1.00 20.00     0.083 C 
HETATM    4  C4  UNL     1     -35.396  15.725  -2.593  1.00 20.00     0.047 C 
HETATM    5  C5  UNL     1     -34.366  13.709  -3.673  1.00 20.00     0.047 C 
HETATM    6  N8  UNL     1     -32.889  15.884  -5.277  1.00 20.00     0.115 N 
HETATM    7  O9  UNL     1     -35.222  15.534  -4.989  1.00 20.00    -0.345 OA
HETATM    8  H24 UNL     1     -32.281  16.652  -5.558  1.00 20.00     0.319 HD
ENDROOT
BRANCH   2   9
HETATM    9  C7  UNL     1     -34.308  15.237  -7.201  1.00 20.00     0.059 C 
HETATM   10  C6  UNL     1     -35.555  14.414  -7.276  1.00 20.00     0.009 C 
ENDBRANCH   2   9
TORSDOF 1
ENDMDL
MODEL 4
REMARK VINA RESULT:      -3.9     11.726     12.514
REMARK  1 active torsions:
REMARK  status: ('A' for Active; 'I' for Inactive)
REMARK    1  A    between atoms: C2_2  and  C7_7 
ROOT
HETATM    1  C1  UNL     1     -34.396  15.597  -5.049  1.00 20.00     0.310 C 
HETATM    2  C2  UNL     1     -33.600  16.218  -3.014  1.00 20.00     0.356 C 
HETATM    3  C3  UNL     1     -35.116  14.780  -3.980  1.00 20.00     0.083 C 
HETATM    4  C4  UNL     1     -35.080  13.286  -4.281  1.00 20.00     0.047 C 
HETATM    5  C5  UNL     1     -36.560  15.240  -3.752  1.00 20.00     0.047 C 
HETATM    6  N8  UNL     1     -33.957  16.787  -4.319  1.00 20.00     0.115 N 
HETATM    7  O9  UNL     1     -34.370  15.028  -2.775  1.00 20.00    -0.345 OA
HETATM    8  H24 UNL     1     -33.145  17.208  -4.767  1.00 20.00     0.319 HD
ENDROOT
BRANCH   2   9
HETATM    9  C7  UNL     1     -33.834  17.203  -1.880  1.00 20.00     0.059 C 
HETATM   10  C6  UNL     1     -34.659  16.608  -0.783  1.00 20.00     0.009 C 
ENDBRANCH   2   9
TORSDOF 1
ENDMDL
MODEL 5
REMARK VINA RESULT:      -3.8      9.181     10.494
REMARK  1 active torsions:
REMARK  status: ('A' for Active; 'I' for Inactive)
REMARK    1  A    between atoms: C2_2  and  C7_7 
ROOT
HETATM    1  C1  UNL     1     -40.617   5.496  -0.641  1.00 20.00     0.310 C 
HETATM    2  C2  UNL     1     -41.666   4.277  -2.245  1.00 20.00     0.356 C 
HETATM    3  C3  UNL     1     -42.063   5.974  -0.741  1.00 20.00     0.083 C 
HETATM    4  C4  UNL     1     -42.155   7.488  -0.889  1.00 20.00     0.047 C 
HETATM    5  C5  UNL     1     -42.928   5.502   0.432  1.00 20.00     0.047 C 
HETATM    6  N8  UNL     1     -40.681   4.132  -1.168  1.00 20.00     0.115 N 
HETATM    7  O9  UNL     1     -42.562   5.359  -1.943  1.00 20.00    -0.345 OA
HETATM    8  H24 UNL     1     -39.776   3.844  -1.538  1.00 20.00     0.319 HD
ENDROOT
BRANCH   2   9
HETATM    9  C7  UNL     1     -42.471   3.004  -2.456  1.00 20.00     0.059 C 
HETATM   10  C6  UNL     1     -41.782   2.052  -3.381  1.00 20.00     0.009 C 
ENDBRANCH   2   9
TORSDOF 1
ENDMDL
MODEL 6
REMARK VINA RESULT:      -3.8     11.889     12.533
REMARK  1 active torsions:
REMARK  status: ('A' for Active; 'I' for Inactive)
REMARK    1  A    between atoms: C2_2  and  C7_7 
ROOT
HETATM    1  C1  UNL     1     -36.230  16.239  -3.216  1.00 20.00     0.310 C 
HETATM    2  C2  UNL     1     -35.472  14.214  -3.914  1.00 20.00     0.356 C 
HETATM    3  C3  UNL     1     -34.776  16.090  -2.776  1.00 20.00     0.083 C 
HETATM    4  C4  UNL     1     -34.593  16.393  -1.293  1.00 20.00     0.047 C 
HETATM    5  C5  UNL     1     -33.811  16.937  -3.613  1.00 20.00     0.047 C 
HETATM    6  N8  UNL     1     -36.328  15.323  -4.352  1.00 20.00     0.115 N 
HETATM    7  O9  UNL     1     -34.471  14.703  -3.006  1.00 20.00    -0.345 OA
HETATM    8  H24 UNL     1     -37.289  15.011  -4.483  1.00 20.00     0.319 HD
ENDROOT
BRANCH   2   9
HETATM    9  C7  UNL     1     -34.793  13.523  -5.085  1.00 20.00     0.059 C 
HETATM   10  C6  UNL     1     -34.750  14.393  -6.301  1.00 20.00     0.009 C 
ENDBRANCH   2   9
TORSDOF 1
ENDMDL
MODEL 7
REMARK VINA RESULT:      -3.7      9.444     10.823
REMARK  1 active torsions:
REMARK  status: ('A' for Active; 'I' for Inactive)
REMARK    1  A    between atoms: C2_2  and  C7_7 
ROOT
HETATM    1  C1  UNL     1     -43.255   7.894  -1.696  1.00 20.00     0.310 C 
HETATM    2  C2  UNL     1     -41.293   7.092  -0.879  1.00 20.00     0.356 C 
HETATM    3  C3  UNL     1     -42.517   7.181  -2.826  1.00 20.00     0.083 C 
HETATM    4  C4  UNL     1     -42.413   8.047  -4.076  1.00 20.00     0.047 C 
HETATM    5  C5  UNL     1     -43.133   5.821  -3.173  1.00 20.00     0.047 C 
HETATM    6  N8  UNL     1     -42.697   7.275  -0.493  1.00 20.00     0.115 N 
HETATM    7  O9  UNL     1     -41.194   6.956  -2.306  1.00 20.00    -0.345 OA
HETATM    8  H24 UNL     1     -42.776   7.902   0.306  1.00 20.00     0.319 HD
ENDROOT
BRANCH   2   9
HETATM    9  C7  UNL     1     -40.676   5.871  -0.216  1.00 20.00     0.059 C 
HETATM   10  C6  UNL     1     -41.713   4.884   0.218  1.00 20.00     0.009 C 
ENDBRANCH   2   9
TORSDOF 1
ENDMDL
MODEL 8
REMARK VINA RESULT:      -3.6      9.383     10.453
REMARK  1 active torsions:
REMARK  status: ('A' for Active; 'I' for Inactive)
REMARK    1  A    between atoms: C2_2  and  C7_7 
ROOT
HETATM    1  C1  UNL     1     -40.979   6.570  -0.553  1.00 20.00     0.310 C 
HETATM    2  C2  UNL     1     -42.614   7.042  -2.058  1.00 20.00     0.356 C 
HETATM    3  C3  UNL     1     -41.800   5.304  -0.786  1.00 20.00     0.083 C 
HETATM    4  C4  UNL     1     -42.262   4.674   0.524  1.00 20.00     0.047 C 
HETATM    5  C5  UNL     1     -41.065   4.268  -1.643  1.00 20.00     0.047 C 
HETATM    6  N8  UNL     1     -41.205   7.342  -1.774  1.00 20.00     0.115 N 
HETATM    7  O9  UNL     1     -42.955   5.755  -1.516  1.00 20.00    -0.345 OA
HETATM    8  H24 UNL     1     -41.073   8.338  -1.603  1.00 20.00     0.319 HD
ENDROOT
BRANCH   2   9
HETATM    9  C7  UNL     1     -42.909   7.053  -3.548  1.00 20.00     0.059 C 
HETATM   10  C6  UNL     1     -42.417   8.302  -4.208  1.00 20.00     0.009 C 
ENDBRANCH   2   9
TORSDOF 1
ENDMDL
MODEL 9
REMARK VINA RESULT:      -3.6      1.098      3.645
REMARK  1 active torsions:
REMARK  status: ('A' for Active; 'I' for Inactive)
REMARK    1  A    between atoms: C2_2  and  C7_7 
ROOT
HETATM    1  C1  UNL     1     -34.253   6.039   2.628  1.00 20.00     0.310 C 
HETATM    2  C2  UNL     1     -34.480   6.171   4.885  1.00 20.00     0.356 C 
HETATM    3  C3  UNL     1     -32.901   6.418   3.228  1.00 20.00     0.083 C 
HETATM    4  C4  UNL     1     -32.297   7.641   2.547  1.00 20.00     0.047 C 
HETATM    5  C5  UNL     1     -31.901   5.257   3.219  1.00 20.00     0.047 C 
HETATM    6  N8  UNL     1     -34.935   5.374   3.739  1.00 20.00     0.115 N 
HETATM    7  O9  UNL     1     -33.195   6.748   4.598  1.00 20.00    -0.345 OA
HETATM    8  H24 UNL     1     -35.946   5.435   3.632  1.00 20.00     0.319 HD
ENDROOT
BRANCH   2   9
HETATM    9  C7  UNL     1     -34.384   5.341   6.154  1.00 20.00     0.059 C 
HETATM   10  C6  UNL     1     -34.851   3.935   5.941  1.00 20.00     0.009 C 
ENDBRANCH   2   9
TORSDOF 1
ENDMDL
