MODEL 1
REMARK VINA RESULT:      -5.0      0.000      0.000
REMARK  1 active torsions:
REMARK  status: ('A' for Active; 'I' for Inactive)
REMARK    1  A    between atoms: C3_3  and  C5_5 
ROOT
HETATM    1  C1  UNL     1     -32.901   7.105   4.643  1.00 20.00     0.030 A 
HETATM    2  C2  UNL     1     -33.827   6.177   5.160  1.00 20.00    -0.044 A 
HETATM    3  C3  UNL     1     -32.761   6.942   3.274  1.00 20.00     0.043 A 
HETATM    4  C4  UNL     1     -34.343   5.364   4.190  1.00 20.00    -0.010 A 
HETATM    5  C6  UNL     1     -34.394   5.851   6.491  1.00 20.00     0.040 C 
HETATM    6  C7  UNL     1     -35.324   4.372   4.691  1.00 20.00     0.047 C 
HETATM    7  C8  UNL     1     -35.081   4.473   6.229  1.00 20.00     0.010 C 
HETATM    8  S10 UNL     1     -33.759   5.669   2.653  1.00 20.00    -0.091 SA
ENDROOT
BRANCH   3   9
HETATM    9  C5  UNL     1     -31.932   7.667   2.367  1.00 20.00     0.277 C 
HETATM   10  O9  UNL     1     -32.281   8.716   1.785  1.00 20.00    -0.301 OA
ENDBRANCH   3   9
TORSDOF 1
ENDMDL
MODEL 2
REMARK VINA RESULT:      -4.5     11.585     12.547
REMARK  1 active torsions:
REMARK  status: ('A' for Active; 'I' for Inactive)
REMARK    1  A    between atoms: C3_3  and  C5_5 
ROOT
HETATM    1  C1  UNL     1     -34.717  14.852  -2.790  1.00 20.00     0.030 A 
HETATM    2  C2  UNL     1     -34.457  16.093  -2.175  1.00 20.00    -0.044 A 
HETATM    3  C3  UNL     1     -34.339  14.882  -4.123  1.00 20.00     0.043 A 
HETATM    4  C4  UNL     1     -33.907  16.997  -3.040  1.00 20.00    -0.010 A 
HETATM    5  C6  UNL     1     -34.625  16.678  -0.822  1.00 20.00     0.040 C 
HETATM    6  C7  UNL     1     -33.617  18.316  -2.432  1.00 20.00     0.047 C 
HETATM    7  C8  UNL     1     -34.408  18.201  -1.092  1.00 20.00     0.010 C 
HETATM    8  S10 UNL     1     -33.679  16.414  -4.591  1.00 20.00    -0.091 SA
ENDROOT
BRANCH   3   9
HETATM    9  C5  UNL     1     -34.428  13.846  -5.101  1.00 20.00     0.277 C 
HETATM   10  O9  UNL     1     -34.741  12.665  -4.845  1.00 20.00    -0.301 OA
ENDBRANCH   3   9
TORSDOF 1
ENDMDL
MODEL 3
REMARK VINA RESULT:      -4.1     12.178     14.620
REMARK  1 active torsions:
REMARK  status: ('A' for Active; 'I' for Inactive)
REMARK    1  A    between atoms: C3_3  and  C5_5 
ROOT
HETATM    1  C1  UNL     1     -34.569  15.112  -6.294  1.00 20.00     0.030 A 
HETATM    2  C2  UNL     1     -34.412  16.486  -6.568  1.00 20.00    -0.044 A 
HETATM    3  C3  UNL     1     -34.086  14.810  -5.031  1.00 20.00     0.043 A 
HETATM    4  C4  UNL     1     -33.830  17.159  -5.530  1.00 20.00    -0.010 A 
HETATM    5  C6  UNL     1     -34.717  17.399  -7.696  1.00 20.00     0.040 C 
HETATM    6  C7  UNL     1     -33.647  18.609  -5.777  1.00 20.00     0.047 C 
HETATM    7  C8  UNL     1     -33.907  18.679  -7.314  1.00 20.00     0.010 C 
HETATM    8  S10 UNL     1     -33.457  16.201  -4.211  1.00 20.00    -0.091 SA
ENDROOT
BRANCH   3   9
HETATM    9  C5  UNL     1     -34.051  13.548  -4.365  1.00 20.00     0.277 C 
HETATM   10  O9  UNL     1     -34.992  12.727  -4.370  1.00 20.00    -0.301 OA
ENDBRANCH   3   9
TORSDOF 1
ENDMDL
MODEL 4
REMARK VINA RESULT:      -4.0     10.040     11.032
REMARK  1 active torsions:
REMARK  status: ('A' for Active; 'I' for Inactive)
REMARK    1  A    between atoms: C3_3  and  C5_5 
ROOT
HETATM    1  C1  UNL     1     -41.056   4.139  -1.738  1.00 20.00     0.030 A 
HETATM    2  C2  UNL     1     -41.403   5.491  -1.544  1.00 20.00    -0.044 A 
HETATM    3  C3  UNL     1     -41.933   3.533  -2.623  1.00 20.00     0.043 A 
HETATM    4  C4  UNL     1     -42.503   5.853  -2.271  1.00 20.00    -0.010 A 
HETATM    5  C6  UNL     1     -40.882   6.633  -0.755  1.00 20.00     0.040 C 
HETATM    6  C7  UNL     1     -42.903   7.270  -2.097  1.00 20.00     0.047 C 
HETATM    7  C8  UNL     1     -42.053   7.662  -0.849  1.00 20.00     0.010 C 
HETATM    8  S10 UNL     1     -43.152   4.621  -3.197  1.00 20.00    -0.091 SA
ENDROOT
BRANCH   3   9
HETATM    9  C5  UNL     1     -41.942   2.185  -3.090  1.00 20.00     0.277 C 
HETATM   10  O9  UNL     1     -41.123   1.722  -3.911  1.00 20.00    -0.301 OA
ENDBRANCH   3   9
TORSDOF 1
ENDMDL
MODEL 5
REMARK VINA RESULT:      -4.0     12.081     13.332
REMARK  1 active torsions:
REMARK  status: ('A' for Active; 'I' for Inactive)
REMARK    1  A    between atoms: C3_3  and  C5_5 
ROOT
HETATM    1  C1  UNL     1     -34.454  15.165  -3.199  1.00 20.00     0.030 A 
HETATM    2  C2  UNL     1     -34.540  15.156  -4.605  1.00 20.00    -0.044 A 
HETATM    3  C3  UNL     1     -34.104  16.425  -2.740  1.00 20.00     0.043 A 
HETATM    4  C4  UNL     1     -34.259  16.378  -5.150  1.00 20.00    -0.010 A 
HETATM    5  C6  UNL     1     -34.861  14.161  -5.657  1.00 20.00     0.040 C 
HETATM    6  C7  UNL     1     -34.340  16.413  -6.629  1.00 20.00     0.047 C 
HETATM    7  C8  UNL     1     -34.388  14.888  -6.956  1.00 20.00     0.010 C 
HETATM    8  S10 UNL     1     -33.892  17.563  -4.029  1.00 20.00    -0.091 SA
ENDROOT
BRANCH   3   9
HETATM    9  C5  UNL     1     -33.911  16.866  -1.397  1.00 20.00     0.277 C 
HETATM   10  O9  UNL     1     -34.689  16.606  -0.455  1.00 20.00    -0.301 OA
ENDBRANCH   3   9
TORSDOF 1
ENDMDL
MODEL 6
REMARK VINA RESULT:      -3.9     11.824     12.656
REMARK  1 active torsions:
REMARK  status: ('A' for Active; 'I' for Inactive)
REMARK    1  A    between atoms: C3_3  and  C5_5 
ROOT
HETATM    1  C1  UNL     1     -34.728  15.516  -2.333  1.00 20.00     0.030 A 
HETATM    2  C2  UNL     1     -34.862  14.938  -3.612  1.00 20.00    -0.044 A 
HETATM    3  C3  UNL     1     -34.083  16.740  -2.418  1.00 20.00     0.043 A 
HETATM    4  C4  UNL     1     -34.327  15.724  -4.595  1.00 20.00    -0.010 A 
HETATM    5  C6  UNL     1     -35.438  13.693  -4.173  1.00 20.00     0.040 C 
HETATM    6  C7  UNL     1     -34.448  15.153  -5.957  1.00 20.00     0.047 C 
HETATM    7  C8  UNL     1     -34.855  13.684  -5.623  1.00 20.00     0.010 C 
HETATM    8  S10 UNL     1     -33.659  17.155  -4.045  1.00 20.00    -0.091 SA
ENDROOT
BRANCH   3   9
HETATM    9  C5  UNL     1     -33.748  17.648  -1.369  1.00 20.00     0.277 C 
HETATM   10  O9  UNL     1     -34.064  17.485  -0.172  1.00 20.00    -0.301 OA
ENDBRANCH   3   9
TORSDOF 1
ENDMDL
MODEL 7
REMARK VINA RESULT:      -3.9     11.819     12.959
REMARK  1 active torsions:
REMARK  status: ('A' for Active; 'I' for Inactive)
REMARK    1  A    between atoms: C3_3  and  C5_5 
ROOT
HETATM    1  C1  UNL     1     -33.824  16.973  -4.531  1.00 20.00     0.030 A 
HETATM    2  C2  UNL     1     -33.929  17.255  -3.155  1.00 20.00    -0.044 A 
HETATM    3  C3  UNL     1     -34.318  15.708  -4.808  1.00 20.00     0.043 A 
HETATM    4  C4  UNL     1     -34.486  16.221  -2.454  1.00 20.00    -0.010 A 
HETATM    5  C6  UNL     1     -33.595  18.391  -2.261  1.00 20.00     0.040 C 
HETATM    6  C7  UNL     1     -34.617  16.478  -1.000  1.00 20.00     0.047 C 
HETATM    7  C8  UNL     1     -33.718  17.744  -0.845  1.00 20.00     0.010 C 
HETATM    8  S10 UNL     1     -34.899  14.899  -3.390  1.00 20.00    -0.091 SA
ENDROOT
BRANCH   3   9
HETATM    9  C5  UNL     1     -34.399  15.034  -6.063  1.00 20.00     0.277 C 
HETATM   10  O9  UNL     1     -35.146  14.059  -6.289  1.00 20.00    -0.301 OA
ENDBRANCH   3   9
TORSDOF 1
ENDMDL
MODEL 8
REMARK VINA RESULT:      -3.9     11.682     12.845
REMARK  1 active torsions:
REMARK  status: ('A' for Active; 'I' for Inactive)
REMARK    1  A    between atoms: C3_3  and  C5_5 
ROOT
HETATM    1  C1  UNL     1     -36.089  13.949  -4.137  1.00 20.00     0.030 A 
HETATM    2  C2  UNL     1     -34.735  14.340  -4.094  1.00 20.00    -0.044 A 
HETATM    3  C3  UNL     1     -36.892  15.017  -4.503  1.00 20.00     0.043 A 
HETATM    4  C4  UNL     1     -34.565  15.657  -4.420  1.00 20.00    -0.010 A 
HETATM    5  C6  UNL     1     -33.438  13.691  -3.787  1.00 20.00     0.040 C 
HETATM    6  C7  UNL     1     -33.154  16.109  -4.388  1.00 20.00     0.047 C 
HETATM    7  C8  UNL     1     -32.481  14.917  -3.640  1.00 20.00     0.010 C 
HETATM    8  S10 UNL     1     -35.982  16.464  -4.787  1.00 20.00    -0.091 SA
ENDROOT
BRANCH   3   9
HETATM    9  C5  UNL     1     -38.309  15.056  -4.665  1.00 20.00     0.277 C 
HETATM   10  O9  UNL     1     -39.093  14.214  -4.179  1.00 20.00    -0.301 OA
ENDBRANCH   3   9
TORSDOF 1
ENDMDL
MODEL 9
REMARK VINA RESULT:      -3.9     12.013     12.965
REMARK  1 active torsions:
REMARK  status: ('A' for Active; 'I' for Inactive)
REMARK    1  A    between atoms: C3_3  and  C5_5 
ROOT
HETATM    1  C1  UNL     1     -34.585  16.611  -0.786  1.00 20.00     0.030 A 
HETATM    2  C2  UNL     1     -34.340  16.292  -2.137  1.00 20.00    -0.044 A 
HETATM    3  C3  UNL     1     -34.237  17.927  -0.526  1.00 20.00     0.043 A 
HETATM    4  C4  UNL     1     -33.829  17.351  -2.835  1.00 20.00    -0.010 A 
HETATM    5  C6  UNL     1     -34.496  15.101  -3.006  1.00 20.00     0.040 C 
HETATM    6  C7  UNL     1     -33.557  17.059  -4.262  1.00 20.00     0.047 C 
HETATM    7  C8  UNL     1     -33.668  15.502  -4.269  1.00 20.00     0.010 C 
HETATM    8  S10 UNL     1     -33.626  18.740  -1.928  1.00 20.00    -0.091 SA
ENDROOT
BRANCH   3   9
HETATM    9  C5  UNL     1     -34.324  18.648   0.702  1.00 20.00     0.277 C 
HETATM   10  O9  UNL     1     -33.554  18.478   1.671  1.00 20.00    -0.301 OA
ENDBRANCH   3   9
TORSDOF 1
ENDMDL
