MODEL 1
REMARK VINA RESULT:      -4.7      0.000      0.000
REMARK  0 active torsions:
REMARK  status: ('A' for Active; 'I' for Inactive)
ROOT
HETATM    1  C1  UNL     1     -34.642  13.745  -4.332  1.00 20.00     0.107 C 
HETATM    2  C2  UNL     1     -34.717  15.197  -2.318  1.00 20.00     0.038 A 
HETATM    3  C3  UNL     1     -34.439  14.978  -3.650  1.00 20.00     0.086 A 
HETATM    4  C4  UNL     1     -34.410  16.533  -1.916  1.00 20.00    -0.043 A 
HETATM    5  C5  UNL     1     -33.903  17.270  -2.968  1.00 20.00    -0.010 A 
HETATM    6  C6  UNL     1     -34.569  17.108  -0.543  1.00 20.00     0.040 C 
HETATM    7  C7  UNL     1     -33.504  18.711  -2.895  1.00 20.00     0.046 C 
HETATM    8  C8  UNL     1     -34.509  18.644  -0.559  1.00 20.00     0.005 C 
HETATM    9  C9  UNL     1     -33.354  19.156  -1.431  1.00 20.00     0.005 C 
HETATM   10  N10 UNL     1     -34.807  12.739  -4.888  1.00 20.00    -0.191 NA
HETATM   11  S11 UNL     1     -33.808  16.375  -4.413  1.00 20.00    -0.083 SA
ENDROOT
TORSDOF 0
ENDMDL
MODEL 2
REMARK VINA RESULT:      -4.6      1.388      1.675
REMARK  0 active torsions:
REMARK  status: ('A' for Active; 'I' for Inactive)
ROOT
HETATM    1  C1  UNL     1     -34.915  13.631  -4.220  1.00 20.00     0.107 C 
HETATM    2  C2  UNL     1     -34.078  15.348  -2.631  1.00 20.00     0.038 A 
HETATM    3  C3  UNL     1     -35.053  14.821  -3.450  1.00 20.00     0.086 A 
HETATM    4  C4  UNL     1     -34.507  16.549  -1.987  1.00 20.00    -0.043 A 
HETATM    5  C5  UNL     1     -35.796  16.884  -2.354  1.00 20.00    -0.010 A 
HETATM    6  C6  UNL     1     -33.701  17.392  -1.049  1.00 20.00     0.040 C 
HETATM    7  C7  UNL     1     -36.555  18.069  -1.843  1.00 20.00     0.046 C 
HETATM    8  C8  UNL     1     -34.585  18.374  -0.263  1.00 20.00     0.005 C 
HETATM    9  C9  UNL     1     -35.603  19.073  -1.176  1.00 20.00     0.005 C 
HETATM   10  N10 UNL     1     -34.802  12.662  -4.848  1.00 20.00    -0.191 NA
HETATM   11  S11 UNL     1     -36.480  15.770  -3.445  1.00 20.00    -0.083 SA
ENDROOT
TORSDOF 0
ENDMDL
MODEL 3
REMARK VINA RESULT:      -4.5      2.594      4.701
REMARK  0 active torsions:
REMARK  status: ('A' for Active; 'I' for Inactive)
ROOT
HETATM    1  C1  UNL     1     -33.678  17.778  -1.225  1.00 20.00     0.107 C 
HETATM    2  C2  UNL     1     -34.384  15.653  -2.302  1.00 20.00     0.038 A 
HETATM    3  C3  UNL     1     -33.931  16.953  -2.358  1.00 20.00     0.086 A 
HETATM    4  C4  UNL     1     -34.543  15.081  -3.601  1.00 20.00    -0.043 A 
HETATM    5  C5  UNL     1     -34.205  15.983  -4.592  1.00 20.00    -0.010 A 
HETATM    6  C6  UNL     1     -35.033  13.701  -3.912  1.00 20.00     0.040 C 
HETATM    7  C7  UNL     1     -34.234  15.697  -6.061  1.00 20.00     0.046 C 
HETATM    8  C8  UNL     1     -34.718  13.299  -5.362  1.00 20.00     0.005 C 
HETATM    9  C9  UNL     1     -35.053  14.428  -6.348  1.00 20.00     0.005 C 
HETATM   10  N10 UNL     1     -33.473  18.450  -0.301  1.00 20.00    -0.191 NA
HETATM   11  S11 UNL     1     -33.698  17.484  -3.970  1.00 20.00    -0.083 SA
ENDROOT
TORSDOF 0
ENDMDL
MODEL 4
REMARK VINA RESULT:      -4.4      2.951      4.508
REMARK  0 active torsions:
REMARK  status: ('A' for Active; 'I' for Inactive)
ROOT
HETATM    1  C1  UNL     1     -34.223  18.171   0.323  1.00 20.00     0.107 C 
HETATM    2  C2  UNL     1     -34.564  16.311  -1.289  1.00 20.00     0.038 A 
HETATM    3  C3  UNL     1     -34.169  17.594  -0.978  1.00 20.00     0.086 A 
HETATM    4  C4  UNL     1     -34.392  16.016  -2.676  1.00 20.00    -0.043 A 
HETATM    5  C5  UNL     1     -33.875  17.098  -3.360  1.00 20.00    -0.010 A 
HETATM    6  C6  UNL     1     -34.735  14.729  -3.361  1.00 20.00     0.040 C 
HETATM    7  C7  UNL     1     -33.550  17.117  -4.822  1.00 20.00     0.046 C 
HETATM    8  C8  UNL     1     -34.075  14.628  -4.746  1.00 20.00     0.005 C 
HETATM    9  C9  UNL     1     -34.222  15.935  -5.539  1.00 20.00     0.005 C 
HETATM   10  N10 UNL     1     -34.268  18.641   1.383  1.00 20.00    -0.191 NA
HETATM   11  S11 UNL     1     -33.593  18.441  -2.352  1.00 20.00    -0.083 SA
ENDROOT
TORSDOF 0
ENDMDL
MODEL 5
REMARK VINA RESULT:      -4.3      3.007      4.283
REMARK  0 active torsions:
REMARK  status: ('A' for Active; 'I' for Inactive)
ROOT
HETATM    1  C1  UNL     1     -39.116  15.772  -3.639  1.00 20.00     0.107 C 
HETATM    2  C2  UNL     1     -37.072  14.427  -4.070  1.00 20.00     0.038 A 
HETATM    3  C3  UNL     1     -37.708  15.560  -3.611  1.00 20.00     0.086 A 
HETATM    4  C4  UNL     1     -35.655  14.504  -3.909  1.00 20.00    -0.043 A 
HETATM    5  C5  UNL     1     -35.277  15.703  -3.337  1.00 20.00    -0.010 A 
HETATM    6  C6  UNL     1     -34.656  13.464  -4.314  1.00 20.00     0.040 C 
HETATM    7  C7  UNL     1     -33.870  16.094  -3.008  1.00 20.00     0.046 C 
HETATM    8  C8  UNL     1     -33.287  13.704  -3.657  1.00 20.00     0.005 C 
HETATM    9  C9  UNL     1     -32.872  15.180  -3.737  1.00 20.00     0.005 C 
HETATM   10  N10 UNL     1     -40.264  15.944  -3.663  1.00 20.00    -0.191 NA
HETATM   11  S11 UNL     1     -36.603  16.713  -2.991  1.00 20.00    -0.083 SA
ENDROOT
TORSDOF 0
ENDMDL
MODEL 6
REMARK VINA RESULT:      -4.2      1.553      2.322
REMARK  0 active torsions:
REMARK  status: ('A' for Active; 'I' for Inactive)
ROOT
HETATM    1  C1  UNL     1     -34.346  15.621  -5.818  1.00 20.00     0.107 C 
HETATM    2  C2  UNL     1     -33.745  17.405  -4.197  1.00 20.00     0.038 A 
HETATM    3  C3  UNL     1     -34.283  16.175  -4.508  1.00 20.00     0.086 A 
HETATM    4  C4  UNL     1     -33.823  17.690  -2.800  1.00 20.00    -0.043 A 
HETATM    5  C5  UNL     1     -34.427  16.657  -2.109  1.00 20.00    -0.010 A 
HETATM    6  C6  UNL     1     -33.354  18.938  -2.118  1.00 20.00     0.040 C 
HETATM    7  C7  UNL     1     -34.643  16.623  -0.628  1.00 20.00     0.046 C 
HETATM    8  C8  UNL     1     -33.244  18.748  -0.596  1.00 20.00     0.005 C 
HETATM    9  C9  UNL     1     -34.474  18.028  -0.026  1.00 20.00     0.005 C 
HETATM   10  N10 UNL     1     -34.398  15.169  -6.886  1.00 20.00    -0.191 NA
HETATM   11  S11 UNL     1     -34.882  15.366  -3.121  1.00 20.00    -0.083 SA
ENDROOT
TORSDOF 0
ENDMDL
MODEL 7
REMARK VINA RESULT:      -4.2      5.839      7.292
REMARK  0 active torsions:
REMARK  status: ('A' for Active; 'I' for Inactive)
ROOT
HETATM    1  C1  UNL     1     -32.958  18.749   5.817  1.00 20.00     0.107 C 
HETATM    2  C2  UNL     1     -34.004  18.325   3.603  1.00 20.00     0.038 A 
HETATM    3  C3  UNL     1     -32.944  18.715   4.394  1.00 20.00     0.086 A 
HETATM    4  C4  UNL     1     -33.692  18.394   2.211  1.00 20.00    -0.043 A 
HETATM    5  C5  UNL     1     -32.401  18.843   2.007  1.00 20.00    -0.010 A 
HETATM    6  C6  UNL     1     -34.610  18.063   1.076  1.00 20.00     0.040 C 
HETATM    7  C7  UNL     1     -31.750  19.007   0.669  1.00 20.00     0.046 C 
HETATM    8  C8  UNL     1     -33.842  17.883  -0.243  1.00 20.00     0.005 C 
HETATM    9  C9  UNL     1     -32.804  18.996  -0.449  1.00 20.00     0.005 C 
HETATM   10  N10 UNL     1     -32.970  18.778   6.977  1.00 20.00    -0.191 NA
HETATM   11  S11 UNL     1     -31.579  19.165   3.462  1.00 20.00    -0.083 SA
ENDROOT
TORSDOF 0
ENDMDL
MODEL 8
REMARK VINA RESULT:      -4.2     11.568     12.838
REMARK  0 active torsions:
REMARK  status: ('A' for Active; 'I' for Inactive)
ROOT
HETATM    1  C1  UNL     1     -32.109   7.954   1.939  1.00 20.00     0.107 C 
HETATM    2  C2  UNL     1     -32.872   7.357   4.227  1.00 20.00     0.038 A 
HETATM    3  C3  UNL     1     -32.786   7.119   2.872  1.00 20.00     0.086 A 
HETATM    4  C4  UNL     1     -33.615   6.344   4.906  1.00 20.00    -0.043 A 
HETATM    5  C5  UNL     1     -34.068   5.378   4.028  1.00 20.00    -0.010 A 
HETATM    6  C6  UNL     1     -33.920   6.295   6.371  1.00 20.00     0.040 C 
HETATM    7  C7  UNL     1     -34.855   4.165   4.415  1.00 20.00     0.046 C 
HETATM    8  C8  UNL     1     -34.397   4.900   6.808  1.00 20.00     0.005 C 
HETATM    9  C9  UNL     1     -35.433   4.326   5.831  1.00 20.00     0.005 C 
HETATM   10  N10 UNL     1     -31.557   8.636   1.178  1.00 20.00    -0.191 NA
HETATM   11  S11 UNL     1     -33.599   5.680   2.420  1.00 20.00    -0.083 SA
ENDROOT
TORSDOF 0
ENDMDL
MODEL 9
REMARK VINA RESULT:      -4.2      2.863      4.600
REMARK  0 active torsions:
REMARK  status: ('A' for Active; 'I' for Inactive)
ROOT
HETATM    1  C1  UNL     1     -34.685  16.728  -1.180  1.00 20.00     0.107 C 
HETATM    2  C2  UNL     1     -34.939  15.373  -3.247  1.00 20.00     0.038 A 
HETATM    3  C3  UNL     1     -34.643  16.549  -2.592  1.00 20.00     0.086 A 
HETATM    4  C4  UNL     1     -34.809  15.499  -4.664  1.00 20.00    -0.043 A 
HETATM    5  C5  UNL     1     -34.423  16.776  -5.022  1.00 20.00    -0.010 A 
HETATM    6  C6  UNL     1     -35.070  14.431  -5.680  1.00 20.00     0.040 C 
HETATM    7  C7  UNL     1     -34.172  17.237  -6.424  1.00 20.00     0.046 C 
HETATM    8  C8  UNL     1     -34.472  14.790  -7.050  1.00 20.00     0.005 C 
HETATM    9  C9  UNL     1     -34.772  16.246  -7.434  1.00 20.00     0.005 C 
HETATM   10  N10 UNL     1     -34.720  16.873  -0.029  1.00 20.00    -0.191 NA
HETATM   11  S11 UNL     1     -34.212  17.801  -3.679  1.00 20.00    -0.083 SA
ENDROOT
TORSDOF 0
ENDMDL
