MODEL 1
REMARK VINA RESULT:      -4.5      0.000      0.000
REMARK  2 active torsions:
REMARK  status: ('A' for Active; 'I' for Inactive)
REMARK    1  A    between atoms: C1_1  and  C9_9 
REMARK    2  A    between atoms: C8_8  and  C9_9 
ROOT
HETATM    1  C2  UNL     1     -35.422   5.056   6.673  1.00 20.00     0.005 C 
HETATM    2  C3  UNL     1     -34.344   6.148   6.646  1.00 20.00     0.005 C 
HETATM    3  C4  UNL     1     -33.509   4.237   5.517  1.00 20.00     0.009 C 
HETATM    4  C5  UNL     1     -35.359   4.889   4.171  1.00 20.00     0.010 C 
HETATM    5  C6  UNL     1     -35.034   4.157   5.485  1.00 20.00    -0.014 C 
HETATM    6  C7  UNL     1     -33.493   5.765   5.421  1.00 20.00    -0.010 C 
HETATM    7  C8  UNL     1     -34.327   6.038   4.147  1.00 20.00    -0.004 C 
ENDROOT
BRANCH   7   8
HETATM    8  C9  UNL     1     -33.484   6.031   2.876  1.00 20.00     0.074 C 
BRANCH   8   9
HETATM    9  C1  UNL     1     -32.257   6.895   2.997  1.00 20.00     0.231 C 
HETATM   10  O10 UNL     1     -32.020   7.883   2.309  1.00 20.00    -0.307 OA
ENDBRANCH   8   9
ENDBRANCH   7   8
TORSDOF 2
ENDMDL
MODEL 2
REMARK VINA RESULT:      -4.4     12.216     12.995
REMARK  2 active torsions:
REMARK  status: ('A' for Active; 'I' for Inactive)
REMARK    1  A    between atoms: C1_1  and  C9_9 
REMARK    2  A    between atoms: C8_8  and  C9_9 
ROOT
HETATM    1  C2  UNL     1     -33.486  17.547  -1.232  1.00 20.00     0.005 C 
HETATM    2  C3  UNL     1     -34.680  16.765  -0.669  1.00 20.00     0.005 C 
HETATM    3  C4  UNL     1     -35.271  17.607  -2.806  1.00 20.00     0.009 C 
HETATM    4  C5  UNL     1     -33.482  16.115  -3.292  1.00 20.00     0.010 C 
HETATM    5  C6  UNL     1     -33.746  17.531  -2.749  1.00 20.00    -0.014 C 
HETATM    6  C7  UNL     1     -35.458  16.362  -1.935  1.00 20.00    -0.010 C 
HETATM    7  C8  UNL     1     -34.637  15.288  -2.688  1.00 20.00    -0.004 C 
ENDROOT
BRANCH   7   8
HETATM    8  C9  UNL     1     -35.450  14.563  -3.755  1.00 20.00     0.074 C 
BRANCH   8   9
HETATM    9  C1  UNL     1     -34.584  13.751  -4.681  1.00 20.00     0.231 C 
HETATM   10  O10 UNL     1     -34.708  12.547  -4.885  1.00 20.00    -0.307 OA
ENDBRANCH   8   9
ENDBRANCH   7   8
TORSDOF 2
ENDMDL
MODEL 3
REMARK VINA RESULT:      -4.4      0.945      1.945
REMARK  2 active torsions:
REMARK  status: ('A' for Active; 'I' for Inactive)
REMARK    1  A    between atoms: C1_1  and  C9_9 
REMARK    2  A    between atoms: C8_8  and  C9_9 
ROOT
HETATM    1  C2  UNL     1     -34.884   4.837   6.135  1.00 20.00     0.005 C 
HETATM    2  C3  UNL     1     -34.825   3.907   4.915  1.00 20.00     0.005 C 
HETATM    3  C4  UNL     1     -35.476   6.067   4.185  1.00 20.00     0.009 C 
HETATM    4  C5  UNL     1     -33.285   6.428   5.038  1.00 20.00     0.010 C 
HETATM    5  C6  UNL     1     -34.737   6.236   5.511  1.00 20.00    -0.014 C 
HETATM    6  C7  UNL     1     -34.610   4.885   3.745  1.00 20.00    -0.010 C 
HETATM    7  C8  UNL     1     -33.175   5.454   3.845  1.00 20.00    -0.004 C 
ENDROOT
BRANCH   7   8
HETATM    8  C9  UNL     1     -32.725   6.153   2.567  1.00 20.00     0.074 C 
BRANCH   8   9
HETATM    9  C1  UNL     1     -32.144   7.516   2.832  1.00 20.00     0.231 C 
HETATM   10  O10 UNL     1     -32.134   8.445   2.031  1.00 20.00    -0.307 OA
ENDBRANCH   8   9
ENDBRANCH   7   8
TORSDOF 2
ENDMDL
MODEL 4
REMARK VINA RESULT:      -4.4     11.839     12.854
REMARK  2 active torsions:
REMARK  status: ('A' for Active; 'I' for Inactive)
REMARK    1  A    between atoms: C1_1  and  C9_9 
REMARK    2  A    between atoms: C8_8  and  C9_9 
ROOT
HETATM    1  C2  UNL     1     -34.773  13.348  -4.313  1.00 20.00     0.005 C 
HETATM    2  C3  UNL     1     -33.364  13.614  -3.765  1.00 20.00     0.005 C 
HETATM    3  C4  UNL     1     -34.064  15.514  -5.000  1.00 20.00     0.009 C 
HETATM    4  C5  UNL     1     -35.628  15.431  -3.210  1.00 20.00     0.010 C 
HETATM    5  C6  UNL     1     -35.320  14.764  -4.562  1.00 20.00    -0.014 C 
HETATM    6  C7  UNL     1     -33.291  15.151  -3.729  1.00 20.00    -0.010 C 
HETATM    7  C8  UNL     1     -34.226  15.655  -2.603  1.00 20.00    -0.004 C 
ENDROOT
BRANCH   7   8
HETATM    8  C9  UNL     1     -33.979  17.115  -2.239  1.00 20.00     0.074 C 
BRANCH   8   9
HETATM    9  C1  UNL     1     -34.001  17.347  -0.752  1.00 20.00     0.231 C 
HETATM   10  O10 UNL     1     -34.844  16.897   0.018  1.00 20.00    -0.307 OA
ENDBRANCH   8   9
ENDBRANCH   7   8
TORSDOF 2
ENDMDL
MODEL 5
REMARK VINA RESULT:      -4.3     11.909     13.233
REMARK  2 active torsions:
REMARK  status: ('A' for Active; 'I' for Inactive)
REMARK    1  A    between atoms: C1_1  and  C9_9 
REMARK    2  A    between atoms: C8_8  and  C9_9 
ROOT
HETATM    1  C2  UNL     1     -34.623  18.108  -3.387  1.00 20.00     0.005 C 
HETATM    2  C3  UNL     1     -33.799  17.522  -2.231  1.00 20.00     0.005 C 
HETATM    3  C4  UNL     1     -35.550  16.009  -2.755  1.00 20.00     0.009 C 
HETATM    4  C5  UNL     1     -34.249  16.034  -4.747  1.00 20.00     0.010 C 
HETATM    5  C6  UNL     1     -35.301  16.868  -3.993  1.00 20.00    -0.014 C 
HETATM    6  C7  UNL     1     -34.075  16.011  -2.343  1.00 20.00    -0.010 C 
HETATM    7  C8  UNL     1     -33.364  15.480  -3.610  1.00 20.00    -0.004 C 
ENDROOT
BRANCH   7   8
HETATM    8  C9  UNL     1     -33.269  13.958  -3.641  1.00 20.00     0.074 C 
BRANCH   8   9
HETATM    9  C1  UNL     1     -34.175  13.347  -4.676  1.00 20.00     0.231 C 
HETATM   10  O10 UNL     1     -35.130  12.616  -4.432  1.00 20.00    -0.307 OA
ENDBRANCH   8   9
ENDBRANCH   7   8
TORSDOF 2
ENDMDL
MODEL 6
REMARK VINA RESULT:      -4.1     12.095     13.244
REMARK  2 active torsions:
REMARK  status: ('A' for Active; 'I' for Inactive)
REMARK    1  A    between atoms: C1_1  and  C9_9 
REMARK    2  A    between atoms: C8_8  and  C9_9 
ROOT
HETATM    1  C2  UNL     1     -34.408  14.896  -5.548  1.00 20.00     0.005 C 
HETATM    2  C3  UNL     1     -34.937  13.953  -4.458  1.00 20.00     0.005 C 
HETATM    3  C4  UNL     1     -32.899  14.905  -3.707  1.00 20.00     0.009 C 
HETATM    4  C5  UNL     1     -34.332  16.794  -3.910  1.00 20.00     0.010 C 
HETATM    5  C6  UNL     1     -33.479  15.841  -4.766  1.00 20.00    -0.014 C 
HETATM    6  C7  UNL     1     -34.277  14.498  -3.179  1.00 20.00    -0.010 C 
HETATM    7  C8  UNL     1     -34.930  15.858  -2.837  1.00 20.00    -0.004 C 
ENDROOT
BRANCH   7   8
HETATM    8  C9  UNL     1     -34.616  16.327  -1.421  1.00 20.00     0.074 C 
BRANCH   8   9
HETATM    9  C1  UNL     1     -33.810  17.598  -1.402  1.00 20.00     0.231 C 
HETATM   10  O10 UNL     1     -33.239  18.055  -0.417  1.00 20.00    -0.307 OA
ENDBRANCH   8   9
ENDBRANCH   7   8
TORSDOF 2
ENDMDL
MODEL 7
REMARK VINA RESULT:      -4.1     11.912     13.226
REMARK  2 active torsions:
REMARK  status: ('A' for Active; 'I' for Inactive)
REMARK    1  A    between atoms: C1_1  and  C9_9 
REMARK    2  A    between atoms: C8_8  and  C9_9 
ROOT
HETATM    1  C2  UNL     1     -32.540  14.898  -3.729  1.00 20.00     0.005 C 
HETATM    2  C3  UNL     1     -33.502  13.705  -3.641  1.00 20.00     0.005 C 
HETATM    3  C4  UNL     1     -34.530  15.581  -2.615  1.00 20.00     0.009 C 
HETATM    4  C5  UNL     1     -34.297  16.269  -4.881  1.00 20.00     0.010 C 
HETATM    5  C6  UNL     1     -33.477  16.110  -3.587  1.00 20.00    -0.014 C 
HETATM    6  C7  UNL     1     -34.879  14.381  -3.500  1.00 20.00    -0.010 C 
HETATM    7  C8  UNL     1     -35.235  15.043  -4.852  1.00 20.00    -0.004 C 
ENDROOT
BRANCH   7   8
HETATM    8  C9  UNL     1     -36.705  15.437  -4.948  1.00 20.00     0.074 C 
BRANCH   8   9
HETATM    9  C1  UNL     1     -37.511  14.935  -3.780  1.00 20.00     0.231 C 
HETATM   10  O10 UNL     1     -38.473  14.177  -3.862  1.00 20.00    -0.307 OA
ENDBRANCH   8   9
ENDBRANCH   7   8
TORSDOF 2
ENDMDL
MODEL 8
REMARK VINA RESULT:      -4.1     11.874     13.079
REMARK  2 active torsions:
REMARK  status: ('A' for Active; 'I' for Inactive)
REMARK    1  A    between atoms: C1_1  and  C9_9 
REMARK    2  A    between atoms: C8_8  and  C9_9 
ROOT
HETATM    1  C2  UNL     1     -34.785  14.040  -5.885  1.00 20.00     0.005 C 
HETATM    2  C3  UNL     1     -35.077  15.542  -5.760  1.00 20.00     0.005 C 
HETATM    3  C4  UNL     1     -36.351  14.387  -4.127  1.00 20.00     0.009 C 
HETATM    4  C5  UNL     1     -34.109  13.940  -3.472  1.00 20.00     0.010 C 
HETATM    5  C6  UNL     1     -35.167  13.496  -4.497  1.00 20.00    -0.014 C 
HETATM    6  C7  UNL     1     -35.553  15.681  -4.303  1.00 20.00    -0.010 C 
HETATM    7  C8  UNL     1     -34.337  15.464  -3.371  1.00 20.00    -0.004 C 
ENDROOT
BRANCH   7   8
HETATM    8  C9  UNL     1     -34.600  15.916  -1.939  1.00 20.00     0.074 C 
BRANCH   8   9
HETATM    9  C1  UNL     1     -33.768  17.111  -1.553  1.00 20.00     0.231 C 
HETATM   10  O10 UNL     1     -33.686  17.575  -0.421  1.00 20.00    -0.307 OA
ENDBRANCH   8   9
ENDBRANCH   7   8
TORSDOF 2
ENDMDL
MODEL 9
REMARK VINA RESULT:      -4.0      9.766     10.950
REMARK  2 active torsions:
REMARK  status: ('A' for Active; 'I' for Inactive)
REMARK    1  A    between atoms: C1_1  and  C9_9 
REMARK    2  A    between atoms: C8_8  and  C9_9 
ROOT
HETATM    1  C2  UNL     1     -40.747   4.748  -0.705  1.00 20.00     0.005 C 
HETATM    2  C3  UNL     1     -41.597   4.363  -1.924  1.00 20.00     0.005 C 
HETATM    3  C4  UNL     1     -42.910   5.717  -0.486  1.00 20.00     0.009 C 
HETATM    4  C5  UNL     1     -41.157   7.182  -1.149  1.00 20.00     0.010 C 
HETATM    5  C6  UNL     1     -41.443   6.018  -0.184  1.00 20.00    -0.014 C 
HETATM    6  C7  UNL     1     -42.653   5.483  -1.976  1.00 20.00    -0.010 C 
HETATM    7  C8  UNL     1     -41.952   6.791  -2.414  1.00 20.00    -0.004 C 
ENDROOT
BRANCH   7   8
HETATM    8  C9  UNL     1     -42.936   7.876  -2.838  1.00 20.00     0.074 C 
BRANCH   8   9
HETATM    9  C1  UNL     1     -42.715   8.328  -4.257  1.00 20.00     0.231 C 
HETATM   10  O10 UNL     1     -43.417   8.014  -5.213  1.00 20.00    -0.307 OA
ENDBRANCH   8   9
ENDBRANCH   7   8
TORSDOF 2
ENDMDL
