MODEL 1
REMARK VINA RESULT:      -4.2      0.000      0.000
REMARK  2 active torsions:
REMARK  status: ('A' for Active; 'I' for Inactive)
REMARK    1  A    between atoms: C1_1  and  C3_3 
REMARK    2  A    between atoms: C3_3  and  C5_5 
ROOT
HETATM    1  C3  UNL     1     -34.439   5.662   4.104  1.00 20.00     0.168 C 
HETATM    2  O6  UNL     1     -34.761   4.896   3.199  1.00 20.00    -0.292 OA
ENDROOT
BRANCH   1   3
HETATM    3  C1  UNL     1     -33.542   6.828   3.851  1.00 20.00     0.063 C 
HETATM    4  C2  UNL     1     -32.682   6.804   2.831  1.00 20.00     0.088 C 
HETATM    5 CL7  UNL     1     -31.624   8.108   2.486  1.00 20.00    -0.097 Cl
ENDBRANCH   1   3
BRANCH   1   6
HETATM    6  C5  UNL     1     -34.884   5.471   5.544  1.00 20.00     0.152 C 
HETATM    7  C4  UNL     1     -34.641   4.041   5.994  1.00 20.00     0.035 C 
HETATM    8 CL8  UNL     1     -33.973   6.602   6.579  1.00 20.00    -0.117 Cl
ENDBRANCH   1   6
TORSDOF 2
ENDMDL
MODEL 2
REMARK VINA RESULT:      -4.0      1.981      1.981
REMARK  2 active torsions:
REMARK  status: ('A' for Active; 'I' for Inactive)
REMARK    1  A    between atoms: C1_1  and  C3_3 
REMARK    2  A    between atoms: C3_3  and  C5_5 
ROOT
HETATM    1  C3  UNL     1     -33.840   6.275   5.159  1.00 20.00     0.168 C 
HETATM    2  O6  UNL     1     -33.599   6.595   6.321  1.00 20.00    -0.292 OA
ENDROOT
BRANCH   1   3
HETATM    3  C1  UNL     1     -33.460   7.157   4.016  1.00 20.00     0.063 C 
HETATM    4  C2  UNL     1     -32.338   6.925   3.334  1.00 20.00     0.088 C 
HETATM    5 CL7  UNL     1     -31.843   7.900   2.013  1.00 20.00    -0.097 Cl
ENDBRANCH   1   3
BRANCH   1   6
HETATM    6  C5  UNL     1     -34.569   4.993   4.792  1.00 20.00     0.152 C 
HETATM    7  C4  UNL     1     -35.099   4.303   6.036  1.00 20.00     0.035 C 
HETATM    8 CL8  UNL     1     -35.915   5.396   3.694  1.00 20.00    -0.117 Cl
ENDBRANCH   1   6
TORSDOF 2
ENDMDL
MODEL 3
REMARK VINA RESULT:      -3.8      1.834      2.182
REMARK  2 active torsions:
REMARK  status: ('A' for Active; 'I' for Inactive)
REMARK    1  A    between atoms: C1_1  and  C3_3 
REMARK    2  A    between atoms: C3_3  and  C5_5 
ROOT
HETATM    1  C3  UNL     1     -32.609   6.520   3.388  1.00 20.00     0.168 C 
HETATM    2  O6  UNL     1     -31.920   5.506   3.293  1.00 20.00    -0.292 OA
ENDROOT
BRANCH   1   3
HETATM    3  C1  UNL     1     -32.117   7.840   2.896  1.00 20.00     0.063 C 
HETATM    4  C2  UNL     1     -32.625   8.373   1.783  1.00 20.00     0.088 C 
HETATM    5 CL7  UNL     1     -32.105   9.884   1.163  1.00 20.00    -0.097 Cl
ENDBRANCH   1   3
BRANCH   1   6
HETATM    6  C5  UNL     1     -33.981   6.526   4.040  1.00 20.00     0.152 C 
HETATM    7  C4  UNL     1     -34.799   5.333   3.576  1.00 20.00     0.035 C 
HETATM    8 CL8  UNL     1     -33.772   6.475   5.810  1.00 20.00    -0.117 Cl
ENDBRANCH   1   6
TORSDOF 2
ENDMDL
MODEL 4
REMARK VINA RESULT:      -3.8     11.681     12.780
REMARK  2 active torsions:
REMARK  status: ('A' for Active; 'I' for Inactive)
REMARK    1  A    between atoms: C1_1  and  C3_3 
REMARK    2  A    between atoms: C3_3  and  C5_5 
ROOT
HETATM    1  C3  UNL     1     -34.597  13.853  -4.598  1.00 20.00     0.168 C 
HETATM    2  O6  UNL     1     -34.981  12.695  -4.446  1.00 20.00    -0.292 OA
ENDROOT
BRANCH   1   3
HETATM    3  C1  UNL     1     -34.142  14.678  -3.440  1.00 20.00     0.063 C 
HETATM    4  C2  UNL     1     -35.031  15.335  -2.694  1.00 20.00     0.088 C 
HETATM    5 CL7  UNL     1     -34.576  16.300  -1.352  1.00 20.00    -0.097 Cl
ENDBRANCH   1   3
BRANCH   1   6
HETATM    6  C5  UNL     1     -34.591  14.548  -5.949  1.00 20.00     0.152 C 
HETATM    7  C4  UNL     1     -36.009  14.845  -6.405  1.00 20.00     0.035 C 
HETATM    8 CL8  UNL     1     -33.662  16.064  -5.806  1.00 20.00    -0.117 Cl
ENDBRANCH   1   6
TORSDOF 2
ENDMDL
MODEL 5
REMARK VINA RESULT:      -3.7     11.966     12.787
REMARK  2 active torsions:
REMARK  status: ('A' for Active; 'I' for Inactive)
REMARK    1  A    between atoms: C1_1  and  C3_3 
REMARK    2  A    between atoms: C3_3  and  C5_5 
ROOT
HETATM    1  C3  UNL     1     -33.672  15.370  -4.128  1.00 20.00     0.168 C 
HETATM    2  O6  UNL     1     -32.825  16.165  -4.529  1.00 20.00    -0.292 OA
ENDROOT
BRANCH   1   3
HETATM    3  C1  UNL     1     -34.293  15.512  -2.778  1.00 20.00     0.063 C 
HETATM    4  C2  UNL     1     -33.982  16.553  -2.003  1.00 20.00     0.088 C 
HETATM    5 CL7  UNL     1     -34.657  16.776  -0.444  1.00 20.00    -0.097 Cl
ENDBRANCH   1   3
BRANCH   1   6
HETATM    6  C5  UNL     1     -34.125  14.169  -4.941  1.00 20.00     0.152 C 
HETATM    7  C4  UNL     1     -35.340  13.518  -4.302  1.00 20.00     0.035 C 
HETATM    8 CL8  UNL     1     -34.519  14.713  -6.593  1.00 20.00    -0.117 Cl
ENDBRANCH   1   6
TORSDOF 2
ENDMDL
MODEL 6
REMARK VINA RESULT:      -3.7     12.459     13.171
REMARK  2 active torsions:
REMARK  status: ('A' for Active; 'I' for Inactive)
REMARK    1  A    between atoms: C1_1  and  C3_3 
REMARK    2  A    between atoms: C3_3  and  C5_5 
ROOT
HETATM    1  C3  UNL     1     -33.622  15.797  -4.528  1.00 20.00     0.168 C 
HETATM    2  O6  UNL     1     -32.810  16.505  -5.120  1.00 20.00    -0.292 OA
ENDROOT
BRANCH   1   3
HETATM    3  C1  UNL     1     -33.677  15.759  -3.037  1.00 20.00     0.063 C 
HETATM    4  C2  UNL     1     -34.536  16.537  -2.377  1.00 20.00     0.088 C 
HETATM    5 CL7  UNL     1     -34.649  16.543  -0.666  1.00 20.00    -0.097 Cl
ENDBRANCH   1   3
BRANCH   1   6
HETATM    6  C5  UNL     1     -34.599  14.883  -5.249  1.00 20.00     0.152 C 
HETATM    7  C4  UNL     1     -34.432  15.002  -6.753  1.00 20.00     0.035 C 
HETATM    8 CL8  UNL     1     -34.299  13.204  -4.729  1.00 20.00    -0.117 Cl
ENDBRANCH   1   6
TORSDOF 2
ENDMDL
MODEL 7
REMARK VINA RESULT:      -3.7     11.552     12.698
REMARK  2 active torsions:
REMARK  status: ('A' for Active; 'I' for Inactive)
REMARK    1  A    between atoms: C1_1  and  C3_3 
REMARK    2  A    between atoms: C3_3  and  C5_5 
ROOT
HETATM    1  C3  UNL     1     -34.927  13.970  -4.412  1.00 20.00     0.168 C 
HETATM    2  O6  UNL     1     -35.034  12.750  -4.509  1.00 20.00    -0.292 OA
ENDROOT
BRANCH   1   3
HETATM    3  C1  UNL     1     -34.394  14.606  -3.171  1.00 20.00     0.063 C 
HETATM    4  C2  UNL     1     -35.030  15.642  -2.622  1.00 20.00     0.088 C 
HETATM    5 CL7  UNL     1     -34.472  16.419  -1.199  1.00 20.00    -0.097 Cl
ENDBRANCH   1   3
BRANCH   1   6
HETATM    6  C5  UNL     1     -35.358  14.926  -5.511  1.00 20.00     0.152 C 
HETATM    7  C4  UNL     1     -34.880  14.433  -6.866  1.00 20.00     0.035 C 
HETATM    8 CL8  UNL     1     -37.137  15.048  -5.497  1.00 20.00    -0.117 Cl
ENDBRANCH   1   6
TORSDOF 2
ENDMDL
MODEL 8
REMARK VINA RESULT:      -3.5      1.366      3.959
REMARK  2 active torsions:
REMARK  status: ('A' for Active; 'I' for Inactive)
REMARK    1  A    between atoms: C1_1  and  C3_3 
REMARK    2  A    between atoms: C3_3  and  C5_5 
ROOT
HETATM    1  C3  UNL     1     -33.066   6.273   3.156  1.00 20.00     0.168 C 
HETATM    2  O6  UNL     1     -33.607   5.571   2.303  1.00 20.00    -0.292 OA
ENDROOT
BRANCH   1   3
HETATM    3  C1  UNL     1     -33.574   6.317   4.559  1.00 20.00     0.063 C 
HETATM    4  C2  UNL     1     -34.327   5.323   5.032  1.00 20.00     0.088 C 
HETATM    5 CL7  UNL     1     -34.943   5.313   6.632  1.00 20.00    -0.097 Cl
ENDBRANCH   1   3
BRANCH   1   6
HETATM    6  C5  UNL     1     -31.880   7.171   2.853  1.00 20.00     0.152 C 
HETATM    7  C4  UNL     1     -32.289   8.305   1.929  1.00 20.00     0.035 C 
HETATM    8 CL8  UNL     1     -31.254   7.828   4.389  1.00 20.00    -0.117 Cl
ENDBRANCH   1   6
TORSDOF 2
ENDMDL
MODEL 9
REMARK VINA RESULT:      -3.5     12.331     13.522
REMARK  2 active torsions:
REMARK  status: ('A' for Active; 'I' for Inactive)
REMARK    1  A    between atoms: C1_1  and  C3_3 
REMARK    2  A    between atoms: C3_3  and  C5_5 
ROOT
HETATM    1  C3  UNL     1     -33.553  16.089  -4.866  1.00 20.00     0.168 C 
HETATM    2  O6  UNL     1     -32.950  17.094  -5.237  1.00 20.00    -0.292 OA
ENDROOT
BRANCH   1   3
HETATM    3  C1  UNL     1     -34.653  15.499  -5.684  1.00 20.00     0.063 C 
HETATM    4  C2  UNL     1     -34.412  15.073  -6.925  1.00 20.00     0.088 C 
HETATM    5 CL7  UNL     1     -35.629  14.387  -7.918  1.00 20.00    -0.097 Cl
ENDBRANCH   1   3
BRANCH   1   6
HETATM    6  C5  UNL     1     -33.265  15.395  -3.546  1.00 20.00     0.152 C 
HETATM    7  C4  UNL     1     -34.272  15.814  -2.489  1.00 20.00     0.035 C 
HETATM    8 CL8  UNL     1     -33.341  13.631  -3.800  1.00 20.00    -0.117 Cl
ENDBRANCH   1   6
TORSDOF 2
ENDMDL
