MODEL 1
REMARK VINA RESULT:      -4.1      0.000      0.000
REMARK  2 active torsions:
REMARK  status: ('A' for Active; 'I' for Inactive)
REMARK    1  A    between atoms: C4_4  and  C6_6 
REMARK    2  A    between atoms: C6_6  and  N7_7 
ROOT
HETATM    1  C1  UNL     1     -32.174   7.448   2.842  1.00 20.00     0.332 C 
HETATM    2  N7  UNL     1     -32.271   6.686   3.724  1.00 20.00    -0.242 NA
HETATM    3  O8  UNL     1     -32.060   8.211   1.954  1.00 20.00    -0.260 OA
ENDROOT
BRANCH   2   4
HETATM    4  C6  UNL     1     -33.618   6.649   4.331  1.00 20.00     0.112 C 
HETATM    5  C5  UNL     1     -33.446   6.721   5.853  1.00 20.00     0.035 C 
BRANCH   4   6
HETATM    6  C4  UNL     1     -34.346   5.427   3.888  1.00 20.00     0.010 A 
HETATM    7  C2  UNL     1     -35.184   4.648   4.863  1.00 20.00     0.007 A 
HETATM    8  C3  UNL     1     -35.846   5.442   3.772  1.00 20.00     0.007 A 
ENDBRANCH   4   6
ENDBRANCH   2   4
TORSDOF 2
ENDMDL
MODEL 2
REMARK VINA RESULT:      -4.1      2.740      3.909
REMARK  2 active torsions:
REMARK  status: ('A' for Active; 'I' for Inactive)
REMARK    1  A    between atoms: C4_4  and  C6_6 
REMARK    2  A    between atoms: C6_6  and  N7_7 
ROOT
HETATM    1  C1  UNL     1     -34.705   5.138   6.044  1.00 20.00     0.332 C 
HETATM    2  N7  UNL     1     -34.184   6.157   5.805  1.00 20.00    -0.242 NA
HETATM    3  O8  UNL     1     -35.226   4.116   6.300  1.00 20.00    -0.260 OA
ENDROOT
BRANCH   2   4
HETATM    4  C6  UNL     1     -34.107   6.462   4.361  1.00 20.00     0.112 C 
HETATM    5  C5  UNL     1     -34.980   5.442   3.622  1.00 20.00     0.035 C 
BRANCH   4   6
HETATM    6  C4  UNL     1     -32.687   6.446   3.909  1.00 20.00     0.010 A 
HETATM    7  C2  UNL     1     -32.339   5.977   2.524  1.00 20.00     0.007 A 
HETATM    8  C3  UNL     1     -32.211   7.432   2.878  1.00 20.00     0.007 A 
ENDBRANCH   4   6
ENDBRANCH   2   4
TORSDOF 2
ENDMDL
MODEL 3
REMARK VINA RESULT:      -4.1      2.815      3.695
REMARK  2 active torsions:
REMARK  status: ('A' for Active; 'I' for Inactive)
REMARK    1  A    between atoms: C4_4  and  C6_6 
REMARK    2  A    between atoms: C6_6  and  N7_7 
ROOT
HETATM    1  C1  UNL     1     -35.010   4.390   5.459  1.00 20.00     0.332 C 
HETATM    2  N7  UNL     1     -34.851   5.390   6.044  1.00 20.00    -0.242 NA
HETATM    3  O8  UNL     1     -35.185   3.382   4.879  1.00 20.00    -0.260 OA
ENDROOT
BRANCH   2   4
HETATM    4  C6  UNL     1     -33.616   6.108   5.667  1.00 20.00     0.112 C 
HETATM    5  C5  UNL     1     -33.459   7.299   6.620  1.00 20.00     0.035 C 
BRANCH   4   6
HETATM    6  C4  UNL     1     -33.677   6.517   4.236  1.00 20.00     0.010 A 
HETATM    7  C2  UNL     1     -32.515   7.228   3.600  1.00 20.00     0.007 A 
HETATM    8  C3  UNL     1     -32.832   5.811   3.211  1.00 20.00     0.007 A 
ENDBRANCH   4   6
ENDBRANCH   2   4
TORSDOF 2
ENDMDL
MODEL 4
REMARK VINA RESULT:      -4.1      1.177      1.911
REMARK  2 active torsions:
REMARK  status: ('A' for Active; 'I' for Inactive)
REMARK    1  A    between atoms: C4_4  and  C6_6 
REMARK    2  A    between atoms: C6_6  and  N7_7 
ROOT
HETATM    1  C1  UNL     1     -32.648   7.319   3.028  1.00 20.00     0.332 C 
HETATM    2  N7  UNL     1     -33.471   7.092   3.827  1.00 20.00    -0.242 NA
HETATM    3  O8  UNL     1     -31.822   7.562   2.228  1.00 20.00    -0.260 OA
ENDROOT
BRANCH   2   4
HETATM    4  C6  UNL     1     -33.804   5.658   3.948  1.00 20.00     0.112 C 
HETATM    5  C5  UNL     1     -34.295   5.175   2.579  1.00 20.00     0.035 C 
BRANCH   4   6
HETATM    6  C4  UNL     1     -34.809   5.455   5.029  1.00 20.00     0.010 A 
HETATM    7  C2  UNL     1     -35.036   4.085   5.606  1.00 20.00     0.007 A 
HETATM    8  C3  UNL     1     -34.360   5.144   6.431  1.00 20.00     0.007 A 
ENDBRANCH   4   6
ENDBRANCH   2   4
TORSDOF 2
ENDMDL
MODEL 5
REMARK VINA RESULT:      -4.0     10.986     12.032
REMARK  2 active torsions:
REMARK  status: ('A' for Active; 'I' for Inactive)
REMARK    1  A    between atoms: C4_4  and  C6_6 
REMARK    2  A    between atoms: C6_6  and  N7_7 
ROOT
HETATM    1  C1  UNL     1     -34.196  13.478  -4.194  1.00 20.00     0.332 C 
HETATM    2  N7  UNL     1     -33.392  14.261  -3.865  1.00 20.00    -0.242 NA
HETATM    3  O8  UNL     1     -34.993  12.680  -4.525  1.00 20.00    -0.260 OA
ENDROOT
BRANCH   2   4
HETATM    4  C6  UNL     1     -33.907  15.643  -3.781  1.00 20.00     0.112 C 
HETATM    5  C5  UNL     1     -33.292  16.442  -4.936  1.00 20.00     0.035 C 
BRANCH   4   6
HETATM    6  C4  UNL     1     -33.597  16.224  -2.444  1.00 20.00     0.010 A 
HETATM    7  C2  UNL     1     -34.065  17.609  -2.093  1.00 20.00     0.007 A 
HETATM    8  C3  UNL     1     -34.691  16.415  -1.430  1.00 20.00     0.007 A 
ENDBRANCH   4   6
ENDBRANCH   2   4
TORSDOF 2
ENDMDL
MODEL 6
REMARK VINA RESULT:      -3.7     11.357     11.788
REMARK  2 active torsions:
REMARK  status: ('A' for Active; 'I' for Inactive)
REMARK    1  A    between atoms: C4_4  and  C6_6 
REMARK    2  A    between atoms: C6_6  and  N7_7 
ROOT
HETATM    1  C1  UNL     1     -37.455  14.966  -3.669  1.00 20.00     0.332 C 
HETATM    2  N7  UNL     1     -36.561  15.711  -3.551  1.00 20.00    -0.242 NA
HETATM    3  O8  UNL     1     -38.363  14.230  -3.793  1.00 20.00    -0.260 OA
ENDROOT
BRANCH   2   4
HETATM    4  C6  UNL     1     -35.350  15.098  -2.968  1.00 20.00     0.112 C 
HETATM    5  C5  UNL     1     -34.747  16.102  -1.980  1.00 20.00     0.035 C 
BRANCH   4   6
HETATM    6  C4  UNL     1     -34.402  14.709  -4.050  1.00 20.00     0.010 A 
HETATM    7  C2  UNL     1     -33.221  13.830  -3.743  1.00 20.00     0.007 A 
HETATM    8  C3  UNL     1     -34.368  13.292  -4.552  1.00 20.00     0.007 A 
ENDBRANCH   4   6
ENDBRANCH   2   4
TORSDOF 2
ENDMDL
MODEL 7
REMARK VINA RESULT:      -3.7     10.921     12.471
REMARK  2 active torsions:
REMARK  status: ('A' for Active; 'I' for Inactive)
REMARK    1  A    between atoms: C4_4  and  C6_6 
REMARK    2  A    between atoms: C6_6  and  N7_7 
ROOT
HETATM    1  C1  UNL     1     -34.114  13.448  -4.067  1.00 20.00     0.332 C 
HETATM    2  N7  UNL     1     -33.211  14.131  -3.776  1.00 20.00    -0.242 NA
HETATM    3  O8  UNL     1     -35.013  12.748  -4.360  1.00 20.00    -0.260 OA
ENDROOT
BRANCH   2   4
HETATM    4  C6  UNL     1     -33.569  15.557  -3.623  1.00 20.00     0.112 C 
HETATM    5  C5  UNL     1     -34.576  15.665  -2.472  1.00 20.00     0.035 C 
BRANCH   4   6
HETATM    6  C4  UNL     1     -34.099  16.092  -4.909  1.00 20.00     0.010 A 
HETATM    7  C2  UNL     1     -34.913  17.357  -4.925  1.00 20.00     0.007 A 
HETATM    8  C3  UNL     1     -33.523  17.351  -5.498  1.00 20.00     0.007 A 
ENDBRANCH   4   6
ENDBRANCH   2   4
TORSDOF 2
ENDMDL
MODEL 8
REMARK VINA RESULT:      -3.6     11.750     12.551
REMARK  2 active torsions:
REMARK  status: ('A' for Active; 'I' for Inactive)
REMARK    1  A    between atoms: C4_4  and  C6_6 
REMARK    2  A    between atoms: C6_6  and  N7_7 
ROOT
HETATM    1  C1  UNL     1     -33.722  16.446  -5.364  1.00 20.00     0.332 C 
HETATM    2  N7  UNL     1     -32.842  16.194  -4.638  1.00 20.00    -0.242 NA
HETATM    3  O8  UNL     1     -34.597  16.705  -6.106  1.00 20.00    -0.260 OA
ENDROOT
BRANCH   2   4
HETATM    4  C6  UNL     1     -33.283  15.674  -3.327  1.00 20.00     0.112 C 
HETATM    5  C5  UNL     1     -34.040  14.365  -3.574  1.00 20.00     0.035 C 
BRANCH   4   6
HETATM    6  C4  UNL     1     -34.108  16.696  -2.622  1.00 20.00     0.010 A 
HETATM    7  C2  UNL     1     -34.767  16.366  -1.312  1.00 20.00     0.007 A 
HETATM    8  C3  UNL     1     -33.609  17.324  -1.349  1.00 20.00     0.007 A 
ENDBRANCH   4   6
ENDBRANCH   2   4
TORSDOF 2
ENDMDL
MODEL 9
REMARK VINA RESULT:      -3.6     11.666     13.356
REMARK  2 active torsions:
REMARK  status: ('A' for Active; 'I' for Inactive)
REMARK    1  A    between atoms: C4_4  and  C6_6 
REMARK    2  A    between atoms: C6_6  and  N7_7 
ROOT
HETATM    1  C1  UNL     1     -34.394  13.551  -4.389  1.00 20.00     0.332 C 
HETATM    2  N7  UNL     1     -33.698  14.489  -4.408  1.00 20.00    -0.242 NA
HETATM    3  O8  UNL     1     -35.084  12.598  -4.360  1.00 20.00    -0.260 OA
ENDROOT
BRANCH   2   4
HETATM    4  C6  UNL     1     -34.229  15.607  -5.216  1.00 20.00     0.112 C 
HETATM    5  C5  UNL     1     -34.387  15.107  -6.657  1.00 20.00     0.035 C 
BRANCH   4   6
HETATM    6  C4  UNL     1     -33.329  16.789  -5.109  1.00 20.00     0.010 A 
HETATM    7  C2  UNL     1     -33.660  18.062  -5.837  1.00 20.00     0.007 A 
HETATM    8  C3  UNL     1     -33.766  18.005  -4.339  1.00 20.00     0.007 A 
ENDBRANCH   4   6
ENDBRANCH   2   4
TORSDOF 2
ENDMDL
