MODEL 1
REMARK VINA RESULT:      -5.0      0.000      0.000
REMARK  1 active torsions:
REMARK  status: ('A' for Active; 'I' for Inactive)
REMARK    1  A    between atoms: C11_11  and  N13_13 
ROOT
HETATM    1  C1  UNL     1     -34.444  13.756  -4.845  1.00 20.00     0.086 C 
HETATM    2  C11 UNL     1     -33.997  15.147  -4.837  1.00 20.00     0.357 C 
HETATM    3  N12 UNL     1     -34.794  12.650  -4.853  1.00 20.00    -0.196 NA
ENDROOT
BRANCH   2   4
HETATM    4  N13 UNL     1     -35.121  16.038  -4.380  1.00 20.00    -0.059 N 
HETATM    5  C8  UNL     1     -35.736  15.615  -3.071  1.00 20.00     0.236 C 
HETATM    6  C6  UNL     1     -34.841  15.995  -1.896  1.00 20.00     0.037 C 
HETATM    7  C10 UNL     1     -34.449  17.491  -1.887  1.00 20.00    -0.037 C 
HETATM    8  C4  UNL     1     -35.626  18.398  -1.477  1.00 20.00     0.010 C 
HETATM    9  C5  UNL     1     -33.447  17.791  -0.759  1.00 20.00     0.010 C 
HETATM   10  C7  UNL     1     -33.867  17.880  -3.257  1.00 20.00     0.037 C 
HETATM   11  C2  UNL     1     -35.689  18.310   0.046  1.00 20.00     0.001 C 
HETATM   12  C3  UNL     1     -34.292  17.899   0.507  1.00 20.00     0.001 C 
HETATM   13  C9  UNL     1     -34.785  17.506  -4.414  1.00 20.00     0.236 C 
HETATM   14  H32 UNL     1     -35.886  15.907  -5.106  1.00 20.00     0.281 HD
ENDBRANCH   2   4
TORSDOF 1
ENDMDL
MODEL 2
REMARK VINA RESULT:      -4.7      1.113      1.589
REMARK  1 active torsions:
REMARK  status: ('A' for Active; 'I' for Inactive)
REMARK    1  A    between atoms: C11_11  and  N13_13 
ROOT
HETATM    1  C1  UNL     1     -35.282  13.642  -4.622  1.00 20.00     0.086 C 
HETATM    2  C11 UNL     1     -36.099  14.842  -4.469  1.00 20.00     0.357 C 
HETATM    3  N12 UNL     1     -34.636  12.685  -4.741  1.00 20.00    -0.196 NA
ENDROOT
BRANCH   2   4
HETATM    4  N13 UNL     1     -35.220  16.063  -4.517  1.00 20.00    -0.059 N 
HETATM    5  C8  UNL     1     -35.886  17.311  -3.995  1.00 20.00     0.236 C 
HETATM    6  C6  UNL     1     -35.944  17.306  -2.471  1.00 20.00     0.037 C 
HETATM    7  C10 UNL     1     -34.564  17.073  -1.809  1.00 20.00    -0.037 C 
HETATM    8  C4  UNL     1     -33.651  18.309  -1.920  1.00 20.00     0.010 C 
HETATM    9  C5  UNL     1     -34.701  16.950  -0.282  1.00 20.00     0.010 C 
HETATM   10  C7  UNL     1     -33.911  15.815  -2.407  1.00 20.00     0.037 C 
HETATM   11  C2  UNL     1     -34.124  19.257  -0.819  1.00 20.00     0.001 C 
HETATM   12  C3  UNL     1     -34.817  18.384   0.225  1.00 20.00     0.001 C 
HETATM   13  C9  UNL     1     -33.849  15.849  -3.929  1.00 20.00     0.236 C 
HETATM   14  H32 UNL     1     -35.058  16.244  -5.552  1.00 20.00     0.281 HD
ENDBRANCH   2   4
TORSDOF 1
ENDMDL
MODEL 3
REMARK VINA RESULT:      -4.7      2.266      5.200
REMARK  1 active torsions:
REMARK  status: ('A' for Active; 'I' for Inactive)
REMARK    1  A    between atoms: C11_11  and  N13_13 
ROOT
HETATM    1  C1  UNL     1     -34.510  17.071  -0.737  1.00 20.00     0.086 C 
HETATM    2  C11 UNL     1     -33.912  17.040  -2.069  1.00 20.00     0.357 C 
HETATM    3  N12 UNL     1     -34.983  17.101   0.322  1.00 20.00    -0.196 NA
ENDROOT
BRANCH   2   4
HETATM    4  N13 UNL     1     -34.128  15.686  -2.690  1.00 20.00    -0.059 N 
HETATM    5  C8  UNL     1     -35.490  15.514  -3.313  1.00 20.00     0.236 C 
HETATM    6  C6  UNL     1     -35.576  16.238  -4.652  1.00 20.00     0.037 C 
HETATM    7  C10 UNL     1     -34.445  15.844  -5.632  1.00 20.00    -0.037 C 
HETATM    8  C4  UNL     1     -34.645  14.431  -6.213  1.00 20.00     0.010 C 
HETATM    9  C5  UNL     1     -34.506  16.695  -6.912  1.00 20.00     0.010 C 
HETATM   10  C7  UNL     1     -33.083  15.996  -4.934  1.00 20.00     0.037 C 
HETATM   11  C2  UNL     1     -35.678  14.597  -7.325  1.00 20.00     0.001 C 
HETATM   12  C3  UNL     1     -35.603  16.059  -7.762  1.00 20.00     0.001 C 
HETATM   13  C9  UNL     1     -33.014  15.252  -3.607  1.00 20.00     0.236 C 
HETATM   14  H32 UNL     1     -34.104  15.004  -1.875  1.00 20.00     0.281 HD
ENDBRANCH   2   4
TORSDOF 1
ENDMDL
MODEL 4
REMARK VINA RESULT:      -4.6      2.352      5.301
REMARK  1 active torsions:
REMARK  status: ('A' for Active; 'I' for Inactive)
REMARK    1  A    between atoms: C11_11  and  N13_13 
ROOT
HETATM    1  C1  UNL     1     -33.971  17.019  -1.286  1.00 20.00     0.086 C 
HETATM    2  C11 UNL     1     -34.747  15.990  -1.973  1.00 20.00     0.357 C 
HETATM    3  N12 UNL     1     -33.359  17.838  -0.737  1.00 20.00    -0.196 NA
ENDROOT
BRANCH   2   4
HETATM    4  N13 UNL     1     -33.940  15.422  -3.110  1.00 20.00    -0.059 N 
HETATM    5  C8  UNL     1     -34.566  14.210  -3.752  1.00 20.00     0.236 C 
HETATM    6  C6  UNL     1     -35.726  14.606  -4.659  1.00 20.00     0.037 C 
HETATM    7  C10 UNL     1     -35.341  15.676  -5.709  1.00 20.00    -0.037 C 
HETATM    8  C4  UNL     1     -34.463  15.094  -6.835  1.00 20.00     0.010 C 
HETATM    9  C5  UNL     1     -36.574  16.129  -6.509  1.00 20.00     0.010 C 
HETATM   10  C7  UNL     1     -34.670  16.869  -5.008  1.00 20.00     0.037 C 
HETATM   11  C2  UNL     1     -35.435  14.385  -7.776  1.00 20.00     0.001 C 
HETATM   12  C3  UNL     1     -36.797  15.037  -7.552  1.00 20.00     0.001 C 
HETATM   13  C9  UNL     1     -33.504  16.451  -4.121  1.00 20.00     0.236 C 
HETATM   14  H32 UNL     1     -33.043  15.071  -2.661  1.00 20.00     0.281 HD
ENDBRANCH   2   4
TORSDOF 1
ENDMDL
MODEL 5
REMARK VINA RESULT:      -4.6      2.215      4.851
REMARK  1 active torsions:
REMARK  status: ('A' for Active; 'I' for Inactive)
REMARK    1  A    between atoms: C11_11  and  N13_13 
ROOT
HETATM    1  C1  UNL     1     -36.276  18.647  -0.284  1.00 20.00     0.086 C 
HETATM    2  C11 UNL     1     -35.771  18.774  -1.648  1.00 20.00     0.357 C 
HETATM    3  N12 UNL     1     -36.682  18.549   0.798  1.00 20.00    -0.196 NA
ENDROOT
BRANCH   2   4
HETATM    4  N13 UNL     1     -34.418  18.121  -1.750  1.00 20.00    -0.059 N 
HETATM    5  C8  UNL     1     -34.378  16.720  -1.197  1.00 20.00     0.236 C 
HETATM    6  C6  UNL     1     -35.024  15.730  -2.161  1.00 20.00     0.037 C 
HETATM    7  C10 UNL     1     -34.436  15.799  -3.591  1.00 20.00    -0.037 C 
HETATM    8  C4  UNL     1     -33.025  15.183  -3.668  1.00 20.00     0.010 C 
HETATM    9  C5  UNL     1     -35.208  14.875  -4.548  1.00 20.00     0.010 C 
HETATM   10  C7  UNL     1     -34.461  17.254  -4.089  1.00 20.00     0.037 C 
HETATM   11  C2  UNL     1     -33.249  13.674  -3.732  1.00 20.00     0.001 C 
HETATM   12  C3  UNL     1     -34.661  13.476  -4.279  1.00 20.00     0.001 C 
HETATM   13  C9  UNL     1     -33.796  18.221  -3.119  1.00 20.00     0.236 C 
HETATM   14  H32 UNL     1     -33.789  18.693  -1.112  1.00 20.00     0.281 HD
ENDBRANCH   2   4
TORSDOF 1
ENDMDL
MODEL 6
REMARK VINA RESULT:      -4.5      1.642      1.980
REMARK  1 active torsions:
REMARK  status: ('A' for Active; 'I' for Inactive)
REMARK    1  A    between atoms: C11_11  and  N13_13 
ROOT
HETATM    1  C1  UNL     1     -35.577  14.577  -6.795  1.00 20.00     0.086 C 
HETATM    2  C11 UNL     1     -35.228  14.761  -5.389  1.00 20.00     0.357 C 
HETATM    3  N12 UNL     1     -35.855  14.426  -7.911  1.00 20.00    -0.196 NA
ENDROOT
BRANCH   2   4
HETATM    4  N13 UNL     1     -34.602  16.117  -5.196  1.00 20.00    -0.059 N 
HETATM    5  C8  UNL     1     -35.539  17.139  -4.607  1.00 20.00     0.236 C 
HETATM    6  C6  UNL     1     -35.725  16.916  -3.110  1.00 20.00     0.037 C 
HETATM    7  C10 UNL     1     -34.389  16.849  -2.332  1.00 20.00    -0.037 C 
HETATM    8  C4  UNL     1     -33.727  18.234  -2.195  1.00 20.00     0.010 C 
HETATM    9  C5  UNL     1     -34.629  16.496  -0.855  1.00 20.00     0.010 C 
HETATM   10  C7  UNL     1     -33.455  15.824  -2.999  1.00 20.00     0.037 C 
HETATM   11  C2  UNL     1     -34.467  18.921  -1.049  1.00 20.00     0.001 C 
HETATM   12  C3  UNL     1     -35.065  17.803  -0.198  1.00 20.00     0.001 C 
HETATM   13  C9  UNL     1     -33.271  16.077  -4.490  1.00 20.00     0.236 C 
HETATM   14  H32 UNL     1     -34.389  16.463  -6.178  1.00 20.00     0.281 HD
ENDBRANCH   2   4
TORSDOF 1
ENDMDL
MODEL 7
REMARK VINA RESULT:      -4.5      2.180      5.131
REMARK  1 active torsions:
REMARK  status: ('A' for Active; 'I' for Inactive)
REMARK    1  A    between atoms: C11_11  and  N13_13 
ROOT
HETATM    1  C1  UNL     1     -34.018  17.916   0.202  1.00 20.00     0.086 C 
HETATM    2  C11 UNL     1     -34.809  16.966  -0.575  1.00 20.00     0.357 C 
HETATM    3  N12 UNL     1     -33.392  18.669   0.824  1.00 20.00    -0.196 NA
ENDROOT
BRANCH   2   4
HETATM    4  N13 UNL     1     -34.852  17.401  -2.015  1.00 20.00    -0.059 N 
HETATM    5  C8  UNL     1     -33.700  16.885  -2.839  1.00 20.00     0.236 C 
HETATM    6  C6  UNL     1     -33.890  15.413  -3.188  1.00 20.00     0.037 C 
HETATM    7  C10 UNL     1     -35.252  15.116  -3.859  1.00 20.00    -0.037 C 
HETATM    8  C4  UNL     1     -35.305  15.622  -5.314  1.00 20.00     0.010 C 
HETATM    9  C5  UNL     1     -35.443  13.605  -4.072  1.00 20.00     0.010 C 
HETATM   10  C7  UNL     1     -36.388  15.699  -3.002  1.00 20.00     0.037 C 
HETATM   11  C2  UNL     1     -34.565  14.566  -6.133  1.00 20.00     0.001 C 
HETATM   12  C3  UNL     1     -34.637  13.273  -5.324  1.00 20.00     0.001 C 
HETATM   13  C9  UNL     1     -36.186  17.175  -2.680  1.00 20.00     0.236 C 
HETATM   14  H32 UNL     1     -34.727  18.456  -1.987  1.00 20.00     0.281 HD
ENDBRANCH   2   4
TORSDOF 1
ENDMDL
MODEL 8
REMARK VINA RESULT:      -4.4      2.527      4.932
REMARK  1 active torsions:
REMARK  status: ('A' for Active; 'I' for Inactive)
REMARK    1  A    between atoms: C11_11  and  N13_13 
ROOT
HETATM    1  C1  UNL     1     -36.210  18.319   1.074  1.00 20.00     0.086 C 
HETATM    2  C11 UNL     1     -36.486  18.534  -0.344  1.00 20.00     0.357 C 
HETATM    3  N12 UNL     1     -35.995  18.148   2.201  1.00 20.00    -0.196 NA
ENDROOT
BRANCH   2   4
HETATM    4  N13 UNL     1     -35.191  18.592  -1.109  1.00 20.00    -0.059 N 
HETATM    5  C8  UNL     1     -34.221  17.498  -0.744  1.00 20.00     0.236 C 
HETATM    6  C6  UNL     1     -34.631  16.168  -1.369  1.00 20.00     0.037 C 
HETATM    7  C10 UNL     1     -34.847  16.255  -2.899  1.00 20.00    -0.037 C 
HETATM    8  C4  UNL     1     -33.516  16.376  -3.667  1.00 20.00     0.010 C 
HETATM    9  C5  UNL     1     -35.382  14.924  -3.455  1.00 20.00     0.010 C 
HETATM   10  C7  UNL     1     -35.809  17.412  -3.219  1.00 20.00     0.037 C 
HETATM   11  C2  UNL     1     -32.960  14.956  -3.732  1.00 20.00     0.001 C 
HETATM   12  C3  UNL     1     -34.157  14.021  -3.575  1.00 20.00     0.001 C 
HETATM   13  C9  UNL     1     -35.370  18.732  -2.599  1.00 20.00     0.236 C 
HETATM   14  H32 UNL     1     -34.727  19.495  -0.795  1.00 20.00     0.281 HD
ENDBRANCH   2   4
TORSDOF 1
ENDMDL
MODEL 9
REMARK VINA RESULT:      -4.4      2.210      5.169
REMARK  1 active torsions:
REMARK  status: ('A' for Active; 'I' for Inactive)
REMARK    1  A    between atoms: C11_11  and  N13_13 
ROOT
HETATM    1  C1  UNL     1     -34.666  17.059  -0.348  1.00 20.00     0.086 C 
HETATM    2  C11 UNL     1     -34.049  16.640  -1.603  1.00 20.00     0.357 C 
HETATM    3  N12 UNL     1     -35.155  17.388   0.652  1.00 20.00    -0.196 NA
ENDROOT
BRANCH   2   4
HETATM    4  N13 UNL     1     -34.630  17.434  -2.743  1.00 20.00    -0.059 N 
HETATM    5  C8  UNL     1     -33.691  17.595  -3.910  1.00 20.00     0.236 C 
HETATM    6  C6  UNL     1     -33.610  16.312  -4.731  1.00 20.00     0.037 C 
HETATM    7  C10 UNL     1     -34.995  15.786  -5.178  1.00 20.00    -0.037 C 
HETATM    8  C4  UNL     1     -35.607  16.645  -6.303  1.00 20.00     0.010 C 
HETATM    9  C5  UNL     1     -34.864  14.428  -5.889  1.00 20.00     0.010 C 
HETATM   10  C7  UNL     1     -35.925  15.682  -3.958  1.00 20.00     0.037 C 
HETATM   11  C2  UNL     1     -34.914  16.182  -7.583  1.00 20.00     0.001 C 
HETATM   12  C3  UNL     1     -34.418  14.763  -7.310  1.00 20.00     0.001 C 
HETATM   13  C9  UNL     1     -36.003  16.979  -3.163  1.00 20.00     0.236 C 
HETATM   14  H32 UNL     1     -34.765  18.414  -2.353  1.00 20.00     0.281 HD
ENDBRANCH   2   4
TORSDOF 1
ENDMDL
