MODEL 1
REMARK VINA RESULT:      -4.2      0.000      0.000
REMARK  3 active torsions:
REMARK  status: ('A' for Active; 'I' for Inactive)
REMARK    1  A    between atoms: C3_3  and  C4_4 
REMARK    2  A    between atoms: C4_4  and  C6_6 
REMARK    3  A    between atoms: C5_5  and  C6_6 
ROOT
HETATM    1  C1  UNL     1     -34.833   4.686   4.509  1.00 20.00     0.065 C 
HETATM    2  C6  UNL     1     -34.318   6.012   4.107  1.00 20.00     0.106 C 
HETATM    3  N7  UNL     1     -35.239   3.645   4.824  1.00 20.00    -0.197 NA
ENDROOT
BRANCH   2   4
HETATM    4  C4  UNL     1     -33.343   5.899   2.919  1.00 20.00     0.020 C 
BRANCH   4   5
HETATM    5  C3  UNL     1     -32.079   6.746   3.111  1.00 20.00    -0.003 C 
HETATM    6  C2  UNL     1     -32.087   7.967   2.204  1.00 20.00     0.005 C 
ENDBRANCH   4   5
ENDBRANCH   2   4
BRANCH   2   7
HETATM    7  C5  UNL     1     -33.694   6.737   5.309  1.00 20.00     0.133 C 
HETATM    8 CL8  UNL     1     -34.374   6.230   6.879  1.00 20.00    -0.129 Cl
ENDBRANCH   2   7
TORSDOF 3
ENDMDL
MODEL 2
REMARK VINA RESULT:      -4.2      1.848      2.213
REMARK  3 active torsions:
REMARK  status: ('A' for Active; 'I' for Inactive)
REMARK    1  A    between atoms: C3_3  and  C4_4 
REMARK    2  A    between atoms: C4_4  and  C6_6 
REMARK    3  A    between atoms: C5_5  and  C6_6 
ROOT
HETATM    1  C1  UNL     1     -33.701   6.538   5.787  1.00 20.00     0.065 C 
HETATM    2  C6  UNL     1     -33.766   5.730   4.551  1.00 20.00     0.106 C 
HETATM    3  N7  UNL     1     -33.649   7.171   6.758  1.00 20.00    -0.197 NA
ENDROOT
BRANCH   2   4
HETATM    4  C4  UNL     1     -33.600   6.610   3.296  1.00 20.00     0.020 C 
BRANCH   4   5
HETATM    5  C3  UNL     1     -32.148   7.046   3.069  1.00 20.00    -0.003 C 
HETATM    6  C2  UNL     1     -32.064   8.202   2.084  1.00 20.00     0.005 C 
ENDBRANCH   4   5
ENDBRANCH   2   4
BRANCH   2   7
HETATM    7  C5  UNL     1     -35.057   4.898   4.514  1.00 20.00     0.133 C 
HETATM    8 CL8  UNL     1     -35.350   3.972   6.011  1.00 20.00    -0.129 Cl
ENDBRANCH   2   7
TORSDOF 3
ENDMDL
MODEL 3
REMARK VINA RESULT:      -4.1      2.584      3.801
REMARK  3 active torsions:
REMARK  status: ('A' for Active; 'I' for Inactive)
REMARK    1  A    between atoms: C3_3  and  C4_4 
REMARK    2  A    between atoms: C4_4  and  C6_6 
REMARK    3  A    between atoms: C5_5  and  C6_6 
ROOT
HETATM    1  C1  UNL     1     -33.604   6.785   5.380  1.00 20.00     0.065 C 
HETATM    2  C6  UNL     1     -33.645   6.628   3.911  1.00 20.00     0.106 C 
HETATM    3  N7  UNL     1     -33.572   6.909   6.533  1.00 20.00    -0.197 NA
ENDROOT
BRANCH   2   4
HETATM    4  C4  UNL     1     -34.385   5.339   3.504  1.00 20.00     0.020 C 
BRANCH   4   5
HETATM    5  C3  UNL     1     -35.453   4.925   4.524  1.00 20.00    -0.003 C 
HETATM    6  C2  UNL     1     -34.956   3.802   5.422  1.00 20.00     0.005 C 
ENDBRANCH   4   5
ENDBRANCH   2   4
BRANCH   2   7
HETATM    7  C5  UNL     1     -32.229   6.700   3.318  1.00 20.00     0.133 C 
HETATM    8 CL8  UNL     1     -32.016   8.023   2.140  1.00 20.00    -0.129 Cl
ENDBRANCH   2   7
TORSDOF 3
ENDMDL
MODEL 4
REMARK VINA RESULT:      -4.1     11.878     12.474
REMARK  3 active torsions:
REMARK  status: ('A' for Active; 'I' for Inactive)
REMARK    1  A    between atoms: C3_3  and  C4_4 
REMARK    2  A    between atoms: C4_4  and  C6_6 
REMARK    3  A    between atoms: C5_5  and  C6_6 
ROOT
HETATM    1  C1  UNL     1     -34.342  13.771  -3.925  1.00 20.00     0.065 C 
HETATM    2  C6  UNL     1     -33.735  15.002  -3.378  1.00 20.00     0.106 C 
HETATM    3  N7  UNL     1     -34.817  12.803  -4.355  1.00 20.00    -0.197 NA
ENDROOT
BRANCH   2   4
HETATM    4  C4  UNL     1     -34.703  15.729  -2.425  1.00 20.00     0.020 C 
BRANCH   4   5
HETATM    5  C3  UNL     1     -34.000  16.779  -1.555  1.00 20.00    -0.003 C 
HETATM    6  C2  UNL     1     -34.754  17.017  -0.256  1.00 20.00     0.005 C 
ENDBRANCH   4   5
ENDBRANCH   2   4
BRANCH   2   7
HETATM    7  C5  UNL     1     -33.239  15.912  -4.512  1.00 20.00     0.133 C 
HETATM    8 CL8  UNL     1     -34.109  15.671  -6.051  1.00 20.00    -0.129 Cl
ENDBRANCH   2   7
TORSDOF 3
ENDMDL
MODEL 5
REMARK VINA RESULT:      -3.7     12.121     12.755
REMARK  3 active torsions:
REMARK  status: ('A' for Active; 'I' for Inactive)
REMARK    1  A    between atoms: C3_3  and  C4_4 
REMARK    2  A    between atoms: C4_4  and  C6_6 
REMARK    3  A    between atoms: C5_5  and  C6_6 
ROOT
HETATM    1  C1  UNL     1     -36.648  14.370  -4.071  1.00 20.00     0.065 C 
HETATM    2  C6  UNL     1     -35.233  14.392  -4.497  1.00 20.00     0.106 C 
HETATM    3  N7  UNL     1     -37.759  14.352  -3.737  1.00 20.00    -0.197 NA
ENDROOT
BRANCH   2   4
HETATM    4  C4  UNL     1     -34.282  14.446  -3.286  1.00 20.00     0.020 C 
BRANCH   4   5
HETATM    5  C3  UNL     1     -33.934  15.880  -2.871  1.00 20.00    -0.003 C 
HETATM    6  C2  UNL     1     -34.629  16.267  -1.575  1.00 20.00     0.005 C 
ENDBRANCH   4   5
ENDBRANCH   2   4
BRANCH   2   7
HETATM    7  C5  UNL     1     -34.983  15.540  -5.487  1.00 20.00     0.133 C 
HETATM    8 CL8  UNL     1     -34.312  15.000  -7.050  1.00 20.00    -0.129 Cl
ENDBRANCH   2   7
TORSDOF 3
ENDMDL
MODEL 6
REMARK VINA RESULT:      -3.7     11.968     12.640
REMARK  3 active torsions:
REMARK  status: ('A' for Active; 'I' for Inactive)
REMARK    1  A    between atoms: C3_3  and  C4_4 
REMARK    2  A    between atoms: C4_4  and  C6_6 
REMARK    3  A    between atoms: C5_5  and  C6_6 
ROOT
HETATM    1  C1  UNL     1     -33.335  16.544  -4.280  1.00 20.00     0.065 C 
HETATM    2  C6  UNL     1     -33.504  15.571  -3.181  1.00 20.00     0.106 C 
HETATM    3  N7  UNL     1     -33.201  17.309  -5.142  1.00 20.00    -0.197 NA
ENDROOT
BRANCH   2   4
HETATM    4  C4  UNL     1     -33.374  14.122  -3.690  1.00 20.00     0.020 C 
BRANCH   4   5
HETATM    5  C3  UNL     1     -34.730  13.491  -4.031  1.00 20.00    -0.003 C 
HETATM    6  C2  UNL     1     -35.019  13.571  -5.522  1.00 20.00     0.005 C 
ENDBRANCH   4   5
ENDBRANCH   2   4
BRANCH   2   7
HETATM    7  C5  UNL     1     -34.829  15.813  -2.442  1.00 20.00     0.133 C 
HETATM    8 CL8  UNL     1     -34.618  16.493  -0.806  1.00 20.00    -0.129 Cl
ENDBRANCH   2   7
TORSDOF 3
ENDMDL
MODEL 7
REMARK VINA RESULT:      -3.7      2.255      3.569
REMARK  3 active torsions:
REMARK  status: ('A' for Active; 'I' for Inactive)
REMARK    1  A    between atoms: C3_3  and  C4_4 
REMARK    2  A    between atoms: C4_4  and  C6_6 
REMARK    3  A    between atoms: C5_5  and  C6_6 
ROOT
HETATM    1  C1  UNL     1     -32.532   7.090   2.982  1.00 20.00     0.065 C 
HETATM    2  C6  UNL     1     -33.250   6.292   3.998  1.00 20.00     0.106 C 
HETATM    3  N7  UNL     1     -31.968   7.717   2.185  1.00 20.00    -0.197 NA
ENDROOT
BRANCH   2   4
HETATM    4  C4  UNL     1     -34.254   5.323   3.344  1.00 20.00     0.020 C 
BRANCH   4   5
HETATM    5  C3  UNL     1     -35.400   4.935   4.286  1.00 20.00    -0.003 C 
HETATM    6  C2  UNL     1     -34.947   3.916   5.320  1.00 20.00     0.005 C 
ENDBRANCH   4   5
ENDBRANCH   2   4
BRANCH   2   7
HETATM    7  C5  UNL     1     -33.914   7.208   5.037  1.00 20.00     0.133 C 
HETATM    8 CL8  UNL     1     -33.416   6.861   6.715  1.00 20.00    -0.129 Cl
ENDBRANCH   2   7
TORSDOF 3
ENDMDL
MODEL 8
REMARK VINA RESULT:      -3.6     11.998     12.728
REMARK  3 active torsions:
REMARK  status: ('A' for Active; 'I' for Inactive)
REMARK    1  A    between atoms: C3_3  and  C4_4 
REMARK    2  A    between atoms: C4_4  and  C6_6 
REMARK    3  A    between atoms: C5_5  and  C6_6 
ROOT
HETATM    1  C1  UNL     1     -33.943  16.129  -4.560  1.00 20.00     0.065 C 
HETATM    2  C6  UNL     1     -35.088  15.422  -3.948  1.00 20.00     0.106 C 
HETATM    3  N7  UNL     1     -33.045  16.684  -5.042  1.00 20.00    -0.197 NA
ENDROOT
BRANCH   2   4
HETATM    4  C4  UNL     1     -35.499  16.070  -2.612  1.00 20.00     0.020 C 
BRANCH   4   5
HETATM    5  C3  UNL     1     -34.305  16.307  -1.679  1.00 20.00    -0.003 C 
HETATM    6  C2  UNL     1     -34.738  16.981  -0.386  1.00 20.00     0.005 C 
ENDBRANCH   4   5
ENDBRANCH   2   4
BRANCH   2   7
HETATM    7  C5  UNL     1     -34.782  13.923  -3.800  1.00 20.00     0.133 C 
HETATM    8 CL8  UNL     1     -33.039  13.560  -3.681  1.00 20.00    -0.129 Cl
ENDBRANCH   2   7
TORSDOF 3
ENDMDL
MODEL 9
REMARK VINA RESULT:      -3.6     11.542     12.595
REMARK  3 active torsions:
REMARK  status: ('A' for Active; 'I' for Inactive)
REMARK    1  A    between atoms: C3_3  and  C4_4 
REMARK    2  A    between atoms: C4_4  and  C6_6 
REMARK    3  A    between atoms: C5_5  and  C6_6 
ROOT
HETATM    1  C1  UNL     1     -35.096  13.833  -4.039  1.00 20.00     0.065 C 
HETATM    2  C6  UNL     1     -35.211  15.255  -3.653  1.00 20.00     0.106 C 
HETATM    3  N7  UNL     1     -35.006  12.716  -4.341  1.00 20.00    -0.197 NA
ENDROOT
BRANCH   2   4
HETATM    4  C4  UNL     1     -35.266  16.170  -4.892  1.00 20.00     0.020 C 
BRANCH   4   5
HETATM    5  C3  UNL     1     -34.008  16.063  -5.762  1.00 20.00    -0.003 C 
HETATM    6  C2  UNL     1     -34.333  15.506  -7.140  1.00 20.00     0.005 C 
ENDBRANCH   4   5
ENDBRANCH   2   4
BRANCH   2   7
HETATM    7  C5  UNL     1     -34.082  15.647  -2.687  1.00 20.00     0.133 C 
HETATM    8 CL8  UNL     1     -34.667  16.360  -1.160  1.00 20.00    -0.129 Cl
ENDBRANCH   2   7
TORSDOF 3
ENDMDL
