MODEL 1
REMARK VINA RESULT:      -4.3      0.000      0.000
REMARK  2 active torsions:
REMARK  status: ('A' for Active; 'I' for Inactive)
REMARK    1  A    between atoms: C9_9  and  C10_10 
REMARK    2  A    between atoms: C10_10  and  N12_12 
ROOT
HETATM    1  C1  UNL     1     -34.725  16.874  -0.520  1.00 20.00     0.061 C 
HETATM    2  C9  UNL     1     -34.427  16.101  -1.736  1.00 20.00     0.159 C 
HETATM    3  N11 UNL     1     -34.960  17.482   0.440  1.00 20.00    -0.197 NA
ENDROOT
BRANCH   2   4
HETATM    4  C10 UNL     1     -35.125  16.685  -2.971  1.00 20.00     0.233 C 
HETATM    5  C8  UNL     1     -36.462  17.314  -2.591  1.00 20.00     0.044 C 
BRANCH   4   6
HETATM    6  N12 UNL     1     -35.330  15.666  -3.986  1.00 20.00     0.102 N 
HETATM    7  C4  UNL     1     -34.892  14.343  -3.545  1.00 20.00     0.274 C 
HETATM    8  C2  UNL     1     -35.003  13.539  -4.822  1.00 20.00     0.033 C 
HETATM    9  C3  UNL     1     -34.485  14.497  -5.885  1.00 20.00     0.043 C 
HETATM   10  C5  UNL     1     -34.731  15.914  -5.314  1.00 20.00     0.153 C 
HETATM   11  C6  UNL     1     -35.762  16.660  -6.175  1.00 20.00     0.049 C 
HETATM   12  C7  UNL     1     -33.410  16.705  -5.307  1.00 20.00     0.049 C 
ENDBRANCH   4   6
ENDBRANCH   2   4
TORSDOF 2
ENDMDL
MODEL 2
REMARK VINA RESULT:      -4.3      1.931      4.433
REMARK  2 active torsions:
REMARK  status: ('A' for Active; 'I' for Inactive)
REMARK    1  A    between atoms: C9_9  and  C10_10 
REMARK    2  A    between atoms: C10_10  and  N12_12 
ROOT
HETATM    1  C1  UNL     1     -34.510  13.640  -4.118  1.00 20.00     0.061 C 
HETATM    2  C9  UNL     1     -34.105  14.806  -3.316  1.00 20.00     0.159 C 
HETATM    3  N11 UNL     1     -34.827  12.721  -4.752  1.00 20.00    -0.197 NA
ENDROOT
BRANCH   2   4
HETATM    4  C10 UNL     1     -35.317  15.579  -2.780  1.00 20.00     0.233 C 
HETATM    5  C8  UNL     1     -36.583  15.201  -3.543  1.00 20.00     0.044 C 
BRANCH   4   6
HETATM    6  N12 UNL     1     -35.101  17.014  -2.864  1.00 20.00     0.102 N 
HETATM    7  C4  UNL     1     -33.845  17.350  -3.531  1.00 20.00     0.274 C 
HETATM    8  C2  UNL     1     -33.759  18.842  -3.293  1.00 20.00     0.033 C 
HETATM    9  C3  UNL     1     -34.240  18.996  -1.858  1.00 20.00     0.043 C 
HETATM   10  C5  UNL     1     -35.151  17.774  -1.598  1.00 20.00     0.153 C 
HETATM   11  C6  UNL     1     -36.599  18.233  -1.369  1.00 20.00     0.049 C 
HETATM   12  C7  UNL     1     -34.658  17.017  -0.352  1.00 20.00     0.049 C 
ENDBRANCH   4   6
ENDBRANCH   2   4
TORSDOF 2
ENDMDL
MODEL 3
REMARK VINA RESULT:      -4.3      1.632      4.213
REMARK  2 active torsions:
REMARK  status: ('A' for Active; 'I' for Inactive)
REMARK    1  A    between atoms: C9_9  and  C10_10 
REMARK    2  A    between atoms: C10_10  and  N12_12 
ROOT
HETATM    1  C1  UNL     1     -34.290  13.591  -4.315  1.00 20.00     0.061 C 
HETATM    2  C9  UNL     1     -33.631  14.749  -3.692  1.00 20.00     0.159 C 
HETATM    3  N11 UNL     1     -34.808  12.676  -4.806  1.00 20.00    -0.197 NA
ENDROOT
BRANCH   2   4
HETATM    4  C10 UNL     1     -34.240  16.076  -4.165  1.00 20.00     0.233 C 
HETATM    5  C8  UNL     1     -33.316  16.772  -5.160  1.00 20.00     0.044 C 
BRANCH   4   6
HETATM    6  N12 UNL     1     -34.508  16.958  -3.042  1.00 20.00     0.102 N 
HETATM    7  C4  UNL     1     -34.216  16.328  -1.756  1.00 20.00     0.274 C 
HETATM    8  C2  UNL     1     -34.775  17.342  -0.781  1.00 20.00     0.033 C 
HETATM    9  C3  UNL     1     -36.071  17.786  -1.443  1.00 20.00     0.043 C 
HETATM   10  C5  UNL     1     -35.864  17.539  -2.956  1.00 20.00     0.153 C 
HETATM   11  C6  UNL     1     -35.863  18.875  -3.715  1.00 20.00     0.049 C 
HETATM   12  C7  UNL     1     -37.000  16.652  -3.495  1.00 20.00     0.049 C 
ENDBRANCH   4   6
ENDBRANCH   2   4
TORSDOF 2
ENDMDL
MODEL 4
REMARK VINA RESULT:      -4.2      1.295      1.535
REMARK  2 active torsions:
REMARK  status: ('A' for Active; 'I' for Inactive)
REMARK    1  A    between atoms: C9_9  and  C10_10 
REMARK    2  A    between atoms: C10_10  and  N12_12 
ROOT
HETATM    1  C1  UNL     1     -34.406  17.422  -0.071  1.00 20.00     0.061 C 
HETATM    2  C9  UNL     1     -34.766  16.480  -1.143  1.00 20.00     0.159 C 
HETATM    3  N11 UNL     1     -34.123  18.164   0.775  1.00 20.00    -0.197 NA
ENDROOT
BRANCH   2   4
HETATM    4  C10 UNL     1     -34.263  16.953  -2.513  1.00 20.00     0.233 C 
HETATM    5  C8  UNL     1     -34.580  18.430  -2.726  1.00 20.00     0.044 C 
BRANCH   4   6
HETATM    6  N12 UNL     1     -34.847  16.163  -3.584  1.00 20.00     0.102 N 
HETATM    7  C4  UNL     1     -35.878  15.247  -3.103  1.00 20.00     0.274 C 
HETATM    8  C2  UNL     1     -36.153  14.416  -4.338  1.00 20.00     0.033 C 
HETATM    9  C3  UNL     1     -34.767  14.194  -4.926  1.00 20.00     0.043 C 
HETATM   10  C5  UNL     1     -33.915  15.384  -4.426  1.00 20.00     0.153 C 
HETATM   11  C6  UNL     1     -33.487  16.263  -5.611  1.00 20.00     0.049 C 
HETATM   12  C7  UNL     1     -32.660  14.856  -3.709  1.00 20.00     0.049 C 
ENDBRANCH   4   6
ENDBRANCH   2   4
TORSDOF 2
ENDMDL
MODEL 5
REMARK VINA RESULT:      -4.2      2.161      3.290
REMARK  2 active torsions:
REMARK  status: ('A' for Active; 'I' for Inactive)
REMARK    1  A    between atoms: C9_9  and  C10_10 
REMARK    2  A    between atoms: C10_10  and  N12_12 
ROOT
HETATM    1  C1  UNL     1     -38.994  15.441  -3.392  1.00 20.00     0.061 C 
HETATM    2  C9  UNL     1     -37.736  14.791  -3.792  1.00 20.00     0.159 C 
HETATM    3  N11 UNL     1     -39.988  15.952  -3.078  1.00 20.00    -0.197 NA
ENDROOT
BRANCH   2   4
HETATM    4  C10 UNL     1     -36.641  15.816  -4.116  1.00 20.00     0.233 C 
HETATM    5  C8  UNL     1     -37.065  16.713  -5.275  1.00 20.00     0.044 C 
BRANCH   4   6
HETATM    6  N12 UNL     1     -35.386  15.157  -4.435  1.00 20.00     0.102 N 
HETATM    7  C4  UNL     1     -35.488  13.700  -4.366  1.00 20.00     0.274 C 
HETATM    8  C2  UNL     1     -34.042  13.282  -4.516  1.00 20.00     0.033 C 
HETATM    9  C3  UNL     1     -33.292  14.307  -3.676  1.00 20.00     0.043 C 
HETATM   10  C5  UNL     1     -34.200  15.559  -3.652  1.00 20.00     0.153 C 
HETATM   11  C6  UNL     1     -33.514  16.724  -4.382  1.00 20.00     0.049 C 
HETATM   12  C7  UNL     1     -34.477  15.968  -2.194  1.00 20.00     0.049 C 
ENDBRANCH   4   6
ENDBRANCH   2   4
TORSDOF 2
ENDMDL
MODEL 6
REMARK VINA RESULT:      -4.1      1.810      3.601
REMARK  2 active torsions:
REMARK  status: ('A' for Active; 'I' for Inactive)
REMARK    1  A    between atoms: C9_9  and  C10_10 
REMARK    2  A    between atoms: C10_10  and  N12_12 
ROOT
HETATM    1  C1  UNL     1     -35.216  13.649  -4.135  1.00 20.00     0.061 C 
HETATM    2  C9  UNL     1     -35.848  14.782  -3.441  1.00 20.00     0.159 C 
HETATM    3  N11 UNL     1     -34.719  12.754  -4.682  1.00 20.00    -0.197 NA
ENDROOT
BRANCH   2   4
HETATM    4  C10 UNL     1     -34.871  15.948  -3.242  1.00 20.00     0.233 C 
HETATM    5  C8  UNL     1     -34.684  16.252  -1.759  1.00 20.00     0.044 C 
BRANCH   4   6
HETATM    6  N12 UNL     1     -35.331  17.139  -3.936  1.00 20.00     0.102 N 
HETATM    7  C4  UNL     1     -36.662  16.969  -4.514  1.00 20.00     0.274 C 
HETATM    8  C2  UNL     1     -36.804  18.229  -5.340  1.00 20.00     0.033 C 
HETATM    9  C3  UNL     1     -35.423  18.399  -5.958  1.00 20.00     0.043 C 
HETATM   10  C5  UNL     1     -34.451  17.680  -4.993  1.00 20.00     0.153 C 
HETATM   11  C6  UNL     1     -33.496  18.697  -4.350  1.00 20.00     0.049 C 
HETATM   12  C7  UNL     1     -33.630  16.636  -5.770  1.00 20.00     0.049 C 
ENDBRANCH   4   6
ENDBRANCH   2   4
TORSDOF 2
ENDMDL
MODEL 7
REMARK VINA RESULT:      -4.1      1.897      4.398
REMARK  2 active torsions:
REMARK  status: ('A' for Active; 'I' for Inactive)
REMARK    1  A    between atoms: C9_9  and  C10_10 
REMARK    2  A    between atoms: C10_10  and  N12_12 
ROOT
HETATM    1  C1  UNL     1     -37.340  15.209  -6.265  1.00 20.00     0.061 C 
HETATM    2  C9  UNL     1     -36.854  15.013  -4.890  1.00 20.00     0.159 C 
HETATM    3  N11 UNL     1     -37.726  15.364  -7.348  1.00 20.00    -0.197 NA
ENDROOT
BRANCH   2   4
HETATM    4  C10 UNL     1     -35.347  14.726  -4.852  1.00 20.00     0.233 C 
HETATM    5  C8  UNL     1     -35.070  13.251  -5.127  1.00 20.00     0.044 C 
BRANCH   4   6
HETATM    6  N12 UNL     1     -34.775  15.105  -3.571  1.00 20.00     0.102 N 
HETATM    7  C4  UNL     1     -35.718  15.848  -2.737  1.00 20.00     0.274 C 
HETATM    8  C2  UNL     1     -34.832  16.299  -1.596  1.00 20.00     0.033 C 
HETATM    9  C3  UNL     1     -33.538  16.692  -2.293  1.00 20.00     0.043 C 
HETATM   10  C5  UNL     1     -33.510  15.868  -3.601  1.00 20.00     0.153 C 
HETATM   11  C6  UNL     1     -32.345  14.867  -3.572  1.00 20.00     0.049 C 
HETATM   12  C7  UNL     1     -33.336  16.812  -4.804  1.00 20.00     0.049 C 
ENDBRANCH   4   6
ENDBRANCH   2   4
TORSDOF 2
ENDMDL
MODEL 8
REMARK VINA RESULT:      -4.1      2.127      3.460
REMARK  2 active torsions:
REMARK  status: ('A' for Active; 'I' for Inactive)
REMARK    1  A    between atoms: C9_9  and  C10_10 
REMARK    2  A    between atoms: C10_10  and  N12_12 
ROOT
HETATM    1  C1  UNL     1     -33.619  18.557  -6.008  1.00 20.00     0.061 C 
HETATM    2  C9  UNL     1     -33.511  17.663  -4.844  1.00 20.00     0.159 C 
HETATM    3  N11 UNL     1     -33.703  19.263  -6.925  1.00 20.00    -0.197 NA
ENDROOT
BRANCH   2   4
HETATM    4  C10 UNL     1     -34.864  17.046  -4.469  1.00 20.00     0.233 C 
HETATM    5  C8  UNL     1     -35.552  17.867  -3.383  1.00 20.00     0.044 C 
BRANCH   4   6
HETATM    6  N12 UNL     1     -34.706  15.672  -4.022  1.00 20.00     0.102 N 
HETATM    7  C4  UNL     1     -33.311  15.239  -4.034  1.00 20.00     0.274 C 
HETATM    8  C2  UNL     1     -33.445  13.758  -3.751  1.00 20.00     0.033 C 
HETATM    9  C3  UNL     1     -34.659  13.353  -4.574  1.00 20.00     0.043 C 
HETATM   10  C5  UNL     1     -35.499  14.643  -4.726  1.00 20.00     0.153 C 
HETATM   11  C6  UNL     1     -36.843  14.488  -3.998  1.00 20.00     0.049 C 
HETATM   12  C7  UNL     1     -35.761  14.916  -6.218  1.00 20.00     0.049 C 
ENDBRANCH   4   6
ENDBRANCH   2   4
TORSDOF 2
ENDMDL
MODEL 9
REMARK VINA RESULT:      -4.0      1.321      2.662
REMARK  2 active torsions:
REMARK  status: ('A' for Active; 'I' for Inactive)
REMARK    1  A    between atoms: C9_9  and  C10_10 
REMARK    2  A    between atoms: C10_10  and  N12_12 
ROOT
HETATM    1  C1  UNL     1     -34.299  16.340  -1.581  1.00 20.00     0.061 C 
HETATM    2  C9  UNL     1     -33.668  15.891  -2.832  1.00 20.00     0.159 C 
HETATM    3  N11 UNL     1     -34.794  16.694  -0.593  1.00 20.00    -0.197 NA
ENDROOT
BRANCH   2   4
HETATM    4  C10 UNL     1     -34.647  15.110  -3.718  1.00 20.00     0.233 C 
HETATM    5  C8  UNL     1     -34.255  13.638  -3.793  1.00 20.00     0.044 C 
BRANCH   4   6
HETATM    6  N12 UNL     1     -34.704  15.674  -5.056  1.00 20.00     0.102 N 
HETATM    7  C4  UNL     1     -33.671  16.683  -5.281  1.00 20.00     0.274 C 
HETATM    8  C2  UNL     1     -34.079  17.250  -6.623  1.00 20.00     0.033 C 
HETATM    9  C3  UNL     1     -35.596  17.328  -6.524  1.00 20.00     0.043 C 
HETATM   10  C5  UNL     1     -35.994  16.253  -5.485  1.00 20.00     0.153 C 
HETATM   11  C6  UNL     1     -36.818  15.146  -6.160  1.00 20.00     0.049 C 
HETATM   12  C7  UNL     1     -36.833  16.899  -4.368  1.00 20.00     0.049 C 
ENDBRANCH   4   6
ENDBRANCH   2   4
TORSDOF 2
ENDMDL
