MODEL 1
REMARK VINA RESULT:      -4.4      0.000      0.000
REMARK  3 active torsions:
REMARK  status: ('A' for Active; 'I' for Inactive)
REMARK    1  A    between atoms: C5_5  and  C7_7 
REMARK    2  A    between atoms: C6_6  and  C7_7 
REMARK    3  A    between atoms: C7_7  and  O8_8 
ROOT
HETATM    1  C1  UNL     1     -31.911   7.241   3.086  1.00 20.00     0.012 C 
HETATM    2  C2  UNL     1     -32.756   6.391   3.022  1.00 20.00    -0.115 C 
HETATM    3  C5  UNL     1     -33.793   5.347   2.933  1.00 20.00     0.130 C 
ENDROOT
BRANCH   3   4
HETATM    4  C7  UNL     1     -34.762   5.350   4.134  1.00 20.00     0.064 C 
HETATM    5  C4  UNL     1     -34.873   3.929   4.703  1.00 20.00     0.046 C 
BRANCH   4   6
HETATM    6  C6  UNL     1     -34.399   6.360   5.243  1.00 20.00     0.034 C 
HETATM    7  C3  UNL     1     -34.439   5.817   6.665  1.00 20.00     0.008 C 
ENDBRANCH   4   6
BRANCH   4   8
HETATM    8  O8  UNL     1     -36.069   5.712   3.665  1.00 20.00    -0.389 OA
HETATM    9  H20 UNL     1     -36.010   6.641   3.404  1.00 20.00     0.210 HD
ENDBRANCH   4   8
ENDBRANCH   3   4
TORSDOF 3
ENDMDL
MODEL 2
REMARK VINA RESULT:      -4.3      1.264      1.552
REMARK  3 active torsions:
REMARK  status: ('A' for Active; 'I' for Inactive)
REMARK    1  A    between atoms: C5_5  and  C7_7 
REMARK    2  A    between atoms: C6_6  and  C7_7 
REMARK    3  A    between atoms: C7_7  and  O8_8 
ROOT
HETATM    1  C1  UNL     1     -31.992   8.342   1.885  1.00 20.00     0.012 C 
HETATM    2  C2  UNL     1     -32.211   7.427   2.630  1.00 20.00    -0.115 C 
HETATM    3  C5  UNL     1     -32.470   6.298   3.541  1.00 20.00     0.130 C 
ENDROOT
BRANCH   3   4
HETATM    4  C7  UNL     1     -33.903   6.295   4.113  1.00 20.00     0.064 C 
HETATM    5  C4  UNL     1     -34.724   5.192   3.430  1.00 20.00     0.046 C 
BRANCH   4   6
HETATM    6  C6  UNL     1     -33.975   6.162   5.649  1.00 20.00     0.034 C 
HETATM    7  C3  UNL     1     -34.771   4.974   6.169  1.00 20.00     0.008 C 
ENDBRANCH   4   6
BRANCH   4   8
HETATM    8  O8  UNL     1     -34.530   7.543   3.782  1.00 20.00    -0.389 OA
HETATM    9  H20 UNL     1     -35.341   7.315   3.307  1.00 20.00     0.210 HD
ENDBRANCH   4   8
ENDBRANCH   3   4
TORSDOF 3
ENDMDL
MODEL 3
REMARK VINA RESULT:      -4.2      1.392      2.998
REMARK  3 active torsions:
REMARK  status: ('A' for Active; 'I' for Inactive)
REMARK    1  A    between atoms: C5_5  and  C7_7 
REMARK    2  A    between atoms: C6_6  and  C7_7 
REMARK    3  A    between atoms: C7_7  and  O8_8 
ROOT
HETATM    1  C1  UNL     1     -33.349   7.422   6.788  1.00 20.00     0.012 C 
HETATM    2  C2  UNL     1     -34.057   6.492   6.517  1.00 20.00    -0.115 C 
HETATM    3  C5  UNL     1     -34.927   5.347   6.196  1.00 20.00     0.130 C 
ENDROOT
BRANCH   3   4
HETATM    4  C7  UNL     1     -34.833   4.907   4.720  1.00 20.00     0.064 C 
HETATM    5  C4  UNL     1     -35.871   5.675   3.891  1.00 20.00     0.046 C 
BRANCH   4   6
HETATM    6  C6  UNL     1     -33.424   5.046   4.104  1.00 20.00     0.034 C 
HETATM    7  C3  UNL     1     -33.270   6.141   3.058  1.00 20.00     0.008 C 
ENDBRANCH   4   6
BRANCH   4   8
HETATM    8  O8  UNL     1     -35.181   3.517   4.634  1.00 20.00    -0.389 OA
HETATM    9  H20 UNL     1     -34.487   3.102   4.103  1.00 20.00     0.210 HD
ENDBRANCH   4   8
ENDBRANCH   3   4
TORSDOF 3
ENDMDL
MODEL 4
REMARK VINA RESULT:      -4.2     11.348     12.548
REMARK  3 active torsions:
REMARK  status: ('A' for Active; 'I' for Inactive)
REMARK    1  A    between atoms: C5_5  and  C7_7 
REMARK    2  A    between atoms: C6_6  and  C7_7 
REMARK    3  A    between atoms: C7_7  and  O8_8 
ROOT
HETATM    1  C1  UNL     1     -34.080  16.662  -6.389  1.00 20.00     0.012 C 
HETATM    2  C2  UNL     1     -34.379  15.529  -6.129  1.00 20.00    -0.115 C 
HETATM    3  C5  UNL     1     -34.749  14.137  -5.819  1.00 20.00     0.130 C 
ENDROOT
BRANCH   3   4
HETATM    4  C7  UNL     1     -34.784  13.840  -4.305  1.00 20.00     0.064 C 
HETATM    5  C4  UNL     1     -33.348  13.743  -3.771  1.00 20.00     0.046 C 
BRANCH   4   6
HETATM    6  C6  UNL     1     -35.612  14.847  -3.477  1.00 20.00     0.034 C 
HETATM    7  C3  UNL     1     -34.824  15.677  -2.474  1.00 20.00     0.008 C 
ENDBRANCH   4   6
BRANCH   4   8
HETATM    8  O8  UNL     1     -35.388  12.553  -4.105  1.00 20.00    -0.389 OA
HETATM    9  H20 UNL     1     -36.331  12.721  -3.973  1.00 20.00     0.210 HD
ENDBRANCH   4   8
ENDBRANCH   3   4
TORSDOF 3
ENDMDL
MODEL 5
REMARK VINA RESULT:      -4.1     11.754     12.504
REMARK  3 active torsions:
REMARK  status: ('A' for Active; 'I' for Inactive)
REMARK    1  A    between atoms: C5_5  and  C7_7 
REMARK    2  A    between atoms: C6_6  and  C7_7 
REMARK    3  A    between atoms: C7_7  and  O8_8 
ROOT
HETATM    1  C1  UNL     1     -34.732  16.251  -1.704  1.00 20.00     0.012 C 
HETATM    2  C2  UNL     1     -34.422  15.490  -2.578  1.00 20.00    -0.115 C 
HETATM    3  C5  UNL     1     -34.031  14.559  -3.652  1.00 20.00     0.130 C 
ENDROOT
BRANCH   3   4
HETATM    4  C7  UNL     1     -35.237  13.964  -4.409  1.00 20.00     0.064 C 
HETATM    5  C4  UNL     1     -36.530  14.622  -3.908  1.00 20.00     0.046 C 
BRANCH   4   6
HETATM    6  C6  UNL     1     -35.132  14.058  -5.947  1.00 20.00     0.034 C 
HETATM    7  C3  UNL     1     -34.369  15.263  -6.480  1.00 20.00     0.008 C 
ENDBRANCH   4   6
BRANCH   4   8
HETATM    8  O8  UNL     1     -35.332  12.568  -4.091  1.00 20.00    -0.389 OA
HETATM    9  H20 UNL     1     -36.249  12.419  -3.822  1.00 20.00     0.210 HD
ENDBRANCH   4   8
ENDBRANCH   3   4
TORSDOF 3
ENDMDL
MODEL 6
REMARK VINA RESULT:      -4.0     11.363     12.315
REMARK  3 active torsions:
REMARK  status: ('A' for Active; 'I' for Inactive)
REMARK    1  A    between atoms: C5_5  and  C7_7 
REMARK    2  A    between atoms: C6_6  and  C7_7 
REMARK    3  A    between atoms: C7_7  and  O8_8 
ROOT
HETATM    1  C1  UNL     1     -38.291  14.760  -3.892  1.00 20.00     0.012 C 
HETATM    2  C2  UNL     1     -37.105  14.827  -3.722  1.00 20.00    -0.115 C 
HETATM    3  C5  UNL     1     -35.650  14.918  -3.510  1.00 20.00     0.130 C 
ENDROOT
BRANCH   3   4
HETATM    4  C7  UNL     1     -34.854  13.846  -4.284  1.00 20.00     0.064 C 
HETATM    5  C4  UNL     1     -34.946  14.131  -5.790  1.00 20.00     0.046 C 
BRANCH   4   6
HETATM    6  C6  UNL     1     -33.382  13.702  -3.840  1.00 20.00     0.034 C 
HETATM    7  C3  UNL     1     -32.635  15.008  -3.611  1.00 20.00     0.008 C 
ENDBRANCH   4   6
BRANCH   4   8
HETATM    8  O8  UNL     1     -35.473  12.570  -4.065  1.00 20.00    -0.389 OA
HETATM    9  H20 UNL     1     -34.776  11.912  -4.193  1.00 20.00     0.210 HD
ENDBRANCH   4   8
ENDBRANCH   3   4
TORSDOF 3
ENDMDL
MODEL 7
REMARK VINA RESULT:      -3.9     11.889     12.913
REMARK  3 active torsions:
REMARK  status: ('A' for Active; 'I' for Inactive)
REMARK    1  A    between atoms: C5_5  and  C7_7 
REMARK    2  A    between atoms: C6_6  and  C7_7 
REMARK    3  A    between atoms: C7_7  and  O8_8 
ROOT
HETATM    1  C1  UNL     1     -33.734  17.169  -1.521  1.00 20.00     0.012 C 
HETATM    2  C2  UNL     1     -34.161  16.247  -2.161  1.00 20.00    -0.115 C 
HETATM    3  C5  UNL     1     -34.692  15.113  -2.937  1.00 20.00     0.130 C 
ENDROOT
BRANCH   3   4
HETATM    4  C7  UNL     1     -33.833  14.767  -4.172  1.00 20.00     0.064 C 
HETATM    5  C4  UNL     1     -34.247  13.391  -4.713  1.00 20.00     0.046 C 
BRANCH   4   6
HETATM    6  C6  UNL     1     -33.868  15.831  -5.290  1.00 20.00     0.034 C 
HETATM    7  C3  UNL     1     -34.324  15.335  -6.654  1.00 20.00     0.008 C 
ENDBRANCH   4   6
BRANCH   4   8
HETATM    8  O8  UNL     1     -32.463  14.654  -3.759  1.00 20.00    -0.389 OA
HETATM    9  H20 UNL     1     -32.423  15.026  -2.866  1.00 20.00     0.210 HD
ENDBRANCH   4   8
ENDBRANCH   3   4
TORSDOF 3
ENDMDL
MODEL 8
REMARK VINA RESULT:      -3.9      1.764      3.700
REMARK  3 active torsions:
REMARK  status: ('A' for Active; 'I' for Inactive)
REMARK    1  A    between atoms: C5_5  and  C7_7 
REMARK    2  A    between atoms: C6_6  and  C7_7 
REMARK    3  A    between atoms: C7_7  and  O8_8 
ROOT
HETATM    1  C1  UNL     1     -35.044   4.302   5.897  1.00 20.00     0.012 C 
HETATM    2  C2  UNL     1     -34.427   5.254   5.507  1.00 20.00    -0.115 C 
HETATM    3  C5  UNL     1     -33.672   6.430   5.037  1.00 20.00     0.130 C 
ENDROOT
BRANCH   3   4
HETATM    4  C7  UNL     1     -33.300   6.355   3.541  1.00 20.00     0.064 C 
HETATM    5  C4  UNL     1     -34.267   5.404   2.822  1.00 20.00     0.046 C 
BRANCH   4   6
HETATM    6  C6  UNL     1     -33.245   7.724   2.831  1.00 20.00     0.034 C 
HETATM    7  C3  UNL     1     -31.946   8.032   2.099  1.00 20.00     0.008 C 
ENDBRANCH   4   6
BRANCH   4   8
HETATM    8  O8  UNL     1     -31.990   5.781   3.425  1.00 20.00    -0.389 OA
HETATM    9  H20 UNL     1     -31.516   6.036   4.228  1.00 20.00     0.210 HD
ENDBRANCH   4   8
ENDBRANCH   3   4
TORSDOF 3
ENDMDL
MODEL 9
REMARK VINA RESULT:      -3.9      8.901      9.825
REMARK  3 active torsions:
REMARK  status: ('A' for Active; 'I' for Inactive)
REMARK    1  A    between atoms: C5_5  and  C7_7 
REMARK    2  A    between atoms: C6_6  and  C7_7 
REMARK    3  A    between atoms: C7_7  and  O8_8 
ROOT
HETATM    1  C1  UNL     1     -43.094   7.998  -0.823  1.00 20.00     0.012 C 
HETATM    2  C2  UNL     1     -42.138   7.282  -0.940  1.00 20.00    -0.115 C 
HETATM    3  C5  UNL     1     -40.959   6.411  -1.087  1.00 20.00     0.130 C 
ENDROOT
BRANCH   3   4
HETATM    4  C7  UNL     1     -41.311   4.908  -1.104  1.00 20.00     0.064 C 
HETATM    5  C4  UNL     1     -41.989   4.528   0.219  1.00 20.00     0.046 C 
BRANCH   4   6
HETATM    6  C6  UNL     1     -42.170   4.470  -2.310  1.00 20.00     0.034 C 
HETATM    7  C3  UNL     1     -41.895   3.070  -2.838  1.00 20.00     0.008 C 
ENDBRANCH   4   6
BRANCH   4   8
HETATM    8  O8  UNL     1     -40.092   4.154  -1.177  1.00 20.00    -0.389 OA
HETATM    9  H20 UNL     1     -40.355   3.223  -1.182  1.00 20.00     0.210 HD
ENDBRANCH   4   8
ENDBRANCH   3   4
TORSDOF 3
ENDMDL
