MODEL 1
REMARK VINA RESULT:      -4.2      0.000      0.000
REMARK  3 active torsions:
REMARK  status: ('A' for Active; 'I' for Inactive)
REMARK    1  A    between atoms: C4_4  and  C6_6 
REMARK    2  A    between atoms: C4_4  and  C7_7 
REMARK    3  A    between atoms: C5_5  and  C6_6 
ROOT
HETATM    1  C1  UNL     1     -34.528  13.746  -3.859  1.00 20.00     0.065 C 
HETATM    2  C6  UNL     1     -33.975  14.977  -3.259  1.00 20.00     0.107 C 
HETATM    3  N8  UNL     1     -34.959  12.778  -4.329  1.00 20.00    -0.197 NA
ENDROOT
BRANCH   2   4
HETATM    4  C4  UNL     1     -33.199  15.813  -4.298  1.00 20.00     0.024 C 
BRANCH   4   5
HETATM    5  C7  UNL     1     -34.076  16.590  -5.306  1.00 20.00    -0.021 C 
HETATM    6  C2  UNL     1     -33.563  18.027  -5.434  1.00 20.00     0.009 C 
HETATM    7  C3  UNL     1     -34.106  15.932  -6.687  1.00 20.00     0.009 C 
ENDBRANCH   4   5
ENDBRANCH   2   4
BRANCH   2   8
HETATM    8  C5  UNL     1     -35.086  15.791  -2.572  1.00 20.00     0.133 C 
HETATM    9 CL9  UNL     1     -34.619  16.438  -0.976  1.00 20.00    -0.129 Cl
ENDBRANCH   2   8
TORSDOF 3
ENDMDL
MODEL 2
REMARK VINA RESULT:      -4.1     11.228     12.597
REMARK  3 active torsions:
REMARK  status: ('A' for Active; 'I' for Inactive)
REMARK    1  A    between atoms: C4_4  and  C6_6 
REMARK    2  A    between atoms: C4_4  and  C7_7 
REMARK    3  A    between atoms: C5_5  and  C6_6 
ROOT
HETATM    1  C1  UNL     1     -33.989   6.529   5.514  1.00 20.00     0.065 C 
HETATM    2  C6  UNL     1     -34.267   6.233   4.094  1.00 20.00     0.107 C 
HETATM    3  N8  UNL     1     -33.773   6.763   6.629  1.00 20.00    -0.197 NA
ENDROOT
BRANCH   2   4
HETATM    4  C4  UNL     1     -32.979   6.282   3.245  1.00 20.00     0.024 C 
BRANCH   4   5
HETATM    5  C7  UNL     1     -32.311   7.673   3.142  1.00 20.00    -0.021 C 
HETATM    6  C2  UNL     1     -31.006   7.676   3.944  1.00 20.00     0.009 C 
HETATM    7  C3  UNL     1     -32.025   8.081   1.696  1.00 20.00     0.009 C 
ENDBRANCH   4   5
ENDBRANCH   2   4
BRANCH   2   8
HETATM    8  C5  UNL     1     -35.005   4.891   3.954  1.00 20.00     0.133 C 
HETATM    9 CL9  UNL     1     -34.969   3.894   5.434  1.00 20.00    -0.129 Cl
ENDBRANCH   2   8
TORSDOF 3
ENDMDL
MODEL 3
REMARK VINA RESULT:      -4.1      2.740      3.584
REMARK  3 active torsions:
REMARK  status: ('A' for Active; 'I' for Inactive)
REMARK    1  A    between atoms: C4_4  and  C6_6 
REMARK    2  A    between atoms: C4_4  and  C7_7 
REMARK    3  A    between atoms: C5_5  and  C6_6 
ROOT
HETATM    1  C1  UNL     1     -36.777  14.531  -4.062  1.00 20.00     0.065 C 
HETATM    2  C6  UNL     1     -35.384  14.815  -4.463  1.00 20.00     0.107 C 
HETATM    3  N8  UNL     1     -37.871  14.310  -3.748  1.00 20.00    -0.197 NA
ENDROOT
BRANCH   2   4
HETATM    4  C4  UNL     1     -34.405  14.605  -3.288  1.00 20.00     0.024 C 
BRANCH   4   5
HETATM    5  C7  UNL     1     -33.830  15.901  -2.671  1.00 20.00    -0.021 C 
HETATM    6  C2  UNL     1     -33.803  17.007  -3.731  1.00 20.00     0.009 C 
HETATM    7  C3  UNL     1     -34.628  16.376  -1.455  1.00 20.00     0.009 C 
ENDBRANCH   4   5
ENDBRANCH   2   4
BRANCH   2   8
HETATM    8  C5  UNL     1     -34.995  13.986  -5.699  1.00 20.00     0.133 C 
HETATM    9 CL9  UNL     1     -34.327  14.961  -7.036  1.00 20.00    -0.129 Cl
ENDBRANCH   2   8
TORSDOF 3
ENDMDL
MODEL 4
REMARK VINA RESULT:      -4.1      2.897      3.778
REMARK  3 active torsions:
REMARK  status: ('A' for Active; 'I' for Inactive)
REMARK    1  A    between atoms: C4_4  and  C6_6 
REMARK    2  A    between atoms: C4_4  and  C7_7 
REMARK    3  A    between atoms: C5_5  and  C6_6 
ROOT
HETATM    1  C1  UNL     1     -34.460  16.536  -1.278  1.00 20.00     0.065 C 
HETATM    2  C6  UNL     1     -34.068  16.112  -2.638  1.00 20.00     0.107 C 
HETATM    3  N8  UNL     1     -34.765  16.868  -0.209  1.00 20.00    -0.197 NA
ENDROOT
BRANCH   2   4
HETATM    4  C4  UNL     1     -35.093  15.128  -3.239  1.00 20.00     0.024 C 
BRANCH   4   5
HETATM    5  C7  UNL     1     -34.510  13.774  -3.705  1.00 20.00    -0.021 C 
HETATM    6  C2  UNL     1     -34.892  13.527  -5.168  1.00 20.00     0.009 C 
HETATM    7  C3  UNL     1     -32.990  13.707  -3.554  1.00 20.00     0.009 C 
ENDBRANCH   4   5
ENDBRANCH   2   4
BRANCH   2   8
HETATM    8  C5  UNL     1     -33.837  17.336  -3.542  1.00 20.00     0.133 C 
HETATM    9 CL9  UNL     1     -33.277  16.919  -5.184  1.00 20.00    -0.129 Cl
ENDBRANCH   2   8
TORSDOF 3
ENDMDL
MODEL 5
REMARK VINA RESULT:      -4.0      2.503      3.390
REMARK  3 active torsions:
REMARK  status: ('A' for Active; 'I' for Inactive)
REMARK    1  A    between atoms: C4_4  and  C6_6 
REMARK    2  A    between atoms: C4_4  and  C7_7 
REMARK    3  A    between atoms: C5_5  and  C6_6 
ROOT
HETATM    1  C1  UNL     1     -34.262  13.686  -3.776  1.00 20.00     0.065 C 
HETATM    2  C6  UNL     1     -35.577  14.338  -3.938  1.00 20.00     0.107 C 
HETATM    3  N8  UNL     1     -33.230  13.171  -3.647  1.00 20.00    -0.197 NA
ENDROOT
BRANCH   2   4
HETATM    4  C4  UNL     1     -35.719  15.559  -3.005  1.00 20.00     0.024 C 
BRANCH   4   5
HETATM    5  C7  UNL     1     -34.400  16.068  -2.381  1.00 20.00    -0.021 C 
HETATM    6  C2  UNL     1     -33.827  17.198  -3.241  1.00 20.00     0.009 C 
HETATM    7  C3  UNL     1     -34.582  16.561  -0.944  1.00 20.00     0.009 C 
ENDBRANCH   4   5
ENDBRANCH   2   4
BRANCH   2   8
HETATM    8  C5  UNL     1     -35.824  14.701  -5.412  1.00 20.00     0.133 C 
HETATM    9 CL9  UNL     1     -34.337  15.110  -6.309  1.00 20.00    -0.129 Cl
ENDBRANCH   2   8
TORSDOF 3
ENDMDL
MODEL 6
REMARK VINA RESULT:      -3.9      2.350      3.076
REMARK  3 active torsions:
REMARK  status: ('A' for Active; 'I' for Inactive)
REMARK    1  A    between atoms: C4_4  and  C6_6 
REMARK    2  A    between atoms: C4_4  and  C7_7 
REMARK    3  A    between atoms: C5_5  and  C6_6 
ROOT
HETATM    1  C1  UNL     1     -34.952  13.877  -3.824  1.00 20.00     0.065 C 
HETATM    2  C6  UNL     1     -35.100  15.233  -3.258  1.00 20.00     0.107 C 
HETATM    3  N8  UNL     1     -34.837  12.811  -4.267  1.00 20.00    -0.197 NA
ENDROOT
BRANCH   2   4
HETATM    4  C4  UNL     1     -33.728  15.901  -3.027  1.00 20.00     0.024 C 
BRANCH   4   5
HETATM    5  C7  UNL     1     -33.655  16.852  -1.810  1.00 20.00    -0.021 C 
HETATM    6  C2  UNL     1     -33.723  18.305  -2.290  1.00 20.00     0.009 C 
HETATM    7  C3  UNL     1     -34.772  16.595  -0.797  1.00 20.00     0.009 C 
ENDBRANCH   4   5
ENDBRANCH   2   4
BRANCH   2   8
HETATM    8  C5  UNL     1     -36.023  16.091  -4.140  1.00 20.00     0.133 C 
HETATM    9 CL9  UNL     1     -35.160  17.003  -5.407  1.00 20.00    -0.129 Cl
ENDBRANCH   2   8
TORSDOF 3
ENDMDL
MODEL 7
REMARK VINA RESULT:      -3.9      2.549      3.531
REMARK  3 active torsions:
REMARK  status: ('A' for Active; 'I' for Inactive)
REMARK    1  A    between atoms: C4_4  and  C6_6 
REMARK    2  A    between atoms: C4_4  and  C7_7 
REMARK    3  A    between atoms: C5_5  and  C6_6 
ROOT
HETATM    1  C1  UNL     1     -36.881  14.720  -3.786  1.00 20.00     0.065 C 
HETATM    2  C6  UNL     1     -35.486  15.204  -3.824  1.00 20.00     0.107 C 
HETATM    3  N8  UNL     1     -37.978  14.343  -3.758  1.00 20.00    -0.197 NA
ENDROOT
BRANCH   2   4
HETATM    4  C4  UNL     1     -34.926  15.420  -2.402  1.00 20.00     0.024 C 
BRANCH   4   5
HETATM    5  C7  UNL     1     -34.904  16.888  -1.920  1.00 20.00    -0.021 C 
HETATM    6  C2  UNL     1     -34.673  16.929  -0.406  1.00 20.00     0.009 C 
HETATM    7  C3  UNL     1     -33.831  17.722  -2.624  1.00 20.00     0.009 C 
ENDBRANCH   4   5
ENDBRANCH   2   4
BRANCH   2   8
HETATM    8  C5  UNL     1     -34.607  14.256  -4.658  1.00 20.00     0.133 C 
HETATM    9 CL9  UNL     1     -33.200  13.615  -3.768  1.00 20.00    -0.129 Cl
ENDBRANCH   2   8
TORSDOF 3
ENDMDL
MODEL 8
REMARK VINA RESULT:      -3.9      1.892      3.134
REMARK  3 active torsions:
REMARK  status: ('A' for Active; 'I' for Inactive)
REMARK    1  A    between atoms: C4_4  and  C6_6 
REMARK    2  A    between atoms: C4_4  and  C7_7 
REMARK    3  A    between atoms: C5_5  and  C6_6 
ROOT
HETATM    1  C1  UNL     1     -34.828  13.794  -4.365  1.00 20.00     0.065 C 
HETATM    2  C6  UNL     1     -34.795  15.250  -4.119  1.00 20.00     0.107 C 
HETATM    3  N8  UNL     1     -34.858  12.651  -4.558  1.00 20.00    -0.197 NA
ENDROOT
BRANCH   2   4
HETATM    4  C4  UNL     1     -33.920  15.595  -2.895  1.00 20.00     0.024 C 
BRANCH   4   5
HETATM    5  C7  UNL     1     -34.645  16.358  -1.762  1.00 20.00    -0.021 C 
HETATM    6  C2  UNL     1     -33.677  17.351  -1.110  1.00 20.00     0.009 C 
HETATM    7  C3  UNL     1     -35.886  17.103  -2.258  1.00 20.00     0.009 C 
ENDBRANCH   4   5
ENDBRANCH   2   4
BRANCH   2   8
HETATM    8  C5  UNL     1     -34.348  16.004  -5.383  1.00 20.00     0.133 C 
HETATM    9 CL9  UNL     1     -33.364  17.453  -5.045  1.00 20.00    -0.129 Cl
ENDBRANCH   2   8
TORSDOF 3
ENDMDL
MODEL 9
REMARK VINA RESULT:      -3.8      2.889      4.175
REMARK  3 active torsions:
REMARK  status: ('A' for Active; 'I' for Inactive)
REMARK    1  A    between atoms: C4_4  and  C6_6 
REMARK    2  A    between atoms: C4_4  and  C7_7 
REMARK    3  A    between atoms: C5_5  and  C6_6 
ROOT
HETATM    1  C1  UNL     1     -33.517  16.345  -4.084  1.00 20.00     0.065 C 
HETATM    2  C6  UNL     1     -34.110  15.618  -2.944  1.00 20.00     0.107 C 
HETATM    3  N8  UNL     1     -33.048  16.916  -4.978  1.00 20.00    -0.197 NA
ENDROOT
BRANCH   2   4
HETATM    4  C4  UNL     1     -34.902  16.567  -2.019  1.00 20.00     0.024 C 
BRANCH   4   5
HETATM    5  C7  UNL     1     -34.149  17.031  -0.752  1.00 20.00    -0.021 C 
HETATM    6  C2  UNL     1     -33.331  18.287  -1.071  1.00 20.00     0.009 C 
HETATM    7  C3  UNL     1     -35.090  17.317   0.419  1.00 20.00     0.009 C 
ENDBRANCH   4   5
ENDBRANCH   2   4
BRANCH   2   8
HETATM    8  C5  UNL     1     -34.967  14.440  -3.439  1.00 20.00     0.133 C 
HETATM    9 CL9  UNL     1     -34.099  13.334  -4.537  1.00 20.00    -0.129 Cl
ENDBRANCH   2   8
TORSDOF 3
ENDMDL
