MODEL 1
REMARK VINA RESULT:      -4.2      0.000      0.000
REMARK  3 active torsions:
REMARK  status: ('A' for Active; 'I' for Inactive)
REMARK    1  A    between atoms: C6_6  and  N10_10 
REMARK    2  A    between atoms: C7_7  and  C8_8 
REMARK    3  A    between atoms: C8_8  and  N10_10 
ROOT
HETATM    1  C1  UNL     1     -33.265  18.120  -0.817  1.00 20.00     0.013 C 
HETATM    2  C2  UNL     1     -33.933  17.207  -1.219  1.00 20.00    -0.087 C 
HETATM    3  C6  UNL     1     -34.750  16.092  -1.704  1.00 20.00     0.364 C 
ENDROOT
BRANCH   3   4
HETATM    4  N10 UNL     1     -34.727  16.032  -3.171  1.00 20.00     0.100 N 
HETATM    5  C5  UNL     1     -35.338  17.244  -3.728  1.00 20.00     0.311 C 
BRANCH   4   6
HETATM    6  C8  UNL     1     -33.380  15.856  -3.663  1.00 20.00     0.232 C 
HETATM    7  C4  UNL     1     -33.264  16.424  -5.074  1.00 20.00     0.044 C 
BRANCH   6   8
HETATM    8  C7  UNL     1     -32.975  14.377  -3.636  1.00 20.00     0.159 C 
HETATM    9  C3  UNL     1     -34.035  13.508  -4.174  1.00 20.00     0.061 C 
HETATM   10  N9  UNL     1     -34.869  12.823  -4.599  1.00 20.00    -0.197 NA
ENDBRANCH   6   8
ENDBRANCH   4   6
ENDBRANCH   3   4
TORSDOF 3
ENDMDL
MODEL 2
REMARK VINA RESULT:      -4.2      1.737      2.269
REMARK  3 active torsions:
REMARK  status: ('A' for Active; 'I' for Inactive)
REMARK    1  A    between atoms: C6_6  and  N10_10 
REMARK    2  A    between atoms: C7_7  and  C8_8 
REMARK    3  A    between atoms: C8_8  and  N10_10 
ROOT
HETATM    1  C1  UNL     1     -34.670  16.601  -1.114  1.00 20.00     0.013 C 
HETATM    2  C2  UNL     1     -34.072  16.219  -2.084  1.00 20.00    -0.087 C 
HETATM    3  C6  UNL     1     -33.340  15.751  -3.262  1.00 20.00     0.364 C 
ENDROOT
BRANCH   3   4
HETATM    4  N10 UNL     1     -34.192  15.800  -4.457  1.00 20.00     0.100 N 
HETATM    5  C5  UNL     1     -33.727  16.862  -5.357  1.00 20.00     0.311 C 
BRANCH   4   6
HETATM    6  C8  UNL     1     -34.218  14.522  -5.131  1.00 20.00     0.232 C 
HETATM    7  C4  UNL     1     -34.755  14.693  -6.548  1.00 20.00     0.044 C 
BRANCH   6   8
HETATM    8  C7  UNL     1     -35.059  13.507  -4.348  1.00 20.00     0.159 C 
HETATM    9  C3  UNL     1     -36.409  14.018  -4.060  1.00 20.00     0.061 C 
HETATM   10  N9  UNL     1     -37.473  14.419  -3.833  1.00 20.00    -0.197 NA
ENDBRANCH   6   8
ENDBRANCH   4   6
ENDBRANCH   3   4
TORSDOF 3
ENDMDL
MODEL 3
REMARK VINA RESULT:      -4.0      1.418      1.812
REMARK  3 active torsions:
REMARK  status: ('A' for Active; 'I' for Inactive)
REMARK    1  A    between atoms: C6_6  and  N10_10 
REMARK    2  A    between atoms: C7_7  and  C8_8 
REMARK    3  A    between atoms: C8_8  and  N10_10 
ROOT
HETATM    1  C1  UNL     1     -35.180  17.549   0.674  1.00 20.00     0.013 C 
HETATM    2  C2  UNL     1     -34.759  17.057  -0.338  1.00 20.00    -0.087 C 
HETATM    3  C6  UNL     1     -34.243  16.454  -1.568  1.00 20.00     0.364 C 
ENDROOT
BRANCH   3   4
HETATM    4  N10 UNL     1     -35.022  16.896  -2.730  1.00 20.00     0.100 N 
HETATM    5  C5  UNL     1     -34.310  17.975  -3.425  1.00 20.00     0.311 C 
BRANCH   4   6
HETATM    6  C8  UNL     1     -35.295  15.794  -3.624  1.00 20.00     0.232 C 
HETATM    7  C4  UNL     1     -36.725  15.303  -3.422  1.00 20.00     0.044 C 
BRANCH   6   8
HETATM    8  C7  UNL     1     -34.292  14.654  -3.411  1.00 20.00     0.159 C 
HETATM    9  C3  UNL     1     -34.604  13.485  -4.250  1.00 20.00     0.061 C 
HETATM   10  N9  UNL     1     -34.847  12.563  -4.911  1.00 20.00    -0.197 NA
ENDBRANCH   6   8
ENDBRANCH   4   6
ENDBRANCH   3   4
TORSDOF 3
ENDMDL
MODEL 4
REMARK VINA RESULT:      -4.0      2.028      2.885
REMARK  3 active torsions:
REMARK  status: ('A' for Active; 'I' for Inactive)
REMARK    1  A    between atoms: C6_6  and  N10_10 
REMARK    2  A    between atoms: C7_7  and  C8_8 
REMARK    3  A    between atoms: C8_8  and  N10_10 
ROOT
HETATM    1  C1  UNL     1     -34.468  16.665  -0.896  1.00 20.00     0.013 C 
HETATM    2  C2  UNL     1     -34.250  16.758  -2.073  1.00 20.00    -0.087 C 
HETATM    3  C6  UNL     1     -33.985  16.876  -3.508  1.00 20.00     0.364 C 
ENDROOT
BRANCH   3   4
HETATM    4  N10 UNL     1     -33.850  15.549  -4.122  1.00 20.00     0.100 N 
HETATM    5  C5  UNL     1     -32.649  14.882  -3.606  1.00 20.00     0.311 C 
BRANCH   4   6
HETATM    6  C8  UNL     1     -35.030  14.747  -3.893  1.00 20.00     0.232 C 
HETATM    7  C4  UNL     1     -34.768  13.305  -4.317  1.00 20.00     0.044 C 
BRANCH   6   8
HETATM    8  C7  UNL     1     -36.238  15.323  -4.640  1.00 20.00     0.159 C 
HETATM    9  C3  UNL     1     -37.510  14.802  -4.112  1.00 20.00     0.061 C 
HETATM   10  N9  UNL     1     -38.512  14.393  -3.696  1.00 20.00    -0.197 NA
ENDBRANCH   6   8
ENDBRANCH   4   6
ENDBRANCH   3   4
TORSDOF 3
ENDMDL
MODEL 5
REMARK VINA RESULT:      -3.9     11.530     12.585
REMARK  3 active torsions:
REMARK  status: ('A' for Active; 'I' for Inactive)
REMARK    1  A    between atoms: C6_6  and  N10_10 
REMARK    2  A    between atoms: C7_7  and  C8_8 
REMARK    3  A    between atoms: C8_8  and  N10_10 
ROOT
HETATM    1  C1  UNL     1     -33.229   7.714   7.079  1.00 20.00     0.013 C 
HETATM    2  C2  UNL     1     -33.874   6.754   6.755  1.00 20.00    -0.087 C 
HETATM    3  C6  UNL     1     -34.664   5.585   6.364  1.00 20.00     0.364 C 
ENDROOT
BRANCH   3   4
HETATM    4  N10 UNL     1     -34.149   5.003   5.119  1.00 20.00     0.100 N 
HETATM    5  C5  UNL     1     -35.009   3.891   4.697  1.00 20.00     0.311 C 
BRANCH   4   6
HETATM    6  C8  UNL     1     -34.046   6.003   4.080  1.00 20.00     0.232 C 
HETATM    7  C4  UNL     1     -35.129   5.775   3.030  1.00 20.00     0.044 C 
BRANCH   6   8
HETATM    8  C7  UNL     1     -32.654   5.987   3.439  1.00 20.00     0.159 C 
HETATM    9  C3  UNL     1     -32.362   7.241   2.728  1.00 20.00     0.061 C 
HETATM   10  N9  UNL     1     -32.131   8.230   2.167  1.00 20.00    -0.197 NA
ENDBRANCH   6   8
ENDBRANCH   4   6
ENDBRANCH   3   4
TORSDOF 3
ENDMDL
MODEL 6
REMARK VINA RESULT:      -3.9      1.715      2.216
REMARK  3 active torsions:
REMARK  status: ('A' for Active; 'I' for Inactive)
REMARK    1  A    between atoms: C6_6  and  N10_10 
REMARK    2  A    between atoms: C7_7  and  C8_8 
REMARK    3  A    between atoms: C8_8  and  N10_10 
ROOT
HETATM    1  C1  UNL     1     -34.794  17.051  -0.106  1.00 20.00     0.013 C 
HETATM    2  C2  UNL     1     -34.460  16.660  -1.191  1.00 20.00    -0.087 C 
HETATM    3  C6  UNL     1     -34.049  16.186  -2.514  1.00 20.00     0.364 C 
ENDROOT
BRANCH   3   4
HETATM    4  N10 UNL     1     -35.060  15.286  -3.081  1.00 20.00     0.100 N 
HETATM    5  C5  UNL     1     -36.263  16.048  -3.435  1.00 20.00     0.311 C 
BRANCH   4   6
HETATM    6  C8  UNL     1     -34.540  14.574  -4.227  1.00 20.00     0.232 C 
HETATM    7  C4  UNL     1     -33.395  13.663  -3.797  1.00 20.00     0.044 C 
BRANCH   6   8
HETATM    8  C7  UNL     1     -34.080  15.551  -5.315  1.00 20.00     0.159 C 
HETATM    9  C3  UNL     1     -34.470  15.098  -6.660  1.00 20.00     0.061 C 
HETATM   10  N9  UNL     1     -34.778  14.742  -7.721  1.00 20.00    -0.197 NA
ENDBRANCH   6   8
ENDBRANCH   4   6
ENDBRANCH   3   4
TORSDOF 3
ENDMDL
MODEL 7
REMARK VINA RESULT:      -3.9     10.732     11.970
REMARK  3 active torsions:
REMARK  status: ('A' for Active; 'I' for Inactive)
REMARK    1  A    between atoms: C6_6  and  N10_10 
REMARK    2  A    between atoms: C7_7  and  C8_8 
REMARK    3  A    between atoms: C8_8  and  N10_10 
ROOT
HETATM    1  C1  UNL     1     -32.156   9.204   0.780  1.00 20.00     0.013 C 
HETATM    2  C2  UNL     1     -32.139   8.573   1.802  1.00 20.00    -0.087 C 
HETATM    3  C6  UNL     1     -32.117   7.807   3.050  1.00 20.00     0.364 C 
ENDROOT
BRANCH   3   4
HETATM    4  N10 UNL     1     -32.940   6.598   2.932  1.00 20.00     0.100 N 
HETATM    5  C5  UNL     1     -32.099   5.406   3.089  1.00 20.00     0.311 C 
BRANCH   4   6
HETATM    6  C8  UNL     1     -34.017   6.605   3.896  1.00 20.00     0.232 C 
HETATM    7  C4  UNL     1     -33.447   6.658   5.311  1.00 20.00     0.044 C 
BRANCH   6   8
HETATM    8  C7  UNL     1     -34.920   5.379   3.718  1.00 20.00     0.159 C 
HETATM    9  C3  UNL     1     -35.070   4.621   4.971  1.00 20.00     0.061 C 
HETATM   10  N9  UNL     1     -35.190   4.023   5.958  1.00 20.00    -0.197 NA
ENDBRANCH   6   8
ENDBRANCH   4   6
ENDBRANCH   3   4
TORSDOF 3
ENDMDL
MODEL 8
REMARK VINA RESULT:      -3.8     11.636     12.904
REMARK  3 active torsions:
REMARK  status: ('A' for Active; 'I' for Inactive)
REMARK    1  A    between atoms: C6_6  and  N10_10 
REMARK    2  A    between atoms: C7_7  and  C8_8 
REMARK    3  A    between atoms: C8_8  and  N10_10 
ROOT
HETATM    1  C1  UNL     1     -32.127   8.139   2.232  1.00 20.00     0.013 C 
HETATM    2  C2  UNL     1     -32.429   7.097   2.748  1.00 20.00    -0.087 C 
HETATM    3  C6  UNL     1     -32.793   5.825   3.376  1.00 20.00     0.364 C 
ENDROOT
BRANCH   3   4
HETATM    4  N10 UNL     1     -34.077   5.941   4.078  1.00 20.00     0.100 N 
HETATM    5  C5  UNL     1     -35.180   5.731   3.134  1.00 20.00     0.311 C 
BRANCH   4   6
HETATM    6  C8  UNL     1     -34.153   5.010   5.181  1.00 20.00     0.232 C 
HETATM    7  C4  UNL     1     -35.083   3.854   4.822  1.00 20.00     0.044 C 
BRANCH   6   8
HETATM    8  C7  UNL     1     -34.624   5.712   6.460  1.00 20.00     0.159 C 
HETATM    9  C3  UNL     1     -33.768   6.858   6.804  1.00 20.00     0.061 C 
HETATM   10  N9  UNL     1     -33.093   7.762   7.076  1.00 20.00    -0.197 NA
ENDBRANCH   6   8
ENDBRANCH   4   6
ENDBRANCH   3   4
TORSDOF 3
ENDMDL
MODEL 9
REMARK VINA RESULT:      -3.8      1.516      3.368
REMARK  3 active torsions:
REMARK  status: ('A' for Active; 'I' for Inactive)
REMARK    1  A    between atoms: C6_6  and  N10_10 
REMARK    2  A    between atoms: C7_7  and  C8_8 
REMARK    3  A    between atoms: C8_8  and  N10_10 
ROOT
HETATM    1  C1  UNL     1     -34.479  15.267  -7.277  1.00 20.00     0.013 C 
HETATM    2  C2  UNL     1     -34.680  16.079  -6.415  1.00 20.00    -0.087 C 
HETATM    3  C6  UNL     1     -34.929  17.070  -5.367  1.00 20.00     0.364 C 
ENDROOT
BRANCH   3   4
HETATM    4  N10 UNL     1     -33.934  16.952  -4.294  1.00 20.00     0.100 N 
HETATM    5  C5  UNL     1     -33.730  18.260  -3.659  1.00 20.00     0.311 C 
BRANCH   4   6
HETATM    6  C8  UNL     1     -34.332  15.960  -3.321  1.00 20.00     0.232 C 
HETATM    7  C4  UNL     1     -34.191  16.527  -1.912  1.00 20.00     0.044 C 
BRANCH   6   8
HETATM    8  C7  UNL     1     -33.506  14.677  -3.477  1.00 20.00     0.159 C 
HETATM    9  C3  UNL     1     -34.315  13.564  -3.999  1.00 20.00     0.061 C 
HETATM   10  N9  UNL     1     -34.951  12.686  -4.412  1.00 20.00    -0.197 NA
ENDBRANCH   6   8
ENDBRANCH   4   6
ENDBRANCH   3   4
TORSDOF 3
ENDMDL
