MODEL 1
REMARK VINA RESULT:      -4.7      0.000      0.000
REMARK  2 active torsions:
REMARK  status: ('A' for Active; 'I' for Inactive)
REMARK    1  A    between atoms: C1_1  and  C3_3 
REMARK    2  A    between atoms: C3_3  and  C4_4 
ROOT
HETATM    1  C1  UNL     1     -34.910   4.756   5.005  1.00 20.00     0.162 C 
HETATM    2  C2  UNL     1     -34.470   5.246   6.168  1.00 20.00     0.301 C 
HETATM    3  F5  UNL     1     -35.076   3.416   4.907  1.00 20.00    -0.205 F 
HETATM    4  F6  UNL     1     -34.188   4.423   7.199  1.00 20.00    -0.170 F 
HETATM    5  F7  UNL     1     -34.310   6.578   6.314  1.00 20.00    -0.170 F 
ENDROOT
BRANCH   1   6
HETATM    6  C3  UNL     1     -35.247   5.592   3.806  1.00 20.00     0.086 C 
BRANCH   6   7
HETATM    7  C4  UNL     1     -34.175   5.459   2.725  1.00 20.00     0.086 C 
HETATM    8  I8  UNL     1     -32.480   6.680   3.194  1.00 20.00    -0.090 I 
ENDBRANCH   6   7
ENDBRANCH   1   6
TORSDOF 2
ENDMDL
MODEL 2
REMARK VINA RESULT:      -4.5      1.373      2.307
REMARK  2 active torsions:
REMARK  status: ('A' for Active; 'I' for Inactive)
REMARK    1  A    between atoms: C1_1  and  C3_3 
REMARK    2  A    between atoms: C3_3  and  C4_4 
ROOT
HETATM    1  C1  UNL     1     -34.121   5.798   4.858  1.00 20.00     0.162 C 
HETATM    2  C2  UNL     1     -34.887   4.784   5.273  1.00 20.00     0.301 C 
HETATM    3  F5  UNL     1     -33.762   6.732   5.770  1.00 20.00    -0.205 F 
HETATM    4  F6  UNL     1     -35.297   4.712   6.556  1.00 20.00    -0.170 F 
HETATM    5  F7  UNL     1     -35.250   3.822   4.400  1.00 20.00    -0.170 F 
ENDROOT
BRANCH   1   6
HETATM    6  C3  UNL     1     -33.619   5.962   3.454  1.00 20.00     0.086 C 
BRANCH   6   7
HETATM    7  C4  UNL     1     -32.229   6.598   3.439  1.00 20.00     0.086 C 
HETATM    8  I8  UNL     1     -32.171   8.243   2.071  1.00 20.00    -0.090 I 
ENDBRANCH   6   7
ENDBRANCH   1   6
TORSDOF 2
ENDMDL
MODEL 3
REMARK VINA RESULT:      -4.4      1.052      1.052
REMARK  2 active torsions:
REMARK  status: ('A' for Active; 'I' for Inactive)
REMARK    1  A    between atoms: C1_1  and  C3_3 
REMARK    2  A    between atoms: C3_3  and  C4_4 
ROOT
HETATM    1  C1  UNL     1     -34.783   5.101   4.719  1.00 20.00     0.162 C 
HETATM    2  C2  UNL     1     -34.823   5.219   6.049  1.00 20.00     0.301 C 
HETATM    3  F5  UNL     1     -35.211   3.937   4.175  1.00 20.00    -0.205 F 
HETATM    4  F6  UNL     1     -35.262   4.201   6.818  1.00 20.00    -0.170 F 
HETATM    5  F7  UNL     1     -34.424   6.371   6.629  1.00 20.00    -0.170 F 
ENDROOT
BRANCH   1   6
HETATM    6  C3  UNL     1     -34.311   6.177   3.786  1.00 20.00     0.086 C 
BRANCH   6   7
HETATM    7  C4  UNL     1     -32.799   6.100   3.581  1.00 20.00     0.086 C 
HETATM    8  I8  UNL     1     -32.094   7.826   2.529  1.00 20.00    -0.090 I 
ENDBRANCH   6   7
ENDBRANCH   1   6
TORSDOF 2
ENDMDL
MODEL 4
REMARK VINA RESULT:      -4.2      3.775      4.509
REMARK  2 active torsions:
REMARK  status: ('A' for Active; 'I' for Inactive)
REMARK    1  A    between atoms: C1_1  and  C3_3 
REMARK    2  A    between atoms: C3_3  and  C4_4 
ROOT
HETATM    1  C1  UNL     1     -32.564   6.872   2.956  1.00 20.00     0.162 C 
HETATM    2  C2  UNL     1     -32.270   7.963   2.242  1.00 20.00     0.301 C 
HETATM    3  F5  UNL     1     -31.842   5.751   2.719  1.00 20.00    -0.205 F 
HETATM    4  F6  UNL     1     -31.297   7.934   1.308  1.00 20.00    -0.170 F 
HETATM    5  F7  UNL     1     -32.952   9.107   2.461  1.00 20.00    -0.170 F 
ENDROOT
BRANCH   1   6
HETATM    6  C3  UNL     1     -33.626   6.810   4.013  1.00 20.00     0.086 C 
BRANCH   6   7
HETATM    7  C4  UNL     1     -34.507   5.574   3.833  1.00 20.00     0.086 C 
HETATM    8  I8  UNL     1     -34.822   4.596   5.711  1.00 20.00    -0.090 I 
ENDBRANCH   6   7
ENDBRANCH   1   6
TORSDOF 2
ENDMDL
MODEL 5
REMARK VINA RESULT:      -4.2      2.299      3.238
REMARK  2 active torsions:
REMARK  status: ('A' for Active; 'I' for Inactive)
REMARK    1  A    between atoms: C1_1  and  C3_3 
REMARK    2  A    between atoms: C3_3  and  C4_4 
ROOT
HETATM    1  C1  UNL     1     -33.527   6.057   3.966  1.00 20.00     0.162 C 
HETATM    2  C2  UNL     1     -34.613   5.460   3.466  1.00 20.00     0.301 C 
HETATM    3  F5  UNL     1     -33.582   6.496   5.246  1.00 20.00    -0.205 F 
HETATM    4  F6  UNL     1     -35.727   5.318   4.213  1.00 20.00    -0.170 F 
HETATM    5  F7  UNL     1     -34.593   4.991   2.200  1.00 20.00    -0.170 F 
ENDROOT
BRANCH   1   6
HETATM    6  C3  UNL     1     -32.246   6.260   3.212  1.00 20.00     0.086 C 
BRANCH   6   7
HETATM    7  C4  UNL     1     -31.763   7.705   3.330  1.00 20.00     0.086 C 
HETATM    8  I8  UNL     1     -32.080   8.755   1.491  1.00 20.00    -0.090 I 
ENDBRANCH   6   7
ENDBRANCH   1   6
TORSDOF 2
ENDMDL
MODEL 6
REMARK VINA RESULT:      -4.2      3.031      3.753
REMARK  2 active torsions:
REMARK  status: ('A' for Active; 'I' for Inactive)
REMARK    1  A    between atoms: C1_1  and  C3_3 
REMARK    2  A    between atoms: C3_3  and  C4_4 
ROOT
HETATM    1  C1  UNL     1     -33.573   6.497   3.438  1.00 20.00     0.162 C 
HETATM    2  C2  UNL     1     -32.237   6.516   3.401  1.00 20.00     0.301 C 
HETATM    3  F5  UNL     1     -34.210   7.639   3.789  1.00 20.00    -0.205 F 
HETATM    4  F6  UNL     1     -31.555   7.635   3.719  1.00 20.00    -0.170 F 
HETATM    5  F7  UNL     1     -31.564   5.404   3.037  1.00 20.00    -0.170 F 
ENDROOT
BRANCH   1   6
HETATM    6  C3  UNL     1     -34.414   5.301   3.102  1.00 20.00     0.086 C 
BRANCH   6   7
HETATM    7  C4  UNL     1     -35.524   5.105   4.134  1.00 20.00     0.086 C 
HETATM    8  I8  UNL     1     -34.694   4.693   6.063  1.00 20.00    -0.090 I 
ENDBRANCH   6   7
ENDBRANCH   1   6
TORSDOF 2
ENDMDL
MODEL 7
REMARK VINA RESULT:      -3.7      3.027      3.667
REMARK  2 active torsions:
REMARK  status: ('A' for Active; 'I' for Inactive)
REMARK    1  A    between atoms: C1_1  and  C3_3 
REMARK    2  A    between atoms: C3_3  and  C4_4 
ROOT
HETATM    1  C1  UNL     1     -33.607   6.044   3.370  1.00 20.00     0.162 C 
HETATM    2  C2  UNL     1     -32.299   6.136   3.108  1.00 20.00     0.301 C 
HETATM    3  F5  UNL     1     -34.328   5.137   2.670  1.00 20.00    -0.205 F 
HETATM    4  F6  UNL     1     -31.730   5.358   2.164  1.00 20.00    -0.170 F 
HETATM    5  F7  UNL     1     -31.541   7.014   3.796  1.00 20.00    -0.170 F 
ENDROOT
BRANCH   1   6
HETATM    6  C3  UNL     1     -34.325   6.867   4.397  1.00 20.00     0.086 C 
BRANCH   6   7
HETATM    7  C4  UNL     1     -34.101   6.308   5.802  1.00 20.00     0.086 C 
HETATM    8  I8  UNL     1     -34.824   4.298   5.935  1.00 20.00    -0.090 I 
ENDBRANCH   6   7
ENDBRANCH   1   6
TORSDOF 2
ENDMDL
MODEL 8
REMARK VINA RESULT:      -3.7     12.602     12.961
REMARK  2 active torsions:
REMARK  status: ('A' for Active; 'I' for Inactive)
REMARK    1  A    between atoms: C1_1  and  C3_3 
REMARK    2  A    between atoms: C3_3  and  C4_4 
ROOT
HETATM    1  C1  UNL     1     -34.135  14.575  -3.428  1.00 20.00     0.162 C 
HETATM    2  C2  UNL     1     -34.735  13.609  -4.131  1.00 20.00     0.301 C 
HETATM    3  F5  UNL     1     -32.787  14.668  -3.507  1.00 20.00    -0.205 F 
HETATM    4  F6  UNL     1     -34.011  12.751  -4.879  1.00 20.00    -0.170 F 
HETATM    5  F7  UNL     1     -36.079  13.494  -4.094  1.00 20.00    -0.170 F 
ENDROOT
BRANCH   1   6
HETATM    6  C3  UNL     1     -34.856  15.572  -2.570  1.00 20.00     0.086 C 
BRANCH   6   7
HETATM    7  C4  UNL     1     -33.890  16.619  -2.016  1.00 20.00     0.086 C 
HETATM    8  I8  UNL     1     -34.706  17.544  -0.268  1.00 20.00    -0.090 I 
ENDBRANCH   6   7
ENDBRANCH   1   6
TORSDOF 2
ENDMDL
MODEL 9
REMARK VINA RESULT:      -3.6     12.401     13.422
REMARK  2 active torsions:
REMARK  status: ('A' for Active; 'I' for Inactive)
REMARK    1  A    between atoms: C1_1  and  C3_3 
REMARK    2  A    between atoms: C3_3  and  C4_4 
ROOT
HETATM    1  C1  UNL     1     -34.267  15.014  -4.331  1.00 20.00     0.162 C 
HETATM    2  C2  UNL     1     -34.051  13.722  -4.066  1.00 20.00     0.301 C 
HETATM    3  F5  UNL     1     -35.509  15.376  -4.732  1.00 20.00    -0.205 F 
HETATM    4  F6  UNL     1     -35.038  12.814  -4.212  1.00 20.00    -0.170 F 
HETATM    5  F7  UNL     1     -32.833  13.323  -3.645  1.00 20.00    -0.170 F 
ENDROOT
BRANCH   1   6
HETATM    6  C3  UNL     1     -33.233  16.092  -4.198  1.00 20.00     0.086 C 
BRANCH   6   7
HETATM    7  C4  UNL     1     -33.810  17.323  -3.501  1.00 20.00     0.086 C 
HETATM    8  I8  UNL     1     -34.494  16.822  -1.535  1.00 20.00    -0.090 I 
ENDBRANCH   6   7
ENDBRANCH   1   6
TORSDOF 2
ENDMDL
