MODEL 1
REMARK VINA RESULT:      -4.6      0.000      0.000
REMARK  1 active torsions:
REMARK  status: ('A' for Active; 'I' for Inactive)
REMARK    1  A    between atoms: C2_2  and  C4_4 
ROOT
HETATM    1  C3  UNL     1     -35.069  14.508  -3.227  1.00 20.00     0.102 C 
HETATM    2  C4  UNL     1     -34.620  15.998  -3.214  1.00 20.00     0.035 C 
HETATM    3  C5  UNL     1     -34.504  14.391  -4.660  1.00 20.00     0.295 C 
HETATM    4  C6  UNL     1     -33.565  15.592  -4.322  1.00 20.00     0.254 C 
HETATM    5  C7  UNL     1     -35.732  16.968  -3.623  1.00 20.00     0.025 C 
HETATM    6  F8  UNL     1     -35.400  14.596  -5.652  1.00 20.00    -0.201 F 
HETATM    7  F9  UNL     1     -33.874  13.229  -4.943  1.00 20.00    -0.201 F 
HETATM    8  F10 UNL     1     -32.363  15.187  -3.826  1.00 20.00    -0.218 F 
HETATM    9 CL11 UNL     1     -33.252  16.746  -5.650  1.00 20.00    -0.075 Cl
ENDROOT
BRANCH   2  10
HETATM   10  C2  UNL     1     -34.000  16.409  -1.922  1.00 20.00    -0.023 C 
HETATM   11  C1  UNL     1     -34.695  16.683  -0.813  1.00 20.00     0.008 C 
ENDBRANCH   2  10
TORSDOF 1
ENDMDL
MODEL 2
REMARK VINA RESULT:      -4.5      2.072      3.526
REMARK  1 active torsions:
REMARK  status: ('A' for Active; 'I' for Inactive)
REMARK    1  A    between atoms: C2_2  and  C4_4 
ROOT
HETATM    1  C3  UNL     1     -35.179  16.758  -3.796  1.00 20.00     0.102 C 
HETATM    2  C4  UNL     1     -34.954  15.511  -4.699  1.00 20.00     0.035 C 
HETATM    3  C5  UNL     1     -34.181  16.155  -2.783  1.00 20.00     0.295 C 
HETATM    4  C6  UNL     1     -33.562  15.347  -3.967  1.00 20.00     0.254 C 
HETATM    5  C7  UNL     1     -35.998  14.411  -4.480  1.00 20.00     0.025 C 
HETATM    6  F8  UNL     1     -34.738  15.424  -1.790  1.00 20.00    -0.201 F 
HETATM    7  F9  UNL     1     -33.348  17.040  -2.190  1.00 20.00    -0.201 F 
HETATM    8  F10 UNL     1     -32.534  16.012  -4.566  1.00 20.00    -0.218 F 
HETATM    9 CL11 UNL     1     -33.000  13.695  -3.585  1.00 20.00    -0.075 Cl
ENDROOT
BRANCH   2  10
HETATM   10  C2  UNL     1     -34.832  15.852  -6.145  1.00 20.00    -0.023 C 
HETATM   11  C1  UNL     1     -34.471  14.979  -7.091  1.00 20.00     0.008 C 
ENDBRANCH   2  10
TORSDOF 1
ENDMDL
MODEL 3
REMARK VINA RESULT:      -4.5      1.994      2.703
REMARK  1 active torsions:
REMARK  status: ('A' for Active; 'I' for Inactive)
REMARK    1  A    between atoms: C2_2  and  C4_4 
ROOT
HETATM    1  C3  UNL     1     -33.208  15.911  -4.370  1.00 20.00     0.102 C 
HETATM    2  C4  UNL     1     -34.444  15.279  -3.667  1.00 20.00     0.035 C 
HETATM    3  C5  UNL     1     -34.038  15.995  -5.669  1.00 20.00     0.295 C 
HETATM    4  C6  UNL     1     -35.320  15.988  -4.778  1.00 20.00     0.254 C 
HETATM    5  C7  UNL     1     -34.418  13.748  -3.662  1.00 20.00     0.025 C 
HETATM    6  F8  UNL     1     -33.895  14.948  -6.515  1.00 20.00    -0.201 F 
HETATM    7  F9  UNL     1     -33.854  17.113  -6.406  1.00 20.00    -0.201 F 
HETATM    8  F10 UNL     1     -35.729  17.245  -4.449  1.00 20.00    -0.218 F 
HETATM    9 CL11 UNL     1     -36.729  15.104  -5.431  1.00 20.00    -0.075 Cl
ENDROOT
BRANCH   2  10
HETATM   10  C2  UNL     1     -34.672  15.815  -2.295  1.00 20.00    -0.023 C 
HETATM   11  C1  UNL     1     -33.910  16.751  -1.720  1.00 20.00     0.008 C 
ENDBRANCH   2  10
TORSDOF 1
ENDMDL
MODEL 4
REMARK VINA RESULT:      -4.5     12.328     13.478
REMARK  1 active torsions:
REMARK  status: ('A' for Active; 'I' for Inactive)
REMARK    1  A    between atoms: C2_2  and  C4_4 
ROOT
HETATM    1  C3  UNL     1     -40.813   4.737  -1.172  1.00 20.00     0.102 C 
HETATM    2  C4  UNL     1     -42.336   4.888  -1.455  1.00 20.00     0.035 C 
HETATM    3  C5  UNL     1     -40.847   6.114  -0.472  1.00 20.00     0.295 C 
HETATM    4  C6  UNL     1     -42.371   5.882  -0.224  1.00 20.00     0.254 C 
HETATM    5  C7  UNL     1     -42.637   5.472  -2.839  1.00 20.00     0.025 C 
HETATM    6  F8  UNL     1     -40.524   7.168  -1.255  1.00 20.00    -0.201 F 
HETATM    7  F9  UNL     1     -40.092   6.216   0.645  1.00 20.00    -0.201 F 
HETATM    8  F10 UNL     1     -42.617   5.279   0.972  1.00 20.00    -0.218 F 
HETATM    9 CL11 UNL     1     -43.417   7.327  -0.338  1.00 20.00    -0.075 Cl
ENDROOT
BRANCH   2  10
HETATM   10  C2  UNL     1     -43.100   3.629  -1.228  1.00 20.00    -0.023 C 
HETATM   11  C1  UNL     1     -43.170   2.627  -2.111  1.00 20.00     0.008 C 
ENDBRANCH   2  10
TORSDOF 1
ENDMDL
MODEL 5
REMARK VINA RESULT:      -4.4      2.103      3.719
REMARK  1 active torsions:
REMARK  status: ('A' for Active; 'I' for Inactive)
REMARK    1  A    between atoms: C2_2  and  C4_4 
ROOT
HETATM    1  C3  UNL     1     -33.124  16.191  -5.201  1.00 20.00     0.102 C 
HETATM    2  C4  UNL     1     -34.506  15.741  -5.755  1.00 20.00     0.035 C 
HETATM    3  C5  UNL     1     -33.485  15.516  -3.860  1.00 20.00     0.295 C 
HETATM    4  C6  UNL     1     -34.472  14.604  -4.655  1.00 20.00     0.254 C 
HETATM    5  C7  UNL     1     -35.590  16.816  -5.621  1.00 20.00     0.025 C 
HETATM    6  F8  UNL     1     -34.041  16.331  -2.934  1.00 20.00    -0.201 F 
HETATM    7  F9  UNL     1     -32.471  14.867  -3.244  1.00 20.00    -0.201 F 
HETATM    8  F10 UNL     1     -33.888  13.445  -5.069  1.00 20.00    -0.218 F 
HETATM    9 CL11 UNL     1     -35.999  14.185  -3.828  1.00 20.00    -0.075 Cl
ENDROOT
BRANCH   2  10
HETATM   10  C2  UNL     1     -34.436  15.224  -7.151  1.00 20.00    -0.023 C 
HETATM   11  C1  UNL     1     -35.403  14.506  -7.733  1.00 20.00     0.008 C 
ENDBRANCH   2  10
TORSDOF 1
ENDMDL
MODEL 6
REMARK VINA RESULT:      -4.4      1.964      3.111
REMARK  1 active torsions:
REMARK  status: ('A' for Active; 'I' for Inactive)
REMARK    1  A    between atoms: C2_2  and  C4_4 
ROOT
HETATM    1  C3  UNL     1     -34.337  14.556  -5.127  1.00 20.00     0.102 C 
HETATM    2  C4  UNL     1     -34.539  16.049  -4.741  1.00 20.00     0.035 C 
HETATM    3  C5  UNL     1     -33.768  14.308  -3.712  1.00 20.00     0.295 C 
HETATM    4  C6  UNL     1     -34.572  15.559  -3.237  1.00 20.00     0.254 C 
HETATM    5  C7  UNL     1     -33.371  16.946  -5.164  1.00 20.00     0.025 C 
HETATM    6  F8  UNL     1     -32.422  14.389  -3.609  1.00 20.00    -0.201 F 
HETATM    7  F9  UNL     1     -34.130  13.139  -3.137  1.00 20.00    -0.201 F 
HETATM    8  F10 UNL     1     -35.815  15.235  -2.783  1.00 20.00    -0.218 F 
HETATM    9 CL11 UNL     1     -33.782  16.580  -2.001  1.00 20.00    -0.075 Cl
ENDROOT
BRANCH   2  10
HETATM   10  C2  UNL     1     -35.838  16.604  -5.217  1.00 20.00    -0.023 C 
HETATM   11  C1  UNL     1     -36.724  15.917  -5.945  1.00 20.00     0.008 C 
ENDBRANCH   2  10
TORSDOF 1
ENDMDL
MODEL 7
REMARK VINA RESULT:      -4.4      1.918      3.020
REMARK  1 active torsions:
REMARK  status: ('A' for Active; 'I' for Inactive)
REMARK    1  A    between atoms: C2_2  and  C4_4 
ROOT
HETATM    1  C3  UNL     1     -35.338  16.308  -5.022  1.00 20.00     0.102 C 
HETATM    2  C4  UNL     1     -35.414  15.301  -3.839  1.00 20.00     0.035 C 
HETATM    3  C5  UNL     1     -33.955  15.721  -5.381  1.00 20.00     0.295 C 
HETATM    4  C6  UNL     1     -34.390  14.411  -4.653  1.00 20.00     0.254 C 
HETATM    5  C7  UNL     1     -34.931  15.892  -2.511  1.00 20.00     0.025 C 
HETATM    6  F8  UNL     1     -32.895  16.374  -4.851  1.00 20.00    -0.201 F 
HETATM    7  F9  UNL     1     -33.705  15.589  -6.704  1.00 20.00    -0.201 F 
HETATM    8  F10 UNL     1     -34.977  13.518  -5.499  1.00 20.00    -0.218 F 
HETATM    9 CL11 UNL     1     -33.113  13.552  -3.745  1.00 20.00    -0.075 Cl
ENDROOT
BRANCH   2  10
HETATM   10  C2  UNL     1     -36.760  14.678  -3.688  1.00 20.00    -0.023 C 
HETATM   11  C1  UNL     1     -37.824  15.007  -4.427  1.00 20.00     0.008 C 
ENDBRANCH   2  10
TORSDOF 1
ENDMDL
MODEL 8
REMARK VINA RESULT:      -4.4      2.087      2.640
REMARK  1 active torsions:
REMARK  status: ('A' for Active; 'I' for Inactive)
REMARK    1  A    between atoms: C2_2  and  C4_4 
ROOT
HETATM    1  C3  UNL     1     -33.681  14.515  -3.930  1.00 20.00     0.102 C 
HETATM    2  C4  UNL     1     -34.333  15.776  -4.565  1.00 20.00     0.035 C 
HETATM    3  C5  UNL     1     -34.713  13.649  -4.686  1.00 20.00     0.295 C 
HETATM    4  C6  UNL     1     -34.850  14.817  -5.713  1.00 20.00     0.254 C 
HETATM    5  C7  UNL     1     -35.388  16.428  -3.666  1.00 20.00     0.025 C 
HETATM    6  F8  UNL     1     -35.828  13.337  -3.986  1.00 20.00    -0.201 F 
HETATM    7  F9  UNL     1     -34.239  12.489  -5.194  1.00 20.00    -0.201 F 
HETATM    8  F10 UNL     1     -33.990  14.689  -6.762  1.00 20.00    -0.218 F 
HETATM    9 CL11 UNL     1     -36.486  15.099  -6.373  1.00 20.00    -0.075 Cl
ENDROOT
BRANCH   2  10
HETATM   10  C2  UNL     1     -33.333  16.779  -5.030  1.00 20.00    -0.023 C 
HETATM   11  C1  UNL     1     -33.649  17.901  -5.687  1.00 20.00     0.008 C 
ENDBRANCH   2  10
TORSDOF 1
ENDMDL
MODEL 9
REMARK VINA RESULT:      -4.4      2.347      3.384
REMARK  1 active torsions:
REMARK  status: ('A' for Active; 'I' for Inactive)
REMARK    1  A    between atoms: C2_2  and  C4_4 
ROOT
HETATM    1  C3  UNL     1     -34.898  16.062  -4.891  1.00 20.00     0.102 C 
HETATM    2  C4  UNL     1     -35.281  15.149  -3.691  1.00 20.00     0.035 C 
HETATM    3  C5  UNL     1     -34.447  17.138  -3.878  1.00 20.00     0.295 C 
HETATM    4  C6  UNL     1     -34.243  15.989  -2.841  1.00 20.00     0.254 C 
HETATM    5  C7  UNL     1     -36.758  15.254  -3.299  1.00 20.00     0.025 C 
HETATM    6  F8  UNL     1     -35.383  18.064  -3.564  1.00 20.00    -0.201 F 
HETATM    7  F9  UNL     1     -33.328  17.819  -4.211  1.00 20.00    -0.201 F 
HETATM    8  F10 UNL     1     -32.974  15.492  -2.861  1.00 20.00    -0.218 F 
HETATM    9 CL11 UNL     1     -34.657  16.373  -1.146  1.00 20.00    -0.075 Cl
ENDROOT
BRANCH   2  10
HETATM   10  C2  UNL     1     -34.880  13.727  -3.888  1.00 20.00    -0.023 C 
HETATM   11  C1  UNL     1     -34.591  13.189  -5.077  1.00 20.00     0.008 C 
ENDBRANCH   2  10
TORSDOF 1
ENDMDL
