MODEL 1
REMARK VINA RESULT:      -6.0      0.000      0.000
REMARK  0 active torsions:
REMARK  status: ('A' for Active; 'I' for Inactive)
ROOT
HETATM    1  C1  UNL     1     -33.903   6.765   5.734  1.00 20.00     0.059 C 
HETATM    2  C2  UNL     1     -34.366   5.830   6.579  1.00 20.00     0.059 C 
HETATM    3  C3  UNL     1     -33.830   6.222   4.344  1.00 20.00     0.332 C 
HETATM    4  C4  UNL     1     -34.652   4.560   5.846  1.00 20.00     0.332 C 
HETATM    5  C5  UNL     1     -34.822   5.079   4.433  1.00 20.00     0.379 C 
HETATM    6  F6  UNL     1     -34.169   7.094   3.374  1.00 20.00    -0.195 F 
HETATM    7  F7  UNL     1     -32.588   5.756   4.071  1.00 20.00    -0.195 F 
HETATM    8  F8  UNL     1     -33.601   3.710   5.920  1.00 20.00    -0.195 F 
HETATM    9  F9  UNL     1     -35.751   3.898   6.263  1.00 20.00    -0.195 F 
HETATM   10  F10 UNL     1     -34.636   4.139   3.495  1.00 20.00    -0.192 F 
HETATM   11  F11 UNL     1     -36.081   5.565   4.281  1.00 20.00    -0.192 F 
ENDROOT
TORSDOF 0
ENDMDL
MODEL 2
REMARK VINA RESULT:      -5.5      1.403      2.809
REMARK  0 active torsions:
REMARK  status: ('A' for Active; 'I' for Inactive)
ROOT
HETATM    1  C1  UNL     1     -34.857   4.151   4.886  1.00 20.00     0.059 C 
HETATM    2  C2  UNL     1     -34.366   4.655   6.028  1.00 20.00     0.059 C 
HETATM    3  C3  UNL     1     -34.902   5.204   3.827  1.00 20.00     0.332 C 
HETATM    4  C4  UNL     1     -34.031   6.101   5.859  1.00 20.00     0.332 C 
HETATM    5  C5  UNL     1     -33.871   6.181   4.355  1.00 20.00     0.379 C 
HETATM    6  F6  UNL     1     -34.588   4.779   2.587  1.00 20.00    -0.195 F 
HETATM    7  F7  UNL     1     -36.125   5.783   3.772  1.00 20.00    -0.195 F 
HETATM    8  F8  UNL     1     -35.052   6.888   6.274  1.00 20.00    -0.195 F 
HETATM    9  F9  UNL     1     -32.912   6.504   6.496  1.00 20.00    -0.195 F 
HETATM   10  F10 UNL     1     -34.018   7.423   3.870  1.00 20.00    -0.192 F 
HETATM   11  F11 UNL     1     -32.628   5.752   4.012  1.00 20.00    -0.192 F 
ENDROOT
TORSDOF 0
ENDMDL
MODEL 3
REMARK VINA RESULT:      -5.5      1.344      2.728
REMARK  0 active torsions:
REMARK  status: ('A' for Active; 'I' for Inactive)
ROOT
HETATM    1  C1  UNL     1     -33.238   6.299   4.360  1.00 20.00     0.059 C 
HETATM    2  C2  UNL     1     -33.885   5.354   3.661  1.00 20.00     0.059 C 
HETATM    3  C3  UNL     1     -33.864   6.474   5.706  1.00 20.00     0.332 C 
HETATM    4  C4  UNL     1     -35.016   4.795   4.461  1.00 20.00     0.332 C 
HETATM    5  C5  UNL     1     -34.568   5.141   5.867  1.00 20.00     0.379 C 
HETATM    6  F6  UNL     1     -32.997   6.698   6.713  1.00 20.00    -0.195 F 
HETATM    7  F7  UNL     1     -34.761   7.489   5.694  1.00 20.00    -0.195 F 
HETATM    8  F8  UNL     1     -36.179   5.421   4.163  1.00 20.00    -0.195 F 
HETATM    9  F9  UNL     1     -35.212   3.468   4.319  1.00 20.00    -0.195 F 
HETATM   10  F10 UNL     1     -35.574   5.174   6.753  1.00 20.00    -0.192 F 
HETATM   11  F11 UNL     1     -33.675   4.211   6.295  1.00 20.00    -0.192 F 
ENDROOT
TORSDOF 0
ENDMDL
MODEL 4
REMARK VINA RESULT:      -5.5      1.320      3.248
REMARK  0 active torsions:
REMARK  status: ('A' for Active; 'I' for Inactive)
ROOT
HETATM    1  C1  UNL     1     -35.278   4.736   4.412  1.00 20.00     0.059 C 
HETATM    2  C2  UNL     1     -34.667   5.380   3.406  1.00 20.00     0.059 C 
HETATM    3  C3  UNL     1     -34.604   5.038   5.711  1.00 20.00     0.332 C 
HETATM    4  C4  UNL     1     -33.516   6.182   3.921  1.00 20.00     0.332 C 
HETATM    5  C5  UNL     1     -33.912   6.343   5.375  1.00 20.00     0.379 C 
HETATM    6  F6  UNL     1     -35.434   5.177   6.765  1.00 20.00    -0.195 F 
HETATM    7  F7  UNL     1     -33.696   4.082   6.019  1.00 20.00    -0.195 F 
HETATM    8  F8  UNL     1     -32.357   5.490   3.816  1.00 20.00    -0.195 F 
HETATM    9  F9  UNL     1     -33.342   7.377   3.322  1.00 20.00    -0.195 F 
HETATM   10  F10 UNL     1     -32.875   6.619   6.181  1.00 20.00    -0.192 F 
HETATM   11  F11 UNL     1     -34.800   7.365   5.487  1.00 20.00    -0.192 F 
ENDROOT
TORSDOF 0
ENDMDL
MODEL 5
REMARK VINA RESULT:      -5.2      1.108      3.116
REMARK  0 active torsions:
REMARK  status: ('A' for Active; 'I' for Inactive)
ROOT
HETATM    1  C1  UNL     1     -34.719   5.398   5.978  1.00 20.00     0.059 C 
HETATM    2  C2  UNL     1     -33.920   6.461   5.803  1.00 20.00     0.059 C 
HETATM    3  C3  UNL     1     -35.066   4.783   4.661  1.00 20.00     0.332 C 
HETATM    4  C4  UNL     1     -33.646   6.675   4.350  1.00 20.00     0.332 C 
HETATM    5  C5  UNL     1     -33.926   5.291   3.801  1.00 20.00     0.379 C 
HETATM    6  F6  UNL     1     -35.123   3.436   4.658  1.00 20.00    -0.195 F 
HETATM    7  F7  UNL     1     -36.252   5.251   4.205  1.00 20.00    -0.195 F 
HETATM    8  F8  UNL     1     -34.503   7.581   3.823  1.00 20.00    -0.195 F 
HETATM    9  F9  UNL     1     -32.391   7.076   4.061  1.00 20.00    -0.195 F 
HETATM   10  F10 UNL     1     -34.204   5.285   2.489  1.00 20.00    -0.192 F 
HETATM   11  F11 UNL     1     -32.835   4.504   3.992  1.00 20.00    -0.192 F 
ENDROOT
TORSDOF 0
ENDMDL
MODEL 6
REMARK VINA RESULT:      -5.1     12.149     13.289
REMARK  0 active torsions:
REMARK  status: ('A' for Active; 'I' for Inactive)
ROOT
HETATM    1  C1  UNL     1     -35.045  15.936  -2.655  1.00 20.00     0.059 C 
HETATM    2  C2  UNL     1     -33.707  16.028  -2.607  1.00 20.00     0.059 C 
HETATM    3  C3  UNL     1     -35.470  15.110  -3.825  1.00 20.00     0.332 C 
HETATM    4  C4  UNL     1     -33.091  15.274  -3.740  1.00 20.00     0.332 C 
HETATM    5  C5  UNL     1     -34.209  14.310  -4.080  1.00 20.00     0.379 C 
HETATM    6  F6  UNL     1     -36.527  14.304  -3.599  1.00 20.00    -0.195 F 
HETATM    7  F7  UNL     1     -35.763  15.893  -4.890  1.00 20.00    -0.195 F 
HETATM    8  F8  UNL     1     -32.833  16.095  -4.786  1.00 20.00    -0.195 F 
HETATM    9  F9  UNL     1     -31.951  14.621  -3.436  1.00 20.00    -0.195 F 
HETATM   10  F10 UNL     1     -34.131  13.823  -5.328  1.00 20.00    -0.192 F 
HETATM   11  F11 UNL     1     -34.166  13.254  -3.226  1.00 20.00    -0.192 F 
ENDROOT
TORSDOF 0
ENDMDL
MODEL 7
REMARK VINA RESULT:      -4.9     12.064     13.416
REMARK  0 active torsions:
REMARK  status: ('A' for Active; 'I' for Inactive)
ROOT
HETATM    1  C1  UNL     1     -33.836  16.375  -2.822  1.00 20.00     0.059 C 
HETATM    2  C2  UNL     1     -34.845  15.562  -2.471  1.00 20.00     0.059 C 
HETATM    3  C3  UNL     1     -33.273  15.965  -4.145  1.00 20.00     0.332 C 
HETATM    4  C4  UNL     1     -35.066  14.520  -3.518  1.00 20.00     0.332 C 
HETATM    5  C5  UNL     1     -34.441  15.193  -4.724  1.00 20.00     0.379 C 
HETATM    6  F6  UNL     1     -32.910  16.985  -4.949  1.00 20.00    -0.195 F 
HETATM    7  F7  UNL     1     -32.199  15.157  -3.985  1.00 20.00    -0.195 F 
HETATM    8  F8  UNL     1     -34.406  13.378  -3.213  1.00 20.00    -0.195 F 
HETATM    9  F9  UNL     1     -36.358  14.205  -3.743  1.00 20.00    -0.195 F 
HETATM   10  F10 UNL     1     -34.085  14.331  -5.688  1.00 20.00    -0.192 F 
HETATM   11  F11 UNL     1     -35.334  16.065  -5.263  1.00 20.00    -0.192 F 
ENDROOT
TORSDOF 0
ENDMDL
MODEL 8
REMARK VINA RESULT:      -4.9      1.226      3.003
REMARK  0 active torsions:
REMARK  status: ('A' for Active; 'I' for Inactive)
ROOT
HETATM    1  C1  UNL     1     -33.958   6.472   5.752  1.00 20.00     0.059 C 
HETATM    2  C2  UNL     1     -34.146   6.650   4.436  1.00 20.00     0.059 C 
HETATM    3  C3  UNL     1     -34.487   5.142   6.180  1.00 20.00     0.332 C 
HETATM    4  C4  UNL     1     -34.823   5.459   3.839  1.00 20.00     0.332 C 
HETATM    5  C5  UNL     1     -34.478   4.395   4.862  1.00 20.00     0.379 C 
HETATM    6  F6  UNL     1     -33.746   4.507   7.111  1.00 20.00    -0.195 F 
HETATM    7  F7  UNL     1     -35.750   5.253   6.657  1.00 20.00    -0.195 F 
HETATM    8  F8  UNL     1     -36.163   5.643   3.774  1.00 20.00    -0.195 F 
HETATM    9  F9  UNL     1     -34.391   5.118   2.608  1.00 20.00    -0.195 F 
HETATM   10  F10 UNL     1     -35.312   3.345   4.838  1.00 20.00    -0.192 F 
HETATM   11  F11 UNL     1     -33.225   3.928   4.618  1.00 20.00    -0.192 F 
ENDROOT
TORSDOF 0
ENDMDL
MODEL 9
REMARK VINA RESULT:      -4.8      8.488      9.375
REMARK  0 active torsions:
REMARK  status: ('A' for Active; 'I' for Inactive)
ROOT
HETATM    1  C1  UNL     1     -42.610   6.715  -0.423  1.00 20.00     0.059 C 
HETATM    2  C2  UNL     1     -43.307   5.597  -0.171  1.00 20.00     0.059 C 
HETATM    3  C3  UNL     1     -41.195   6.382  -0.768  1.00 20.00     0.332 C 
HETATM    4  C4  UNL     1     -42.435   4.393  -0.317  1.00 20.00     0.332 C 
HETATM    5  C5  UNL     1     -41.344   4.941  -1.215  1.00 20.00     0.379 C 
HETATM    6  F6  UNL     1     -40.650   7.144  -1.738  1.00 20.00    -0.195 F 
HETATM    7  F7  UNL     1     -40.398   6.463   0.323  1.00 20.00    -0.195 F 
HETATM    8  F8  UNL     1     -41.925   4.014   0.878  1.00 20.00    -0.195 F 
HETATM    9  F9  UNL     1     -43.035   3.320  -0.871  1.00 20.00    -0.195 F 
HETATM   10  F10 UNL     1     -40.201   4.243  -1.150  1.00 20.00    -0.192 F 
HETATM   11  F11 UNL     1     -41.768   4.912  -2.506  1.00 20.00    -0.192 F 
ENDROOT
TORSDOF 0
ENDMDL
