MODEL 1
REMARK VINA RESULT:      -4.2      0.000      0.000
REMARK  0 active torsions:
REMARK  status: ('A' for Active; 'I' for Inactive)
ROOT
HETATM    1  C1  UNL     1     -33.389   6.062   3.694  1.00 20.00     0.219 C 
HETATM    2  C2  UNL     1     -34.110   5.830   4.799  1.00 20.00     0.153 C 
HETATM    3  F3  UNL     1     -33.687   5.391   2.558  1.00 20.00    -0.190 F 
HETATM    4 CL4  UNL     1     -32.079   7.186   3.629  1.00 20.00    -0.049 Cl
HETATM    5 CL5  UNL     1     -33.749   6.675   6.268  1.00 20.00    -0.067 Cl
HETATM    6 CL6  UNL     1     -35.422   4.704   4.860  1.00 20.00    -0.067 Cl
ENDROOT
TORSDOF 0
ENDMDL
MODEL 2
REMARK VINA RESULT:      -4.1      2.089      2.797
REMARK  0 active torsions:
REMARK  status: ('A' for Active; 'I' for Inactive)
ROOT
HETATM    1  C1  UNL     1     -34.198   6.210   6.140  1.00 20.00     0.219 C 
HETATM    2  C2  UNL     1     -34.112   5.838   4.855  1.00 20.00     0.153 C 
HETATM    3  F3  UNL     1     -35.134   5.636   6.932  1.00 20.00    -0.190 F 
HETATM    4 CL4  UNL     1     -33.171   7.396   6.861  1.00 20.00    -0.049 Cl
HETATM    5 CL5  UNL     1     -32.922   6.557   3.820  1.00 20.00    -0.067 Cl
HETATM    6 CL6  UNL     1     -35.142   4.649   4.136  1.00 20.00    -0.067 Cl
ENDROOT
TORSDOF 0
ENDMDL
MODEL 3
REMARK VINA RESULT:      -4.0      1.984      3.449
REMARK  0 active torsions:
REMARK  status: ('A' for Active; 'I' for Inactive)
ROOT
HETATM    1  C1  UNL     1     -33.914   6.076   5.431  1.00 20.00     0.219 C 
HETATM    2  C2  UNL     1     -33.595   6.140   4.131  1.00 20.00     0.153 C 
HETATM    3  F3  UNL     1     -33.240   6.848   6.315  1.00 20.00    -0.190 F 
HETATM    4 CL4  UNL     1     -35.154   5.051   6.060  1.00 20.00    -0.049 Cl
HETATM    5 CL5  UNL     1     -34.442   5.162   2.978  1.00 20.00    -0.067 Cl
HETATM    6 CL6  UNL     1     -32.354   7.169   3.505  1.00 20.00    -0.067 Cl
ENDROOT
TORSDOF 0
ENDMDL
MODEL 4
REMARK VINA RESULT:      -4.0      1.618      2.338
REMARK  0 active torsions:
REMARK  status: ('A' for Active; 'I' for Inactive)
ROOT
HETATM    1  C1  UNL     1     -33.729   6.113   3.956  1.00 20.00     0.219 C 
HETATM    2  C2  UNL     1     -34.159   5.879   5.203  1.00 20.00     0.153 C 
HETATM    3  F3  UNL     1     -32.890   7.151   3.731  1.00 20.00    -0.190 F 
HETATM    4 CL4  UNL     1     -34.186   5.156   2.593  1.00 20.00    -0.049 Cl
HETATM    5 CL5  UNL     1     -35.233   4.556   5.519  1.00 20.00    -0.067 Cl
HETATM    6 CL6  UNL     1     -33.698   6.839   6.566  1.00 20.00    -0.067 Cl
ENDROOT
TORSDOF 0
ENDMDL
MODEL 5
REMARK VINA RESULT:      -4.0      0.595      2.591
REMARK  0 active torsions:
REMARK  status: ('A' for Active; 'I' for Inactive)
ROOT
HETATM    1  C1  UNL     1     -34.286   5.502   3.704  1.00 20.00     0.219 C 
HETATM    2  C2  UNL     1     -33.414   6.330   4.297  1.00 20.00     0.153 C 
HETATM    3  F3  UNL     1     -34.129   5.208   2.393  1.00 20.00    -0.190 F 
HETATM    4 CL4  UNL     1     -35.619   4.774   4.524  1.00 20.00    -0.049 Cl
HETATM    5 CL5  UNL     1     -33.592   6.723   5.976  1.00 20.00    -0.067 Cl
HETATM    6 CL6  UNL     1     -32.079   7.057   3.473  1.00 20.00    -0.067 Cl
ENDROOT
TORSDOF 0
ENDMDL
MODEL 6
REMARK VINA RESULT:      -3.9      2.212      3.403
REMARK  0 active torsions:
REMARK  status: ('A' for Active; 'I' for Inactive)
ROOT
HETATM    1  C1  UNL     1     -34.750   5.237   5.714  1.00 20.00     0.219 C 
HETATM    2  C2  UNL     1     -33.864   6.227   5.531  1.00 20.00     0.153 C 
HETATM    3  F3  UNL     1     -35.319   5.078   6.931  1.00 20.00    -0.190 F 
HETATM    4 CL4  UNL     1     -35.219   4.135   4.471  1.00 20.00    -0.049 Cl
HETATM    5 CL5  UNL     1     -33.120   6.453   3.982  1.00 20.00    -0.067 Cl
HETATM    6 CL6  UNL     1     -33.397   7.330   6.779  1.00 20.00    -0.067 Cl
ENDROOT
TORSDOF 0
ENDMDL
MODEL 7
REMARK VINA RESULT:      -3.9      1.731      2.520
REMARK  0 active torsions:
REMARK  status: ('A' for Active; 'I' for Inactive)
ROOT
HETATM    1  C1  UNL     1     -34.654   5.487   3.989  1.00 20.00     0.219 C 
HETATM    2  C2  UNL     1     -33.778   6.224   4.686  1.00 20.00     0.153 C 
HETATM    3  F3  UNL     1     -35.748   4.994   4.614  1.00 20.00    -0.190 F 
HETATM    4 CL4  UNL     1     -34.470   5.122   2.311  1.00 20.00    -0.049 Cl
HETATM    5 CL5  UNL     1     -32.369   6.867   3.910  1.00 20.00    -0.067 Cl
HETATM    6 CL6  UNL     1     -33.966   6.588   6.367  1.00 20.00    -0.067 Cl
ENDROOT
TORSDOF 0
ENDMDL
MODEL 8
REMARK VINA RESULT:      -3.6      1.749      2.469
REMARK  0 active torsions:
REMARK  status: ('A' for Active; 'I' for Inactive)
ROOT
HETATM    1  C1  UNL     1     -33.628   6.385   4.791  1.00 20.00     0.219 C 
HETATM    2  C2  UNL     1     -34.329   5.442   4.147  1.00 20.00     0.153 C 
HETATM    3  F3  UNL     1     -32.749   7.144   4.097  1.00 20.00    -0.190 F 
HETATM    4 CL4  UNL     1     -33.780   6.698   6.483  1.00 20.00    -0.049 Cl
HETATM    5 CL5  UNL     1     -35.462   4.456   5.012  1.00 20.00    -0.067 Cl
HETATM    6 CL6  UNL     1     -34.175   5.132   2.452  1.00 20.00    -0.067 Cl
ENDROOT
TORSDOF 0
ENDMDL
MODEL 9
REMARK VINA RESULT:      -3.6      1.887      2.294
REMARK  0 active torsions:
REMARK  status: ('A' for Active; 'I' for Inactive)
ROOT
HETATM    1  C1  UNL     1     -33.263   6.482   4.513  1.00 20.00     0.219 C 
HETATM    2  C2  UNL     1     -34.204   5.591   4.173  1.00 20.00     0.153 C 
HETATM    3  F3  UNL     1     -33.140   6.850   5.809  1.00 20.00    -0.190 F 
HETATM    4 CL4  UNL     1     -32.177   7.201   3.379  1.00 20.00    -0.049 Cl
HETATM    5 CL5  UNL     1     -34.383   5.101   2.520  1.00 20.00    -0.067 Cl
HETATM    6 CL6  UNL     1     -35.290   4.871   5.311  1.00 20.00    -0.067 Cl
ENDROOT
TORSDOF 0
ENDMDL
