MODEL 1
REMARK VINA RESULT:      -3.7      0.000      0.000
REMARK  1 active torsions:
REMARK  status: ('A' for Active; 'I' for Inactive)
REMARK    1  A    between atoms: C2_2  and  C3_3 
ROOT
HETATM    1  C1  UNL     1     -34.847   3.851   5.058  1.00 20.00     0.071 C 
HETATM    2  C3  UNL     1     -34.796   5.245   4.450  1.00 20.00     0.187 C 
HETATM    3  F4  UNL     1     -36.066   5.619   4.126  1.00 20.00    -0.225 F 
HETATM    4 CL6  UNL     1     -34.189   6.394   5.683  1.00 20.00    -0.082 Cl
ENDROOT
BRANCH   2   5
HETATM    5  C2  UNL     1     -33.921   5.354   3.205  1.00 20.00     0.174 C 
HETATM    6 CL5  UNL     1     -32.507   6.410   3.467  1.00 20.00    -0.126 Cl
ENDBRANCH   2   5
TORSDOF 1
ENDMDL
MODEL 2
REMARK VINA RESULT:      -3.6      1.732      2.316
REMARK  1 active torsions:
REMARK  status: ('A' for Active; 'I' for Inactive)
REMARK    1  A    between atoms: C2_2  and  C3_3 
ROOT
HETATM    1  C1  UNL     1     -34.090   5.015   2.645  1.00 20.00     0.071 C 
HETATM    2  C3  UNL     1     -34.830   5.368   3.927  1.00 20.00     0.187 C 
HETATM    3  F4  UNL     1     -36.074   5.814   3.596  1.00 20.00    -0.225 F 
HETATM    4 CL6  UNL     1     -35.027   3.884   4.910  1.00 20.00    -0.082 Cl
ENDROOT
BRANCH   2   5
HETATM    5  C2  UNL     1     -34.140   6.430   4.777  1.00 20.00     0.174 C 
HETATM    6 CL5  UNL     1     -34.271   6.088   6.522  1.00 20.00    -0.126 Cl
ENDBRANCH   2   5
TORSDOF 1
ENDMDL
MODEL 3
REMARK VINA RESULT:      -3.5      1.710      2.618
REMARK  1 active torsions:
REMARK  status: ('A' for Active; 'I' for Inactive)
REMARK    1  A    between atoms: C2_2  and  C3_3 
ROOT
HETATM    1  C1  UNL     1     -33.669   6.514   5.771  1.00 20.00     0.071 C 
HETATM    2  C3  UNL     1     -34.030   6.215   4.322  1.00 20.00     0.187 C 
HETATM    3  F4  UNL     1     -34.767   7.256   3.841  1.00 20.00    -0.225 F 
HETATM    4 CL6  UNL     1     -32.524   6.122   3.357  1.00 20.00    -0.082 Cl
ENDROOT
BRANCH   2   5
HETATM    5  C2  UNL     1     -34.819   4.925   4.127  1.00 20.00     0.174 C 
HETATM    6 CL5  UNL     1     -34.794   3.893   5.581  1.00 20.00    -0.126 Cl
ENDBRANCH   2   5
TORSDOF 1
ENDMDL
MODEL 4
REMARK VINA RESULT:      -3.5      1.418      2.464
REMARK  1 active torsions:
REMARK  status: ('A' for Active; 'I' for Inactive)
REMARK    1  A    between atoms: C2_2  and  C3_3 
ROOT
HETATM    1  C1  UNL     1     -35.957   5.680   3.811  1.00 20.00     0.071 C 
HETATM    2  C3  UNL     1     -34.792   5.045   4.559  1.00 20.00     0.187 C 
HETATM    3  F4  UNL     1     -34.815   3.702   4.328  1.00 20.00    -0.225 F 
HETATM    4 CL6  UNL     1     -33.258   5.687   3.892  1.00 20.00    -0.082 Cl
ENDROOT
BRANCH   2   5
HETATM    5  C2  UNL     1     -34.811   5.284   6.065  1.00 20.00     0.174 C 
HETATM    6 CL5  UNL     1     -33.901   6.747   6.526  1.00 20.00    -0.126 Cl
ENDBRANCH   2   5
TORSDOF 1
ENDMDL
MODEL 5
REMARK VINA RESULT:      -3.4      1.786      2.217
REMARK  1 active torsions:
REMARK  status: ('A' for Active; 'I' for Inactive)
REMARK    1  A    between atoms: C2_2  and  C3_3 
ROOT
HETATM    1  C1  UNL     1     -34.999   4.124   5.030  1.00 20.00     0.071 C 
HETATM    2  C3  UNL     1     -34.713   5.262   4.059  1.00 20.00     0.187 C 
HETATM    3  F4  UNL     1     -34.092   4.744   2.962  1.00 20.00    -0.225 F 
HETATM    4 CL6  UNL     1     -36.269   5.968   3.521  1.00 20.00    -0.082 Cl
ENDROOT
BRANCH   2   5
HETATM    5  C2  UNL     1     -33.844   6.373   4.637  1.00 20.00     0.174 C 
HETATM    6 CL5  UNL     1     -34.022   6.519   6.405  1.00 20.00    -0.126 Cl
ENDBRANCH   2   5
TORSDOF 1
ENDMDL
MODEL 6
REMARK VINA RESULT:      -3.3      1.682      1.771
REMARK  1 active torsions:
REMARK  status: ('A' for Active; 'I' for Inactive)
REMARK    1  A    between atoms: C2_2  and  C3_3 
ROOT
HETATM    1  C1  UNL     1     -33.838   3.853   6.084  1.00 20.00     0.071 C 
HETATM    2  C3  UNL     1     -34.801   5.014   5.883  1.00 20.00     0.187 C 
HETATM    3  F4  UNL     1     -35.852   4.853   6.736  1.00 20.00    -0.225 F 
HETATM    4 CL6  UNL     1     -33.971   6.539   6.325  1.00 20.00    -0.082 Cl
ENDROOT
BRANCH   2   5
HETATM    5  C2  UNL     1     -35.340   5.143   4.462  1.00 20.00     0.174 C 
HETATM    6 CL5  UNL     1     -34.080   5.655   3.309  1.00 20.00    -0.126 Cl
ENDBRANCH   2   5
TORSDOF 1
ENDMDL
MODEL 7
REMARK VINA RESULT:      -3.3      1.954      2.005
REMARK  1 active torsions:
REMARK  status: ('A' for Active; 'I' for Inactive)
REMARK    1  A    between atoms: C2_2  and  C3_3 
ROOT
HETATM    1  C1  UNL     1     -34.668   5.691   6.392  1.00 20.00     0.071 C 
HETATM    2  C3  UNL     1     -34.259   5.489   4.940  1.00 20.00     0.187 C 
HETATM    3  F4  UNL     1     -33.614   4.292   4.839  1.00 20.00    -0.225 F 
HETATM    4 CL6  UNL     1     -35.735   5.400   3.929  1.00 20.00    -0.082 Cl
ENDROOT
BRANCH   2   5
HETATM    5  C2  UNL     1     -33.351   6.583   4.387  1.00 20.00     0.174 C 
HETATM    6 CL5  UNL     1     -32.329   5.997   3.048  1.00 20.00    -0.126 Cl
ENDBRANCH   2   5
TORSDOF 1
ENDMDL
MODEL 8
REMARK VINA RESULT:      -3.2      2.448      3.204
REMARK  1 active torsions:
REMARK  status: ('A' for Active; 'I' for Inactive)
REMARK    1  A    between atoms: C2_2  and  C3_3 
ROOT
HETATM    1  C1  UNL     1     -32.445   7.559   2.658  1.00 20.00     0.071 C 
HETATM    2  C3  UNL     1     -32.821   6.294   3.416  1.00 20.00     0.187 C 
HETATM    3  F4  UNL     1     -31.742   5.461   3.423  1.00 20.00    -0.225 F 
HETATM    4 CL6  UNL     1     -33.188   6.724   5.115  1.00 20.00    -0.082 Cl
ENDROOT
BRANCH   2   5
HETATM    5  C2  UNL     1     -34.014   5.544   2.831  1.00 20.00     0.174 C 
HETATM    6 CL5  UNL     1     -35.259   5.196   4.060  1.00 20.00    -0.126 Cl
ENDBRANCH   2   5
TORSDOF 1
ENDMDL
MODEL 9
REMARK VINA RESULT:      -3.1      2.463      3.233
REMARK  1 active torsions:
REMARK  status: ('A' for Active; 'I' for Inactive)
REMARK    1  A    between atoms: C2_2  and  C3_3 
ROOT
HETATM    1  C1  UNL     1     -33.962   5.492   2.646  1.00 20.00     0.071 C 
HETATM    2  C3  UNL     1     -32.876   6.256   3.389  1.00 20.00     0.187 C 
HETATM    3  F4  UNL     1     -31.753   5.485   3.419  1.00 20.00    -0.225 F 
HETATM    4 CL6  UNL     1     -32.489   7.748   2.477  1.00 20.00    -0.082 Cl
ENDROOT
BRANCH   2   5
HETATM    5  C2  UNL     1     -33.246   6.638   4.819  1.00 20.00     0.174 C 
HETATM    6 CL5  UNL     1     -34.432   5.512   5.531  1.00 20.00    -0.126 Cl
ENDBRANCH   2   5
TORSDOF 1
ENDMDL
