MODEL 1
REMARK VINA RESULT:      -4.6      0.000      0.000
REMARK  1 active torsions:
REMARK  status: ('A' for Active; 'I' for Inactive)
REMARK    1  A    between atoms: C1_1  and  C2_2 
ROOT
HETATM    1  C2  UNL     1     -34.023   6.257   4.385  1.00 20.00     0.299 C 
HETATM    2  F4  UNL     1     -34.665   7.323   3.835  1.00 20.00    -0.203 F 
HETATM    3 CL6  UNL     1     -32.436   6.089   3.582  1.00 20.00    -0.061 Cl
HETATM    4 CL7  UNL     1     -33.760   6.574   6.118  1.00 20.00    -0.061 Cl
ENDROOT
BRANCH   1   5
HETATM    5  C1  UNL     1     -34.856   5.002   4.157  1.00 20.00     0.336 C 
HETATM    6  F3  UNL     1     -36.125   5.369   3.826  1.00 20.00    -0.227 F 
HETATM    7 CL5  UNL     1     -34.948   3.982   5.616  1.00 20.00    -0.083 Cl
ENDBRANCH   1   5
TORSDOF 1
ENDMDL
MODEL 2
REMARK VINA RESULT:      -4.3      1.264      2.865
REMARK  1 active torsions:
REMARK  status: ('A' for Active; 'I' for Inactive)
REMARK    1  A    between atoms: C1_1  and  C2_2 
ROOT
HETATM    1  C2  UNL     1     -34.888   5.363   3.894  1.00 20.00     0.299 C 
HETATM    2  F4  UNL     1     -36.146   5.794   3.607  1.00 20.00    -0.203 F 
HETATM    3 CL6  UNL     1     -35.020   3.893   4.900  1.00 20.00    -0.061 Cl
HETATM    4 CL7  UNL     1     -34.061   4.946   2.371  1.00 20.00    -0.061 Cl
ENDROOT
BRANCH   1   5
HETATM    5  C1  UNL     1     -34.149   6.453   4.660  1.00 20.00     0.336 C 
HETATM    6  F3  UNL     1     -32.844   6.460   4.270  1.00 20.00    -0.227 F 
HETATM    7 CL5  UNL     1     -34.189   6.182   6.421  1.00 20.00    -0.083 Cl
ENDBRANCH   1   5
TORSDOF 1
ENDMDL
MODEL 3
REMARK VINA RESULT:      -4.1      1.416      2.010
REMARK  1 active torsions:
REMARK  status: ('A' for Active; 'I' for Inactive)
REMARK    1  A    between atoms: C1_1  and  C2_2 
ROOT
HETATM    1  C2  UNL     1     -33.876   6.182   3.829  1.00 20.00     0.299 C 
HETATM    2  F4  UNL     1     -34.615   7.324   3.763  1.00 20.00    -0.203 F 
HETATM    3 CL6  UNL     1     -34.390   5.111   2.496  1.00 20.00    -0.061 Cl
HETATM    4 CL7  UNL     1     -32.157   6.595   3.608  1.00 20.00    -0.061 Cl
ENDROOT
BRANCH   1   5
HETATM    5  C1  UNL     1     -34.129   5.503   5.169  1.00 20.00     0.336 C 
HETATM    6  F3  UNL     1     -35.394   4.997   5.176  1.00 20.00    -0.227 F 
HETATM    7 CL5  UNL     1     -33.990   6.638   6.536  1.00 20.00    -0.083 Cl
ENDBRANCH   1   5
TORSDOF 1
ENDMDL
MODEL 4
REMARK VINA RESULT:      -3.9      2.029      2.581
REMARK  1 active torsions:
REMARK  status: ('A' for Active; 'I' for Inactive)
REMARK    1  A    between atoms: C1_1  and  C2_2 
ROOT
HETATM    1  C2  UNL     1     -34.603   5.014   4.383  1.00 20.00     0.299 C 
HETATM    2  F4  UNL     1     -34.642   3.712   3.988  1.00 20.00    -0.203 F 
HETATM    3 CL6  UNL     1     -33.195   5.788   3.604  1.00 20.00    -0.061 Cl
HETATM    4 CL7  UNL     1     -36.088   5.828   3.831  1.00 20.00    -0.061 Cl
ENDROOT
BRANCH   1   5
HETATM    5  C1  UNL     1     -34.455   5.070   5.898  1.00 20.00     0.336 C 
HETATM    6  F3  UNL     1     -35.644   4.734   6.472  1.00 20.00    -0.227 F 
HETATM    7 CL5  UNL     1     -34.018   6.700   6.471  1.00 20.00    -0.083 Cl
ENDBRANCH   1   5
TORSDOF 1
ENDMDL
MODEL 5
REMARK VINA RESULT:      -3.9      1.236      2.701
REMARK  1 active torsions:
REMARK  status: ('A' for Active; 'I' for Inactive)
REMARK    1  A    between atoms: C1_1  and  C2_2 
ROOT
HETATM    1  C2  UNL     1     -34.806   5.396   4.396  1.00 20.00     0.299 C 
HETATM    2  F4  UNL     1     -36.117   5.713   4.209  1.00 20.00    -0.203 F 
HETATM    3 CL6  UNL     1     -34.209   6.315   5.806  1.00 20.00    -0.061 Cl
HETATM    4 CL7  UNL     1     -34.679   3.654   4.748  1.00 20.00    -0.061 Cl
ENDROOT
BRANCH   1   5
HETATM    5  C1  UNL     1     -34.018   5.783   3.151  1.00 20.00     0.336 C 
HETATM    6  F3  UNL     1     -34.044   4.742   2.271  1.00 20.00    -0.227 F 
HETATM    7 CL5  UNL     1     -32.311   6.140   3.519  1.00 20.00    -0.083 Cl
ENDBRANCH   1   5
TORSDOF 1
ENDMDL
MODEL 6
REMARK VINA RESULT:      -3.7      1.551      2.457
REMARK  1 active torsions:
REMARK  status: ('A' for Active; 'I' for Inactive)
REMARK    1  A    between atoms: C1_1  and  C2_2 
ROOT
HETATM    1  C2  UNL     1     -34.256   5.409   5.277  1.00 20.00     0.299 C 
HETATM    2  F4  UNL     1     -33.029   4.913   4.959  1.00 20.00    -0.203 F 
HETATM    3 CL6  UNL     1     -35.201   4.101   6.042  1.00 20.00    -0.061 Cl
HETATM    4 CL7  UNL     1     -34.055   6.736   6.448  1.00 20.00    -0.061 Cl
ENDROOT
BRANCH   1   5
HETATM    5  C1  UNL     1     -34.950   5.876   4.004  1.00 20.00     0.336 C 
HETATM    6  F3  UNL     1     -36.189   5.313   3.944  1.00 20.00    -0.227 F 
HETATM    7 CL5  UNL     1     -34.061   5.392   2.537  1.00 20.00    -0.083 Cl
ENDBRANCH   1   5
TORSDOF 1
ENDMDL
MODEL 7
REMARK VINA RESULT:      -3.7      1.936      3.127
REMARK  1 active torsions:
REMARK  status: ('A' for Active; 'I' for Inactive)
REMARK    1  A    between atoms: C1_1  and  C2_2 
ROOT
HETATM    1  C2  UNL     1     -34.649   5.328   5.144  1.00 20.00     0.299 C 
HETATM    2  F4  UNL     1     -35.065   5.968   6.272  1.00 20.00    -0.203 F 
HETATM    3 CL6  UNL     1     -34.593   3.577   5.488  1.00 20.00    -0.061 Cl
HETATM    4 CL7  UNL     1     -35.832   5.624   3.845  1.00 20.00    -0.061 Cl
ENDROOT
BRANCH   1   5
HETATM    5  C1  UNL     1     -33.260   5.829   4.771  1.00 20.00     0.336 C 
HETATM    6  F3  UNL     1     -32.993   6.962   5.481  1.00 20.00    -0.227 F 
HETATM    7 CL5  UNL     1     -33.133   6.232   3.039  1.00 20.00    -0.083 Cl
ENDBRANCH   1   5
TORSDOF 1
ENDMDL
MODEL 8
REMARK VINA RESULT:      -3.6      1.727      2.841
REMARK  1 active torsions:
REMARK  status: ('A' for Active; 'I' for Inactive)
REMARK    1  A    between atoms: C1_1  and  C2_2 
ROOT
HETATM    1  C2  UNL     1     -34.050   5.583   4.907  1.00 20.00     0.299 C 
HETATM    2  F4  UNL     1     -33.119   4.608   5.096  1.00 20.00    -0.203 F 
HETATM    3 CL6  UNL     1     -35.649   4.802   4.762  1.00 20.00    -0.061 Cl
HETATM    4 CL7  UNL     1     -34.059   6.655   6.330  1.00 20.00    -0.061 Cl
ENDROOT
BRANCH   1   5
HETATM    5  C1  UNL     1     -33.724   6.342   3.627  1.00 20.00     0.336 C 
HETATM    6  F3  UNL     1     -33.930   5.519   2.561  1.00 20.00    -0.227 F 
HETATM    7 CL5  UNL     1     -32.025   6.879   3.578  1.00 20.00    -0.083 Cl
ENDBRANCH   1   5
TORSDOF 1
ENDMDL
MODEL 9
REMARK VINA RESULT:      -3.5      1.794      3.202
REMARK  1 active torsions:
REMARK  status: ('A' for Active; 'I' for Inactive)
REMARK    1  A    between atoms: C1_1  and  C2_2 
ROOT
HETATM    1  C2  UNL     1     -33.997   6.341   4.030  1.00 20.00     0.299 C 
HETATM    2  F4  UNL     1     -34.770   7.414   3.709  1.00 20.00    -0.203 F 
HETATM    3 CL6  UNL     1     -33.355   6.592   5.677  1.00 20.00    -0.061 Cl
HETATM    4 CL7  UNL     1     -35.013   4.877   4.025  1.00 20.00    -0.061 Cl
ENDROOT
BRANCH   1   5
HETATM    5  C1  UNL     1     -32.848   6.238   3.034  1.00 20.00     0.336 C 
HETATM    6  F3  UNL     1     -31.806   5.591   3.627  1.00 20.00    -0.227 F 
HETATM    7 CL5  UNL     1     -32.267   7.839   2.510  1.00 20.00    -0.083 Cl
ENDBRANCH   1   5
TORSDOF 1
ENDMDL
