MODEL 1
REMARK VINA RESULT:      -3.6      0.000      0.000
REMARK  1 active torsions:
REMARK  status: ('A' for Active; 'I' for Inactive)
REMARK    1  A    between atoms: C1_1  and  C2_2 
ROOT
HETATM    1  C2  UNL     1     -35.151   4.950   4.997  1.00 20.00     0.294 C 
HETATM    2  F4  UNL     1     -35.155   3.599   4.845  1.00 20.00    -0.230 F 
HETATM    3 CL5  UNL     1     -34.270   5.685   3.645  1.00 20.00    -0.087 Cl
ENDROOT
BRANCH   1   4
HETATM    4  C1  UNL     1     -34.504   5.290   6.321  1.00 20.00     0.275 C 
HETATM    5  F3  UNL     1     -34.333   6.637   6.406  1.00 20.00    -0.251 F 
ENDBRANCH   1   4
TORSDOF 1
ENDMDL
MODEL 2
REMARK VINA RESULT:      -3.6      1.960      2.367
REMARK  1 active torsions:
REMARK  status: ('A' for Active; 'I' for Inactive)
REMARK    1  A    between atoms: C1_1  and  C2_2 
ROOT
HETATM    1  C2  UNL     1     -34.424   5.067   5.659  1.00 20.00     0.294 C 
HETATM    2  F4  UNL     1     -35.501   4.504   6.266  1.00 20.00    -0.230 F 
HETATM    3 CL5  UNL     1     -34.023   6.588   6.479  1.00 20.00    -0.087 Cl
ENDROOT
BRANCH   1   4
HETATM    4  C1  UNL     1     -34.752   5.302   4.201  1.00 20.00     0.275 C 
HETATM    5  F3  UNL     1     -36.102   5.271   4.034  1.00 20.00    -0.251 F 
ENDBRANCH   1   4
TORSDOF 1
ENDMDL
MODEL 3
REMARK VINA RESULT:      -3.5      1.884      1.901
REMARK  1 active torsions:
REMARK  status: ('A' for Active; 'I' for Inactive)
REMARK    1  A    between atoms: C1_1  and  C2_2 
ROOT
HETATM    1  C2  UNL     1     -34.830   5.010   4.426  1.00 20.00     0.294 C 
HETATM    2  F4  UNL     1     -36.030   5.390   3.915  1.00 20.00    -0.230 F 
HETATM    3 CL5  UNL     1     -35.094   4.170   5.966  1.00 20.00    -0.087 Cl
ENDROOT
BRANCH   1   4
HETATM    4  C1  UNL     1     -33.968   6.238   4.615  1.00 20.00     0.275 C 
HETATM    5  F3  UNL     1     -34.037   6.642   5.912  1.00 20.00    -0.251 F 
ENDBRANCH   1   4
TORSDOF 1
ENDMDL
MODEL 4
REMARK VINA RESULT:      -3.5      0.672      2.365
REMARK  1 active torsions:
REMARK  status: ('A' for Active; 'I' for Inactive)
REMARK    1  A    between atoms: C1_1  and  C2_2 
ROOT
HETATM    1  C2  UNL     1     -34.131   5.594   5.654  1.00 20.00     0.294 C 
HETATM    2  F4  UNL     1     -34.390   6.603   6.527  1.00 20.00    -0.230 F 
HETATM    3 CL5  UNL     1     -34.354   6.186   3.997  1.00 20.00    -0.087 Cl
ENDROOT
BRANCH   1   4
HETATM    4  C1  UNL     1     -35.061   4.440   5.952  1.00 20.00     0.275 C 
HETATM    5  F3  UNL     1     -35.117   3.616   4.871  1.00 20.00    -0.251 F 
ENDBRANCH   1   4
TORSDOF 1
ENDMDL
MODEL 5
REMARK VINA RESULT:      -3.5      2.440      2.579
REMARK  1 active torsions:
REMARK  status: ('A' for Active; 'I' for Inactive)
REMARK    1  A    between atoms: C1_1  and  C2_2 
ROOT
HETATM    1  C2  UNL     1     -34.888   5.044   4.282  1.00 20.00     0.294 C 
HETATM    2  F4  UNL     1     -36.088   5.470   3.809  1.00 20.00    -0.230 F 
HETATM    3 CL5  UNL     1     -35.049   4.643   6.002  1.00 20.00    -0.087 Cl
ENDROOT
BRANCH   1   4
HETATM    4  C1  UNL     1     -33.863   6.135   4.069  1.00 20.00     0.275 C 
HETATM    5  F3  UNL     1     -33.064   5.804   3.019  1.00 20.00    -0.251 F 
ENDBRANCH   1   4
TORSDOF 1
ENDMDL
MODEL 6
REMARK VINA RESULT:      -3.4      1.919      2.756
REMARK  1 active torsions:
REMARK  status: ('A' for Active; 'I' for Inactive)
REMARK    1  A    between atoms: C1_1  and  C2_2 
ROOT
HETATM    1  C2  UNL     1     -34.590   5.771   5.559  1.00 20.00     0.294 C 
HETATM    2  F4  UNL     1     -33.893   6.292   6.603  1.00 20.00    -0.230 F 
HETATM    3 CL5  UNL     1     -34.900   4.052   5.867  1.00 20.00    -0.087 Cl
ENDROOT
BRANCH   1   4
HETATM    4  C1  UNL     1     -33.789   5.964   4.292  1.00 20.00     0.275 C 
HETATM    5  F3  UNL     1     -34.375   5.271   3.279  1.00 20.00    -0.251 F 
ENDBRANCH   1   4
TORSDOF 1
ENDMDL
MODEL 7
REMARK VINA RESULT:      -3.4      2.021      2.369
REMARK  1 active torsions:
REMARK  status: ('A' for Active; 'I' for Inactive)
REMARK    1  A    between atoms: C1_1  and  C2_2 
ROOT
HETATM    1  C2  UNL     1     -34.323   5.911   4.835  1.00 20.00     0.294 C 
HETATM    2  F4  UNL     1     -33.165   5.708   4.154  1.00 20.00    -0.230 F 
HETATM    3 CL5  UNL     1     -33.948   6.589   6.431  1.00 20.00    -0.087 Cl
ENDROOT
BRANCH   1   4
HETATM    4  C1  UNL     1     -35.054   4.593   4.958  1.00 20.00     0.275 C 
HETATM    5  F3  UNL     1     -35.381   4.381   6.262  1.00 20.00    -0.251 F 
ENDBRANCH   1   4
TORSDOF 1
ENDMDL
MODEL 8
REMARK VINA RESULT:      -3.3      1.790      1.790
REMARK  1 active torsions:
REMARK  status: ('A' for Active; 'I' for Inactive)
REMARK    1  A    between atoms: C1_1  and  C2_2 
ROOT
HETATM    1  C2  UNL     1     -34.075   5.537   4.843  1.00 20.00     0.294 C 
HETATM    2  F4  UNL     1     -33.322   6.616   4.501  1.00 20.00    -0.230 F 
HETATM    3 CL5  UNL     1     -35.485   5.449   3.770  1.00 20.00    -0.087 Cl
ENDROOT
BRANCH   1   4
HETATM    4  C1  UNL     1     -34.496   5.674   6.289  1.00 20.00     0.275 C 
HETATM    5  F3  UNL     1     -34.142   6.906   6.746  1.00 20.00    -0.251 F 
ENDBRANCH   1   4
TORSDOF 1
ENDMDL
MODEL 9
REMARK VINA RESULT:      -3.3      1.538      1.538
REMARK  1 active torsions:
REMARK  status: ('A' for Active; 'I' for Inactive)
REMARK    1  A    between atoms: C1_1  and  C2_2 
ROOT
HETATM    1  C2  UNL     1     -34.291   6.041   4.071  1.00 20.00     0.294 C 
HETATM    2  F4  UNL     1     -34.852   5.138   3.225  1.00 20.00    -0.230 F 
HETATM    3 CL5  UNL     1     -32.609   6.327   3.586  1.00 20.00    -0.087 Cl
ENDROOT
BRANCH   1   4
HETATM    4  C1  UNL     1     -34.369   5.502   5.482  1.00 20.00     0.275 C 
HETATM    5  F3  UNL     1     -34.267   6.532   6.364  1.00 20.00    -0.251 F 
ENDBRANCH   1   4
TORSDOF 1
ENDMDL
