MODEL 1
REMARK VINA RESULT:      -5.6      0.000      0.000
REMARK  0 active torsions:
REMARK  status: ('A' for Active; 'I' for Inactive)
ROOT
HETATM    1  C1  UNL     1     -34.403   6.024   6.142  1.00 20.00     0.006 C 
HETATM    2  C2  UNL     1     -35.002   4.614   6.218  1.00 20.00     0.006 C 
HETATM    3  C3  UNL     1     -33.966   6.222   4.694  1.00 20.00     0.079 C 
HETATM    4  C4  UNL     1     -34.897   4.034   4.811  1.00 20.00     0.079 C 
HETATM    5  C5  UNL     1     -34.845   5.260   3.927  1.00 20.00     0.243 C 
HETATM    6  F6  UNL     1     -34.354   4.986   2.706  1.00 20.00    -0.206 F 
HETATM    7  F7  UNL     1     -36.084   5.779   3.771  1.00 20.00    -0.206 F 
ENDROOT
TORSDOF 0
ENDMDL
MODEL 2
REMARK VINA RESULT:      -5.3      1.908      2.678
REMARK  0 active torsions:
REMARK  status: ('A' for Active; 'I' for Inactive)
ROOT
HETATM    1  C1  UNL     1     -33.660   6.501   5.016  1.00 20.00     0.006 C 
HETATM    2  C2  UNL     1     -34.329   5.749   3.859  1.00 20.00     0.006 C 
HETATM    3  C3  UNL     1     -34.307   5.976   6.294  1.00 20.00     0.079 C 
HETATM    4  C4  UNL     1     -35.344   4.806   4.498  1.00 20.00     0.079 C 
HETATM    5  C5  UNL     1     -34.806   4.605   5.896  1.00 20.00     0.243 C 
HETATM    6  F6  UNL     1     -35.744   4.141   6.740  1.00 20.00    -0.206 F 
HETATM    7  F7  UNL     1     -33.783   3.720   5.883  1.00 20.00    -0.206 F 
ENDROOT
TORSDOF 0
ENDMDL
MODEL 3
REMARK VINA RESULT:      -5.2      1.294      2.200
REMARK  0 active torsions:
REMARK  status: ('A' for Active; 'I' for Inactive)
ROOT
HETATM    1  C1  UNL     1     -35.124   4.216   5.134  1.00 20.00     0.006 C 
HETATM    2  C2  UNL     1     -34.449   4.923   6.315  1.00 20.00     0.006 C 
HETATM    3  C3  UNL     1     -35.159   5.231   3.995  1.00 20.00     0.079 C 
HETATM    4  C4  UNL     1     -34.109   6.329   5.829  1.00 20.00     0.079 C 
HETATM    5  C5  UNL     1     -34.022   6.171   4.328  1.00 20.00     0.243 C 
HETATM    6  F6  UNL     1     -34.130   7.346   3.685  1.00 20.00    -0.206 F 
HETATM    7  F7  UNL     1     -32.838   5.614   3.982  1.00 20.00    -0.206 F 
ENDROOT
TORSDOF 0
ENDMDL
MODEL 4
REMARK VINA RESULT:      -5.0      1.091      1.548
REMARK  0 active torsions:
REMARK  status: ('A' for Active; 'I' for Inactive)
ROOT
HETATM    1  C1  UNL     1     -33.631   6.650   4.904  1.00 20.00     0.006 C 
HETATM    2  C2  UNL     1     -34.237   6.319   6.273  1.00 20.00     0.006 C 
HETATM    3  C3  UNL     1     -33.827   5.407   4.041  1.00 20.00     0.079 C 
HETATM    4  C4  UNL     1     -34.769   4.893   6.166  1.00 20.00     0.079 C 
HETATM    5  C5  UNL     1     -35.008   4.716   4.684  1.00 20.00     0.243 C 
HETATM    6  F6  UNL     1     -35.092   3.421   4.333  1.00 20.00    -0.206 F 
HETATM    7  F7  UNL     1     -36.161   5.323   4.319  1.00 20.00    -0.206 F 
ENDROOT
TORSDOF 0
ENDMDL
MODEL 5
REMARK VINA RESULT:      -4.7      2.069      2.874
REMARK  0 active torsions:
REMARK  status: ('A' for Active; 'I' for Inactive)
ROOT
HETATM    1  C1  UNL     1     -35.439   5.382   3.861  1.00 20.00     0.006 C 
HETATM    2  C2  UNL     1     -34.310   6.410   4.006  1.00 20.00     0.006 C 
HETATM    3  C3  UNL     1     -35.178   4.313   4.919  1.00 20.00     0.079 C 
HETATM    4  C4  UNL     1     -33.426   5.909   5.144  1.00 20.00     0.079 C 
HETATM    5  C5  UNL     1     -34.358   5.042   5.959  1.00 20.00     0.243 C 
HETATM    6  F6  UNL     1     -33.692   4.196   6.765  1.00 20.00    -0.206 F 
HETATM    7  F7  UNL     1     -35.159   5.811   6.732  1.00 20.00    -0.206 F 
ENDROOT
TORSDOF 0
ENDMDL
MODEL 6
REMARK VINA RESULT:      -4.5      1.347      1.622
REMARK  0 active torsions:
REMARK  status: ('A' for Active; 'I' for Inactive)
ROOT
HETATM    1  C1  UNL     1     -34.825   5.339   6.129  1.00 20.00     0.006 C 
HETATM    2  C2  UNL     1     -35.247   4.541   4.890  1.00 20.00     0.006 C 
HETATM    3  C3  UNL     1     -33.652   6.212   5.693  1.00 20.00     0.079 C 
HETATM    4  C4  UNL     1     -34.309   4.974   3.768  1.00 20.00     0.079 C 
HETATM    5  C5  UNL     1     -33.854   6.349   4.200  1.00 20.00     0.243 C 
HETATM    6  F6  UNL     1     -32.731   6.735   3.569  1.00 20.00    -0.206 F 
HETATM    7  F7  UNL     1     -34.815   7.265   3.939  1.00 20.00    -0.206 F 
ENDROOT
TORSDOF 0
ENDMDL
MODEL 7
REMARK VINA RESULT:      -4.4      0.799      1.945
REMARK  0 active torsions:
REMARK  status: ('A' for Active; 'I' for Inactive)
ROOT
HETATM    1  C1  UNL     1     -34.523   4.636   6.294  1.00 20.00     0.006 C 
HETATM    2  C2  UNL     1     -34.127   6.117   6.264  1.00 20.00     0.006 C 
HETATM    3  C3  UNL     1     -35.172   4.343   4.944  1.00 20.00     0.079 C 
HETATM    4  C4  UNL     1     -34.556   6.642   4.897  1.00 20.00     0.079 C 
HETATM    5  C5  UNL     1     -34.586   5.400   4.036  1.00 20.00     0.243 C 
HETATM    6  F6  UNL     1     -35.315   5.572   2.920  1.00 20.00    -0.206 F 
HETATM    7  F7  UNL     1     -33.331   5.056   3.665  1.00 20.00    -0.206 F 
ENDROOT
TORSDOF 0
ENDMDL
MODEL 8
REMARK VINA RESULT:      -4.1      1.894      2.631
REMARK  0 active torsions:
REMARK  status: ('A' for Active; 'I' for Inactive)
ROOT
HETATM    1  C1  UNL     1     -35.265   4.746   4.110  1.00 20.00     0.006 C 
HETATM    2  C2  UNL     1     -34.885   3.910   5.338  1.00 20.00     0.006 C 
HETATM    3  C3  UNL     1     -35.121   6.206   4.527  1.00 20.00     0.079 C 
HETATM    4  C4  UNL     1     -34.529   4.909   6.435  1.00 20.00     0.079 C 
HETATM    5  C5  UNL     1     -34.128   6.148   5.667  1.00 20.00     0.243 C 
HETATM    6  F6  UNL     1     -34.164   7.254   6.430  1.00 20.00    -0.206 F 
HETATM    7  F7  UNL     1     -32.870   6.015   5.185  1.00 20.00    -0.206 F 
ENDROOT
TORSDOF 0
ENDMDL
MODEL 9
REMARK VINA RESULT:      -3.9      7.884      8.913
REMARK  0 active torsions:
REMARK  status: ('A' for Active; 'I' for Inactive)
ROOT
HETATM    1  C1  UNL     1     -41.714   4.592  -2.028  1.00 20.00     0.006 C 
HETATM    2  C2  UNL     1     -42.100   6.043  -2.336  1.00 20.00     0.006 C 
HETATM    3  C3  UNL     1     -40.718   4.653  -0.873  1.00 20.00     0.079 C 
HETATM    4  C4  UNL     1     -41.319   6.907  -1.351  1.00 20.00     0.079 C 
HETATM    5  C5  UNL     1     -41.043   5.967  -0.200  1.00 20.00     0.243 C 
HETATM    6  F6  UNL     1     -40.038   6.400   0.581  1.00 20.00    -0.206 F 
HETATM    7  F7  UNL     1     -42.146   5.837   0.574  1.00 20.00    -0.206 F 
ENDROOT
TORSDOF 0
ENDMDL
