MODEL 1
REMARK VINA RESULT:      -4.9      0.000      0.000
REMARK  3 active torsions:
REMARK  status: ('A' for Active; 'I' for Inactive)
REMARK    1  A    between atoms: C2_2  and  C3_3 
REMARK    2  A    between atoms: C2_2  and  C4_4 
REMARK    3  A    between atoms: C3_3  and  N5_5 
ROOT
HETATM    1  C1  UNL     1     -32.170   7.546   2.629  1.00 20.00     0.332 C 
HETATM    2  N5  UNL     1     -32.181   6.670   3.411  1.00 20.00    -0.247 NA
HETATM    3  O6  UNL     1     -32.155   8.424   1.846  1.00 20.00    -0.260 OA
ENDROOT
BRANCH   2   4
HETATM    4  C3  UNL     1     -33.512   6.126   3.688  1.00 20.00     0.162 C 
BRANCH   4   5
HETATM    5  C2  UNL     1     -33.797   6.257   5.177  1.00 20.00     0.139 C 
BRANCH   5   6
HETATM    6  C4  UNL     1     -34.728   5.173   5.673  1.00 20.00     0.389 C 
HETATM    7  F7  UNL     1     -34.077   4.003   5.840  1.00 20.00    -0.171 F 
HETATM    8  F8  UNL     1     -35.264   5.518   6.864  1.00 20.00    -0.171 F 
HETATM    9  F9  UNL     1     -35.745   4.966   4.809  1.00 20.00    -0.171 F 
ENDBRANCH   5   6
ENDBRANCH   4   5
ENDBRANCH   2   4
TORSDOF 3
ENDMDL
MODEL 2
REMARK VINA RESULT:      -4.9      0.059      1.261
REMARK  3 active torsions:
REMARK  status: ('A' for Active; 'I' for Inactive)
REMARK    1  A    between atoms: C2_2  and  C3_3 
REMARK    2  A    between atoms: C2_2  and  C4_4 
REMARK    3  A    between atoms: C3_3  and  N5_5 
ROOT
HETATM    1  C1  UNL     1     -32.176   7.575   2.600  1.00 20.00     0.332 C 
HETATM    2  N5  UNL     1     -32.181   6.650   3.324  1.00 20.00    -0.247 NA
HETATM    3  O6  UNL     1     -32.167   8.501   1.875  1.00 20.00    -0.260 OA
ENDROOT
BRANCH   2   4
HETATM    4  C3  UNL     1     -33.516   6.139   3.640  1.00 20.00     0.162 C 
BRANCH   4   5
HETATM    5  C2  UNL     1     -33.744   6.255   5.140  1.00 20.00     0.139 C 
BRANCH   5   6
HETATM    6  C4  UNL     1     -34.704   5.202   5.650  1.00 20.00     0.389 C 
HETATM    7  F7  UNL     1     -35.717   4.997   4.782  1.00 20.00    -0.171 F 
HETATM    8  F8  UNL     1     -34.065   4.023   5.821  1.00 20.00    -0.171 F 
HETATM    9  F9  UNL     1     -35.236   5.557   6.839  1.00 20.00    -0.171 F 
ENDBRANCH   5   6
ENDBRANCH   4   5
ENDBRANCH   2   4
TORSDOF 3
ENDMDL
MODEL 3
REMARK VINA RESULT:      -4.9      0.034      1.266
REMARK  3 active torsions:
REMARK  status: ('A' for Active; 'I' for Inactive)
REMARK    1  A    between atoms: C2_2  and  C3_3 
REMARK    2  A    between atoms: C2_2  and  C4_4 
REMARK    3  A    between atoms: C3_3  and  N5_5 
ROOT
HETATM    1  C1  UNL     1     -32.176   7.565   2.614  1.00 20.00     0.332 C 
HETATM    2  N5  UNL     1     -32.174   6.684   3.391  1.00 20.00    -0.247 NA
HETATM    3  O6  UNL     1     -32.173   8.448   1.837  1.00 20.00    -0.260 OA
ENDROOT
BRANCH   2   4
HETATM    4  C3  UNL     1     -33.500   6.136   3.683  1.00 20.00     0.162 C 
BRANCH   4   5
HETATM    5  C2  UNL     1     -33.755   6.239   5.180  1.00 20.00     0.139 C 
BRANCH   5   6
HETATM    6  C4  UNL     1     -34.708   5.169   5.667  1.00 20.00     0.389 C 
HETATM    7  F7  UNL     1     -35.280   5.515   6.839  1.00 20.00    -0.171 F 
HETATM    8  F8  UNL     1     -35.698   4.972   4.768  1.00 20.00    -0.171 F 
HETATM    9  F9  UNL     1     -34.074   3.990   5.843  1.00 20.00    -0.171 F 
ENDBRANCH   5   6
ENDBRANCH   4   5
ENDBRANCH   2   4
TORSDOF 3
ENDMDL
MODEL 4
REMARK VINA RESULT:      -4.9      1.225      1.679
REMARK  3 active torsions:
REMARK  status: ('A' for Active; 'I' for Inactive)
REMARK    1  A    between atoms: C2_2  and  C3_3 
REMARK    2  A    between atoms: C2_2  and  C4_4 
REMARK    3  A    between atoms: C3_3  and  N5_5 
ROOT
HETATM    1  C1  UNL     1     -32.454   6.762   3.278  1.00 20.00     0.332 C 
HETATM    2  N5  UNL     1     -33.130   5.832   3.517  1.00 20.00    -0.247 NA
HETATM    3  O6  UNL     1     -31.774   7.691   3.037  1.00 20.00    -0.260 OA
ENDROOT
BRANCH   2   4
HETATM    4  C3  UNL     1     -34.487   6.169   3.954  1.00 20.00     0.162 C 
BRANCH   4   5
HETATM    5  C2  UNL     1     -35.137   4.925   4.542  1.00 20.00     0.139 C 
BRANCH   5   6
HETATM    6  C4  UNL     1     -34.755   4.718   5.991  1.00 20.00     0.389 C 
HETATM    7  F7  UNL     1     -35.781   4.204   6.702  1.00 20.00    -0.171 F 
HETATM    8  F8  UNL     1     -33.717   3.860   6.089  1.00 20.00    -0.171 F 
HETATM    9  F9  UNL     1     -34.385   5.879   6.572  1.00 20.00    -0.171 F 
ENDBRANCH   5   6
ENDBRANCH   4   5
ENDBRANCH   2   4
TORSDOF 3
ENDMDL
MODEL 5
REMARK VINA RESULT:      -4.7      3.623      4.349
REMARK  3 active torsions:
REMARK  status: ('A' for Active; 'I' for Inactive)
REMARK    1  A    between atoms: C2_2  and  C3_3 
REMARK    2  A    between atoms: C2_2  and  C4_4 
REMARK    3  A    between atoms: C3_3  and  N5_5 
ROOT
HETATM    1  C1  UNL     1     -34.927   4.541   5.579  1.00 20.00     0.332 C 
HETATM    2  N5  UNL     1     -34.769   5.576   6.112  1.00 20.00    -0.247 NA
HETATM    3  O6  UNL     1     -35.088   3.503   5.049  1.00 20.00    -0.260 OA
ENDROOT
BRANCH   2   4
HETATM    4  C3  UNL     1     -33.680   6.381   5.555  1.00 20.00     0.162 C 
BRANCH   4   5
HETATM    5  C2  UNL     1     -33.831   6.432   4.041  1.00 20.00     0.139 C 
BRANCH   5   6
HETATM    6  C4  UNL     1     -32.516   6.723   3.351  1.00 20.00     0.389 C 
HETATM    7  F7  UNL     1     -32.698   7.459   2.235  1.00 20.00    -0.171 F 
HETATM    8  F8  UNL     1     -31.695   7.417   4.171  1.00 20.00    -0.171 F 
HETATM    9  F9  UNL     1     -31.881   5.584   3.002  1.00 20.00    -0.171 F 
ENDBRANCH   5   6
ENDBRANCH   4   5
ENDBRANCH   2   4
TORSDOF 3
ENDMDL
MODEL 6
REMARK VINA RESULT:      -4.7      3.620      4.339
REMARK  3 active torsions:
REMARK  status: ('A' for Active; 'I' for Inactive)
REMARK    1  A    between atoms: C2_2  and  C3_3 
REMARK    2  A    between atoms: C2_2  and  C4_4 
REMARK    3  A    between atoms: C3_3  and  N5_5 
ROOT
HETATM    1  C1  UNL     1     -34.936   4.517   5.510  1.00 20.00     0.332 C 
HETATM    2  N5  UNL     1     -34.797   5.550   6.052  1.00 20.00    -0.247 NA
HETATM    3  O6  UNL     1     -35.079   3.482   4.969  1.00 20.00    -0.260 OA
ENDROOT
BRANCH   2   4
HETATM    4  C3  UNL     1     -33.694   6.360   5.532  1.00 20.00     0.162 C 
BRANCH   4   5
HETATM    5  C2  UNL     1     -33.826   6.457   4.019  1.00 20.00     0.139 C 
BRANCH   5   6
HETATM    6  C4  UNL     1     -32.496   6.729   3.351  1.00 20.00     0.389 C 
HETATM    7  F7  UNL     1     -31.666   7.412   4.167  1.00 20.00    -0.171 F 
HETATM    8  F8  UNL     1     -31.887   5.569   3.022  1.00 20.00    -0.171 F 
HETATM    9  F9  UNL     1     -32.653   7.447   2.218  1.00 20.00    -0.171 F 
ENDBRANCH   5   6
ENDBRANCH   4   5
ENDBRANCH   2   4
TORSDOF 3
ENDMDL
MODEL 7
REMARK VINA RESULT:      -4.7      3.629      4.367
REMARK  3 active torsions:
REMARK  status: ('A' for Active; 'I' for Inactive)
REMARK    1  A    between atoms: C2_2  and  C3_3 
REMARK    2  A    between atoms: C2_2  and  C4_4 
REMARK    3  A    between atoms: C3_3  and  N5_5 
ROOT
HETATM    1  C1  UNL     1     -34.934   4.510   5.507  1.00 20.00     0.332 C 
HETATM    2  N5  UNL     1     -34.811   5.557   6.025  1.00 20.00    -0.247 NA
HETATM    3  O6  UNL     1     -35.060   3.461   4.990  1.00 20.00    -0.260 OA
ENDROOT
BRANCH   2   4
HETATM    4  C3  UNL     1     -33.691   6.352   5.520  1.00 20.00     0.162 C 
BRANCH   4   5
HETATM    5  C2  UNL     1     -33.820   6.479   4.009  1.00 20.00     0.139 C 
BRANCH   5   6
HETATM    6  C4  UNL     1     -32.484   6.736   3.346  1.00 20.00     0.389 C 
HETATM    7  F7  UNL     1     -31.871   5.582   3.009  1.00 20.00    -0.171 F 
HETATM    8  F8  UNL     1     -32.649   7.459   2.216  1.00 20.00    -0.171 F 
HETATM    9  F9  UNL     1     -31.658   7.428   4.159  1.00 20.00    -0.171 F 
ENDBRANCH   5   6
ENDBRANCH   4   5
ENDBRANCH   2   4
TORSDOF 3
ENDMDL
MODEL 8
REMARK VINA RESULT:      -4.6      3.718      4.403
REMARK  3 active torsions:
REMARK  status: ('A' for Active; 'I' for Inactive)
REMARK    1  A    between atoms: C2_2  and  C3_3 
REMARK    2  A    between atoms: C2_2  and  C4_4 
REMARK    3  A    between atoms: C3_3  and  N5_5 
ROOT
HETATM    1  C1  UNL     1     -35.037   4.652   5.285  1.00 20.00     0.332 C 
HETATM    2  N5  UNL     1     -35.489   5.049   4.276  1.00 20.00    -0.247 NA
HETATM    3  O6  UNL     1     -34.590   4.254   6.298  1.00 20.00    -0.260 OA
ENDROOT
BRANCH   2   4
HETATM    4  C3  UNL     1     -34.489   5.490   3.301  1.00 20.00     0.162 C 
BRANCH   4   5
HETATM    5  C2  UNL     1     -33.674   6.621   3.910  1.00 20.00     0.139 C 
BRANCH   5   6
HETATM    6  C4  UNL     1     -32.359   6.823   3.189  1.00 20.00     0.389 C 
HETATM    7  F7  UNL     1     -32.517   7.570   2.077  1.00 20.00    -0.171 F 
HETATM    8  F8  UNL     1     -31.474   7.459   3.989  1.00 20.00    -0.171 F 
HETATM    9  F9  UNL     1     -31.811   5.644   2.827  1.00 20.00    -0.171 F 
ENDBRANCH   5   6
ENDBRANCH   4   5
ENDBRANCH   2   4
TORSDOF 3
ENDMDL
MODEL 9
REMARK VINA RESULT:      -4.2      1.702      2.511
REMARK  3 active torsions:
REMARK  status: ('A' for Active; 'I' for Inactive)
REMARK    1  A    between atoms: C2_2  and  C3_3 
REMARK    2  A    between atoms: C2_2  and  C4_4 
REMARK    3  A    between atoms: C3_3  and  N5_5 
ROOT
HETATM    1  C1  UNL     1     -32.218   9.018   1.775  1.00 20.00     0.332 C 
HETATM    2  N5  UNL     1     -31.856   7.906   1.876  1.00 20.00    -0.247 NA
HETATM    3  O6  UNL     1     -32.579  10.133   1.668  1.00 20.00    -0.260 OA
ENDROOT
BRANCH   2   4
HETATM    4  C3  UNL     1     -31.961   7.359   3.231  1.00 20.00     0.162 C 
BRANCH   4   5
HETATM    5  C2  UNL     1     -32.572   5.967   3.153  1.00 20.00     0.139 C 
BRANCH   5   6
HETATM    6  C4  UNL     1     -33.937   5.911   3.803  1.00 20.00     0.389 C 
HETATM    7  F7  UNL     1     -34.479   7.142   3.918  1.00 20.00    -0.171 F 
HETATM    8  F8  UNL     1     -34.781   5.158   3.065  1.00 20.00    -0.171 F 
HETATM    9  F9  UNL     1     -33.872   5.366   5.036  1.00 20.00    -0.171 F 
ENDBRANCH   5   6
ENDBRANCH   4   5
ENDBRANCH   2   4
TORSDOF 3
ENDMDL
