MODEL 1
REMARK VINA RESULT:      -4.3      0.000      0.000
REMARK  0 active torsions:
REMARK  status: ('A' for Active; 'I' for Inactive)
ROOT
HETATM    1  C1  UNL     1     -33.472  16.129  -3.195  1.00 20.00    -0.011 C 
HETATM    2  C2  UNL     1     -34.611  16.137  -2.486  1.00 20.00    -0.015 C 
HETATM    3  C3  UNL     1     -33.384  15.621  -4.606  1.00 20.00     0.036 C 
HETATM    4  C4  UNL     1     -35.924  15.657  -3.038  1.00 20.00     0.047 C 
HETATM    5  C5  UNL     1     -35.898  15.441  -4.558  1.00 20.00     0.014 C 
HETATM    6  C6  UNL     1     -34.598  14.768  -5.051  1.00 20.00    -0.044 C 
HETATM    7  C7  UNL     1     -34.621  14.680  -6.587  1.00 20.00     0.015 C 
HETATM    8  C8  UNL     1     -34.482  13.336  -4.491  1.00 20.00     0.015 C 
HETATM    9 BR9  UNL     1     -34.673  16.762  -0.725  1.00 20.00    -0.056 Br
ENDROOT
TORSDOF 0
ENDMDL
MODEL 2
REMARK VINA RESULT:      -4.0      2.040      3.031
REMARK  0 active torsions:
REMARK  status: ('A' for Active; 'I' for Inactive)
ROOT
HETATM    1  C1  UNL     1     -35.998  13.841  -4.316  1.00 20.00    -0.011 C 
HETATM    2  C2  UNL     1     -36.636  14.857  -3.716  1.00 20.00    -0.015 C 
HETATM    3  C3  UNL     1     -34.503  13.689  -4.313  1.00 20.00     0.036 C 
HETATM    4  C4  UNL     1     -35.920  15.941  -2.958  1.00 20.00     0.047 C 
HETATM    5  C5  UNL     1     -34.444  15.617  -2.689  1.00 20.00     0.014 C 
HETATM    6  C6  UNL     1     -33.736  14.970  -3.900  1.00 20.00    -0.044 C 
HETATM    7  C7  UNL     1     -32.296  14.594  -3.507  1.00 20.00     0.015 C 
HETATM    8  C8  UNL     1     -33.668  15.958  -5.081  1.00 20.00     0.015 C 
HETATM    9 BR9  UNL     1     -38.497  15.018  -3.760  1.00 20.00    -0.056 Br
ENDROOT
TORSDOF 0
ENDMDL
MODEL 3
REMARK VINA RESULT:      -4.0      2.725      3.916
REMARK  0 active torsions:
REMARK  status: ('A' for Active; 'I' for Inactive)
ROOT
HETATM    1  C1  UNL     1     -35.617  14.558  -5.031  1.00 20.00    -0.011 C 
HETATM    2  C2  UNL     1     -35.031  15.089  -6.115  1.00 20.00    -0.015 C 
HETATM    3  C3  UNL     1     -35.248  14.937  -3.625  1.00 20.00     0.036 C 
HETATM    4  C4  UNL     1     -33.956  16.137  -6.035  1.00 20.00     0.047 C 
HETATM    5  C5  UNL     1     -33.807  16.743  -4.633  1.00 20.00     0.014 C 
HETATM    6  C6  UNL     1     -33.901  15.692  -3.505  1.00 20.00    -0.044 C 
HETATM    7  C7  UNL     1     -33.837  16.401  -2.140  1.00 20.00     0.015 C 
HETATM    8  C8  UNL     1     -32.721  14.702  -3.585  1.00 20.00     0.015 C 
HETATM    9 BR9  UNL     1     -35.509  14.575  -7.847  1.00 20.00    -0.056 Br
ENDROOT
TORSDOF 0
ENDMDL
MODEL 4
REMARK VINA RESULT:      -4.0      1.666      2.045
REMARK  0 active torsions:
REMARK  status: ('A' for Active; 'I' for Inactive)
ROOT
HETATM    1  C1  UNL     1     -33.633  17.419  -4.206  1.00 20.00    -0.011 C 
HETATM    2  C2  UNL     1     -33.825  17.584  -2.889  1.00 20.00    -0.015 C 
HETATM    3  C3  UNL     1     -33.799  16.099  -4.904  1.00 20.00     0.036 C 
HETATM    4  C4  UNL     1     -34.246  16.467  -1.975  1.00 20.00     0.047 C 
HETATM    5  C5  UNL     1     -34.716  15.215  -2.728  1.00 20.00     0.014 C 
HETATM    6  C6  UNL     1     -33.835  14.878  -3.952  1.00 20.00    -0.044 C 
HETATM    7  C7  UNL     1     -34.435  13.672  -4.696  1.00 20.00     0.015 C 
HETATM    8  C8  UNL     1     -32.407  14.503  -3.506  1.00 20.00     0.015 C 
HETATM    9 BR9  UNL     1     -33.590  19.242  -2.057  1.00 20.00    -0.056 Br
ENDROOT
TORSDOF 0
ENDMDL
MODEL 5
REMARK VINA RESULT:      -4.0      1.037      2.127
REMARK  0 active torsions:
REMARK  status: ('A' for Active; 'I' for Inactive)
ROOT
HETATM    1  C1  UNL     1     -35.150  15.047  -3.333  1.00 20.00    -0.011 C 
HETATM    2  C2  UNL     1     -34.498  16.140  -2.907  1.00 20.00    -0.015 C 
HETATM    3  C3  UNL     1     -35.162  14.602  -4.768  1.00 20.00     0.036 C 
HETATM    4  C4  UNL     1     -33.694  17.023  -3.820  1.00 20.00     0.047 C 
HETATM    5  C5  UNL     1     -33.450  16.401  -5.201  1.00 20.00     0.014 C 
HETATM    6  C6  UNL     1     -34.694  15.685  -5.772  1.00 20.00    -0.044 C 
HETATM    7  C7  UNL     1     -34.328  15.015  -7.108  1.00 20.00     0.015 C 
HETATM    8  C8  UNL     1     -35.828  16.696  -6.038  1.00 20.00     0.015 C 
HETATM    9 BR9  UNL     1     -34.524  16.667  -1.114  1.00 20.00    -0.056 Br
ENDROOT
TORSDOF 0
ENDMDL
MODEL 6
REMARK VINA RESULT:      -3.9      0.813      2.050
REMARK  0 active torsions:
REMARK  status: ('A' for Active; 'I' for Inactive)
ROOT
HETATM    1  C1  UNL     1     -35.972  16.026  -3.101  1.00 20.00    -0.011 C 
HETATM    2  C2  UNL     1     -34.794  16.061  -2.460  1.00 20.00    -0.015 C 
HETATM    3  C3  UNL     1     -36.150  15.429  -4.468  1.00 20.00     0.036 C 
HETATM    4  C4  UNL     1     -33.530  15.486  -3.036  1.00 20.00     0.047 C 
HETATM    5  C5  UNL     1     -33.774  14.609  -4.272  1.00 20.00     0.014 C 
HETATM    6  C6  UNL     1     -34.825  15.201  -5.237  1.00 20.00    -0.044 C 
HETATM    7  C7  UNL     1     -35.072  14.212  -6.390  1.00 20.00     0.015 C 
HETATM    8  C8  UNL     1     -34.320  16.526  -5.843  1.00 20.00     0.015 C 
HETATM    9 BR9  UNL     1     -34.615  16.830  -0.766  1.00 20.00    -0.056 Br
ENDROOT
TORSDOF 0
ENDMDL
MODEL 7
REMARK VINA RESULT:      -3.9     12.150     13.397
REMARK  0 active torsions:
REMARK  status: ('A' for Active; 'I' for Inactive)
ROOT
HETATM    1  C1  UNL     1     -43.027   4.760  -3.014  1.00 20.00    -0.011 C 
HETATM    2  C2  UNL     1     -42.047   3.953  -2.581  1.00 20.00    -0.015 C 
HETATM    3  C3  UNL     1     -43.260   6.140  -2.468  1.00 20.00     0.036 C 
HETATM    4  C4  UNL     1     -41.067   4.354  -1.514  1.00 20.00     0.047 C 
HETATM    5  C5  UNL     1     -41.107   5.853  -1.189  1.00 20.00     0.014 C 
HETATM    6  C6  UNL     1     -42.542   6.421  -1.124  1.00 20.00    -0.044 C 
HETATM    7  C7  UNL     1     -42.480   7.940  -0.890  1.00 20.00     0.015 C 
HETATM    8  C8  UNL     1     -43.324   5.787   0.044  1.00 20.00     0.015 C 
HETATM    9 BR9  UNL     1     -41.804   2.235  -3.276  1.00 20.00    -0.056 Br
ENDROOT
TORSDOF 0
ENDMDL
MODEL 8
REMARK VINA RESULT:      -3.8      2.481      3.803
REMARK  0 active torsions:
REMARK  status: ('A' for Active; 'I' for Inactive)
ROOT
HETATM    1  C1  UNL     1     -33.821  16.749  -4.939  1.00 20.00    -0.011 C 
HETATM    2  C2  UNL     1     -34.412  15.612  -5.337  1.00 20.00    -0.015 C 
HETATM    3  C3  UNL     1     -33.780  17.199  -3.507  1.00 20.00     0.036 C 
HETATM    4  C4  UNL     1     -35.081  14.659  -4.386  1.00 20.00     0.047 C 
HETATM    5  C5  UNL     1     -34.766  14.955  -2.913  1.00 20.00     0.014 C 
HETATM    6  C6  UNL     1     -34.783  16.464  -2.582  1.00 20.00    -0.044 C 
HETATM    7  C7  UNL     1     -34.365  16.669  -1.116  1.00 20.00     0.015 C 
HETATM    8  C8  UNL     1     -36.201  17.043  -2.761  1.00 20.00     0.015 C 
HETATM    9 BR9  UNL     1     -34.455  15.099  -7.134  1.00 20.00    -0.056 Br
ENDROOT
TORSDOF 0
ENDMDL
MODEL 9
REMARK VINA RESULT:      -3.8     11.569     12.789
REMARK  0 active torsions:
REMARK  status: ('A' for Active; 'I' for Inactive)
ROOT
HETATM    1  C1  UNL     1     -43.081   5.824  -3.072  1.00 20.00    -0.011 C 
HETATM    2  C2  UNL     1     -42.537   7.037  -2.888  1.00 20.00    -0.015 C 
HETATM    3  C3  UNL     1     -43.150   4.780  -1.995  1.00 20.00     0.036 C 
HETATM    4  C4  UNL     1     -41.957   7.485  -1.575  1.00 20.00     0.047 C 
HETATM    5  C5  UNL     1     -42.310   6.551  -0.409  1.00 20.00     0.014 C 
HETATM    6  C6  UNL     1     -42.223   5.055  -0.784  1.00 20.00    -0.044 C 
HETATM    7  C7  UNL     1     -42.683   4.202   0.412  1.00 20.00     0.015 C 
HETATM    8  C8  UNL     1     -40.770   4.663  -1.120  1.00 20.00     0.015 C 
HETATM    9 BR9  UNL     1     -42.456   8.301  -4.262  1.00 20.00    -0.056 Br
ENDROOT
TORSDOF 0
ENDMDL
