MODEL 1
REMARK VINA RESULT:      -4.5      0.000      0.000
REMARK  0 active torsions:
REMARK  status: ('A' for Active; 'I' for Inactive)
ROOT
HETATM    1  C1  UNL     1     -33.758  17.417  -3.565  1.00 20.00     0.101 C 
HETATM    2  C2  UNL     1     -33.885  15.980  -5.342  1.00 20.00     0.055 C 
HETATM    3  C3  UNL     1     -35.356  15.477  -3.504  1.00 20.00     0.145 C 
HETATM    4  C4  UNL     1     -33.975  15.974  -6.682  1.00 20.00     0.112 C 
HETATM    5  C5  UNL     1     -34.886  16.743  -2.823  1.00 20.00     0.092 C 
HETATM    6  C6  UNL     1     -34.357  14.839  -4.457  1.00 20.00     0.105 C 
HETATM    7  C7  UNL     1     -34.435  16.422  -1.405  1.00 20.00     0.023 C 
HETATM    8  C8  UNL     1     -34.959  13.620  -5.156  1.00 20.00     0.025 C 
HETATM    9  N9  UNL     1     -33.297  17.065  -4.725  1.00 20.00    -0.267 NA
HETATM   10  O10 UNL     1     -36.445  14.974  -3.234  1.00 20.00    -0.296 OA
HETATM   11 CL11 UNL     1     -34.639  14.671  -7.561  1.00 20.00    -0.095 Cl
ENDROOT
TORSDOF 0
ENDMDL
MODEL 2
REMARK VINA RESULT:      -4.4      2.739      3.943
REMARK  0 active torsions:
REMARK  status: ('A' for Active; 'I' for Inactive)
ROOT
HETATM    1  C1  UNL     1     -33.553  14.257  -3.808  1.00 20.00     0.101 C 
HETATM    2  C2  UNL     1     -34.402  16.015  -2.613  1.00 20.00     0.055 C 
HETATM    3  C3  UNL     1     -36.035  14.649  -3.736  1.00 20.00     0.145 C 
HETATM    4  C4  UNL     1     -34.302  16.614  -1.415  1.00 20.00     0.112 C 
HETATM    5  C5  UNL     1     -34.918  13.727  -4.172  1.00 20.00     0.092 C 
HETATM    6  C6  UNL     1     -35.632  16.096  -3.500  1.00 20.00     0.105 C 
HETATM    7  C7  UNL     1     -34.991  13.511  -5.676  1.00 20.00     0.023 C 
HETATM    8  C8  UNL     1     -36.810  16.921  -2.982  1.00 20.00     0.025 C 
HETATM    9  N9  UNL     1     -33.316  15.312  -3.091  1.00 20.00    -0.267 NA
HETATM   10  O10 UNL     1     -37.196  14.251  -3.658  1.00 20.00    -0.296 OA
HETATM   11 CL11 UNL     1     -35.560  17.549  -0.738  1.00 20.00    -0.095 Cl
ENDROOT
TORSDOF 0
ENDMDL
MODEL 3
REMARK VINA RESULT:      -4.4      2.161      2.657
REMARK  0 active torsions:
REMARK  status: ('A' for Active; 'I' for Inactive)
ROOT
HETATM    1  C1  UNL     1     -34.454  15.582  -3.218  1.00 20.00     0.101 C 
HETATM    2  C2  UNL     1     -35.668  15.859  -5.137  1.00 20.00     0.055 C 
HETATM    3  C3  UNL     1     -34.666  13.689  -4.858  1.00 20.00     0.145 C 
HETATM    4  C4  UNL     1     -36.849  16.330  -5.573  1.00 20.00     0.112 C 
HETATM    5  C5  UNL     1     -34.180  14.124  -3.493  1.00 20.00     0.092 C 
HETATM    6  C6  UNL     1     -34.854  14.808  -5.871  1.00 20.00     0.105 C 
HETATM    7  C7  UNL     1     -32.685  13.860  -3.375  1.00 20.00     0.023 C 
HETATM    8  C8  UNL     1     -35.427  14.275  -7.184  1.00 20.00     0.025 C 
HETATM    9  N9  UNL     1     -35.139  16.381  -3.976  1.00 20.00    -0.267 NA
HETATM   10  O10 UNL     1     -34.818  12.499  -5.132  1.00 20.00    -0.296 OA
HETATM   11 CL11 UNL     1     -37.583  15.797  -7.018  1.00 20.00    -0.095 Cl
ENDROOT
TORSDOF 0
ENDMDL
MODEL 4
REMARK VINA RESULT:      -4.4      2.966      4.153
REMARK  0 active torsions:
REMARK  status: ('A' for Active; 'I' for Inactive)
ROOT
HETATM    1  C1  UNL     1     -33.490  18.086  -5.257  1.00 20.00     0.101 C 
HETATM    2  C2  UNL     1     -33.816  18.249  -2.998  1.00 20.00     0.055 C 
HETATM    3  C3  UNL     1     -33.525  16.012  -3.836  1.00 20.00     0.145 C 
HETATM    4  C4  UNL     1     -33.398  18.942  -1.925  1.00 20.00     0.112 C 
HETATM    5  C5  UNL     1     -33.270  16.594  -5.209  1.00 20.00     0.092 C 
HETATM    6  C6  UNL     1     -34.406  16.853  -2.925  1.00 20.00     0.105 C 
HETATM    7  C7  UNL     1     -34.177  15.917  -6.227  1.00 20.00     0.023 C 
HETATM    8  C8  UNL     1     -34.530  16.220  -1.539  1.00 20.00     0.025 C 
HETATM    9  N9  UNL     1     -33.742  18.848  -4.238  1.00 20.00    -0.267 NA
HETATM   10  O10 UNL     1     -33.102  14.900  -3.527  1.00 20.00    -0.296 OA
HETATM   11 CL11 UNL     1     -33.480  18.328  -0.335  1.00 20.00    -0.095 Cl
ENDROOT
TORSDOF 0
ENDMDL
MODEL 5
REMARK VINA RESULT:      -4.2      2.053      2.599
REMARK  0 active torsions:
REMARK  status: ('A' for Active; 'I' for Inactive)
ROOT
HETATM    1  C1  UNL     1     -34.428  14.487  -3.050  1.00 20.00     0.101 C 
HETATM    2  C2  UNL     1     -35.073  14.700  -5.235  1.00 20.00     0.055 C 
HETATM    3  C3  UNL     1     -33.793  16.539  -4.357  1.00 20.00     0.145 C 
HETATM    4  C4  UNL     1     -35.112  14.012  -6.389  1.00 20.00     0.112 C 
HETATM    5  C5  UNL     1     -33.627  15.766  -3.067  1.00 20.00     0.092 C 
HETATM    6  C6  UNL     1     -35.047  16.215  -5.154  1.00 20.00     0.105 C 
HETATM    7  C7  UNL     1     -34.044  16.639  -1.892  1.00 20.00     0.023 C 
HETATM    8  C8  UNL     1     -35.076  16.984  -6.475  1.00 20.00     0.025 C 
HETATM    9  N9  UNL     1     -35.095  13.997  -4.048  1.00 20.00    -0.267 NA
HETATM   10  O10 UNL     1     -32.996  17.418  -4.681  1.00 20.00    -0.296 OA
HETATM   11 CL11 UNL     1     -35.136  14.768  -7.918  1.00 20.00    -0.095 Cl
ENDROOT
TORSDOF 0
ENDMDL
MODEL 6
REMARK VINA RESULT:      -4.1      3.025      4.217
REMARK  0 active torsions:
REMARK  status: ('A' for Active; 'I' for Inactive)
ROOT
HETATM    1  C1  UNL     1     -36.184  14.554  -4.301  1.00 20.00     0.101 C 
HETATM    2  C2  UNL     1     -35.980  16.282  -2.814  1.00 20.00     0.055 C 
HETATM    3  C3  UNL     1     -33.929  15.574  -3.858  1.00 20.00     0.145 C 
HETATM    4  C4  UNL     1     -36.543  17.457  -2.488  1.00 20.00     0.112 C 
HETATM    5  C5  UNL     1     -34.730  14.604  -4.699  1.00 20.00     0.092 C 
HETATM    6  C6  UNL     1     -34.537  15.921  -2.507  1.00 20.00     0.105 C 
HETATM    7  C7  UNL     1     -34.127  13.211  -4.585  1.00 20.00     0.023 C 
HETATM    8  C8  UNL     1     -33.698  16.969  -1.776  1.00 20.00     0.025 C 
HETATM    9  N9  UNL     1     -36.759  15.326  -3.432  1.00 20.00    -0.267 NA
HETATM   10  O10 UNL     1     -32.829  15.981  -4.227  1.00 20.00    -0.296 OA
HETATM   11 CL11 UNL     1     -35.696  18.700  -1.682  1.00 20.00    -0.095 Cl
ENDROOT
TORSDOF 0
ENDMDL
MODEL 7
REMARK VINA RESULT:      -4.1      2.914      4.051
REMARK  0 active torsions:
REMARK  status: ('A' for Active; 'I' for Inactive)
ROOT
HETATM    1  C1  UNL     1     -35.454  13.560  -4.332  1.00 20.00     0.101 C 
HETATM    2  C2  UNL     1     -36.634  15.288  -3.407  1.00 20.00     0.055 C 
HETATM    3  C3  UNL     1     -34.265  15.657  -3.620  1.00 20.00     0.145 C 
HETATM    4  C4  UNL     1     -37.747  16.017  -3.594  1.00 20.00     0.112 C 
HETATM    5  C5  UNL     1     -34.154  14.325  -4.328  1.00 20.00     0.092 C 
HETATM    6  C6  UNL     1     -35.421  15.779  -2.638  1.00 20.00     0.105 C 
HETATM    7  C7  UNL     1     -33.075  13.482  -3.663  1.00 20.00     0.023 C 
HETATM    8  C8  UNL     1     -35.495  17.186  -2.044  1.00 20.00     0.025 C 
HETATM    9  N9  UNL     1     -36.596  14.004  -3.907  1.00 20.00    -0.267 NA
HETATM   10  O10 UNL     1     -33.425  16.539  -3.785  1.00 20.00    -0.296 OA
HETATM   11 CL11 UNL     1     -37.932  17.600  -2.985  1.00 20.00    -0.095 Cl
ENDROOT
TORSDOF 0
ENDMDL
MODEL 8
REMARK VINA RESULT:      -4.1     12.311     13.204
REMARK  0 active torsions:
REMARK  status: ('A' for Active; 'I' for Inactive)
ROOT
HETATM    1  C1  UNL     1     -41.171   6.560  -0.789  1.00 20.00     0.101 C 
HETATM    2  C2  UNL     1     -41.399   4.502  -1.765  1.00 20.00     0.055 C 
HETATM    3  C3  UNL     1     -42.743   6.252  -2.727  1.00 20.00     0.145 C 
HETATM    4  C4  UNL     1     -40.668   3.477  -2.232  1.00 20.00     0.112 C 
HETATM    5  C5  UNL     1     -42.080   7.235  -1.786  1.00 20.00     0.092 C 
HETATM    6  C6  UNL     1     -42.810   4.817  -2.229  1.00 20.00     0.105 C 
HETATM    7  C7  UNL     1     -43.146   8.027  -1.043  1.00 20.00     0.023 C 
HETATM    8  C8  UNL     1     -43.417   3.893  -3.285  1.00 20.00     0.025 C 
HETATM    9  N9  UNL     1     -40.859   5.301  -0.779  1.00 20.00    -0.267 NA
HETATM   10  O10 UNL     1     -43.253   6.625  -3.782  1.00 20.00    -0.296 OA
HETATM   11 CL11 UNL     1     -41.244   2.393  -3.418  1.00 20.00    -0.095 Cl
ENDROOT
TORSDOF 0
ENDMDL
MODEL 9
REMARK VINA RESULT:      -4.1      2.520      3.537
REMARK  0 active torsions:
REMARK  status: ('A' for Active; 'I' for Inactive)
ROOT
HETATM    1  C1  UNL     1     -33.886  17.810  -5.968  1.00 20.00     0.101 C 
HETATM    2  C2  UNL     1     -33.733  15.926  -4.677  1.00 20.00     0.055 C 
HETATM    3  C3  UNL     1     -34.542  15.576  -6.917  1.00 20.00     0.145 C 
HETATM    4  C4  UNL     1     -32.892  15.292  -3.843  1.00 20.00     0.112 C 
HETATM    5  C5  UNL     1     -34.301  17.043  -7.199  1.00 20.00     0.092 C 
HETATM    6  C6  UNL     1     -34.829  15.230  -5.464  1.00 20.00     0.105 C 
HETATM    7  C7  UNL     1     -35.563  17.666  -7.779  1.00 20.00     0.023 C 
HETATM    8  C8  UNL     1     -34.972  13.720  -5.273  1.00 20.00     0.025 C 
HETATM    9  N9  UNL     1     -33.625  17.295  -4.806  1.00 20.00    -0.267 NA
HETATM   10  O10 UNL     1     -34.575  14.749  -7.826  1.00 20.00    -0.296 OA
HETATM   11 CL11 UNL     1     -32.956  13.610  -3.565  1.00 20.00    -0.095 Cl
ENDROOT
TORSDOF 0
ENDMDL
