MODEL 1
REMARK VINA RESULT:      -5.7      0.000      0.000
REMARK  0 active torsions:
REMARK  status: ('A' for Active; 'I' for Inactive)
ROOT
HETATM    1  C1  UNL     1     -35.951  14.013  -4.003  1.00 20.00     0.009 C 
HETATM    2  C2  UNL     1     -33.456  13.715  -3.946  1.00 20.00     0.009 C 
HETATM    3  C3  UNL     1     -34.567  14.621  -6.003  1.00 20.00     0.013 C 
HETATM    4  C4  UNL     1     -35.651  16.417  -4.624  1.00 20.00     0.014 C 
HETATM    5  C5  UNL     1     -33.152  16.119  -4.567  1.00 20.00     0.014 C 
HETATM    6  C6  UNL     1     -34.711  13.634  -4.831  1.00 20.00    -0.013 C 
HETATM    7  C7  UNL     1     -35.797  15.441  -3.441  1.00 20.00    -0.009 C 
HETATM    8  C8  UNL     1     -33.294  15.141  -3.384  1.00 20.00    -0.009 C 
HETATM    9  C9  UNL     1     -34.544  15.479  -2.534  1.00 20.00    -0.010 C 
HETATM   10  C10 UNL     1     -34.407  16.065  -5.471  1.00 20.00    -0.043 C 
HETATM   11  C11 UNL     1     -34.403  16.799  -1.772  1.00 20.00     0.010 C 
HETATM   12  C12 UNL     1     -34.263  17.046  -6.638  1.00 20.00     0.015 C 
ENDROOT
TORSDOF 0
ENDMDL
MODEL 2
REMARK VINA RESULT:      -5.3      0.754      3.355
REMARK  0 active torsions:
REMARK  status: ('A' for Active; 'I' for Inactive)
ROOT
HETATM    1  C1  UNL     1     -33.165  16.039  -4.523  1.00 20.00     0.009 C 
HETATM    2  C2  UNL     1     -33.850  13.743  -3.767  1.00 20.00     0.009 C 
HETATM    3  C3  UNL     1     -34.897  15.772  -2.731  1.00 20.00     0.013 C 
HETATM    4  C4  UNL     1     -35.555  16.594  -5.009  1.00 20.00     0.014 C 
HETATM    5  C5  UNL     1     -36.241  14.293  -4.252  1.00 20.00     0.014 C 
HETATM    6  C6  UNL     1     -33.597  15.191  -3.315  1.00 20.00    -0.013 C 
HETATM    7  C7  UNL     1     -34.260  16.012  -5.608  1.00 20.00    -0.009 C 
HETATM    8  C8  UNL     1     -34.947  13.708  -4.849  1.00 20.00    -0.009 C 
HETATM    9  C9  UNL     1     -34.467  14.547  -6.060  1.00 20.00    -0.010 C 
HETATM   10  C10 UNL     1     -36.018  15.755  -3.797  1.00 20.00    -0.043 C 
HETATM   11  C11 UNL     1     -35.397  14.425  -7.270  1.00 20.00     0.010 C 
HETATM   12  C12 UNL     1     -37.311  16.332  -3.214  1.00 20.00     0.015 C 
ENDROOT
TORSDOF 0
ENDMDL
MODEL 3
REMARK VINA RESULT:      -5.2      0.719      2.422
REMARK  0 active torsions:
REMARK  status: ('A' for Active; 'I' for Inactive)
ROOT
HETATM    1  C1  UNL     1     -33.832  13.880  -3.778  1.00 20.00     0.009 C 
HETATM    2  C2  UNL     1     -34.318  15.972  -2.474  1.00 20.00     0.009 C 
HETATM    3  C3  UNL     1     -33.123  16.112  -4.674  1.00 20.00     0.013 C 
HETATM    4  C4  UNL     1     -34.995  14.848  -5.769  1.00 20.00     0.014 C 
HETATM    5  C5  UNL     1     -35.483  16.945  -4.462  1.00 20.00     0.014 C 
HETATM    6  C6  UNL     1     -33.304  15.274  -3.396  1.00 20.00    -0.013 C 
HETATM    7  C7  UNL     1     -35.191  14.006  -4.494  1.00 20.00    -0.009 C 
HETATM    8  C8  UNL     1     -35.679  16.105  -3.185  1.00 20.00    -0.009 C 
HETATM    9  C9  UNL     1     -36.193  14.685  -3.529  1.00 20.00    -0.010 C 
HETATM   10  C10 UNL     1     -34.474  16.260  -5.414  1.00 20.00    -0.043 C 
HETATM   11  C11 UNL     1     -37.626  14.688  -4.068  1.00 20.00     0.010 C 
HETATM   12  C12 UNL     1     -34.292  17.094  -6.685  1.00 20.00     0.015 C 
ENDROOT
TORSDOF 0
ENDMDL
MODEL 4
REMARK VINA RESULT:      -5.0      1.040      3.323
REMARK  0 active torsions:
REMARK  status: ('A' for Active; 'I' for Inactive)
ROOT
HETATM    1  C1  UNL     1     -35.894  16.841  -5.232  1.00 20.00     0.009 C 
HETATM    2  C2  UNL     1     -33.384  16.957  -5.204  1.00 20.00     0.009 C 
HETATM    3  C3  UNL     1     -34.702  17.777  -3.236  1.00 20.00     0.013 C 
HETATM    4  C4  UNL     1     -35.861  15.555  -3.088  1.00 20.00     0.014 C 
HETATM    5  C5  UNL     1     -33.346  15.670  -3.060  1.00 20.00     0.014 C 
HETATM    6  C6  UNL     1     -34.679  17.664  -4.770  1.00 20.00    -0.013 C 
HETATM    7  C7  UNL     1     -35.839  15.426  -4.623  1.00 20.00    -0.009 C 
HETATM    8  C8  UNL     1     -33.321  15.542  -4.596  1.00 20.00    -0.009 C 
HETATM    9  C9  UNL     1     -34.541  14.735  -5.104  1.00 20.00    -0.010 C 
HETATM   10  C10 UNL     1     -34.644  16.370  -2.594  1.00 20.00    -0.043 C 
HETATM   11  C11 UNL     1     -34.477  13.256  -4.713  1.00 20.00     0.010 C 
HETATM   12  C12 UNL     1     -34.666  16.485  -1.067  1.00 20.00     0.015 C 
ENDROOT
TORSDOF 0
ENDMDL
MODEL 5
REMARK VINA RESULT:      -5.0      0.942      2.984
REMARK  0 active torsions:
REMARK  status: ('A' for Active; 'I' for Inactive)
ROOT
HETATM    1  C1  UNL     1     -33.481  17.176  -4.850  1.00 20.00     0.009 C 
HETATM    2  C2  UNL     1     -35.993  17.187  -4.781  1.00 20.00     0.009 C 
HETATM    3  C3  UNL     1     -34.773  15.266  -5.833  1.00 20.00     0.013 C 
HETATM    4  C4  UNL     1     -33.458  14.945  -3.719  1.00 20.00     0.014 C 
HETATM    5  C5  UNL     1     -35.975  14.957  -3.650  1.00 20.00     0.014 C 
HETATM    6  C6  UNL     1     -34.761  16.788  -5.611  1.00 20.00    -0.013 C 
HETATM    7  C7  UNL     1     -33.443  16.467  -3.482  1.00 20.00    -0.009 C 
HETATM    8  C8  UNL     1     -35.963  16.479  -3.412  1.00 20.00    -0.009 C 
HETATM    9  C9  UNL     1     -34.679  16.913  -2.664  1.00 20.00    -0.010 C 
HETATM   10  C10 UNL     1     -34.740  14.526  -4.476  1.00 20.00    -0.043 C 
HETATM   11  C11 UNL     1     -34.642  16.418  -1.216  1.00 20.00     0.010 C 
HETATM   12  C12 UNL     1     -34.753  13.011  -4.699  1.00 20.00     0.015 C 
ENDROOT
TORSDOF 0
ENDMDL
MODEL 6
REMARK VINA RESULT:      -4.9      0.887      2.723
REMARK  0 active torsions:
REMARK  status: ('A' for Active; 'I' for Inactive)
ROOT
HETATM    1  C1  UNL     1     -33.463  14.074  -3.835  1.00 20.00     0.009 C 
HETATM    2  C2  UNL     1     -34.343  14.553  -6.139  1.00 20.00     0.009 C 
HETATM    3  C3  UNL     1     -35.898  13.761  -4.340  1.00 20.00     0.013 C 
HETATM    4  C4  UNL     1     -35.148  15.646  -2.862  1.00 20.00     0.014 C 
HETATM    5  C5  UNL     1     -36.029  16.127  -5.172  1.00 20.00     0.014 C 
HETATM    6  C6  UNL     1     -34.474  13.639  -4.909  1.00 20.00    -0.013 C 
HETATM    7  C7  UNL     1     -33.719  15.539  -3.428  1.00 20.00    -0.009 C 
HETATM    8  C8  UNL     1     -34.601  16.020  -5.740  1.00 20.00    -0.009 C 
HETATM    9  C9  UNL     1     -33.550  16.433  -4.681  1.00 20.00    -0.010 C 
HETATM   10  C10 UNL     1     -36.187  15.223  -3.926  1.00 20.00    -0.043 C 
HETATM   11  C11 UNL     1     -33.595  17.927  -4.354  1.00 20.00     0.010 C 
HETATM   12  C12 UNL     1     -37.605  15.342  -3.360  1.00 20.00     0.015 C 
ENDROOT
TORSDOF 0
ENDMDL
MODEL 7
REMARK VINA RESULT:      -4.9      1.048      2.093
REMARK  0 active torsions:
REMARK  status: ('A' for Active; 'I' for Inactive)
ROOT
HETATM    1  C1  UNL     1     -34.052  14.127  -4.269  1.00 20.00     0.009 C 
HETATM    2  C2  UNL     1     -33.293  16.397  -5.035  1.00 20.00     0.009 C 
HETATM    3  C3  UNL     1     -35.493  15.480  -5.811  1.00 20.00     0.013 C 
HETATM    4  C4  UNL     1     -36.185  15.124  -3.425  1.00 20.00     0.014 C 
HETATM    5  C5  UNL     1     -35.424  17.398  -4.192  1.00 20.00     0.014 C 
HETATM    6  C6  UNL     1     -34.043  15.119  -5.445  1.00 20.00    -0.013 C 
HETATM    7  C7  UNL     1     -34.735  14.766  -3.044  1.00 20.00    -0.009 C 
HETATM    8  C8  UNL     1     -33.973  17.042  -3.812  1.00 20.00    -0.009 C 
HETATM    9  C9  UNL     1     -33.939  16.030  -2.641  1.00 20.00    -0.010 C 
HETATM   10  C10 UNL     1     -36.206  16.127  -4.601  1.00 20.00    -0.043 C 
HETATM   11  C11 UNL     1     -34.419  16.637  -1.320  1.00 20.00     0.010 C 
HETATM   12  C12 UNL     1     -37.648  16.487  -4.967  1.00 20.00     0.015 C 
ENDROOT
TORSDOF 0
ENDMDL
MODEL 8
REMARK VINA RESULT:      -4.9      1.150      2.554
REMARK  0 active torsions:
REMARK  status: ('A' for Active; 'I' for Inactive)
ROOT
HETATM    1  C1  UNL     1     -35.336  17.036  -4.028  1.00 20.00     0.009 C 
HETATM    2  C2  UNL     1     -36.351  14.775  -3.616  1.00 20.00     0.009 C 
HETATM    3  C3  UNL     1     -36.367  15.758  -5.922  1.00 20.00     0.013 C 
HETATM    4  C4  UNL     1     -33.878  16.059  -5.810  1.00 20.00     0.014 C 
HETATM    5  C5  UNL     1     -34.895  13.793  -5.397  1.00 20.00     0.014 C 
HETATM    6  C6  UNL     1     -36.475  16.079  -4.421  1.00 20.00    -0.013 C 
HETATM    7  C7  UNL     1     -33.970  16.376  -4.305  1.00 20.00    -0.009 C 
HETATM    8  C8  UNL     1     -34.989  14.108  -3.891  1.00 20.00    -0.009 C 
HETATM    9  C9  UNL     1     -33.868  15.085  -3.458  1.00 20.00    -0.010 C 
HETATM   10  C10 UNL     1     -35.007  15.090  -6.232  1.00 20.00    -0.043 C 
HETATM   11  C11 UNL     1     -32.477  14.450  -3.510  1.00 20.00     0.010 C 
HETATM   12  C12 UNL     1     -34.902  14.771  -7.726  1.00 20.00     0.015 C 
ENDROOT
TORSDOF 0
ENDMDL
MODEL 9
REMARK VINA RESULT:      -4.9      1.112      1.931
REMARK  0 active torsions:
REMARK  status: ('A' for Active; 'I' for Inactive)
ROOT
HETATM    1  C1  UNL     1     -35.379  15.094  -3.037  1.00 20.00     0.009 C 
HETATM    2  C2  UNL     1     -32.984  15.139  -3.793  1.00 20.00     0.009 C 
HETATM    3  C3  UNL     1     -34.661  13.733  -5.015  1.00 20.00     0.013 C 
HETATM    4  C4  UNL     1     -36.119  15.750  -5.334  1.00 20.00     0.014 C 
HETATM    5  C5  UNL     1     -33.719  15.797  -6.091  1.00 20.00     0.014 C 
HETATM    6  C6  UNL     1     -34.234  14.258  -3.634  1.00 20.00    -0.013 C 
HETATM    7  C7  UNL     1     -35.696  16.291  -3.954  1.00 20.00    -0.009 C 
HETATM    8  C8  UNL     1     -33.292  16.337  -4.713  1.00 20.00    -0.009 C 
HETATM    9  C9  UNL     1     -34.428  17.171  -4.069  1.00 20.00    -0.010 C 
HETATM   10  C10 UNL     1     -34.982  14.913  -5.962  1.00 20.00    -0.043 C 
HETATM   11  C11 UNL     1     -34.684  18.489  -4.803  1.00 20.00     0.010 C 
HETATM   12  C12 UNL     1     -35.405  14.388  -7.337  1.00 20.00     0.015 C 
ENDROOT
TORSDOF 0
ENDMDL
