MODEL 1
REMARK VINA RESULT:      -4.0      0.000      0.000
REMARK  1 active torsions:
REMARK  status: ('A' for Active; 'I' for Inactive)
REMARK    1  A    between atoms: C5_5  and  N7_7 
ROOT
HETATM    1  C1  UNL     1     -32.926   6.272   3.091  1.00 20.00     0.160 C 
HETATM    2  N7  UNL     1     -33.528   5.299   3.343  1.00 20.00    -0.237 NA
HETATM    3  S9  UNL     1     -32.082   7.573   2.731  1.00 20.00    -0.055 SA
ENDROOT
BRANCH   2   4
HETATM    4  C5  UNL     1     -34.715   5.513   4.184  1.00 20.00     0.152 C 
HETATM    5  C3  UNL     1     -35.054   4.199   4.883  1.00 20.00     0.065 C 
HETATM    6  C2  UNL     1     -34.261   4.317   6.163  1.00 20.00     0.031 C 
HETATM    7  C4  UNL     1     -34.412   5.787   6.488  1.00 20.00     0.171 C 
HETATM    8  O8  UNL     1     -34.547   6.481   5.240  1.00 20.00    -0.359 OA
HETATM    9  C6  UNL     1     -35.841   5.986   3.272  1.00 20.00     0.073 C 
ENDBRANCH   2   4
TORSDOF 1
ENDMDL
MODEL 2
REMARK VINA RESULT:      -3.7     12.051     13.369
REMARK  1 active torsions:
REMARK  status: ('A' for Active; 'I' for Inactive)
REMARK    1  A    between atoms: C5_5  and  N7_7 
ROOT
HETATM    1  C1  UNL     1     -34.894  15.831  -2.289  1.00 20.00     0.160 C 
HETATM    2  N7  UNL     1     -35.149  15.173  -3.224  1.00 20.00    -0.237 NA
HETATM    3  S9  UNL     1     -34.583  16.722  -1.006  1.00 20.00    -0.055 SA
ENDROOT
BRANCH   2   4
HETATM    4  C5  UNL     1     -34.030  14.974  -4.157  1.00 20.00     0.152 C 
HETATM    5  C3  UNL     1     -34.601  14.779  -5.559  1.00 20.00     0.065 C 
HETATM    6  C2  UNL     1     -34.636  16.197  -6.077  1.00 20.00     0.031 C 
HETATM    7  C4  UNL     1     -33.363  16.773  -5.496  1.00 20.00     0.171 C 
HETATM    8  O8  UNL     1     -33.118  16.085  -4.261  1.00 20.00    -0.359 OA
HETATM    9  C6  UNL     1     -33.251  13.755  -3.679  1.00 20.00     0.073 C 
ENDBRANCH   2   4
TORSDOF 1
ENDMDL
MODEL 3
REMARK VINA RESULT:      -3.6     12.693     13.584
REMARK  1 active torsions:
REMARK  status: ('A' for Active; 'I' for Inactive)
REMARK    1  A    between atoms: C5_5  and  N7_7 
ROOT
HETATM    1  C1  UNL     1     -33.372  17.389  -5.074  1.00 20.00     0.160 C 
HETATM    2  N7  UNL     1     -32.977  16.303  -4.879  1.00 20.00    -0.237 NA
HETATM    3  S9  UNL     1     -33.878  18.871  -5.359  1.00 20.00    -0.055 SA
ENDROOT
BRANCH   2   4
HETATM    4  C5  UNL     1     -33.848  15.477  -4.029  1.00 20.00     0.152 C 
HETATM    5  C3  UNL     1     -35.231  15.418  -4.671  1.00 20.00     0.065 C 
HETATM    6  C2  UNL     1     -35.112  14.193  -5.546  1.00 20.00     0.031 C 
HETATM    7  C4  UNL     1     -34.278  13.273  -4.683  1.00 20.00     0.171 C 
HETATM    8  O8  UNL     1     -33.431  14.106  -3.879  1.00 20.00    -0.359 OA
HETATM    9  C6  UNL     1     -33.881  16.124  -2.649  1.00 20.00     0.073 C 
ENDBRANCH   2   4
TORSDOF 1
ENDMDL
MODEL 4
REMARK VINA RESULT:      -3.6     12.221     13.039
REMARK  1 active torsions:
REMARK  status: ('A' for Active; 'I' for Inactive)
REMARK    1  A    between atoms: C5_5  and  N7_7 
ROOT
HETATM    1  C1  UNL     1     -35.051  16.426  -2.363  1.00 20.00     0.160 C 
HETATM    2  N7  UNL     1     -35.413  16.182  -3.450  1.00 20.00    -0.237 NA
HETATM    3  S9  UNL     1     -34.590  16.773  -0.878  1.00 20.00    -0.055 SA
ENDROOT
BRANCH   2   4
HETATM    4  C5  UNL     1     -34.403  15.540  -4.304  1.00 20.00     0.152 C 
HETATM    5  C3  UNL     1     -33.998  14.218  -3.658  1.00 20.00     0.065 C 
HETATM    6  C2  UNL     1     -34.979  13.255  -4.285  1.00 20.00     0.031 C 
HETATM    7  C4  UNL     1     -35.075  13.787  -5.699  1.00 20.00     0.171 C 
HETATM    8  O8  UNL     1     -34.852  15.202  -5.631  1.00 20.00    -0.359 OA
HETATM    9  C6  UNL     1     -33.229  16.505  -4.424  1.00 20.00     0.073 C 
ENDBRANCH   2   4
TORSDOF 1
ENDMDL
MODEL 5
REMARK VINA RESULT:      -3.5      9.129      9.915
REMARK  1 active torsions:
REMARK  status: ('A' for Active; 'I' for Inactive)
REMARK    1  A    between atoms: C5_5  and  N7_7 
ROOT
HETATM    1  C1  UNL     1     -41.481   3.715  -2.231  1.00 20.00     0.160 C 
HETATM    2  N7  UNL     1     -40.894   4.508  -1.599  1.00 20.00    -0.237 NA
HETATM    3  S9  UNL     1     -42.246   2.629  -3.108  1.00 20.00    -0.055 SA
ENDROOT
BRANCH   2   4
HETATM    4  C5  UNL     1     -41.721   5.267  -0.649  1.00 20.00     0.152 C 
HETATM    5  C3  UNL     1     -40.858   6.362  -0.027  1.00 20.00     0.065 C 
HETATM    6  C2  UNL     1     -41.089   7.513  -0.976  1.00 20.00     0.031 C 
HETATM    7  C4  UNL     1     -42.555   7.350  -1.313  1.00 20.00     0.171 C 
HETATM    8  O8  UNL     1     -42.850   5.948  -1.231  1.00 20.00    -0.359 OA
HETATM    9  C6  UNL     1     -42.239   4.282   0.393  1.00 20.00     0.073 C 
ENDBRANCH   2   4
TORSDOF 1
ENDMDL
MODEL 6
REMARK VINA RESULT:      -3.5     12.470     13.041
REMARK  1 active torsions:
REMARK  status: ('A' for Active; 'I' for Inactive)
REMARK    1  A    between atoms: C5_5  and  N7_7 
ROOT
HETATM    1  C1  UNL     1     -33.816  14.639  -4.028  1.00 20.00     0.160 C 
HETATM    2  N7  UNL     1     -33.287  15.560  -3.533  1.00 20.00    -0.237 NA
HETATM    3  S9  UNL     1     -34.503  13.370  -4.702  1.00 20.00    -0.055 SA
ENDROOT
BRANCH   2   4
HETATM    4  C5  UNL     1     -34.175  16.695  -3.244  1.00 20.00     0.152 C 
HETATM    5  C3  UNL     1     -35.224  16.239  -2.233  1.00 20.00     0.065 C 
HETATM    6  C2  UNL     1     -34.554  16.573  -0.921  1.00 20.00     0.031 C 
HETATM    7  C4  UNL     1     -33.859  17.876  -1.249  1.00 20.00     0.171 C 
HETATM    8  O8  UNL     1     -33.530  17.837  -2.645  1.00 20.00    -0.359 OA
HETATM    9  C6  UNL     1     -34.800  17.132  -4.564  1.00 20.00     0.073 C 
ENDBRANCH   2   4
TORSDOF 1
ENDMDL
MODEL 7
REMARK VINA RESULT:      -3.5     12.732     13.795
REMARK  1 active torsions:
REMARK  status: ('A' for Active; 'I' for Inactive)
REMARK    1  A    between atoms: C5_5  and  N7_7 
ROOT
HETATM    1  C1  UNL     1     -33.485  17.040  -5.094  1.00 20.00     0.160 C 
HETATM    2  N7  UNL     1     -33.357  15.876  -5.060  1.00 20.00    -0.237 NA
HETATM    3  S9  UNL     1     -33.626  18.626  -5.123  1.00 20.00    -0.055 SA
ENDROOT
BRANCH   2   4
HETATM    4  C5  UNL     1     -34.479  15.119  -5.635  1.00 20.00     0.152 C 
HETATM    5  C3  UNL     1     -34.411  13.686  -5.114  1.00 20.00     0.065 C 
HETATM    6  C2  UNL     1     -35.255  13.772  -3.864  1.00 20.00     0.031 C 
HETATM    7  C4  UNL     1     -36.355  14.717  -4.297  1.00 20.00     0.171 C 
HETATM    8  O8  UNL     1     -35.788  15.601  -5.274  1.00 20.00    -0.359 OA
HETATM    9  C6  UNL     1     -34.342  15.186  -7.152  1.00 20.00     0.073 C 
ENDBRANCH   2   4
TORSDOF 1
ENDMDL
MODEL 8
REMARK VINA RESULT:      -3.4     12.303     13.149
REMARK  1 active torsions:
REMARK  status: ('A' for Active; 'I' for Inactive)
REMARK    1  A    between atoms: C5_5  and  N7_7 
ROOT
HETATM    1  C1  UNL     1     -36.575  16.355  -3.269  1.00 20.00     0.160 C 
HETATM    2  N7  UNL     1     -36.028  15.346  -3.036  1.00 20.00    -0.237 NA
HETATM    3  S9  UNL     1     -37.348  17.715  -3.567  1.00 20.00    -0.055 SA
ENDROOT
BRANCH   2   4
HETATM    4  C5  UNL     1     -34.682  15.229  -3.618  1.00 20.00     0.152 C 
HETATM    5  C3  UNL     1     -34.277  13.758  -3.603  1.00 20.00     0.065 C 
HETATM    6  C2  UNL     1     -34.779  13.286  -4.947  1.00 20.00     0.031 C 
HETATM    7  C4  UNL     1     -34.485  14.481  -5.826  1.00 20.00     0.171 C 
HETATM    8  O8  UNL     1     -34.575  15.646  -4.994  1.00 20.00    -0.359 OA
HETATM    9  C6  UNL     1     -33.747  16.092  -2.779  1.00 20.00     0.073 C 
ENDBRANCH   2   4
TORSDOF 1
ENDMDL
MODEL 9
REMARK VINA RESULT:      -3.4     12.597     13.140
REMARK  1 active torsions:
REMARK  status: ('A' for Active; 'I' for Inactive)
REMARK    1  A    between atoms: C5_5  and  N7_7 
ROOT
HETATM    1  C1  UNL     1     -35.354  15.346  -6.238  1.00 20.00     0.160 C 
HETATM    2  N7  UNL     1     -34.389  15.482  -5.587  1.00 20.00    -0.237 NA
HETATM    3  S9  UNL     1     -36.652  15.184  -7.146  1.00 20.00    -0.055 SA
ENDROOT
BRANCH   2   4
HETATM    4  C5  UNL     1     -34.382  14.716  -4.332  1.00 20.00     0.152 C 
HETATM    5  C3  UNL     1     -33.136  15.101  -3.540  1.00 20.00     0.065 C 
HETATM    6  C2  UNL     1     -33.644  16.252  -2.705  1.00 20.00     0.031 C 
HETATM    7  C4  UNL     1     -35.045  15.795  -2.365  1.00 20.00     0.171 C 
HETATM    8  O8  UNL     1     -35.495  14.975  -3.453  1.00 20.00    -0.359 OA
HETATM    9  C6  UNL     1     -34.395  13.237  -4.702  1.00 20.00     0.073 C 
ENDBRANCH   2   4
TORSDOF 1
ENDMDL
