MODEL 1
REMARK VINA RESULT:      -4.4      0.000      0.000
REMARK  2 active torsions:
REMARK  status: ('A' for Active; 'I' for Inactive)
REMARK    1  A    between atoms: C1_1  and  C5_5 
REMARK    2  A    between atoms: C5_5  and  C7_7 
ROOT
HETATM    1  C2  UNL     1     -33.847  16.632  -2.849  1.00 20.00     0.002 C 
HETATM    2  C3  UNL     1     -34.851  15.475  -2.708  1.00 20.00     0.020 C 
HETATM    3  C4  UNL     1     -33.027  15.741  -3.798  1.00 20.00     0.020 C 
HETATM    4  C5  UNL     1     -34.313  14.892  -4.054  1.00 20.00     0.048 C 
ENDROOT
BRANCH   4   5
HETATM    5  C1  UNL     1     -34.098  13.353  -4.071  1.00 20.00     0.181 C 
HETATM    6  O8  UNL     1     -32.926  12.970  -3.799  1.00 20.00    -0.647 OA
HETATM    7  O9  UNL     1     -35.127  12.679  -4.356  1.00 20.00    -0.647 OA
ENDBRANCH   4   5
BRANCH   4   8
HETATM    8  C7  UNL     1     -35.110  15.348  -5.277  1.00 20.00     0.016 C 
HETATM    9  C6  UNL     1     -34.464  14.916  -6.554  1.00 20.00     0.006 C 
ENDBRANCH   4   8
TORSDOF 2
ENDMDL
MODEL 2
REMARK VINA RESULT:      -4.4      0.065      1.081
REMARK  2 active torsions:
REMARK  status: ('A' for Active; 'I' for Inactive)
REMARK    1  A    between atoms: C1_1  and  C5_5 
REMARK    2  A    between atoms: C5_5  and  C7_7 
ROOT
HETATM    1  C2  UNL     1     -33.819  16.636  -2.794  1.00 20.00     0.002 C 
HETATM    2  C3  UNL     1     -34.826  15.482  -2.651  1.00 20.00     0.020 C 
HETATM    3  C4  UNL     1     -33.014  15.750  -3.760  1.00 20.00     0.020 C 
HETATM    4  C5  UNL     1     -34.307  14.909  -4.008  1.00 20.00     0.048 C 
ENDROOT
BRANCH   4   5
HETATM    5  C1  UNL     1     -34.099  13.369  -4.041  1.00 20.00     0.181 C 
HETATM    6  O8  UNL     1     -35.126  12.692  -4.325  1.00 20.00    -0.647 OA
HETATM    7  O9  UNL     1     -32.924  12.989  -3.778  1.00 20.00    -0.647 OA
ENDBRANCH   4   5
BRANCH   4   8
HETATM    8  C7  UNL     1     -35.117  15.378  -5.218  1.00 20.00     0.016 C 
HETATM    9  C6  UNL     1     -34.437  15.042  -6.506  1.00 20.00     0.006 C 
ENDBRANCH   4   8
TORSDOF 2
ENDMDL
MODEL 3
REMARK VINA RESULT:      -4.2      0.808      1.058
REMARK  2 active torsions:
REMARK  status: ('A' for Active; 'I' for Inactive)
REMARK    1  A    between atoms: C1_1  and  C5_5 
REMARK    2  A    between atoms: C5_5  and  C7_7 
ROOT
HETATM    1  C2  UNL     1     -35.640  16.294  -2.659  1.00 20.00     0.002 C 
HETATM    2  C3  UNL     1     -36.089  15.179  -3.618  1.00 20.00     0.020 C 
HETATM    3  C4  UNL     1     -34.255  15.625  -2.606  1.00 20.00     0.020 C 
HETATM    4  C5  UNL     1     -34.588  14.915  -3.957  1.00 20.00     0.048 C 
ENDROOT
BRANCH   4   5
HETATM    5  C1  UNL     1     -34.179  13.418  -4.036  1.00 20.00     0.181 C 
HETATM    6  O8  UNL     1     -32.962  13.178  -3.799  1.00 20.00    -0.647 OA
HETATM    7  O9  UNL     1     -35.119  12.628  -4.329  1.00 20.00    -0.647 OA
ENDBRANCH   4   5
BRANCH   4   8
HETATM    8  C7  UNL     1     -34.096  15.683  -5.186  1.00 20.00     0.016 C 
HETATM    9  C6  UNL     1     -34.420  14.965  -6.456  1.00 20.00     0.006 C 
ENDBRANCH   4   8
TORSDOF 2
ENDMDL
MODEL 4
REMARK VINA RESULT:      -4.2      0.853      2.277
REMARK  2 active torsions:
REMARK  status: ('A' for Active; 'I' for Inactive)
REMARK    1  A    between atoms: C1_1  and  C5_5 
REMARK    2  A    between atoms: C5_5  and  C7_7 
ROOT
HETATM    1  C2  UNL     1     -33.659  16.590  -5.691  1.00 20.00     0.002 C 
HETATM    2  C3  UNL     1     -33.049  15.897  -4.462  1.00 20.00     0.020 C 
HETATM    3  C4  UNL     1     -34.584  15.371  -5.860  1.00 20.00     0.020 C 
HETATM    4  C5  UNL     1     -34.341  15.026  -4.356  1.00 20.00     0.048 C 
ENDROOT
BRANCH   4   5
HETATM    5  C1  UNL     1     -34.104  13.520  -4.052  1.00 20.00     0.181 C 
HETATM    6  O8  UNL     1     -32.952  13.233  -3.621  1.00 20.00    -0.647 OA
HETATM    7  O9  UNL     1     -35.096  12.773  -4.276  1.00 20.00    -0.647 OA
ENDBRANCH   4   5
BRANCH   4   8
HETATM    8  C7  UNL     1     -35.397  15.614  -3.417  1.00 20.00     0.016 C 
HETATM    9  C6  UNL     1     -34.855  15.839  -2.043  1.00 20.00     0.006 C 
ENDBRANCH   4   8
TORSDOF 2
ENDMDL
MODEL 5
REMARK VINA RESULT:      -4.2      0.861      2.510
REMARK  2 active torsions:
REMARK  status: ('A' for Active; 'I' for Inactive)
REMARK    1  A    between atoms: C1_1  and  C5_5 
REMARK    2  A    between atoms: C5_5  and  C7_7 
ROOT
HETATM    1  C2  UNL     1     -33.602  16.584  -5.665  1.00 20.00     0.002 C 
HETATM    2  C3  UNL     1     -33.022  15.878  -4.429  1.00 20.00     0.020 C 
HETATM    3  C4  UNL     1     -34.536  15.376  -5.857  1.00 20.00     0.020 C 
HETATM    4  C5  UNL     1     -34.325  15.020  -4.351  1.00 20.00     0.048 C 
ENDROOT
BRANCH   4   5
HETATM    5  C1  UNL     1     -34.108  13.511  -4.051  1.00 20.00     0.181 C 
HETATM    6  O8  UNL     1     -35.104  12.769  -4.275  1.00 20.00    -0.647 OA
HETATM    7  O9  UNL     1     -32.958  13.217  -3.620  1.00 20.00    -0.647 OA
ENDBRANCH   4   5
BRANCH   4   8
HETATM    8  C7  UNL     1     -35.392  15.615  -3.429  1.00 20.00     0.016 C 
HETATM    9  C6  UNL     1     -34.871  15.832  -2.045  1.00 20.00     0.006 C 
ENDBRANCH   4   8
TORSDOF 2
ENDMDL
MODEL 6
REMARK VINA RESULT:      -4.1      0.738      2.627
REMARK  2 active torsions:
REMARK  status: ('A' for Active; 'I' for Inactive)
REMARK    1  A    between atoms: C1_1  and  C5_5 
REMARK    2  A    between atoms: C5_5  and  C7_7 
ROOT
HETATM    1  C2  UNL     1     -35.580  15.961  -6.269  1.00 20.00     0.002 C 
HETATM    2  C3  UNL     1     -34.261  15.180  -6.153  1.00 20.00     0.020 C 
HETATM    3  C4  UNL     1     -36.097  15.173  -5.053  1.00 20.00     0.020 C 
HETATM    4  C5  UNL     1     -34.615  14.871  -4.664  1.00 20.00     0.048 C 
ENDROOT
BRANCH   4   5
HETATM    5  C1  UNL     1     -34.334  13.414  -4.203  1.00 20.00     0.181 C 
HETATM    6  O8  UNL     1     -33.162  13.197  -3.786  1.00 20.00    -0.647 OA
HETATM    7  O9  UNL     1     -35.318  12.629  -4.305  1.00 20.00    -0.647 OA
ENDBRANCH   4   5
BRANCH   4   8
HETATM    8  C7  UNL     1     -34.026  15.881  -3.676  1.00 20.00     0.016 C 
HETATM    9  C6  UNL     1     -34.670  15.783  -2.331  1.00 20.00     0.006 C 
ENDBRANCH   4   8
TORSDOF 2
ENDMDL
MODEL 7
REMARK VINA RESULT:      -3.9      1.750      3.249
REMARK  2 active torsions:
REMARK  status: ('A' for Active; 'I' for Inactive)
REMARK    1  A    between atoms: C1_1  and  C5_5 
REMARK    2  A    between atoms: C5_5  and  C7_7 
ROOT
HETATM    1  C2  UNL     1     -36.300  14.383  -4.292  1.00 20.00     0.002 C 
HETATM    2  C3  UNL     1     -35.558  15.703  -4.559  1.00 20.00     0.020 C 
HETATM    3  C4  UNL     1     -34.963  13.782  -3.826  1.00 20.00     0.020 C 
HETATM    4  C5  UNL     1     -34.440  15.232  -3.576  1.00 20.00     0.048 C 
ENDROOT
BRANCH   4   5
HETATM    5  C1  UNL     1     -32.984  15.502  -4.049  1.00 20.00     0.181 C 
HETATM    6  O8  UNL     1     -32.854  16.437  -4.888  1.00 20.00    -0.647 OA
HETATM    7  O9  UNL     1     -32.112  14.748  -3.533  1.00 20.00    -0.647 OA
ENDBRANCH   4   5
BRANCH   4   8
HETATM    8  C7  UNL     1     -34.647  15.717  -2.140  1.00 20.00     0.016 C 
HETATM    9  C6  UNL     1     -33.879  16.967  -1.858  1.00 20.00     0.006 C 
ENDBRANCH   4   8
TORSDOF 2
ENDMDL
MODEL 8
REMARK VINA RESULT:      -3.9      2.217      3.435
REMARK  2 active torsions:
REMARK  status: ('A' for Active; 'I' for Inactive)
REMARK    1  A    between atoms: C1_1  and  C5_5 
REMARK    2  A    between atoms: C5_5  and  C7_7 
ROOT
HETATM    1  C2  UNL     1     -35.010  13.260  -4.175  1.00 20.00     0.002 C 
HETATM    2  C3  UNL     1     -35.621  14.564  -4.715  1.00 20.00     0.020 C 
HETATM    3  C4  UNL     1     -33.740  14.057  -3.825  1.00 20.00     0.020 C 
HETATM    4  C5  UNL     1     -34.598  15.362  -3.846  1.00 20.00     0.048 C 
ENDROOT
BRANCH   4   5
HETATM    5  C1  UNL     1     -33.936  16.579  -4.550  1.00 20.00     0.181 C 
HETATM    6  O8  UNL     1     -32.725  16.423  -4.870  1.00 20.00    -0.647 OA
HETATM    7  O9  UNL     1     -34.697  17.573  -4.715  1.00 20.00    -0.647 OA
ENDBRANCH   4   5
BRANCH   4   8
HETATM    8  C7  UNL     1     -35.144  15.755  -2.471  1.00 20.00     0.016 C 
HETATM    9  C6  UNL     1     -34.149  16.545  -1.684  1.00 20.00     0.006 C 
ENDBRANCH   4   8
TORSDOF 2
ENDMDL
MODEL 9
REMARK VINA RESULT:      -3.9      2.199      2.775
REMARK  2 active torsions:
REMARK  status: ('A' for Active; 'I' for Inactive)
REMARK    1  A    between atoms: C1_1  and  C5_5 
REMARK    2  A    between atoms: C5_5  and  C7_7 
ROOT
HETATM    1  C2  UNL     1     -34.837  16.277  -1.382  1.00 20.00     0.002 C 
HETATM    2  C3  UNL     1     -33.583  16.587  -2.216  1.00 20.00     0.020 C 
HETATM    3  C4  UNL     1     -35.579  15.982  -2.698  1.00 20.00     0.020 C 
HETATM    4  C5  UNL     1     -34.195  15.751  -3.384  1.00 20.00     0.048 C 
ENDROOT
BRANCH   4   5
HETATM    5  C1  UNL     1     -34.045  16.377  -4.799  1.00 20.00     0.181 C 
HETATM    6  O8  UNL     1     -32.858  16.502  -5.209  1.00 20.00    -0.647 OA
HETATM    7  O9  UNL     1     -35.134  16.681  -5.360  1.00 20.00    -0.647 OA
ENDBRANCH   4   5
BRANCH   4   8
HETATM    8  C7  UNL     1     -33.751  14.286  -3.383  1.00 20.00     0.016 C 
HETATM    9  C6  UNL     1     -34.389  13.512  -4.491  1.00 20.00     0.006 C 
ENDBRANCH   4   8
TORSDOF 2
ENDMDL
