MODEL 1
REMARK VINA RESULT:      -3.5      0.000      0.000
REMARK  1 active torsions:
REMARK  status: ('A' for Active; 'I' for Inactive)
REMARK    1  A    between atoms: C3_3  and  C4_4 
ROOT
HETATM    1  C1  UNL     1     -34.855   5.387   3.552  1.00 20.00     0.175 C 
HETATM    2  C2  UNL     1     -33.000   6.255   3.786  1.00 20.00     0.175 C 
HETATM    3  C3  UNL     1     -34.291   6.345   4.608  1.00 20.00     0.047 C 
HETATM    4  O5  UNL     1     -33.683   5.556   2.718  1.00 20.00    -0.390 OA
ENDROOT
BRANCH   3   5
HETATM    5  C4  UNL     1     -34.230   5.831   6.030  1.00 20.00     0.123 C 
HETATM    6 CL6  UNL     1     -35.046   4.258   6.159  1.00 20.00    -0.130 Cl
ENDBRANCH   3   5
TORSDOF 1
ENDMDL
MODEL 2
REMARK VINA RESULT:      -3.5      2.302      2.695
REMARK  1 active torsions:
REMARK  status: ('A' for Active; 'I' for Inactive)
REMARK    1  A    between atoms: C3_3  and  C4_4 
ROOT
HETATM    1  C1  UNL     1     -34.432   4.015   6.009  1.00 20.00     0.175 C 
HETATM    2  C2  UNL     1     -35.366   4.919   4.410  1.00 20.00     0.175 C 
HETATM    3  C3  UNL     1     -34.832   5.470   5.736  1.00 20.00     0.047 C 
HETATM    4  O5  UNL     1     -35.176   3.554   4.855  1.00 20.00    -0.390 OA
ENDROOT
BRANCH   3   5
HETATM    5  C4  UNL     1     -33.707   6.479   5.650  1.00 20.00     0.123 C 
HETATM    6 CL6  UNL     1     -33.002   6.488   4.019  1.00 20.00    -0.130 Cl
ENDBRANCH   3   5
TORSDOF 1
ENDMDL
MODEL 3
REMARK VINA RESULT:      -3.5      2.567      3.139
REMARK  1 active torsions:
REMARK  status: ('A' for Active; 'I' for Inactive)
REMARK    1  A    between atoms: C3_3  and  C4_4 
ROOT
HETATM    1  C1  UNL     1     -34.055   6.220   5.644  1.00 20.00     0.175 C 
HETATM    2  C2  UNL     1     -35.159   4.776   4.673  1.00 20.00     0.175 C 
HETATM    3  C3  UNL     1     -34.476   6.056   4.179  1.00 20.00     0.047 C 
HETATM    4  O5  UNL     1     -34.926   5.138   6.055  1.00 20.00    -0.390 OA
ENDROOT
BRANCH   3   5
HETATM    5  C4  UNL     1     -33.364   5.886   3.167  1.00 20.00     0.123 C 
HETATM    6 CL6  UNL     1     -32.032   7.011   3.509  1.00 20.00    -0.130 Cl
ENDBRANCH   3   5
TORSDOF 1
ENDMDL
MODEL 4
REMARK VINA RESULT:      -3.5      2.690      3.064
REMARK  1 active torsions:
REMARK  status: ('A' for Active; 'I' for Inactive)
REMARK    1  A    between atoms: C3_3  and  C4_4 
ROOT
HETATM    1  C1  UNL     1     -35.134   4.490   4.870  1.00 20.00     0.175 C 
HETATM    2  C2  UNL     1     -34.398   5.788   6.292  1.00 20.00     0.175 C 
HETATM    3  C3  UNL     1     -33.908   5.412   4.890  1.00 20.00     0.047 C 
HETATM    4  O5  UNL     1     -35.377   4.721   6.279  1.00 20.00    -0.390 OA
ENDROOT
BRANCH   3   5
HETATM    5  C4  UNL     1     -33.876   6.522   3.861  1.00 20.00     0.123 C 
HETATM    6 CL6  UNL     1     -32.297   6.571   3.047  1.00 20.00    -0.130 Cl
ENDBRANCH   3   5
TORSDOF 1
ENDMDL
MODEL 5
REMARK VINA RESULT:      -3.4      1.588      2.009
REMARK  1 active torsions:
REMARK  status: ('A' for Active; 'I' for Inactive)
REMARK    1  A    between atoms: C3_3  and  C4_4 
ROOT
HETATM    1  C1  UNL     1     -33.570   5.909   4.125  1.00 20.00     0.175 C 
HETATM    2  C2  UNL     1     -35.428   5.018   4.174  1.00 20.00     0.175 C 
HETATM    3  C3  UNL     1     -34.275   5.053   5.184  1.00 20.00     0.047 C 
HETATM    4  O5  UNL     1     -34.600   5.619   3.149  1.00 20.00    -0.390 OA
ENDROOT
BRANCH   3   5
HETATM    5  C4  UNL     1     -34.557   5.714   6.515  1.00 20.00     0.123 C 
HETATM    6 CL6  UNL     1     -33.579   7.185   6.701  1.00 20.00    -0.130 Cl
ENDBRANCH   3   5
TORSDOF 1
ENDMDL
MODEL 6
REMARK VINA RESULT:      -3.0     12.260     12.648
REMARK  1 active torsions:
REMARK  status: ('A' for Active; 'I' for Inactive)
REMARK    1  A    between atoms: C3_3  and  C4_4 
ROOT
HETATM    1  C1  UNL     1     -33.596  13.603  -3.953  1.00 20.00     0.175 C 
HETATM    2  C2  UNL     1     -35.632  13.810  -4.199  1.00 20.00     0.175 C 
HETATM    3  C3  UNL     1     -34.610  14.594  -3.369  1.00 20.00     0.047 C 
HETATM    4  O5  UNL     1     -34.658  12.784  -4.502  1.00 20.00    -0.390 OA
ENDROOT
BRANCH   3   5
HETATM    5  C4  UNL     1     -34.418  16.052  -3.726  1.00 20.00     0.123 C 
HETATM    6 CL6  UNL     1     -33.115  16.235  -4.919  1.00 20.00    -0.130 Cl
ENDBRANCH   3   5
TORSDOF 1
ENDMDL
MODEL 7
REMARK VINA RESULT:      -3.0     11.740     12.157
REMARK  1 active torsions:
REMARK  status: ('A' for Active; 'I' for Inactive)
REMARK    1  A    between atoms: C3_3  and  C4_4 
ROOT
HETATM    1  C1  UNL     1     -35.536  14.264  -3.922  1.00 20.00     0.175 C 
HETATM    2  C2  UNL     1     -33.655  13.436  -4.074  1.00 20.00     0.175 C 
HETATM    3  C3  UNL     1     -34.156  14.880  -4.183  1.00 20.00     0.047 C 
HETATM    4  O5  UNL     1     -35.009  12.924  -4.078  1.00 20.00    -0.390 OA
ENDROOT
BRANCH   3   5
HETATM    5  C4  UNL     1     -33.642  15.859  -3.150  1.00 20.00     0.123 C 
HETATM    6 CL6  UNL     1     -34.769  15.969  -1.781  1.00 20.00    -0.130 Cl
ENDBRANCH   3   5
TORSDOF 1
ENDMDL
MODEL 8
REMARK VINA RESULT:      -2.9     12.737     13.253
REMARK  1 active torsions:
REMARK  status: ('A' for Active; 'I' for Inactive)
REMARK    1  A    between atoms: C3_3  and  C4_4 
ROOT
HETATM    1  C1  UNL     1     -33.137  14.515  -3.710  1.00 20.00     0.175 C 
HETATM    2  C2  UNL     1     -34.437  13.371  -4.828  1.00 20.00     0.175 C 
HETATM    3  C3  UNL     1     -34.359  14.879  -4.562  1.00 20.00     0.047 C 
HETATM    4  O5  UNL     1     -33.435  13.101  -3.819  1.00 20.00    -0.390 OA
ENDROOT
BRANCH   3   5
HETATM    5  C4  UNL     1     -34.111  15.769  -5.761  1.00 20.00     0.123 C 
HETATM    6 CL6  UNL     1     -34.380  14.872  -7.270  1.00 20.00    -0.130 Cl
ENDBRANCH   3   5
TORSDOF 1
ENDMDL
MODEL 9
REMARK VINA RESULT:      -2.8     12.712     13.127
REMARK  1 active torsions:
REMARK  status: ('A' for Active; 'I' for Inactive)
REMARK    1  A    between atoms: C3_3  and  C4_4 
ROOT
HETATM    1  C1  UNL     1     -33.598  17.270  -3.963  1.00 20.00     0.175 C 
HETATM    2  C2  UNL     1     -33.011  15.302  -3.792  1.00 20.00     0.175 C 
HETATM    3  C3  UNL     1     -33.492  16.326  -2.759  1.00 20.00     0.047 C 
HETATM    4  O5  UNL     1     -32.910  16.322  -4.815  1.00 20.00    -0.390 OA
ENDROOT
BRANCH   3   5
HETATM    5  C4  UNL     1     -34.780  16.006  -2.031  1.00 20.00     0.123 C 
HETATM    6 CL6  UNL     1     -34.775  16.728  -0.408  1.00 20.00    -0.130 Cl
ENDBRANCH   3   5
TORSDOF 1
ENDMDL
