MODEL 1
REMARK VINA RESULT:      -4.7      0.000      0.000
REMARK  0 active torsions:
REMARK  status: ('A' for Active; 'I' for Inactive)
ROOT
HETATM    1  C1  UNL     1     -34.250   5.671   5.170  1.00 20.00    -0.054 C 
HETATM    2  C2  UNL     1     -33.846   5.841   3.896  1.00 20.00     0.091 C 
HETATM    3  C3  UNL     1     -35.192   4.559   5.550  1.00 20.00     0.046 C 
HETATM    4  C4  UNL     1     -33.834   6.546   6.321  1.00 20.00     0.046 C 
HETATM    5  C5  UNL     1     -32.887   6.878   3.404  1.00 20.00     0.082 C 
HETATM    6  F6  UNL     1     -34.323   4.984   2.961  1.00 20.00    -0.211 F 
ENDROOT
TORSDOF 0
ENDMDL
MODEL 2
REMARK VINA RESULT:      -4.4      1.233      2.026
REMARK  0 active torsions:
REMARK  status: ('A' for Active; 'I' for Inactive)
ROOT
HETATM    1  C1  UNL     1     -34.297   5.702   5.357  1.00 20.00    -0.054 C 
HETATM    2  C2  UNL     1     -33.966   5.983   4.082  1.00 20.00     0.091 C 
HETATM    3  C3  UNL     1     -33.910   6.621   6.486  1.00 20.00     0.046 C 
HETATM    4  C4  UNL     1     -35.051   4.477   5.793  1.00 20.00     0.046 C 
HETATM    5  C5  UNL     1     -34.326   5.174   2.877  1.00 20.00     0.082 C 
HETATM    6  F6  UNL     1     -33.264   7.118   3.845  1.00 20.00    -0.211 F 
ENDROOT
TORSDOF 0
ENDMDL
MODEL 3
REMARK VINA RESULT:      -4.4      1.826      2.635
REMARK  0 active torsions:
REMARK  status: ('A' for Active; 'I' for Inactive)
ROOT
HETATM    1  C1  UNL     1     -34.165   5.879   4.761  1.00 20.00    -0.054 C 
HETATM    2  C2  UNL     1     -34.191   6.233   6.060  1.00 20.00     0.091 C 
HETATM    3  C3  UNL     1     -35.131   4.866   4.206  1.00 20.00     0.046 C 
HETATM    4  C4  UNL     1     -33.195   6.423   3.748  1.00 20.00     0.046 C 
HETATM    5  C5  UNL     1     -33.314   7.251   6.717  1.00 20.00     0.082 C 
HETATM    6  F6  UNL     1     -35.111   5.639   6.859  1.00 20.00    -0.211 F 
ENDROOT
TORSDOF 0
ENDMDL
MODEL 4
REMARK VINA RESULT:      -4.3      1.800      3.237
REMARK  0 active torsions:
REMARK  status: ('A' for Active; 'I' for Inactive)
ROOT
HETATM    1  C1  UNL     1     -33.743   6.092   4.204  1.00 20.00    -0.054 C 
HETATM    2  C2  UNL     1     -33.901   6.122   5.542  1.00 20.00     0.091 C 
HETATM    3  C3  UNL     1     -32.690   6.927   3.523  1.00 20.00     0.046 C 
HETATM    4  C4  UNL     1     -34.575   5.264   3.265  1.00 20.00     0.046 C 
HETATM    5  C5  UNL     1     -34.878   5.314   6.335  1.00 20.00     0.082 C 
HETATM    6  F6  UNL     1     -33.087   6.936   6.258  1.00 20.00    -0.211 F 
ENDROOT
TORSDOF 0
ENDMDL
MODEL 5
REMARK VINA RESULT:      -4.2      1.804      2.913
REMARK  0 active torsions:
REMARK  status: ('A' for Active; 'I' for Inactive)
ROOT
HETATM    1  C1  UNL     1     -33.953   6.166   5.442  1.00 20.00    -0.054 C 
HETATM    2  C2  UNL     1     -34.801   5.138   5.642  1.00 20.00     0.091 C 
HETATM    3  C3  UNL     1     -33.616   7.128   6.550  1.00 20.00     0.046 C 
HETATM    4  C4  UNL     1     -33.278   6.474   4.134  1.00 20.00     0.046 C 
HETATM    5  C5  UNL     1     -35.181   4.098   4.636  1.00 20.00     0.082 C 
HETATM    6  F6  UNL     1     -35.350   5.001   6.873  1.00 20.00    -0.211 F 
ENDROOT
TORSDOF 0
ENDMDL
MODEL 6
REMARK VINA RESULT:      -4.1      0.770      2.419
REMARK  0 active torsions:
REMARK  status: ('A' for Active; 'I' for Inactive)
ROOT
HETATM    1  C1  UNL     1     -33.942   6.141   5.048  1.00 20.00    -0.054 C 
HETATM    2  C2  UNL     1     -34.634   4.989   4.949  1.00 20.00     0.091 C 
HETATM    3  C3  UNL     1     -33.398   6.833   3.826  1.00 20.00     0.046 C 
HETATM    4  C4  UNL     1     -33.631   6.841   6.342  1.00 20.00     0.046 C 
HETATM    5  C5  UNL     1     -35.255   4.231   6.079  1.00 20.00     0.082 C 
HETATM    6  F6  UNL     1     -34.817   4.464   3.713  1.00 20.00    -0.211 F 
ENDROOT
TORSDOF 0
ENDMDL
MODEL 7
REMARK VINA RESULT:      -3.9      1.597      2.636
REMARK  0 active torsions:
REMARK  status: ('A' for Active; 'I' for Inactive)
ROOT
HETATM    1  C1  UNL     1     -34.297   5.551   4.176  1.00 20.00    -0.054 C 
HETATM    2  C2  UNL     1     -33.611   6.380   4.988  1.00 20.00     0.091 C 
HETATM    3  C3  UNL     1     -33.905   5.369   2.734  1.00 20.00     0.046 C 
HETATM    4  C4  UNL     1     -35.499   4.749   4.593  1.00 20.00     0.046 C 
HETATM    5  C5  UNL     1     -33.877   6.613   6.441  1.00 20.00     0.082 C 
HETATM    6  F6  UNL     1     -32.560   7.054   4.462  1.00 20.00    -0.211 F 
ENDROOT
TORSDOF 0
ENDMDL
MODEL 8
REMARK VINA RESULT:      -3.2     11.978     12.239
REMARK  0 active torsions:
REMARK  status: ('A' for Active; 'I' for Inactive)
ROOT
HETATM    1  C1  UNL     1     -34.619  15.146  -3.175  1.00 20.00    -0.054 C 
HETATM    2  C2  UNL     1     -33.902  14.195  -3.806  1.00 20.00     0.091 C 
HETATM    3  C3  UNL     1     -33.957  16.156  -2.277  1.00 20.00     0.046 C 
HETATM    4  C4  UNL     1     -36.111  15.298  -3.279  1.00 20.00     0.046 C 
HETATM    5  C5  UNL     1     -34.437  13.165  -4.749  1.00 20.00     0.082 C 
HETATM    6  F6  UNL     1     -32.563  14.169  -3.598  1.00 20.00    -0.211 F 
ENDROOT
TORSDOF 0
ENDMDL
MODEL 9
REMARK VINA RESULT:      -3.2      9.594     10.193
REMARK  0 active torsions:
REMARK  status: ('A' for Active; 'I' for Inactive)
ROOT
HETATM    1  C1  UNL     1     -41.705   5.787  -1.926  1.00 20.00    -0.054 C 
HETATM    2  C2  UNL     1     -41.279   4.514  -1.813  1.00 20.00     0.091 C 
HETATM    3  C3  UNL     1     -41.103   6.889  -1.095  1.00 20.00     0.046 C 
HETATM    4  C4  UNL     1     -42.800   6.241  -2.850  1.00 20.00     0.046 C 
HETATM    5  C5  UNL     1     -41.768   3.345  -2.607  1.00 20.00     0.082 C 
HETATM    6  F6  UNL     1     -40.295   4.252  -0.918  1.00 20.00    -0.211 F 
ENDROOT
TORSDOF 0
ENDMDL
