MODEL 1
REMARK VINA RESULT:      -5.1      0.000      0.000
REMARK  2 active torsions:
REMARK  status: ('A' for Active; 'I' for Inactive)
REMARK    1  A    between atoms: C1_1  and  C3_3 
REMARK    2  A    between atoms: C4_4  and  O10_10 
ROOT
HETATM    1  C3  UNL     1     -33.373   5.841   4.348  1.00 20.00     0.048 A 
HETATM    2  C4  UNL     1     -34.251   6.490   5.389  1.00 20.00     0.135 A 
HETATM    3  C5  UNL     1     -34.767   5.295   4.614  1.00 20.00    -0.012 A 
HETATM    4  C8  UNL     1     -34.860   3.955   5.301  1.00 20.00     0.018 C 
HETATM    5  C9  UNL     1     -35.886   5.543   3.633  1.00 20.00     0.018 C 
ENDROOT
BRANCH   1   6
HETATM    6  C1  UNL     1     -33.075   6.569   3.124  1.00 20.00    -0.017 C 
HETATM    7  C2  UNL     1     -32.099   7.474   2.920  1.00 20.00    -0.091 C 
HETATM    8  C6  UNL     1     -31.924   8.142   1.584  1.00 20.00     0.042 C 
HETATM    9  C7  UNL     1     -31.116   7.895   3.975  1.00 20.00     0.042 C 
ENDBRANCH   1   6
BRANCH   2  10
HETATM   10  O10 UNL     1     -33.866   6.272   6.757  1.00 20.00    -0.394 OA
HETATM   11  H26 UNL     1     -33.610   5.341   6.813  1.00 20.00     0.210 HD
ENDBRANCH   2  10
TORSDOF 2
ENDMDL
MODEL 2
REMARK VINA RESULT:      -4.8     11.623     12.425
REMARK  2 active torsions:
REMARK  status: ('A' for Active; 'I' for Inactive)
REMARK    1  A    between atoms: C1_1  and  C3_3 
REMARK    2  A    between atoms: C4_4  and  O10_10 
ROOT
HETATM    1  C3  UNL     1     -33.771  16.207  -3.039  1.00 20.00     0.048 A 
HETATM    2  C4  UNL     1     -33.045  14.922  -3.352  1.00 20.00     0.135 A 
HETATM    3  C5  UNL     1     -34.307  15.274  -4.113  1.00 20.00    -0.012 A 
HETATM    4  C8  UNL     1     -34.199  15.740  -5.544  1.00 20.00     0.018 C 
HETATM    5  C9  UNL     1     -35.526  14.425  -3.850  1.00 20.00     0.018 C 
ENDROOT
BRANCH   1   6
HETATM    6  C1  UNL     1     -34.448  16.341  -1.757  1.00 20.00    -0.017 C 
HETATM    7  C2  UNL     1     -34.221  17.258  -0.798  1.00 20.00    -0.091 C 
HETATM    8  C6  UNL     1     -35.014  17.260   0.480  1.00 20.00     0.042 C 
HETATM    9  C7  UNL     1     -33.185  18.341  -0.904  1.00 20.00     0.042 C 
ENDBRANCH   1   6
BRANCH   2  10
HETATM   10  O10 UNL     1     -31.795  15.064  -4.048  1.00 20.00    -0.394 OA
HETATM   11  H26 UNL     1     -31.937  15.757  -4.707  1.00 20.00     0.210 HD
ENDBRANCH   2  10
TORSDOF 2
ENDMDL
MODEL 3
REMARK VINA RESULT:      -4.8     11.182     12.234
REMARK  2 active torsions:
REMARK  status: ('A' for Active; 'I' for Inactive)
REMARK    1  A    between atoms: C1_1  and  C3_3 
REMARK    2  A    between atoms: C4_4  and  O10_10 
ROOT
HETATM    1  C3  UNL     1     -34.548  15.798  -2.090  1.00 20.00     0.048 A 
HETATM    2  C4  UNL     1     -35.610  16.056  -3.130  1.00 20.00     0.135 A 
HETATM    3  C5  UNL     1     -34.376  15.261  -3.502  1.00 20.00    -0.012 A 
HETATM    4  C8  UNL     1     -34.489  13.768  -3.688  1.00 20.00     0.018 C 
HETATM    5  C9  UNL     1     -33.401  15.910  -4.454  1.00 20.00     0.018 C 
ENDROOT
BRANCH   1   6
HETATM    6  C1  UNL     1     -33.745  16.912  -1.610  1.00 20.00    -0.017 C 
HETATM    7  C2  UNL     1     -33.920  17.629  -0.483  1.00 20.00    -0.091 C 
HETATM    8  C6  UNL     1     -32.995  18.759  -0.128  1.00 20.00     0.042 C 
HETATM    9  C7  UNL     1     -35.025  17.378   0.503  1.00 20.00     0.042 C 
ENDBRANCH   1   6
BRANCH   2  10
HETATM   10  O10 UNL     1     -36.838  15.327  -2.964  1.00 20.00    -0.394 OA
HETATM   11  H26 UNL     1     -36.619  14.564  -2.413  1.00 20.00     0.210 HD
ENDBRANCH   2  10
TORSDOF 2
ENDMDL
MODEL 4
REMARK VINA RESULT:      -4.6     11.393     12.400
REMARK  2 active torsions:
REMARK  status: ('A' for Active; 'I' for Inactive)
REMARK    1  A    between atoms: C1_1  and  C3_3 
REMARK    2  A    between atoms: C4_4  and  O10_10 
ROOT
HETATM    1  C3  UNL     1     -34.480  14.726  -3.672  1.00 20.00     0.048 A 
HETATM    2  C4  UNL     1     -35.364  13.625  -4.204  1.00 20.00     0.135 A 
HETATM    3  C5  UNL     1     -35.383  14.987  -4.867  1.00 20.00    -0.012 A 
HETATM    4  C8  UNL     1     -34.713  15.164  -6.208  1.00 20.00     0.018 C 
HETATM    5  C9  UNL     1     -36.638  15.809  -4.712  1.00 20.00     0.018 C 
ENDROOT
BRANCH   1   6
HETATM    6  C1  UNL     1     -34.777  15.302  -2.369  1.00 20.00    -0.017 C 
HETATM    7  C2  UNL     1     -34.438  16.522  -1.911  1.00 20.00    -0.091 C 
HETATM    8  C6  UNL     1     -34.825  16.969  -0.529  1.00 20.00     0.042 C 
HETATM    9  C7  UNL     1     -33.664  17.530  -2.712  1.00 20.00     0.042 C 
ENDBRANCH   1   6
BRANCH   2  10
HETATM   10  O10 UNL     1     -34.690  12.563  -4.900  1.00 20.00    -0.394 OA
HETATM   11  H26 UNL     1     -33.749  12.680  -4.713  1.00 20.00     0.210 HD
ENDBRANCH   2  10
TORSDOF 2
ENDMDL
MODEL 5
REMARK VINA RESULT:      -4.5     10.957     12.162
REMARK  2 active torsions:
REMARK  status: ('A' for Active; 'I' for Inactive)
REMARK    1  A    between atoms: C1_1  and  C3_3 
REMARK    2  A    between atoms: C4_4  and  O10_10 
ROOT
HETATM    1  C3  UNL     1     -34.967  14.814  -2.983  1.00 20.00     0.048 A 
HETATM    2  C4  UNL     1     -35.086  14.092  -4.302  1.00 20.00     0.135 A 
HETATM    3  C5  UNL     1     -33.761  14.709  -3.904  1.00 20.00    -0.012 A 
HETATM    4  C8  UNL     1     -32.634  13.810  -3.458  1.00 20.00     0.018 C 
HETATM    5  C9  UNL     1     -33.295  15.906  -4.695  1.00 20.00     0.018 C 
ENDROOT
BRANCH   1   6
HETATM    6  C1  UNL     1     -35.665  16.078  -2.805  1.00 20.00    -0.017 C 
HETATM    7  C2  UNL     1     -35.497  16.981  -1.821  1.00 20.00    -0.091 C 
HETATM    8  C6  UNL     1     -36.304  18.249  -1.781  1.00 20.00     0.042 C 
HETATM    9  C7  UNL     1     -34.514  16.818  -0.696  1.00 20.00     0.042 C 
ENDBRANCH   1   6
BRANCH   2  10
HETATM   10  O10 UNL     1     -35.196  12.660  -4.224  1.00 20.00    -0.394 OA
HETATM   11  H26 UNL     1     -35.354  12.358  -5.129  1.00 20.00     0.210 HD
ENDBRANCH   2  10
TORSDOF 2
ENDMDL
MODEL 6
REMARK VINA RESULT:      -4.1     11.472     12.736
REMARK  2 active torsions:
REMARK  status: ('A' for Active; 'I' for Inactive)
REMARK    1  A    between atoms: C1_1  and  C3_3 
REMARK    2  A    between atoms: C4_4  and  O10_10 
ROOT
HETATM    1  C3  UNL     1     -35.041  14.438  -3.849  1.00 20.00     0.048 A 
HETATM    2  C4  UNL     1     -34.067  13.539  -4.570  1.00 20.00     0.135 A 
HETATM    3  C5  UNL     1     -34.166  15.000  -4.959  1.00 20.00    -0.012 A 
HETATM    4  C8  UNL     1     -33.066  15.948  -4.552  1.00 20.00     0.018 C 
HETATM    5  C9  UNL     1     -34.755  15.312  -6.313  1.00 20.00     0.018 C 
ENDROOT
BRANCH   1   6
HETATM    6  C1  UNL     1     -36.468  14.237  -4.050  1.00 20.00    -0.017 C 
HETATM    7  C2  UNL     1     -37.464  15.114  -3.823  1.00 20.00    -0.091 C 
HETATM    8  C6  UNL     1     -38.899  14.748  -4.084  1.00 20.00     0.042 C 
HETATM    9  C7  UNL     1     -37.248  16.507  -3.302  1.00 20.00     0.042 C 
ENDBRANCH   1   6
BRANCH   2  10
HETATM   10  O10 UNL     1     -32.912  13.135  -3.816  1.00 20.00    -0.394 OA
HETATM   11  H26 UNL     1     -32.149  13.484  -4.295  1.00 20.00     0.210 HD
ENDBRANCH   2  10
TORSDOF 2
ENDMDL
MODEL 7
REMARK VINA RESULT:      -4.1     11.960     12.667
REMARK  2 active torsions:
REMARK  status: ('A' for Active; 'I' for Inactive)
REMARK    1  A    between atoms: C1_1  and  C3_3 
REMARK    2  A    between atoms: C4_4  and  O10_10 
ROOT
HETATM    1  C3  UNL     1     -33.908  17.194  -0.904  1.00 20.00     0.048 A 
HETATM    2  C4  UNL     1     -33.849  18.659  -1.260  1.00 20.00     0.135 A 
HETATM    3  C5  UNL     1     -34.471  18.232   0.054  1.00 20.00    -0.012 A 
HETATM    4  C8  UNL     1     -33.714  18.462   1.338  1.00 20.00     0.018 C 
HETATM    5  C9  UNL     1     -35.962  18.411   0.198  1.00 20.00     0.018 C 
ENDROOT
BRANCH   1   6
HETATM    6  C1  UNL     1     -34.790  16.319  -1.663  1.00 20.00    -0.017 C 
HETATM    7  C2  UNL     1     -34.505  15.635  -2.787  1.00 20.00    -0.091 C 
HETATM    8  C6  UNL     1     -35.537  14.768  -3.454  1.00 20.00     0.042 C 
HETATM    9  C7  UNL     1     -33.166  15.668  -3.468  1.00 20.00     0.042 C 
ENDBRANCH   1   6
BRANCH   2  10
HETATM   10  O10 UNL     1     -32.545  19.263  -1.205  1.00 20.00    -0.394 OA
HETATM   11  H26 UNL     1     -31.986  18.737  -1.793  1.00 20.00     0.210 HD
ENDBRANCH   2  10
TORSDOF 2
ENDMDL
MODEL 8
REMARK VINA RESULT:      -4.1      8.911     11.095
REMARK  2 active torsions:
REMARK  status: ('A' for Active; 'I' for Inactive)
REMARK    1  A    between atoms: C1_1  and  C3_3 
REMARK    2  A    between atoms: C4_4  and  O10_10 
ROOT
HETATM    1  C3  UNL     1     -41.621   4.767  -1.784  1.00 20.00     0.048 A 
HETATM    2  C4  UNL     1     -42.145   6.175  -1.917  1.00 20.00     0.135 A 
HETATM    3  C5  UNL     1     -41.715   5.662  -0.558  1.00 20.00    -0.012 A 
HETATM    4  C8  UNL     1     -40.417   6.148   0.037  1.00 20.00     0.018 C 
HETATM    5  C9  UNL     1     -42.799   5.443   0.469  1.00 20.00     0.018 C 
ENDROOT
BRANCH   1   6
HETATM    6  C1  UNL     1     -42.539   3.652  -1.969  1.00 20.00    -0.017 C 
HETATM    7  C2  UNL     1     -42.363   2.559  -2.734  1.00 20.00    -0.091 C 
HETATM    8  C6  UNL     1     -43.417   1.490  -2.818  1.00 20.00     0.042 C 
HETATM    9  C7  UNL     1     -41.132   2.303  -3.557  1.00 20.00     0.042 C 
ENDBRANCH   1   6
BRANCH   2  10
HETATM   10  O10 UNL     1     -41.272   7.108  -2.575  1.00 20.00    -0.394 OA
HETATM   11  H26 UNL     1     -41.845   7.678  -3.104  1.00 20.00     0.210 HD
ENDBRANCH   2  10
TORSDOF 2
ENDMDL
MODEL 9
REMARK VINA RESULT:      -4.0     11.590     12.840
REMARK  2 active torsions:
REMARK  status: ('A' for Active; 'I' for Inactive)
REMARK    1  A    between atoms: C1_1  and  C3_3 
REMARK    2  A    between atoms: C4_4  and  O10_10 
ROOT
HETATM    1  C3  UNL     1     -33.734  16.888  -2.438  1.00 20.00     0.048 A 
HETATM    2  C4  UNL     1     -34.705  18.043  -2.416  1.00 20.00     0.135 A 
HETATM    3  C5  UNL     1     -34.027  17.610  -1.132  1.00 20.00    -0.012 A 
HETATM    4  C8  UNL     1     -32.924  18.464  -0.557  1.00 20.00     0.018 C 
HETATM    5  C9  UNL     1     -34.896  16.966  -0.080  1.00 20.00     0.018 C 
ENDROOT
BRANCH   1   6
HETATM    6  C1  UNL     1     -34.240  15.545  -2.681  1.00 20.00    -0.017 C 
HETATM    7  C2  UNL     1     -34.396  14.925  -3.866  1.00 20.00    -0.091 C 
HETATM    8  C6  UNL     1     -34.937  13.525  -3.946  1.00 20.00     0.042 C 
HETATM    9  C7  UNL     1     -34.055  15.552  -5.188  1.00 20.00     0.042 C 
ENDBRANCH   1   6
BRANCH   2  10
HETATM   10  O10 UNL     1     -34.243  19.260  -3.027  1.00 20.00    -0.394 OA
HETATM   11  H26 UNL     1     -35.038  19.728  -3.316  1.00 20.00     0.210 HD
ENDBRANCH   2  10
TORSDOF 2
ENDMDL
