MODEL 1
REMARK VINA RESULT:      -5.6      0.000      0.000
REMARK  1 active torsions:
REMARK  status: ('A' for Active; 'I' for Inactive)
REMARK    1  A    between atoms: C1_1  and  C3_3 
ROOT
HETATM    1  C1  UNL     1     -34.661   5.009   4.690  1.00 20.00     0.249 C 
HETATM    2  C2  UNL     1     -34.709   5.339   5.986  1.00 20.00     0.229 C 
HETATM    3  F4  UNL     1     -35.302   3.886   4.284  1.00 20.00    -0.197 F 
HETATM    4  F5  UNL     1     -35.386   4.561   6.859  1.00 20.00    -0.189 F 
HETATM    5 CL9  UNL     1     -33.920   6.751   6.586  1.00 20.00    -0.049 Cl
ENDROOT
BRANCH   1   6
HETATM    6  C3  UNL     1     -33.948   5.788   3.642  1.00 20.00     0.448 C 
HETATM    7  F6  UNL     1     -34.371   7.078   3.613  1.00 20.00    -0.164 F 
HETATM    8  F7  UNL     1     -32.601   5.823   3.807  1.00 20.00    -0.164 F 
HETATM    9  F8  UNL     1     -34.176   5.275   2.406  1.00 20.00    -0.164 F 
ENDBRANCH   1   6
TORSDOF 1
ENDMDL
MODEL 2
REMARK VINA RESULT:      -5.5      1.579      2.403
REMARK  1 active torsions:
REMARK  status: ('A' for Active; 'I' for Inactive)
REMARK    1  A    between atoms: C1_1  and  C3_3 
ROOT
HETATM    1  C1  UNL     1     -33.954   6.132   4.482  1.00 20.00     0.249 C 
HETATM    2  C2  UNL     1     -34.035   6.163   5.818  1.00 20.00     0.229 C 
HETATM    3  F4  UNL     1     -33.067   6.953   3.869  1.00 20.00    -0.197 F 
HETATM    4  F5  UNL     1     -33.245   6.999   6.526  1.00 20.00    -0.189 F 
HETATM    5 CL9  UNL     1     -35.137   5.152   6.677  1.00 20.00    -0.049 Cl
ENDROOT
BRANCH   1   6
HETATM    6  C3  UNL     1     -34.772   5.255   3.603  1.00 20.00     0.448 C 
HETATM    7  F6  UNL     1     -34.228   5.152   2.364  1.00 20.00    -0.164 F 
HETATM    8  F7  UNL     1     -34.915   3.989   4.072  1.00 20.00    -0.164 F 
HETATM    9  F8  UNL     1     -36.024   5.753   3.439  1.00 20.00    -0.164 F 
ENDBRANCH   1   6
TORSDOF 1
ENDMDL
MODEL 3
REMARK VINA RESULT:      -5.4      1.994      3.485
REMARK  1 active torsions:
REMARK  status: ('A' for Active; 'I' for Inactive)
REMARK    1  A    between atoms: C1_1  and  C3_3 
ROOT
HETATM    1  C1  UNL     1     -33.944   5.951   5.148  1.00 20.00     0.249 C 
HETATM    2  C2  UNL     1     -33.383   6.174   3.954  1.00 20.00     0.229 C 
HETATM    3  F4  UNL     1     -33.538   6.697   6.203  1.00 20.00    -0.197 F 
HETATM    4  F5  UNL     1     -32.433   7.125   3.817  1.00 20.00    -0.189 F 
HETATM    5 CL9  UNL     1     -33.842   5.268   2.559  1.00 20.00    -0.049 Cl
ENDROOT
BRANCH   1   6
HETATM    6  C3  UNL     1     -34.996   4.932   5.414  1.00 20.00     0.448 C 
HETATM    7  F6  UNL     1     -36.020   5.039   4.531  1.00 20.00    -0.164 F 
HETATM    8  F7  UNL     1     -34.549   3.653   5.341  1.00 20.00    -0.164 F 
HETATM    9  F8  UNL     1     -35.529   5.088   6.652  1.00 20.00    -0.164 F 
ENDBRANCH   1   6
TORSDOF 1
ENDMDL
MODEL 4
REMARK VINA RESULT:      -5.2      1.744      2.495
REMARK  1 active torsions:
REMARK  status: ('A' for Active; 'I' for Inactive)
REMARK    1  A    between atoms: C1_1  and  C3_3 
ROOT
HETATM    1  C1  UNL     1     -34.489   5.665   5.441  1.00 20.00     0.249 C 
HETATM    2  C2  UNL     1     -33.451   6.507   5.355  1.00 20.00     0.229 C 
HETATM    3  F4  UNL     1     -35.069   5.476   6.651  1.00 20.00    -0.197 F 
HETATM    4  F5  UNL     1     -33.004   7.146   6.457  1.00 20.00    -0.189 F 
HETATM    5 CL9  UNL     1     -32.654   6.804   3.854  1.00 20.00    -0.049 Cl
ENDROOT
BRANCH   1   6
HETATM    6  C3  UNL     1     -35.065   4.909   4.297  1.00 20.00     0.448 C 
HETATM    7  F6  UNL     1     -36.282   5.396   3.946  1.00 20.00    -0.164 F 
HETATM    8  F7  UNL     1     -34.296   4.938   3.179  1.00 20.00    -0.164 F 
HETATM    9  F8  UNL     1     -35.243   3.601   4.612  1.00 20.00    -0.164 F 
ENDBRANCH   1   6
TORSDOF 1
ENDMDL
MODEL 5
REMARK VINA RESULT:      -5.2      1.480      3.178
REMARK  1 active torsions:
REMARK  status: ('A' for Active; 'I' for Inactive)
REMARK    1  A    between atoms: C1_1  and  C3_3 
ROOT
HETATM    1  C1  UNL     1     -34.806   5.212   4.634  1.00 20.00     0.249 C 
HETATM    2  C2  UNL     1     -34.023   5.658   3.644  1.00 20.00     0.229 C 
HETATM    3  F4  UNL     1     -35.912   4.499   4.313  1.00 20.00    -0.197 F 
HETATM    4  F5  UNL     1     -34.341   5.396   2.358  1.00 20.00    -0.189 F 
HETATM    5 CL9  UNL     1     -32.597   6.574   3.966  1.00 20.00    -0.049 Cl
ENDROOT
BRANCH   1   6
HETATM    6  C3  UNL     1     -34.553   5.440   6.083  1.00 20.00     0.448 C 
HETATM    7  F6  UNL     1     -33.549   4.649   6.539  1.00 20.00    -0.164 F 
HETATM    8  F7  UNL     1     -34.211   6.718   6.385  1.00 20.00    -0.164 F 
HETATM    9  F8  UNL     1     -35.651   5.145   6.826  1.00 20.00    -0.164 F 
ENDBRANCH   1   6
TORSDOF 1
ENDMDL
MODEL 6
REMARK VINA RESULT:      -5.1      1.337      1.954
REMARK  1 active torsions:
REMARK  status: ('A' for Active; 'I' for Inactive)
REMARK    1  A    between atoms: C1_1  and  C3_3 
ROOT
HETATM    1  C1  UNL     1     -33.935   5.724   3.485  1.00 20.00     0.249 C 
HETATM    2  C2  UNL     1     -34.661   5.522   4.590  1.00 20.00     0.229 C 
HETATM    3  F4  UNL     1     -34.400   5.240   2.308  1.00 20.00    -0.197 F 
HETATM    4  F5  UNL     1     -35.831   4.850   4.520  1.00 20.00    -0.189 F 
HETATM    5 CL9  UNL     1     -34.142   6.104   6.129  1.00 20.00    -0.049 Cl
ENDROOT
BRANCH   1   6
HETATM    6  C3  UNL     1     -32.635   6.449   3.444  1.00 20.00     0.448 C 
HETATM    7  F6  UNL     1     -32.583   7.308   2.395  1.00 20.00    -0.164 F 
HETATM    8  F7  UNL     1     -32.381   7.178   4.560  1.00 20.00    -0.164 F 
HETATM    9  F8  UNL     1     -31.597   5.588   3.296  1.00 20.00    -0.164 F 
ENDBRANCH   1   6
TORSDOF 1
ENDMDL
MODEL 7
REMARK VINA RESULT:      -5.0      1.712      2.464
REMARK  1 active torsions:
REMARK  status: ('A' for Active; 'I' for Inactive)
REMARK    1  A    between atoms: C1_1  and  C3_3 
ROOT
HETATM    1  C1  UNL     1     -33.514   6.274   4.897  1.00 20.00     0.249 C 
HETATM    2  C2  UNL     1     -34.438   5.484   5.457  1.00 20.00     0.229 C 
HETATM    3  F4  UNL     1     -32.904   7.204   5.670  1.00 20.00    -0.197 F 
HETATM    4  F5  UNL     1     -34.745   5.623   6.765  1.00 20.00    -0.189 F 
HETATM    5 CL9  UNL     1     -35.263   4.275   4.544  1.00 20.00    -0.049 Cl
ENDROOT
BRANCH   1   6
HETATM    6  C3  UNL     1     -33.096   6.211   3.470  1.00 20.00     0.448 C 
HETATM    7  F6  UNL     1     -31.885   5.614   3.337  1.00 20.00    -0.164 F 
HETATM    8  F7  UNL     1     -33.958   5.525   2.677  1.00 20.00    -0.164 F 
HETATM    9  F8  UNL     1     -32.980   7.453   2.936  1.00 20.00    -0.164 F 
ENDBRANCH   1   6
TORSDOF 1
ENDMDL
MODEL 8
REMARK VINA RESULT:      -4.9      1.070      3.007
REMARK  1 active torsions:
REMARK  status: ('A' for Active; 'I' for Inactive)
REMARK    1  A    between atoms: C1_1  and  C3_3 
ROOT
HETATM    1  C1  UNL     1     -34.301   5.326   4.493  1.00 20.00     0.249 C 
HETATM    2  C2  UNL     1     -33.721   6.498   4.779  1.00 20.00     0.229 C 
HETATM    3  F4  UNL     1     -34.490   4.999   3.192  1.00 20.00    -0.197 F 
HETATM    4  F5  UNL     1     -33.337   7.325   3.784  1.00 20.00    -0.189 F 
HETATM    5 CL9  UNL     1     -33.444   6.992   6.409  1.00 20.00    -0.049 Cl
ENDROOT
BRANCH   1   6
HETATM    6  C3  UNL     1     -34.764   4.338   5.506  1.00 20.00     0.448 C 
HETATM    7  F6  UNL     1     -33.725   3.861   6.238  1.00 20.00    -0.164 F 
HETATM    8  F7  UNL     1     -35.666   4.839   6.387  1.00 20.00    -0.164 F 
HETATM    9  F8  UNL     1     -35.350   3.266   4.915  1.00 20.00    -0.164 F 
ENDBRANCH   1   6
TORSDOF 1
ENDMDL
MODEL 9
REMARK VINA RESULT:      -4.5      2.027      3.454
REMARK  1 active torsions:
REMARK  status: ('A' for Active; 'I' for Inactive)
REMARK    1  A    between atoms: C1_1  and  C3_3 
ROOT
HETATM    1  C1  UNL     1     -33.779   6.135   4.796  1.00 20.00     0.249 C 
HETATM    2  C2  UNL     1     -34.457   5.252   4.054  1.00 20.00     0.229 C 
HETATM    3  F4  UNL     1     -33.023   7.066   4.165  1.00 20.00    -0.197 F 
HETATM    4  F5  UNL     1     -34.380   5.298   2.706  1.00 20.00    -0.189 F 
HETATM    5 CL9  UNL     1     -35.442   4.035   4.778  1.00 20.00    -0.049 Cl
ENDROOT
BRANCH   1   6
HETATM    6  C3  UNL     1     -33.789   6.178   6.284  1.00 20.00     0.448 C 
HETATM    7  F6  UNL     1     -32.940   7.127   6.755  1.00 20.00    -0.164 F 
HETATM    8  F7  UNL     1     -35.008   6.447   6.815  1.00 20.00    -0.164 F 
HETATM    9  F8  UNL     1     -33.385   4.995   6.813  1.00 20.00    -0.164 F 
ENDBRANCH   1   6
TORSDOF 1
ENDMDL
