MODEL 1
REMARK VINA RESULT:      -5.9      0.000      0.000
REMARK  1 active torsions:
REMARK  status: ('A' for Active; 'I' for Inactive)
REMARK    1  A    between atoms: C2_2  and  C4_4 
ROOT
HETATM    1  C1  UNL     1     -33.364   6.026   3.633  1.00 20.00     0.116 C 
HETATM    2  C2  UNL     1     -34.030   5.815   4.782  1.00 20.00     0.151 C 
HETATM    3  C3  UNL     1     -32.218   6.962   3.416  1.00 20.00     0.084 C 
HETATM    4  F5  UNL     1     -33.757   5.325   2.541  1.00 20.00    -0.209 F 
HETATM    5 CL9  UNL     1     -33.624   6.649   6.249  1.00 20.00    -0.076 Cl
ENDROOT
BRANCH   2   6
HETATM    6  C4  UNL     1     -35.172   4.862   4.938  1.00 20.00     0.430 C 
HETATM    7  F6  UNL     1     -36.233   5.221   4.169  1.00 20.00    -0.165 F 
HETATM    8  F7  UNL     1     -34.864   3.586   4.593  1.00 20.00    -0.165 F 
HETATM    9  F8  UNL     1     -35.616   4.815   6.221  1.00 20.00    -0.165 F 
ENDBRANCH   2   6
TORSDOF 1
ENDMDL
MODEL 2
REMARK VINA RESULT:      -5.6      1.445      2.560
REMARK  1 active torsions:
REMARK  status: ('A' for Active; 'I' for Inactive)
REMARK    1  A    between atoms: C2_2  and  C4_4 
ROOT
HETATM    1  C1  UNL     1     -34.156   6.268   5.971  1.00 20.00     0.116 C 
HETATM    2  C2  UNL     1     -34.034   6.013   4.657  1.00 20.00     0.151 C 
HETATM    3  C3  UNL     1     -33.312   7.192   6.791  1.00 20.00     0.084 C 
HETATM    4  F5  UNL     1     -35.146   5.632   6.646  1.00 20.00    -0.209 F 
HETATM    5 CL9  UNL     1     -32.810   6.763   3.682  1.00 20.00    -0.076 Cl
ENDROOT
BRANCH   2   6
HETATM    6  C4  UNL     1     -34.913   5.077   3.890  1.00 20.00     0.430 C 
HETATM    7  F6  UNL     1     -34.441   4.860   2.634  1.00 20.00    -0.165 F 
HETATM    8  F7  UNL     1     -35.037   3.855   4.467  1.00 20.00    -0.165 F 
HETATM    9  F8  UNL     1     -36.173   5.567   3.754  1.00 20.00    -0.165 F 
ENDBRANCH   2   6
TORSDOF 1
ENDMDL
MODEL 3
REMARK VINA RESULT:      -5.1      1.848      3.501
REMARK  1 active torsions:
REMARK  status: ('A' for Active; 'I' for Inactive)
REMARK    1  A    between atoms: C2_2  and  C4_4 
ROOT
HETATM    1  C1  UNL     1     -34.412   5.444   3.823  1.00 20.00     0.116 C 
HETATM    2  C2  UNL     1     -33.477   6.292   4.287  1.00 20.00     0.151 C 
HETATM    3  C3  UNL     1     -35.526   4.820   4.602  1.00 20.00     0.084 C 
HETATM    4  F5  UNL     1     -34.360   5.107   2.510  1.00 20.00    -0.209 F 
HETATM    5 CL9  UNL     1     -33.435   6.801   5.946  1.00 20.00    -0.076 Cl
ENDROOT
BRANCH   2   6
HETATM    6  C4  UNL     1     -32.385   6.886   3.456  1.00 20.00     0.430 C 
HETATM    7  F6  UNL     1     -32.870   7.774   2.549  1.00 20.00    -0.165 F 
HETATM    8  F7  UNL     1     -31.453   7.554   4.183  1.00 20.00    -0.165 F 
HETATM    9  F8  UNL     1     -31.714   5.936   2.753  1.00 20.00    -0.165 F 
ENDBRANCH   2   6
TORSDOF 1
ENDMDL
MODEL 4
REMARK VINA RESULT:      -5.0      1.847      3.521
REMARK  1 active torsions:
REMARK  status: ('A' for Active; 'I' for Inactive)
REMARK    1  A    between atoms: C2_2  and  C4_4 
ROOT
HETATM    1  C1  UNL     1     -34.411   5.445   3.822  1.00 20.00     0.116 C 
HETATM    2  C2  UNL     1     -33.475   6.294   4.278  1.00 20.00     0.151 C 
HETATM    3  C3  UNL     1     -35.520   4.819   4.609  1.00 20.00     0.084 C 
HETATM    4  F5  UNL     1     -34.367   5.105   2.509  1.00 20.00    -0.209 F 
HETATM    5 CL9  UNL     1     -33.424   6.806   5.936  1.00 20.00    -0.076 Cl
ENDROOT
BRANCH   2   6
HETATM    6  C4  UNL     1     -32.389   6.888   3.440  1.00 20.00     0.430 C 
HETATM    7  F6  UNL     1     -31.715   5.937   2.742  1.00 20.00    -0.165 F 
HETATM    8  F7  UNL     1     -32.838   7.785   2.526  1.00 20.00    -0.165 F 
HETATM    9  F8  UNL     1     -31.469   7.542   4.198  1.00 20.00    -0.165 F 
ENDBRANCH   2   6
TORSDOF 1
ENDMDL
MODEL 5
REMARK VINA RESULT:      -4.8      2.758      3.906
REMARK  1 active torsions:
REMARK  status: ('A' for Active; 'I' for Inactive)
REMARK    1  A    between atoms: C2_2  and  C4_4 
ROOT
HETATM    1  C1  UNL     1     -33.802   6.203   5.567  1.00 20.00     0.116 C 
HETATM    2  C2  UNL     1     -33.623   6.116   4.237  1.00 20.00     0.151 C 
HETATM    3  C3  UNL     1     -34.857   5.521   6.379  1.00 20.00     0.084 C 
HETATM    4  F5  UNL     1     -32.944   6.986   6.267  1.00 20.00    -0.209 F 
HETATM    5 CL9  UNL     1     -34.652   5.147   3.230  1.00 20.00    -0.076 Cl
ENDROOT
BRANCH   2   6
HETATM    6  C4  UNL     1     -32.545   6.823   3.479  1.00 20.00     0.430 C 
HETATM    7  F6  UNL     1     -33.051   7.799   2.680  1.00 20.00    -0.165 F 
HETATM    8  F7  UNL     1     -31.624   7.422   4.277  1.00 20.00    -0.165 F 
HETATM    9  F8  UNL     1     -31.858   5.974   2.671  1.00 20.00    -0.165 F 
ENDBRANCH   2   6
TORSDOF 1
ENDMDL
MODEL 6
REMARK VINA RESULT:      -4.8      2.067      2.530
REMARK  1 active torsions:
REMARK  status: ('A' for Active; 'I' for Inactive)
REMARK    1  A    between atoms: C2_2  and  C4_4 
ROOT
HETATM    1  C1  UNL     1     -33.087   6.627   4.392  1.00 20.00     0.116 C 
HETATM    2  C2  UNL     1     -34.087   5.791   4.722  1.00 20.00     0.151 C 
HETATM    3  C3  UNL     1     -32.635   6.991   3.012  1.00 20.00     0.084 C 
HETATM    4  F5  UNL     1     -32.401   7.217   5.403  1.00 20.00    -0.209 F 
HETATM    5 CL9  UNL     1     -35.039   4.975   3.522  1.00 20.00    -0.076 Cl
ENDROOT
BRANCH   2   6
HETATM    6  C4  UNL     1     -34.493   5.467   6.123  1.00 20.00     0.430 C 
HETATM    7  F6  UNL     1     -33.598   4.643   6.728  1.00 20.00    -0.165 F 
HETATM    8  F7  UNL     1     -34.606   6.559   6.922  1.00 20.00    -0.165 F 
HETATM    9  F8  UNL     1     -35.696   4.836   6.165  1.00 20.00    -0.165 F 
ENDBRANCH   2   6
TORSDOF 1
ENDMDL
MODEL 7
REMARK VINA RESULT:      -4.7      2.051      2.051
REMARK  1 active torsions:
REMARK  status: ('A' for Active; 'I' for Inactive)
REMARK    1  A    between atoms: C2_2  and  C4_4 
ROOT
HETATM    1  C1  UNL     1     -32.900   6.697   4.177  1.00 20.00     0.116 C 
HETATM    2  C2  UNL     1     -33.884   5.783   4.125  1.00 20.00     0.151 C 
HETATM    3  C3  UNL     1     -32.158   7.288   3.020  1.00 20.00     0.084 C 
HETATM    4  F5  UNL     1     -32.525   7.148   5.400  1.00 20.00    -0.209 F 
HETATM    5 CL9  UNL     1     -34.455   5.128   2.622  1.00 20.00    -0.076 Cl
ENDROOT
BRANCH   2   6
HETATM    6  C4  UNL     1     -34.591   5.229   5.320  1.00 20.00     0.430 C 
HETATM    7  F6  UNL     1     -35.853   4.826   5.016  1.00 20.00    -0.165 F 
HETATM    8  F7  UNL     1     -33.969   4.154   5.869  1.00 20.00    -0.165 F 
HETATM    9  F8  UNL     1     -34.704   6.153   6.310  1.00 20.00    -0.165 F 
ENDBRANCH   2   6
TORSDOF 1
ENDMDL
MODEL 8
REMARK VINA RESULT:      -4.4      1.679      2.145
REMARK  1 active torsions:
REMARK  status: ('A' for Active; 'I' for Inactive)
REMARK    1  A    between atoms: C2_2  and  C4_4 
ROOT
HETATM    1  C1  UNL     1     -33.776   6.590   5.440  1.00 20.00     0.116 C 
HETATM    2  C2  UNL     1     -34.562   5.503   5.349  1.00 20.00     0.151 C 
HETATM    3  C3  UNL     1     -33.262   7.227   6.693  1.00 20.00     0.084 C 
HETATM    4  F5  UNL     1     -33.394   7.189   4.285  1.00 20.00    -0.209 F 
HETATM    5 CL9  UNL     1     -35.118   4.647   6.752  1.00 20.00    -0.076 Cl
ENDROOT
BRANCH   2   6
HETATM    6  C4  UNL     1     -35.044   4.912   4.063  1.00 20.00     0.430 C 
HETATM    7  F6  UNL     1     -36.201   5.491   3.646  1.00 20.00    -0.165 F 
HETATM    8  F7  UNL     1     -34.161   5.043   3.041  1.00 20.00    -0.165 F 
HETATM    9  F8  UNL     1     -35.295   3.582   4.184  1.00 20.00    -0.165 F 
ENDBRANCH   2   6
TORSDOF 1
ENDMDL
MODEL 9
REMARK VINA RESULT:      -4.3      1.822      2.660
REMARK  1 active torsions:
REMARK  status: ('A' for Active; 'I' for Inactive)
REMARK    1  A    between atoms: C2_2  and  C4_4 
ROOT
HETATM    1  C1  UNL     1     -34.705   5.260   3.952  1.00 20.00     0.116 C 
HETATM    2  C2  UNL     1     -33.889   5.912   4.799  1.00 20.00     0.151 C 
HETATM    3  C3  UNL     1     -34.647   5.274   2.457  1.00 20.00     0.084 C 
HETATM    4  F5  UNL     1     -35.693   4.502   4.490  1.00 20.00    -0.209 F 
HETATM    5 CL9  UNL     1     -32.587   6.914   4.237  1.00 20.00    -0.076 Cl
ENDROOT
BRANCH   2   6
HETATM    6  C4  UNL     1     -33.995   5.860   6.289  1.00 20.00     0.430 C 
HETATM    7  F6  UNL     1     -33.310   6.874   6.878  1.00 20.00    -0.165 F 
HETATM    8  F7  UNL     1     -35.271   5.946   6.745  1.00 20.00    -0.165 F 
HETATM    9  F8  UNL     1     -33.488   4.703   6.789  1.00 20.00    -0.165 F 
ENDBRANCH   2   6
TORSDOF 1
ENDMDL
