MODEL 1
REMARK VINA RESULT:      -4.8      0.000      0.000
REMARK  1 active torsions:
REMARK  status: ('A' for Active; 'I' for Inactive)
REMARK    1  A    between atoms: C2_2  and  C3_3 
ROOT
HETATM    1  C3  UNL     1     -34.957   5.058   4.369  1.00 20.00     0.351 C 
HETATM    2  F5  UNL     1     -36.137   5.505   3.862  1.00 20.00    -0.185 F 
HETATM    3  F6  UNL     1     -34.906   3.726   4.102  1.00 20.00    -0.185 F 
HETATM    4 BR7  UNL     1     -33.489   5.955   3.458  1.00 20.00    -0.003 Br
ENDROOT
BRANCH   1   5
HETATM    5  C2  UNL     1     -34.826   5.311   5.832  1.00 20.00     0.167 C 
HETATM    6  C1  UNL     1     -34.123   6.316   6.364  1.00 20.00     0.059 C 
HETATM    7  F4  UNL     1     -35.488   4.490   6.681  1.00 20.00    -0.204 F 
ENDBRANCH   1   5
TORSDOF 1
ENDMDL
MODEL 2
REMARK VINA RESULT:      -4.7      1.830      2.810
REMARK  1 active torsions:
REMARK  status: ('A' for Active; 'I' for Inactive)
REMARK    1  A    between atoms: C2_2  and  C3_3 
ROOT
HETATM    1  C3  UNL     1     -35.011   4.969   4.441  1.00 20.00     0.351 C 
HETATM    2  F5  UNL     1     -35.028   3.609   4.450  1.00 20.00    -0.185 F 
HETATM    3  F6  UNL     1     -36.277   5.365   4.145  1.00 20.00    -0.185 F 
HETATM    4 BR7  UNL     1     -34.531   5.614   6.214  1.00 20.00    -0.003 Br
ENDROOT
BRANCH   1   5
HETATM    5  C2  UNL     1     -34.039   5.527   3.460  1.00 20.00     0.167 C 
HETATM    6  C1  UNL     1     -33.063   6.388   3.769  1.00 20.00     0.059 C 
HETATM    7  F4  UNL     1     -34.124   5.112   2.174  1.00 20.00    -0.204 F 
ENDBRANCH   1   5
TORSDOF 1
ENDMDL
MODEL 3
REMARK VINA RESULT:      -4.5      2.242      2.581
REMARK  1 active torsions:
REMARK  status: ('A' for Active; 'I' for Inactive)
REMARK    1  A    between atoms: C2_2  and  C3_3 
ROOT
HETATM    1  C3  UNL     1     -34.693   5.344   3.929  1.00 20.00     0.351 C 
HETATM    2  F5  UNL     1     -34.405   4.619   2.814  1.00 20.00    -0.185 F 
HETATM    3  F6  UNL     1     -35.846   6.014   3.662  1.00 20.00    -0.185 F 
HETATM    4 BR7  UNL     1     -34.983   4.131   5.423  1.00 20.00    -0.003 Br
ENDROOT
BRANCH   1   5
HETATM    5  C2  UNL     1     -33.604   6.291   4.298  1.00 20.00     0.167 C 
HETATM    6  C1  UNL     1     -32.669   6.735   3.450  1.00 20.00     0.059 C 
HETATM    7  F4  UNL     1     -33.575   6.764   5.566  1.00 20.00    -0.204 F 
ENDBRANCH   1   5
TORSDOF 1
ENDMDL
MODEL 4
REMARK VINA RESULT:      -4.4      1.533      2.714
REMARK  1 active torsions:
REMARK  status: ('A' for Active; 'I' for Inactive)
REMARK    1  A    between atoms: C2_2  and  C3_3 
ROOT
HETATM    1  C3  UNL     1     -34.607   5.031   5.723  1.00 20.00     0.351 C 
HETATM    2  F5  UNL     1     -33.741   3.993   5.874  1.00 20.00    -0.185 F 
HETATM    3  F6  UNL     1     -35.714   4.713   6.445  1.00 20.00    -0.185 F 
HETATM    4 BR7  UNL     1     -33.803   6.647   6.451  1.00 20.00    -0.003 Br
ENDROOT
BRANCH   1   5
HETATM    5  C2  UNL     1     -34.960   5.283   4.297  1.00 20.00     0.167 C 
HETATM    6  C1  UNL     1     -34.068   5.515   3.328  1.00 20.00     0.059 C 
HETATM    7  F4  UNL     1     -36.268   5.243   3.949  1.00 20.00    -0.204 F 
ENDBRANCH   1   5
TORSDOF 1
ENDMDL
MODEL 5
REMARK VINA RESULT:      -4.4      1.991      2.464
REMARK  1 active torsions:
REMARK  status: ('A' for Active; 'I' for Inactive)
REMARK    1  A    between atoms: C2_2  and  C3_3 
ROOT
HETATM    1  C3  UNL     1     -33.983   6.154   4.602  1.00 20.00     0.351 C 
HETATM    2  F5  UNL     1     -34.349   7.181   3.789  1.00 20.00    -0.185 F 
HETATM    3  F6  UNL     1     -32.819   5.664   4.099  1.00 20.00    -0.185 F 
HETATM    4 BR7  UNL     1     -33.671   6.840   6.397  1.00 20.00    -0.003 Br
ENDROOT
BRANCH   1   5
HETATM    5  C2  UNL     1     -35.017   5.085   4.681  1.00 20.00     0.167 C 
HETATM    6  C1  UNL     1     -34.948   4.025   5.494  1.00 20.00     0.059 C 
HETATM    7  F4  UNL     1     -36.120   5.207   3.904  1.00 20.00    -0.204 F 
ENDBRANCH   1   5
TORSDOF 1
ENDMDL
MODEL 6
REMARK VINA RESULT:      -4.1      2.140      2.994
REMARK  1 active torsions:
REMARK  status: ('A' for Active; 'I' for Inactive)
REMARK    1  A    between atoms: C2_2  and  C3_3 
ROOT
HETATM    1  C3  UNL     1     -34.784   5.681   4.269  1.00 20.00     0.351 C 
HETATM    2  F5  UNL     1     -36.036   5.800   3.753  1.00 20.00    -0.185 F 
HETATM    3  F6  UNL     1     -34.591   6.769   5.060  1.00 20.00    -0.185 F 
HETATM    4 BR7  UNL     1     -34.690   4.069   5.355  1.00 20.00    -0.003 Br
ENDROOT
BRANCH   1   5
HETATM    5  C2  UNL     1     -33.732   5.599   3.216  1.00 20.00     0.167 C 
HETATM    6  C1  UNL     1     -32.527   6.172   3.307  1.00 20.00     0.059 C 
HETATM    7  F4  UNL     1     -33.998   4.870   2.107  1.00 20.00    -0.204 F 
ENDBRANCH   1   5
TORSDOF 1
ENDMDL
MODEL 7
REMARK VINA RESULT:      -4.1      1.777      2.524
REMARK  1 active torsions:
REMARK  status: ('A' for Active; 'I' for Inactive)
REMARK    1  A    between atoms: C2_2  and  C3_3 
ROOT
HETATM    1  C3  UNL     1     -33.857   6.352   4.586  1.00 20.00     0.351 C 
HETATM    2  F5  UNL     1     -33.338   6.843   5.743  1.00 20.00    -0.185 F 
HETATM    3  F6  UNL     1     -34.718   7.296   4.122  1.00 20.00    -0.185 F 
HETATM    4 BR7  UNL     1     -32.420   6.100   3.297  1.00 20.00    -0.003 Br
ENDROOT
BRANCH   1   5
HETATM    5  C2  UNL     1     -34.553   5.048   4.774  1.00 20.00     0.167 C 
HETATM    6  C1  UNL     1     -34.809   4.494   5.964  1.00 20.00     0.059 C 
HETATM    7  F4  UNL     1     -34.986   4.394   3.671  1.00 20.00    -0.204 F 
ENDBRANCH   1   5
TORSDOF 1
ENDMDL
MODEL 8
REMARK VINA RESULT:      -4.0      2.007      2.545
REMARK  1 active torsions:
REMARK  status: ('A' for Active; 'I' for Inactive)
REMARK    1  A    between atoms: C2_2  and  C3_3 
ROOT
HETATM    1  C3  UNL     1     -34.521   5.208   6.033  1.00 20.00     0.351 C 
HETATM    2  F5  UNL     1     -35.462   5.477   6.976  1.00 20.00    -0.185 F 
HETATM    3  F6  UNL     1     -33.800   4.155   6.501  1.00 20.00    -0.185 F 
HETATM    4 BR7  UNL     1     -35.404   4.699   4.374  1.00 20.00    -0.003 Br
ENDROOT
BRANCH   1   5
HETATM    5  C2  UNL     1     -33.635   6.373   5.754  1.00 20.00     0.167 C 
HETATM    6  C1  UNL     1     -33.219   6.731   4.535  1.00 20.00     0.059 C 
HETATM    7  F4  UNL     1     -33.251   7.144   6.799  1.00 20.00    -0.204 F 
ENDBRANCH   1   5
TORSDOF 1
ENDMDL
MODEL 9
REMARK VINA RESULT:      -3.9      2.348      2.673
REMARK  1 active torsions:
REMARK  status: ('A' for Active; 'I' for Inactive)
REMARK    1  A    between atoms: C2_2  and  C3_3 
ROOT
HETATM    1  C3  UNL     1     -33.810   6.304   4.348  1.00 20.00     0.351 C 
HETATM    2  F5  UNL     1     -32.583   5.941   3.887  1.00 20.00    -0.185 F 
HETATM    3  F6  UNL     1     -34.030   7.568   3.898  1.00 20.00    -0.185 F 
HETATM    4 BR7  UNL     1     -35.153   5.110   3.600  1.00 20.00    -0.003 Br
ENDROOT
BRANCH   1   5
HETATM    5  C2  UNL     1     -33.907   6.247   5.834  1.00 20.00     0.167 C 
HETATM    6  C1  UNL     1     -34.670   5.381   6.508  1.00 20.00     0.059 C 
HETATM    7  F4  UNL     1     -33.148   7.107   6.554  1.00 20.00    -0.204 F 
ENDBRANCH   1   5
TORSDOF 1
ENDMDL
