MODEL 1
REMARK VINA RESULT:      -3.9      0.000      0.000
REMARK  0 active torsions:
REMARK  status: ('A' for Active; 'I' for Inactive)
ROOT
HETATM    1  C1  UNL     1     -34.950   4.448   5.949  1.00 20.00     0.238 C 
HETATM    2  C2  UNL     1     -34.428   5.648   5.700  1.00 20.00     0.189 C 
HETATM    3  F3  UNL     1     -35.088   3.526   4.978  1.00 20.00    -0.216 F 
HETATM    4  F4  UNL     1     -34.318   6.529   6.719  1.00 20.00    -0.196 F 
HETATM    5 BR5  UNL     1     -33.845   6.166   4.012  1.00 20.00    -0.015 Br
ENDROOT
TORSDOF 0
ENDMDL
MODEL 2
REMARK VINA RESULT:      -3.8      0.646      2.371
REMARK  0 active torsions:
REMARK  status: ('A' for Active; 'I' for Inactive)
ROOT
HETATM    1  C1  UNL     1     -34.599   5.507   6.423  1.00 20.00     0.238 C 
HETATM    2  C2  UNL     1     -34.709   4.891   5.247  1.00 20.00     0.189 C 
HETATM    3  F3  UNL     1     -34.201   6.790   6.512  1.00 20.00    -0.216 F 
HETATM    4  F4  UNL     1     -35.113   3.602   5.227  1.00 20.00    -0.196 F 
HETATM    5 BR5  UNL     1     -34.330   5.728   3.630  1.00 20.00    -0.015 Br
ENDROOT
TORSDOF 0
ENDMDL
MODEL 3
REMARK VINA RESULT:      -3.7      2.018      2.245
REMARK  0 active torsions:
REMARK  status: ('A' for Active; 'I' for Inactive)
ROOT
HETATM    1  C1  UNL     1     -33.709   6.357   4.247  1.00 20.00     0.238 C 
HETATM    2  C2  UNL     1     -34.145   5.977   5.447  1.00 20.00     0.189 C 
HETATM    3  F3  UNL     1     -33.800   5.547   3.175  1.00 20.00    -0.216 F 
HETATM    4  F4  UNL     1     -34.023   6.838   6.481  1.00 20.00    -0.196 F 
HETATM    5 BR5  UNL     1     -34.913   4.314   5.762  1.00 20.00    -0.015 Br
ENDROOT
TORSDOF 0
ENDMDL
MODEL 4
REMARK VINA RESULT:      -3.7      1.956      2.246
REMARK  0 active torsions:
REMARK  status: ('A' for Active; 'I' for Inactive)
ROOT
HETATM    1  C1  UNL     1     -35.238   4.901   4.249  1.00 20.00     0.238 C 
HETATM    2  C2  UNL     1     -34.944   4.960   5.547  1.00 20.00     0.189 C 
HETATM    3  F3  UNL     1     -34.878   5.881   3.400  1.00 20.00    -0.216 F 
HETATM    4  F4  UNL     1     -35.336   3.943   6.346  1.00 20.00    -0.196 F 
HETATM    5 BR5  UNL     1     -34.019   6.381   6.309  1.00 20.00    -0.015 Br
ENDROOT
TORSDOF 0
ENDMDL
MODEL 5
REMARK VINA RESULT:      -3.6      1.560      1.972
REMARK  0 active torsions:
REMARK  status: ('A' for Active; 'I' for Inactive)
ROOT
HETATM    1  C1  UNL     1     -35.085   4.489   5.562  1.00 20.00     0.238 C 
HETATM    2  C2  UNL     1     -35.014   5.269   4.484  1.00 20.00     0.189 C 
HETATM    3  F3  UNL     1     -34.024   4.303   6.368  1.00 20.00    -0.216 F 
HETATM    4  F4  UNL     1     -36.116   5.413   3.716  1.00 20.00    -0.196 F 
HETATM    5 BR5  UNL     1     -33.464   6.168   3.990  1.00 20.00    -0.015 Br
ENDROOT
TORSDOF 0
ENDMDL
MODEL 6
REMARK VINA RESULT:      -3.6      2.573      3.004
REMARK  0 active torsions:
REMARK  status: ('A' for Active; 'I' for Inactive)
ROOT
HETATM    1  C1  UNL     1     -33.886   5.907   3.447  1.00 20.00     0.238 C 
HETATM    2  C2  UNL     1     -34.918   5.413   4.129  1.00 20.00     0.189 C 
HETATM    3  F3  UNL     1     -32.625   5.802   3.903  1.00 20.00    -0.216 F 
HETATM    4  F4  UNL     1     -36.160   5.552   3.616  1.00 20.00    -0.196 F 
HETATM    5 BR5  UNL     1     -34.724   4.539   5.759  1.00 20.00    -0.015 Br
ENDROOT
TORSDOF 0
ENDMDL
MODEL 7
REMARK VINA RESULT:      -3.5      1.869      2.246
REMARK  0 active torsions:
REMARK  status: ('A' for Active; 'I' for Inactive)
ROOT
HETATM    1  C1  UNL     1     -33.956   6.346   6.213  1.00 20.00     0.238 C 
HETATM    2  C2  UNL     1     -33.803   6.231   4.895  1.00 20.00     0.189 C 
HETATM    3  F3  UNL     1     -35.009   5.802   6.850  1.00 20.00    -0.216 F 
HETATM    4  F4  UNL     1     -32.723   6.802   4.317  1.00 20.00    -0.196 F 
HETATM    5 BR5  UNL     1     -35.012   5.321   3.814  1.00 20.00    -0.015 Br
ENDROOT
TORSDOF 0
ENDMDL
MODEL 8
REMARK VINA RESULT:      -3.5      2.366      2.382
REMARK  0 active torsions:
REMARK  status: ('A' for Active; 'I' for Inactive)
ROOT
HETATM    1  C1  UNL     1     -34.784   5.455   3.666  1.00 20.00     0.238 C 
HETATM    2  C2  UNL     1     -33.831   5.977   4.437  1.00 20.00     0.189 C 
HETATM    3  F3  UNL     1     -35.989   5.122   4.165  1.00 20.00    -0.216 F 
HETATM    4  F4  UNL     1     -32.643   6.289   3.875  1.00 20.00    -0.196 F 
HETATM    5 BR5  UNL     1     -34.065   6.296   6.254  1.00 20.00    -0.015 Br
ENDROOT
TORSDOF 0
ENDMDL
MODEL 9
REMARK VINA RESULT:      -3.5      2.070      3.066
REMARK  0 active torsions:
REMARK  status: ('A' for Active; 'I' for Inactive)
ROOT
HETATM    1  C1  UNL     1     -33.743   6.493   4.615  1.00 20.00     0.238 C 
HETATM    2  C2  UNL     1     -34.485   5.411   4.380  1.00 20.00     0.189 C 
HETATM    3  F3  UNL     1     -33.314   6.797   5.853  1.00 20.00    -0.216 F 
HETATM    4  F4  UNL     1     -34.884   5.163   3.114  1.00 20.00    -0.196 F 
HETATM    5 BR5  UNL     1     -34.995   4.228   5.720  1.00 20.00    -0.015 Br
ENDROOT
TORSDOF 0
ENDMDL
