MODEL 1
REMARK VINA RESULT:      -5.5      0.000      0.000
REMARK  0 active torsions:
REMARK  status: ('A' for Active; 'I' for Inactive)
ROOT
HETATM    1  C1  UNL     1     -32.998   6.542   4.159  1.00 20.00     0.145 C 
HETATM    2  C2  UNL     1     -34.030   6.175   4.909  1.00 20.00    -0.034 C 
HETATM    3  C3  UNL     1     -34.255   5.951   6.352  1.00 20.00     0.038 C 
HETATM    4  C4  UNL     1     -35.118   4.674   6.308  1.00 20.00     0.007 C 
HETATM    5  C5  UNL     1     -35.032   4.132   4.865  1.00 20.00     0.034 C 
HETATM    6  C6  UNL     1     -34.919   5.392   4.032  1.00 20.00     0.161 C 
HETATM    7  N7  UNL     1     -33.109   6.050   2.881  1.00 20.00    -0.167 NA
HETATM    8  N8  UNL     1     -34.127   5.293   2.790  1.00 20.00    -0.183 NA
ENDROOT
TORSDOF 0
ENDMDL
MODEL 2
REMARK VINA RESULT:      -4.6      1.970      3.291
REMARK  0 active torsions:
REMARK  status: ('A' for Active; 'I' for Inactive)
ROOT
HETATM    1  C1  UNL     1     -35.168   4.322   4.878  1.00 20.00     0.145 C 
HETATM    2  C2  UNL     1     -34.724   5.300   4.098  1.00 20.00    -0.034 C 
HETATM    3  C3  UNL     1     -34.166   5.388   2.734  1.00 20.00     0.038 C 
HETATM    4  C4  UNL     1     -33.030   6.406   2.957  1.00 20.00     0.007 C 
HETATM    5  C5  UNL     1     -32.863   6.553   4.486  1.00 20.00     0.034 C 
HETATM    6  C6  UNL     1     -34.275   6.376   5.002  1.00 20.00     0.161 C 
HETATM    7  N7  UNL     1     -35.026   4.639   6.208  1.00 20.00    -0.167 NA
HETATM    8  N8  UNL     1     -34.417   5.749   6.331  1.00 20.00    -0.183 NA
ENDROOT
TORSDOF 0
ENDMDL
MODEL 3
REMARK VINA RESULT:      -4.3     11.739     12.456
REMARK  0 active torsions:
REMARK  status: ('A' for Active; 'I' for Inactive)
ROOT
HETATM    1  C1  UNL     1     -35.782  13.778  -4.204  1.00 20.00     0.145 C 
HETATM    2  C2  UNL     1     -35.112  14.593  -3.399  1.00 20.00    -0.034 C 
HETATM    3  C3  UNL     1     -35.253  15.999  -2.969  1.00 20.00     0.038 C 
HETATM    4  C4  UNL     1     -33.781  16.456  -3.010  1.00 20.00     0.007 C 
HETATM    5  C5  UNL     1     -32.996  15.355  -3.757  1.00 20.00     0.034 C 
HETATM    6  C6  UNL     1     -33.726  14.088  -3.362  1.00 20.00     0.161 C 
HETATM    7  N7  UNL     1     -34.963  12.804  -4.725  1.00 20.00    -0.167 NA
HETATM    8  N8  UNL     1     -33.760  13.006  -4.366  1.00 20.00    -0.183 NA
ENDROOT
TORSDOF 0
ENDMDL
MODEL 4
REMARK VINA RESULT:      -4.3     12.292     13.320
REMARK  0 active torsions:
REMARK  status: ('A' for Active; 'I' for Inactive)
ROOT
HETATM    1  C1  UNL     1     -35.024  13.614  -5.596  1.00 20.00     0.145 C 
HETATM    2  C2  UNL     1     -34.726  14.853  -5.225  1.00 20.00    -0.034 C 
HETATM    3  C3  UNL     1     -34.271  16.077  -5.916  1.00 20.00     0.038 C 
HETATM    4  C4  UNL     1     -33.223  16.595  -4.912  1.00 20.00     0.007 C 
HETATM    5  C5  UNL     1     -32.968  15.449  -3.907  1.00 20.00     0.034 C 
HETATM    6  C6  UNL     1     -34.320  14.774  -3.810  1.00 20.00     0.161 C 
HETATM    7  N7  UNL     1     -34.824  12.723  -4.568  1.00 20.00    -0.167 NA
HETATM    8  N8  UNL     1     -34.314  13.318  -3.566  1.00 20.00    -0.183 NA
ENDROOT
TORSDOF 0
ENDMDL
MODEL 5
REMARK VINA RESULT:      -4.3      0.860      1.870
REMARK  0 active torsions:
REMARK  status: ('A' for Active; 'I' for Inactive)
ROOT
HETATM    1  C1  UNL     1     -34.205   5.568   2.944  1.00 20.00     0.145 C 
HETATM    2  C2  UNL     1     -34.251   5.092   4.182  1.00 20.00    -0.034 C 
HETATM    3  C3  UNL     1     -35.278   4.446   5.023  1.00 20.00     0.038 C 
HETATM    4  C4  UNL     1     -35.020   5.144   6.372  1.00 20.00     0.007 C 
HETATM    5  C5  UNL     1     -34.082   6.337   6.080  1.00 20.00     0.034 C 
HETATM    6  C6  UNL     1     -33.223   5.825   4.944  1.00 20.00     0.161 C 
HETATM    7  N7  UNL     1     -33.265   6.565   2.826  1.00 20.00    -0.167 NA
HETATM    8  N8  UNL     1     -32.760   6.827   3.963  1.00 20.00    -0.183 NA
ENDROOT
TORSDOF 0
ENDMDL
MODEL 6
REMARK VINA RESULT:      -4.2      2.078      2.839
REMARK  0 active torsions:
REMARK  status: ('A' for Active; 'I' for Inactive)
ROOT
HETATM    1  C1  UNL     1     -33.790   6.551   6.228  1.00 20.00     0.145 C 
HETATM    2  C2  UNL     1     -33.495   6.054   5.033  1.00 20.00    -0.034 C 
HETATM    3  C3  UNL     1     -32.963   6.600   3.768  1.00 20.00     0.038 C 
HETATM    4  C4  UNL     1     -33.851   5.863   2.746  1.00 20.00     0.007 C 
HETATM    5  C5  UNL     1     -35.001   5.213   3.547  1.00 20.00     0.034 C 
HETATM    6  C6  UNL     1     -34.342   4.859   4.863  1.00 20.00     0.161 C 
HETATM    7  N7  UNL     1     -34.771   5.815   6.848  1.00 20.00    -0.167 NA
HETATM    8  N8  UNL     1     -35.200   4.909   6.064  1.00 20.00    -0.183 NA
ENDROOT
TORSDOF 0
ENDMDL
MODEL 7
REMARK VINA RESULT:      -4.1     11.940     12.480
REMARK  0 active torsions:
REMARK  status: ('A' for Active; 'I' for Inactive)
ROOT
HETATM    1  C1  UNL     1     -34.051  13.214  -4.500  1.00 20.00     0.145 C 
HETATM    2  C2  UNL     1     -33.957  14.502  -4.193  1.00 20.00    -0.034 C 
HETATM    3  C3  UNL     1     -32.917  15.372  -3.608  1.00 20.00     0.038 C 
HETATM    4  C4  UNL     1     -33.770  16.237  -2.660  1.00 20.00     0.007 C 
HETATM    5  C5  UNL     1     -35.157  15.561  -2.573  1.00 20.00     0.034 C 
HETATM    6  C6  UNL     1     -35.336  14.970  -3.955  1.00 20.00     0.161 C 
HETATM    7  N7  UNL     1     -35.355  12.783  -4.459  1.00 20.00    -0.167 NA
HETATM    8  N8  UNL     1     -36.111  13.717  -4.041  1.00 20.00    -0.183 NA
ENDROOT
TORSDOF 0
ENDMDL
MODEL 8
REMARK VINA RESULT:      -4.0      9.661     10.540
REMARK  0 active torsions:
REMARK  status: ('A' for Active; 'I' for Inactive)
ROOT
HETATM    1  C1  UNL     1     -42.294   7.323  -2.910  1.00 20.00     0.145 C 
HETATM    2  C2  UNL     1     -42.028   6.521  -1.887  1.00 20.00    -0.034 C 
HETATM    3  C3  UNL     1     -40.919   6.380  -0.921  1.00 20.00     0.038 C 
HETATM    4  C4  UNL     1     -40.789   4.846  -0.862  1.00 20.00     0.007 C 
HETATM    5  C5  UNL     1     -41.625   4.285  -2.034  1.00 20.00     0.034 C 
HETATM    6  C6  UNL     1     -42.769   5.272  -2.139  1.00 20.00     0.161 C 
HETATM    7  N7  UNL     1     -43.115   6.710  -3.826  1.00 20.00    -0.167 NA
HETATM    8  N8  UNL     1     -43.321   5.501  -3.489  1.00 20.00    -0.183 NA
ENDROOT
TORSDOF 0
ENDMDL
MODEL 9
REMARK VINA RESULT:      -4.0     12.200     13.332
REMARK  0 active torsions:
REMARK  status: ('A' for Active; 'I' for Inactive)
ROOT
HETATM    1  C1  UNL     1     -33.541  14.309  -3.785  1.00 20.00     0.145 C 
HETATM    2  C2  UNL     1     -33.920  14.814  -4.953  1.00 20.00    -0.034 C 
HETATM    3  C3  UNL     1     -34.027  16.170  -5.528  1.00 20.00     0.038 C 
HETATM    4  C4  UNL     1     -35.369  16.055  -6.278  1.00 20.00     0.007 C 
HETATM    5  C5  UNL     1     -36.035  14.748  -5.793  1.00 20.00     0.034 C 
HETATM    6  C6  UNL     1     -34.853  13.836  -5.541  1.00 20.00     0.161 C 
HETATM    7  N7  UNL     1     -34.158  13.107  -3.536  1.00 20.00    -0.167 NA
HETATM    8  N8  UNL     1     -35.002  12.850  -4.453  1.00 20.00    -0.183 NA
ENDROOT
TORSDOF 0
ENDMDL
