MODEL 1
REMARK VINA RESULT:      -5.2      0.000      0.000
REMARK  0 active torsions:
REMARK  status: ('A' for Active; 'I' for Inactive)
ROOT
HETATM    1  C1  UNL     1     -33.309   6.569   5.256  1.00 20.00     0.009 C 
HETATM    2  C2  UNL     1     -33.911   6.635   3.852  1.00 20.00     0.035 C 
HETATM    3  C3  UNL     1     -34.326   6.053   6.272  1.00 20.00     0.082 C 
HETATM    4  C4  UNL     1     -34.631   5.377   3.476  1.00 20.00     0.157 A 
HETATM    5  C5  UNL     1     -35.083   4.394   4.525  1.00 20.00     0.223 A 
HETATM    6  C6  UNL     1     -34.732   4.622   5.951  1.00 20.00     0.271 C 
HETATM    7  O7  UNL     1     -35.992   5.334   3.950  1.00 20.00    -0.369 OA
HETATM    8  F8  UNL     1     -33.705   3.792   6.277  1.00 20.00    -0.203 F 
HETATM    9  F9  UNL     1     -35.777   4.262   6.738  1.00 20.00    -0.203 F 
ENDROOT
TORSDOF 0
ENDMDL
MODEL 2
REMARK VINA RESULT:      -5.0      2.147      2.885
REMARK  0 active torsions:
REMARK  status: ('A' for Active; 'I' for Inactive)
ROOT
HETATM    1  C1  UNL     1     -33.945   6.583   5.709  1.00 20.00     0.009 C 
HETATM    2  C2  UNL     1     -34.306   5.409   6.621  1.00 20.00     0.035 C 
HETATM    3  C3  UNL     1     -33.556   6.102   4.313  1.00 20.00     0.082 C 
HETATM    4  C4  UNL     1     -35.253   4.448   5.972  1.00 20.00     0.157 A 
HETATM    5  C5  UNL     1     -35.433   4.421   4.477  1.00 20.00     0.223 A 
HETATM    6  C6  UNL     1     -34.732   5.421   3.629  1.00 20.00     0.271 C 
HETATM    7  O7  UNL     1     -34.596   3.472   5.139  1.00 20.00    -0.369 OA
HETATM    8  F8  UNL     1     -35.631   6.372   3.256  1.00 20.00    -0.203 F 
HETATM    9  F9  UNL     1     -34.308   4.828   2.485  1.00 20.00    -0.203 F 
ENDROOT
TORSDOF 0
ENDMDL
MODEL 3
REMARK VINA RESULT:      -4.9      2.289      3.323
REMARK  0 active torsions:
REMARK  status: ('A' for Active; 'I' for Inactive)
ROOT
HETATM    1  C1  UNL     1     -35.168   4.162   4.544  1.00 20.00     0.009 C 
HETATM    2  C2  UNL     1     -35.058   4.390   6.053  1.00 20.00     0.035 C 
HETATM    3  C3  UNL     1     -35.180   5.486   3.782  1.00 20.00     0.082 C 
HETATM    4  C4  UNL     1     -33.973   5.359   6.408  1.00 20.00     0.157 A 
HETATM    5  C5  UNL     1     -33.409   6.308   5.384  1.00 20.00     0.223 A 
HETATM    6  C6  UNL     1     -33.865   6.228   3.971  1.00 20.00     0.271 C 
HETATM    7  O7  UNL     1     -34.389   6.737   6.330  1.00 20.00    -0.369 OA
HETATM    8  F8  UNL     1     -32.900   5.602   3.244  1.00 20.00    -0.203 F 
HETATM    9  F9  UNL     1     -33.976   7.480   3.459  1.00 20.00    -0.203 F 
ENDROOT
TORSDOF 0
ENDMDL
MODEL 4
REMARK VINA RESULT:      -4.7      1.802      2.589
REMARK  0 active torsions:
REMARK  status: ('A' for Active; 'I' for Inactive)
ROOT
HETATM    1  C1  UNL     1     -33.710   6.817   4.261  1.00 20.00     0.009 C 
HETATM    2  C2  UNL     1     -33.387   6.880   5.756  1.00 20.00     0.035 C 
HETATM    3  C3  UNL     1     -33.914   5.376   3.798  1.00 20.00     0.082 C 
HETATM    4  C4  UNL     1     -34.326   6.055   6.580  1.00 20.00     0.157 A 
HETATM    5  C5  UNL     1     -35.157   4.963   5.958  1.00 20.00     0.223 A 
HETATM    6  C6  UNL     1     -35.121   4.754   4.487  1.00 20.00     0.271 C 
HETATM    7  O7  UNL     1     -33.948   4.665   6.658  1.00 20.00    -0.369 OA
HETATM    8  F8  UNL     1     -36.252   5.285   3.950  1.00 20.00    -0.203 F 
HETATM    9  F9  UNL     1     -35.158   3.425   4.217  1.00 20.00    -0.203 F 
ENDROOT
TORSDOF 0
ENDMDL
MODEL 5
REMARK VINA RESULT:      -4.5     12.804     13.253
REMARK  0 active torsions:
REMARK  status: ('A' for Active; 'I' for Inactive)
ROOT
HETATM    1  C1  UNL     1     -35.506  15.868  -3.112  1.00 20.00     0.009 C 
HETATM    2  C2  UNL     1     -36.374  14.724  -3.637  1.00 20.00     0.035 C 
HETATM    3  C3  UNL     1     -34.120  15.372  -2.704  1.00 20.00     0.082 C 
HETATM    4  C4  UNL     1     -35.660  13.877  -4.645  1.00 20.00     0.157 A 
HETATM    5  C5  UNL     1     -34.157  13.893  -4.751  1.00 20.00     0.223 A 
HETATM    6  C6  UNL     1     -33.366  14.828  -3.909  1.00 20.00     0.271 C 
HETATM    7  O7  UNL     1     -34.840  12.851  -4.051  1.00 20.00    -0.369 OA
HETATM    8  F8  UNL     1     -32.970  15.873  -4.685  1.00 20.00    -0.203 F 
HETATM    9  F9  UNL     1     -32.232  14.212  -3.491  1.00 20.00    -0.203 F 
ENDROOT
TORSDOF 0
ENDMDL
MODEL 6
REMARK VINA RESULT:      -4.4      1.844      2.699
REMARK  0 active torsions:
REMARK  status: ('A' for Active; 'I' for Inactive)
ROOT
HETATM    1  C1  UNL     1     -35.119   4.298   6.003  1.00 20.00     0.009 C 
HETATM    2  C2  UNL     1     -35.135   4.236   4.474  1.00 20.00     0.035 C 
HETATM    3  C3  UNL     1     -33.864   5.000   6.517  1.00 20.00     0.082 C 
HETATM    4  C4  UNL     1     -34.819   5.557   3.844  1.00 20.00     0.157 A 
HETATM    5  C5  UNL     1     -34.130   6.648   4.622  1.00 20.00     0.223 A 
HETATM    6  C6  UNL     1     -33.836   6.453   6.066  1.00 20.00     0.271 C 
HETATM    7  O7  UNL     1     -33.405   5.809   3.721  1.00 20.00    -0.369 OA
HETATM    8  F8  UNL     1     -34.752   7.154   6.788  1.00 20.00    -0.203 F 
HETATM    9  F9  UNL     1     -32.626   6.993   6.359  1.00 20.00    -0.203 F 
ENDROOT
TORSDOF 0
ENDMDL
MODEL 7
REMARK VINA RESULT:      -4.2     12.543     13.484
REMARK  0 active torsions:
REMARK  status: ('A' for Active; 'I' for Inactive)
ROOT
HETATM    1  C1  UNL     1     -34.040  15.658  -5.857  1.00 20.00     0.009 C 
HETATM    2  C2  UNL     1     -34.859  14.419  -6.222  1.00 20.00     0.035 C 
HETATM    3  C3  UNL     1     -34.343  16.124  -4.434  1.00 20.00     0.082 C 
HETATM    4  C4  UNL     1     -34.804  13.362  -5.162  1.00 20.00     0.157 A 
HETATM    5  C5  UNL     1     -34.384  13.692  -3.753  1.00 20.00     0.223 A 
HETATM    6  C6  UNL     1     -33.927  15.067  -3.421  1.00 20.00     0.271 C 
HETATM    7  O7  UNL     1     -35.763  13.563  -4.104  1.00 20.00    -0.369 OA
HETATM    8  F8  UNL     1     -32.570  15.058  -3.330  1.00 20.00    -0.203 F 
HETATM    9  F9  UNL     1     -34.389  15.414  -2.193  1.00 20.00    -0.203 F 
ENDROOT
TORSDOF 0
ENDMDL
MODEL 8
REMARK VINA RESULT:      -4.2     12.643     13.362
REMARK  0 active torsions:
REMARK  status: ('A' for Active; 'I' for Inactive)
ROOT
HETATM    1  C1  UNL     1     -34.048  15.378  -3.031  1.00 20.00     0.009 C 
HETATM    2  C2  UNL     1     -35.481  15.742  -2.637  1.00 20.00     0.035 C 
HETATM    3  C3  UNL     1     -33.978  13.979  -3.640  1.00 20.00     0.082 C 
HETATM    4  C4  UNL     1     -36.466  15.453  -3.728  1.00 20.00     0.157 A 
HETATM    5  C5  UNL     1     -36.131  14.507  -4.851  1.00 20.00     0.223 A 
HETATM    6  C6  UNL     1     -34.769  13.916  -4.939  1.00 20.00     0.271 C 
HETATM    7  O7  UNL     1     -36.921  14.085  -3.739  1.00 20.00    -0.369 OA
HETATM    8  F8  UNL     1     -34.077  14.577  -5.906  1.00 20.00    -0.203 F 
HETATM    9  F9  UNL     1     -34.861  12.626  -5.349  1.00 20.00    -0.203 F 
ENDROOT
TORSDOF 0
ENDMDL
MODEL 9
REMARK VINA RESULT:      -4.2     13.119     14.089
REMARK  0 active torsions:
REMARK  status: ('A' for Active; 'I' for Inactive)
ROOT
HETATM    1  C1  UNL     1     -33.582  16.103  -4.722  1.00 20.00     0.009 C 
HETATM    2  C2  UNL     1     -33.144  15.058  -3.694  1.00 20.00     0.035 C 
HETATM    3  C3  UNL     1     -34.001  15.448  -6.037  1.00 20.00     0.082 C 
HETATM    4  C4  UNL     1     -34.116  13.925  -3.580  1.00 20.00     0.157 A 
HETATM    5  C5  UNL     1     -35.123  13.647  -4.666  1.00 20.00     0.223 A 
HETATM    6  C6  UNL     1     -35.222  14.563  -5.833  1.00 20.00     0.271 C 
HETATM    7  O7  UNL     1     -33.913  12.894  -4.568  1.00 20.00    -0.369 OA
HETATM    8  F8  UNL     1     -36.314  15.357  -5.663  1.00 20.00    -0.203 F 
HETATM    9  F9  UNL     1     -35.448  13.840  -6.958  1.00 20.00    -0.203 F 
ENDROOT
TORSDOF 0
ENDMDL
