MODEL 1
REMARK VINA RESULT:      -4.4      0.000      0.000
REMARK  0 active torsions:
REMARK  status: ('A' for Active; 'I' for Inactive)
ROOT
HETATM    1  C1  UNL     1     -33.723   6.267   4.414  1.00 20.00     0.164 C 
HETATM    2  C2  UNL     1     -34.728   5.398   3.696  1.00 20.00     0.107 C 
HETATM    3  C3  UNL     1     -35.042   4.183   4.554  1.00 20.00     0.175 C 
HETATM    4  C4  UNL     1     -34.402   5.247   6.563  1.00 20.00     0.212 C 
HETATM    5  C5  UNL     1     -34.023   6.543   5.868  1.00 20.00     0.263 C 
HETATM    6  O6  UNL     1     -32.775   6.787   3.831  1.00 20.00    -0.295 OA
HETATM    7  O7  UNL     1     -35.455   4.581   5.864  1.00 20.00    -0.388 OA
HETATM    8  F8  UNL     1     -32.949   7.085   6.500  1.00 20.00    -0.239 F 
ENDROOT
TORSDOF 0
ENDMDL
MODEL 2
REMARK VINA RESULT:      -4.2      1.928      3.244
REMARK  0 active torsions:
REMARK  status: ('A' for Active; 'I' for Inactive)
ROOT
HETATM    1  C1  UNL     1     -34.931   4.590   4.879  1.00 20.00     0.164 C 
HETATM    2  C2  UNL     1     -34.981   5.226   6.248  1.00 20.00     0.107 C 
HETATM    3  C3  UNL     1     -33.785   6.149   6.414  1.00 20.00     0.175 C 
HETATM    4  C4  UNL     1     -33.498   6.444   4.088  1.00 20.00     0.212 C 
HETATM    5  C5  UNL     1     -34.661   5.535   3.733  1.00 20.00     0.263 C 
HETATM    6  O6  UNL     1     -35.184   3.401   4.701  1.00 20.00    -0.295 OA
HETATM    7  O7  UNL     1     -33.721   7.093   5.341  1.00 20.00    -0.388 OA
HETATM    8  F8  UNL     1     -34.359   4.857   2.594  1.00 20.00    -0.239 F 
ENDROOT
TORSDOF 0
ENDMDL
MODEL 3
REMARK VINA RESULT:      -4.0      1.662      2.311
REMARK  0 active torsions:
REMARK  status: ('A' for Active; 'I' for Inactive)
ROOT
HETATM    1  C1  UNL     1     -34.026   6.095   5.881  1.00 20.00     0.164 C 
HETATM    2  C2  UNL     1     -34.205   4.755   6.554  1.00 20.00     0.107 C 
HETATM    3  C3  UNL     1     -35.343   4.005   5.882  1.00 20.00     0.175 C 
HETATM    4  C4  UNL     1     -35.143   5.209   3.860  1.00 20.00     0.212 C 
HETATM    5  C5  UNL     1     -33.998   6.065   4.371  1.00 20.00     0.263 C 
HETATM    6  O6  UNL     1     -33.826   7.126   6.519  1.00 20.00    -0.295 OA
HETATM    7  O7  UNL     1     -35.128   3.918   4.471  1.00 20.00    -0.388 OA
HETATM    8  F8  UNL     1     -34.115   7.315   3.850  1.00 20.00    -0.239 F 
ENDROOT
TORSDOF 0
ENDMDL
MODEL 4
REMARK VINA RESULT:      -3.9     12.246     12.790
REMARK  0 active torsions:
REMARK  status: ('A' for Active; 'I' for Inactive)
ROOT
HETATM    1  C1  UNL     1     -35.005  13.723  -4.258  1.00 20.00     0.164 C 
HETATM    2  C2  UNL     1     -36.262  14.550  -4.373  1.00 20.00     0.107 C 
HETATM    3  C3  UNL     1     -36.292  15.575  -3.250  1.00 20.00     0.175 C 
HETATM    4  C4  UNL     1     -33.949  15.539  -2.953  1.00 20.00     0.212 C 
HETATM    5  C5  UNL     1     -33.731  14.503  -4.041  1.00 20.00     0.263 C 
HETATM    6  O6  UNL     1     -35.007  12.505  -4.420  1.00 20.00    -0.295 OA
HETATM    7  O7  UNL     1     -35.090  16.349  -3.240  1.00 20.00    -0.388 OA
HETATM    8  F8  UNL     1     -32.707  13.687  -3.674  1.00 20.00    -0.239 F 
ENDROOT
TORSDOF 0
ENDMDL
MODEL 5
REMARK VINA RESULT:      -3.9     12.836     13.956
REMARK  0 active torsions:
REMARK  status: ('A' for Active; 'I' for Inactive)
ROOT
HETATM    1  C1  UNL     1     -34.690  13.744  -4.711  1.00 20.00     0.164 C 
HETATM    2  C2  UNL     1     -34.127  14.482  -3.519  1.00 20.00     0.107 C 
HETATM    3  C3  UNL     1     -33.124  15.518  -4.000  1.00 20.00     0.175 C 
HETATM    4  C4  UNL     1     -34.067  15.649  -6.161  1.00 20.00     0.212 C 
HETATM    5  C5  UNL     1     -35.137  14.615  -5.862  1.00 20.00     0.263 C 
HETATM    6  O6  UNL     1     -34.857  12.527  -4.708  1.00 20.00    -0.295 OA
HETATM    7  O7  UNL     1     -33.713  16.374  -4.983  1.00 20.00    -0.388 OA
HETATM    8  F8  UNL     1     -35.363  13.877  -6.981  1.00 20.00    -0.239 F 
ENDROOT
TORSDOF 0
ENDMDL
MODEL 6
REMARK VINA RESULT:      -3.7     12.291     12.757
REMARK  0 active torsions:
REMARK  status: ('A' for Active; 'I' for Inactive)
ROOT
HETATM    1  C1  UNL     1     -33.779  14.809  -3.367  1.00 20.00     0.164 C 
HETATM    2  C2  UNL     1     -34.483  15.781  -2.450  1.00 20.00     0.107 C 
HETATM    3  C3  UNL     1     -35.848  16.115  -3.028  1.00 20.00     0.175 C 
HETATM    4  C4  UNL     1     -35.969  14.123  -4.291  1.00 20.00     0.212 C 
HETATM    5  C5  UNL     1     -34.609  13.634  -3.827  1.00 20.00     0.263 C 
HETATM    6  O6  UNL     1     -32.588  14.918  -3.646  1.00 20.00    -0.295 OA
HETATM    7  O7  UNL     1     -36.594  14.922  -3.286  1.00 20.00    -0.388 OA
HETATM    8  F8  UNL     1     -34.005  12.973  -4.850  1.00 20.00    -0.239 F 
ENDROOT
TORSDOF 0
ENDMDL
MODEL 7
REMARK VINA RESULT:      -3.7     12.076     12.551
REMARK  0 active torsions:
REMARK  status: ('A' for Active; 'I' for Inactive)
ROOT
HETATM    1  C1  UNL     1     -34.381  15.254  -3.112  1.00 20.00     0.164 C 
HETATM    2  C2  UNL     1     -35.889  15.175  -3.100  1.00 20.00     0.107 C 
HETATM    3  C3  UNL     1     -36.359  14.390  -4.314  1.00 20.00     0.175 C 
HETATM    4  C4  UNL     1     -34.305  13.250  -4.560  1.00 20.00     0.212 C 
HETATM    5  C5  UNL     1     -33.664  13.951  -3.375  1.00 20.00     0.263 C 
HETATM    6  O6  UNL     1     -33.779  16.289  -2.836  1.00 20.00    -0.295 OA
HETATM    7  O7  UNL     1     -35.714  13.114  -4.372  1.00 20.00    -0.388 OA
HETATM    8  F8  UNL     1     -32.348  14.157  -3.644  1.00 20.00    -0.239 F 
ENDROOT
TORSDOF 0
ENDMDL
MODEL 8
REMARK VINA RESULT:      -3.7      0.801      2.451
REMARK  0 active torsions:
REMARK  status: ('A' for Active; 'I' for Inactive)
ROOT
HETATM    1  C1  UNL     1     -34.791   5.211   5.875  1.00 20.00     0.164 C 
HETATM    2  C2  UNL     1     -35.007   4.354   4.651  1.00 20.00     0.107 C 
HETATM    3  C3  UNL     1     -34.909   5.223   3.408  1.00 20.00     0.175 C 
HETATM    4  C4  UNL     1     -33.603   6.873   4.480  1.00 20.00     0.212 C 
HETATM    5  C5  UNL     1     -33.606   6.146   5.813  1.00 20.00     0.263 C 
HETATM    6  O6  UNL     1     -35.477   5.091   6.887  1.00 20.00    -0.295 OA
HETATM    7  O7  UNL     1     -33.677   5.949   3.394  1.00 20.00    -0.388 OA
HETATM    8  F8  UNL     1     -33.647   7.062   6.816  1.00 20.00    -0.239 F 
ENDROOT
TORSDOF 0
ENDMDL
MODEL 9
REMARK VINA RESULT:      -3.7      1.978      2.513
REMARK  0 active torsions:
REMARK  status: ('A' for Active; 'I' for Inactive)
ROOT
HETATM    1  C1  UNL     1     -34.021   6.316   5.529  1.00 20.00     0.164 C 
HETATM    2  C2  UNL     1     -33.586   6.942   4.226  1.00 20.00     0.107 C 
HETATM    3  C3  UNL     1     -33.416   5.853   3.180  1.00 20.00     0.175 C 
HETATM    4  C4  UNL     1     -34.871   4.355   4.283  1.00 20.00     0.212 C 
HETATM    5  C5  UNL     1     -35.148   5.316   5.425  1.00 20.00     0.263 C 
HETATM    6  O6  UNL     1     -33.552   6.663   6.610  1.00 20.00    -0.295 OA
HETATM    7  O7  UNL     1     -34.604   5.064   3.072  1.00 20.00    -0.388 OA
HETATM    8  F8  UNL     1     -35.287   4.606   6.576  1.00 20.00    -0.239 F 
ENDROOT
TORSDOF 0
ENDMDL
