MODEL 1
REMARK VINA RESULT:      -4.5      0.000      0.000
REMARK  1 active torsions:
REMARK  status: ('A' for Active; 'I' for Inactive)
REMARK    1  A    between atoms: C6_6  and  C8_8 
ROOT
HETATM    1  C1  UNL     1     -34.421   4.875   6.798  1.00 20.00     0.000 C 
HETATM    2  C2  UNL     1     -35.193   3.978   5.836  1.00 20.00     0.001 C 
HETATM    3  C3  UNL     1     -34.335   6.311   6.293  1.00 20.00     0.001 C 
HETATM    4  C4  UNL     1     -34.621   4.042   4.421  1.00 20.00     0.010 C 
HETATM    5  C5  UNL     1     -33.761   6.378   4.878  1.00 20.00     0.010 C 
HETATM    6  C6  UNL     1     -34.511   5.481   3.867  1.00 20.00    -0.032 C 
HETATM    7  C7  UNL     1     -35.910   6.055   3.569  1.00 20.00     0.016 C 
ENDROOT
BRANCH   6   8
HETATM    8  C8  UNL     1     -33.721   5.448   2.544  1.00 20.00     0.123 C 
HETATM    9 CL9  UNL     1     -32.265   6.438   2.696  1.00 20.00    -0.130 Cl
ENDBRANCH   6   8
TORSDOF 1
ENDMDL
MODEL 2
REMARK VINA RESULT:      -4.4      1.205      1.402
REMARK  1 active torsions:
REMARK  status: ('A' for Active; 'I' for Inactive)
REMARK    1  A    between atoms: C6_6  and  C8_8 
ROOT
HETATM    1  C1  UNL     1     -35.055   4.711   6.007  1.00 20.00     0.000 C 
HETATM    2  C2  UNL     1     -35.412   4.647   4.526  1.00 20.00     0.001 C 
HETATM    3  C3  UNL     1     -34.417   6.045   6.381  1.00 20.00     0.001 C 
HETATM    4  C4  UNL     1     -34.207   4.962   3.640  1.00 20.00     0.010 C 
HETATM    5  C5  UNL     1     -33.210   6.361   5.498  1.00 20.00     0.010 C 
HETATM    6  C6  UNL     1     -33.524   6.305   3.985  1.00 20.00    -0.032 C 
HETATM    7  C7  UNL     1     -34.420   7.489   3.575  1.00 20.00     0.016 C 
ENDROOT
BRANCH   6   8
HETATM    8  C8  UNL     1     -32.205   6.412   3.196  1.00 20.00     0.123 C 
HETATM    9 CL9  UNL     1     -32.160   7.944   2.317  1.00 20.00    -0.130 Cl
ENDBRANCH   6   8
TORSDOF 1
ENDMDL
MODEL 3
REMARK VINA RESULT:      -4.3      1.189      2.290
REMARK  1 active torsions:
REMARK  status: ('A' for Active; 'I' for Inactive)
REMARK    1  A    between atoms: C6_6  and  C8_8 
ROOT
HETATM    1  C1  UNL     1     -35.160   4.648   5.976  1.00 20.00     0.000 C 
HETATM    2  C2  UNL     1     -33.929   5.457   6.368  1.00 20.00     0.001 C 
HETATM    3  C3  UNL     1     -35.136   4.252   4.503  1.00 20.00     0.001 C 
HETATM    4  C4  UNL     1     -33.741   6.674   5.463  1.00 20.00     0.010 C 
HETATM    5  C5  UNL     1     -34.949   5.468   3.595  1.00 20.00     0.010 C 
HETATM    6  C6  UNL     1     -33.713   6.322   3.957  1.00 20.00    -0.032 C 
HETATM    7  C7  UNL     1     -32.415   5.573   3.600  1.00 20.00     0.016 C 
ENDROOT
BRANCH   6   8
HETATM    8  C8  UNL     1     -33.749   7.626   3.139  1.00 20.00     0.123 C 
HETATM    9 CL9  UNL     1     -32.184   7.882   2.358  1.00 20.00    -0.130 Cl
ENDBRANCH   6   8
TORSDOF 1
ENDMDL
MODEL 4
REMARK VINA RESULT:      -4.2     12.337     13.343
REMARK  1 active torsions:
REMARK  status: ('A' for Active; 'I' for Inactive)
REMARK    1  A    between atoms: C6_6  and  C8_8 
ROOT
HETATM    1  C1  UNL     1     -34.538  13.335  -4.521  1.00 20.00     0.000 C 
HETATM    2  C2  UNL     1     -35.778  14.148  -4.170  1.00 20.00     0.001 C 
HETATM    3  C3  UNL     1     -33.334  13.741  -3.678  1.00 20.00     0.001 C 
HETATM    4  C4  UNL     1     -35.512  15.651  -4.258  1.00 20.00     0.010 C 
HETATM    5  C5  UNL     1     -33.064  15.243  -3.766  1.00 20.00     0.010 C 
HETATM    6  C6  UNL     1     -34.296  16.110  -3.422  1.00 20.00    -0.032 C 
HETATM    7  C7  UNL     1     -34.612  16.026  -1.916  1.00 20.00     0.016 C 
ENDROOT
BRANCH   6   8
HETATM    8  C8  UNL     1     -33.984  17.580  -3.759  1.00 20.00     0.123 C 
HETATM    9 CL9  UNL     1     -33.403  17.699  -5.424  1.00 20.00    -0.130 Cl
ENDBRANCH   6   8
TORSDOF 1
ENDMDL
MODEL 5
REMARK VINA RESULT:      -4.1     12.023     13.039
REMARK  1 active torsions:
REMARK  status: ('A' for Active; 'I' for Inactive)
REMARK    1  A    between atoms: C6_6  and  C8_8 
ROOT
HETATM    1  C1  UNL     1     -35.268  13.368  -4.130  1.00 20.00     0.000 C 
HETATM    2  C2  UNL     1     -33.859  13.823  -4.492  1.00 20.00     0.001 C 
HETATM    3  C3  UNL     1     -36.224  14.546  -3.977  1.00 20.00     0.001 C 
HETATM    4  C4  UNL     1     -33.325  14.854  -3.499  1.00 20.00     0.010 C 
HETATM    5  C5  UNL     1     -35.694  15.578  -2.982  1.00 20.00     0.010 C 
HETATM    6  C6  UNL     1     -34.264  16.067  -3.307  1.00 20.00    -0.032 C 
HETATM    7  C7  UNL     1     -34.269  16.952  -4.569  1.00 20.00     0.016 C 
ENDROOT
BRANCH   6   8
HETATM    8  C8  UNL     1     -33.747  16.919  -2.133  1.00 20.00     0.123 C 
HETATM    9 CL9  UNL     1     -34.680  16.555  -0.677  1.00 20.00    -0.130 Cl
ENDBRANCH   6   8
TORSDOF 1
ENDMDL
MODEL 6
REMARK VINA RESULT:      -4.1     12.413     13.478
REMARK  1 active torsions:
REMARK  status: ('A' for Active; 'I' for Inactive)
REMARK    1  A    between atoms: C6_6  and  C8_8 
ROOT
HETATM    1  C1  UNL     1     -35.463  14.377  -5.912  1.00 20.00     0.000 C 
HETATM    2  C2  UNL     1     -35.354  13.701  -4.550  1.00 20.00     0.001 C 
HETATM    3  C3  UNL     1     -34.223  15.203  -6.238  1.00 20.00     0.001 C 
HETATM    4  C4  UNL     1     -35.043  14.707  -3.443  1.00 20.00     0.010 C 
HETATM    5  C5  UNL     1     -33.911  16.212  -5.133  1.00 20.00     0.010 C 
HETATM    6  C6  UNL     1     -33.795  15.572  -3.731  1.00 20.00    -0.032 C 
HETATM    7  C7  UNL     1     -32.513  14.723  -3.629  1.00 20.00     0.016 C 
ENDROOT
BRANCH   6   8
HETATM    8  C8  UNL     1     -33.707  16.691  -2.676  1.00 20.00     0.123 C 
HETATM    9 CL9  UNL     1     -34.709  16.274  -1.281  1.00 20.00    -0.130 Cl
ENDBRANCH   6   8
TORSDOF 1
ENDMDL
MODEL 7
REMARK VINA RESULT:      -4.0      8.860     10.286
REMARK  1 active torsions:
REMARK  status: ('A' for Active; 'I' for Inactive)
REMARK    1  A    between atoms: C6_6  and  C8_8 
ROOT
HETATM    1  C1  UNL     1     -41.142   7.145  -1.037  1.00 20.00     0.000 C 
HETATM    2  C2  UNL     1     -40.759   5.934  -0.193  1.00 20.00     0.001 C 
HETATM    3  C3  UNL     1     -42.455   6.926  -1.782  1.00 20.00     0.001 C 
HETATM    4  C4  UNL     1     -40.725   4.653  -1.026  1.00 20.00     0.010 C 
HETATM    5  C5  UNL     1     -42.423   5.646  -2.618  1.00 20.00     0.010 C 
HETATM    6  C6  UNL     1     -42.034   4.391  -1.804  1.00 20.00    -0.032 C 
HETATM    7  C7  UNL     1     -43.169   4.000  -0.838  1.00 20.00     0.016 C 
ENDROOT
BRANCH   6   8
HETATM    8  C8  UNL     1     -41.812   3.215  -2.774  1.00 20.00     0.123 C 
HETATM    9 CL9  UNL     1     -43.182   3.092  -3.885  1.00 20.00    -0.130 Cl
ENDBRANCH   6   8
TORSDOF 1
ENDMDL
MODEL 8
REMARK VINA RESULT:      -4.0     12.102     13.378
REMARK  1 active torsions:
REMARK  status: ('A' for Active; 'I' for Inactive)
REMARK    1  A    between atoms: C6_6  and  C8_8 
ROOT
HETATM    1  C1  UNL     1     -33.679  17.494  -3.683  1.00 20.00     0.000 C 
HETATM    2  C2  UNL     1     -33.308  16.688  -4.923  1.00 20.00     0.001 C 
HETATM    3  C3  UNL     1     -33.807  16.610  -2.447  1.00 20.00     0.001 C 
HETATM    4  C4  UNL     1     -34.280  15.532  -5.157  1.00 20.00     0.010 C 
HETATM    5  C5  UNL     1     -34.780  15.455  -2.677  1.00 20.00     0.010 C 
HETATM    6  C6  UNL     1     -34.446  14.609  -3.927  1.00 20.00    -0.032 C 
HETATM    7  C7  UNL     1     -33.166  13.783  -3.695  1.00 20.00     0.016 C 
ENDROOT
BRANCH   6   8
HETATM    8  C8  UNL     1     -35.603  13.627  -4.192  1.00 20.00     0.123 C 
HETATM    9 CL9  UNL     1     -37.148  14.465  -4.010  1.00 20.00    -0.130 Cl
ENDBRANCH   6   8
TORSDOF 1
ENDMDL
MODEL 9
REMARK VINA RESULT:      -4.0     12.116     13.333
REMARK  1 active torsions:
REMARK  status: ('A' for Active; 'I' for Inactive)
REMARK    1  A    between atoms: C6_6  and  C8_8 
ROOT
HETATM    1  C1  UNL     1     -34.905  13.278  -4.701  1.00 20.00     0.000 C 
HETATM    2  C2  UNL     1     -33.626  13.665  -3.968  1.00 20.00     0.001 C 
HETATM    3  C3  UNL     1     -35.508  14.458  -5.456  1.00 20.00     0.001 C 
HETATM    4  C4  UNL     1     -33.842  14.867  -3.049  1.00 20.00     0.010 C 
HETATM    5  C5  UNL     1     -35.728  15.661  -4.538  1.00 20.00     0.010 C 
HETATM    6  C6  UNL     1     -34.457  16.089  -3.770  1.00 20.00    -0.032 C 
HETATM    7  C7  UNL     1     -33.432  16.722  -4.730  1.00 20.00     0.016 C 
ENDROOT
BRANCH   6   8
HETATM    8  C8  UNL     1     -34.839  17.148  -2.719  1.00 20.00     0.123 C 
HETATM    9 CL9  UNL     1     -34.654  16.473  -1.097  1.00 20.00    -0.130 Cl
ENDBRANCH   6   8
TORSDOF 1
ENDMDL
