MODEL 1
REMARK VINA RESULT:      -3.3      0.000      0.000
REMARK  3 active torsions:
REMARK  status: ('A' for Active; 'I' for Inactive)
REMARK    1  A    between atoms: C3_3  and  C5_5 
REMARK    2  A    between atoms: C5_5  and  C6_6 
REMARK    3  A    between atoms: C6_6  and  S9_9 
ROOT
HETATM    1  C1  UNL     1     -34.569  15.495  -5.867  1.00 20.00     0.179 C 
HETATM    2  C2  UNL     1     -34.717  14.036  -5.476  1.00 20.00     0.103 C 
HETATM    3  C3  UNL     1     -33.173  15.529  -4.004  1.00 20.00     0.183 C 
HETATM    4  O7  UNL     1     -33.317  15.974  -5.361  1.00 20.00    -0.375 OA
HETATM    5  S8  UNL     1     -34.147  14.019  -3.769  1.00 20.00    -0.135 SA
ENDROOT
BRANCH   3   6
HETATM    6  C5  UNL     1     -33.632  16.624  -3.053  1.00 20.00     0.057 C 
BRANCH   6   7
HETATM    7  C6  UNL     1     -34.858  16.242  -2.211  1.00 20.00     0.043 C 
HETATM    8  C4  UNL     1     -34.653  16.629  -0.747  1.00 20.00     0.021 C 
BRANCH   7   9
HETATM    9  S9  UNL     1     -36.381  17.048  -2.821  1.00 20.00    -0.178 SA
HETATM   10  H21 UNL     1     -36.894  17.288  -1.608  1.00 20.00     0.102 HD
ENDBRANCH   7   9
ENDBRANCH   6   7
ENDBRANCH   3   6
TORSDOF 3
ENDMDL
MODEL 2
REMARK VINA RESULT:      -3.3      2.022      2.293
REMARK  3 active torsions:
REMARK  status: ('A' for Active; 'I' for Inactive)
REMARK    1  A    between atoms: C3_3  and  C5_5 
REMARK    2  A    between atoms: C5_5  and  C6_6 
REMARK    3  A    between atoms: C6_6  and  S9_9 
ROOT
HETATM    1  C1  UNL     1     -34.998  14.450  -6.418  1.00 20.00     0.179 C 
HETATM    2  C2  UNL     1     -36.439  14.925  -6.432  1.00 20.00     0.103 C 
HETATM    3  C3  UNL     1     -35.531  13.888  -4.223  1.00 20.00     0.183 C 
HETATM    4  O7  UNL     1     -34.864  13.440  -5.411  1.00 20.00    -0.375 OA
HETATM    5  S8  UNL     1     -36.832  15.063  -4.681  1.00 20.00    -0.135 SA
ENDROOT
BRANCH   3   6
HETATM    6  C5  UNL     1     -34.525  14.532  -3.281  1.00 20.00     0.057 C 
BRANCH   6   7
HETATM    7  C6  UNL     1     -34.815  16.009  -2.976  1.00 20.00     0.043 C 
HETATM    8  C4  UNL     1     -34.640  16.301  -1.487  1.00 20.00     0.021 C 
BRANCH   7   9
HETATM    9  S9  UNL     1     -33.724  17.128  -3.923  1.00 20.00    -0.178 SA
HETATM   10  H21 UNL     1     -33.258  17.788  -2.856  1.00 20.00     0.102 HD
ENDBRANCH   7   9
ENDBRANCH   6   7
ENDBRANCH   3   6
TORSDOF 3
ENDMDL
MODEL 3
REMARK VINA RESULT:      -3.3      1.972      2.135
REMARK  3 active torsions:
REMARK  status: ('A' for Active; 'I' for Inactive)
REMARK    1  A    between atoms: C3_3  and  C5_5 
REMARK    2  A    between atoms: C5_5  and  C6_6 
REMARK    3  A    between atoms: C6_6  and  S9_9 
ROOT
HETATM    1  C1  UNL     1     -34.563  13.310  -4.980  1.00 20.00     0.179 C 
HETATM    2  C2  UNL     1     -34.993  14.189  -6.140  1.00 20.00     0.103 C 
HETATM    3  C3  UNL     1     -35.502  15.036  -3.731  1.00 20.00     0.183 C 
HETATM    4  O7  UNL     1     -35.394  13.610  -3.853  1.00 20.00    -0.375 OA
HETATM    5  S8  UNL     1     -35.243  15.790  -5.358  1.00 20.00    -0.135 SA
ENDROOT
BRANCH   3   6
HETATM    6  C5  UNL     1     -34.477  15.545  -2.728  1.00 20.00     0.057 C 
BRANCH   6   7
HETATM    7  C6  UNL     1     -34.877  16.861  -2.045  1.00 20.00     0.043 C 
HETATM    8  C4  UNL     1     -34.683  16.767  -0.532  1.00 20.00     0.021 C 
BRANCH   7   9
HETATM    9  S9  UNL     1     -33.905  18.277  -2.671  1.00 20.00    -0.178 SA
HETATM   10  H21 UNL     1     -33.779  18.882  -1.484  1.00 20.00     0.102 HD
ENDBRANCH   7   9
ENDBRANCH   6   7
ENDBRANCH   3   6
TORSDOF 3
ENDMDL
MODEL 4
REMARK VINA RESULT:      -3.1      2.157      3.288
REMARK  3 active torsions:
REMARK  status: ('A' for Active; 'I' for Inactive)
REMARK    1  A    between atoms: C3_3  and  C5_5 
REMARK    2  A    between atoms: C5_5  and  C6_6 
REMARK    3  A    between atoms: C6_6  and  S9_9 
ROOT
HETATM    1  C1  UNL     1     -34.336  18.303  -3.160  1.00 20.00     0.179 C 
HETATM    2  C2  UNL     1     -33.681  18.331  -4.529  1.00 20.00     0.103 C 
HETATM    3  C3  UNL     1     -33.484  16.137  -3.140  1.00 20.00     0.183 C 
HETATM    4  O7  UNL     1     -33.665  17.325  -2.357  1.00 20.00    -0.375 OA
HETATM    5  S8  UNL     1     -33.447  16.584  -4.896  1.00 20.00    -0.135 SA
ENDROOT
BRANCH   3   6
HETATM    6  C5  UNL     1     -34.612  15.157  -2.854  1.00 20.00     0.057 C 
BRANCH   6   7
HETATM    7  C6  UNL     1     -35.363  14.689  -4.109  1.00 20.00     0.043 C 
HETATM    8  C4  UNL     1     -35.064  13.221  -4.406  1.00 20.00     0.021 C 
BRANCH   7   9
HETATM    9  S9  UNL     1     -37.171  14.894  -3.938  1.00 20.00    -0.178 SA
HETATM   10  H21 UNL     1     -37.421  14.942  -5.252  1.00 20.00     0.102 HD
ENDBRANCH   7   9
ENDBRANCH   6   7
ENDBRANCH   3   6
TORSDOF 3
ENDMDL
MODEL 5
REMARK VINA RESULT:      -3.1      1.438      3.888
REMARK  3 active torsions:
REMARK  status: ('A' for Active; 'I' for Inactive)
REMARK    1  A    between atoms: C3_3  and  C5_5 
REMARK    2  A    between atoms: C5_5  and  C6_6 
REMARK    3  A    between atoms: C6_6  and  S9_9 
ROOT
HETATM    1  C1  UNL     1     -34.738  16.297  -1.618  1.00 20.00     0.179 C 
HETATM    2  C2  UNL     1     -35.814  17.264  -2.078  1.00 20.00     0.103 C 
HETATM    3  C3  UNL     1     -33.712  16.987  -3.591  1.00 20.00     0.183 C 
HETATM    4  O7  UNL     1     -33.492  16.694  -2.203  1.00 20.00    -0.375 OA
HETATM    5  S8  UNL     1     -35.442  17.474  -3.827  1.00 20.00    -0.135 SA
ENDROOT
BRANCH   3   6
HETATM    6  C5  UNL     1     -33.372  15.767  -4.433  1.00 20.00     0.057 C 
BRANCH   6   7
HETATM    7  C6  UNL     1     -34.588  15.126  -5.118  1.00 20.00     0.043 C 
HETATM    8  C4  UNL     1     -34.373  15.030  -6.628  1.00 20.00     0.021 C 
BRANCH   7   9
HETATM    9  S9  UNL     1     -34.932  13.452  -4.470  1.00 20.00    -0.178 SA
HETATM   10  H21 UNL     1     -34.388  12.798  -5.504  1.00 20.00     0.102 HD
ENDBRANCH   7   9
ENDBRANCH   6   7
ENDBRANCH   3   6
TORSDOF 3
ENDMDL
MODEL 6
REMARK VINA RESULT:      -3.1      2.307      4.463
REMARK  3 active torsions:
REMARK  status: ('A' for Active; 'I' for Inactive)
REMARK    1  A    between atoms: C3_3  and  C5_5 
REMARK    2  A    between atoms: C5_5  and  C6_6 
REMARK    3  A    between atoms: C6_6  and  S9_9 
ROOT
HETATM    1  C1  UNL     1     -34.875  17.306   0.242  1.00 20.00     0.179 C 
HETATM    2  C2  UNL     1     -35.965  18.233  -0.265  1.00 20.00     0.103 C 
HETATM    3  C3  UNL     1     -34.406  17.124  -2.031  1.00 20.00     0.183 C 
HETATM    4  O7  UNL     1     -33.822  17.272  -0.729  1.00 20.00    -0.375 OA
HETATM    5  S8  UNL     1     -36.092  17.788  -2.004  1.00 20.00    -0.135 SA
ENDROOT
BRANCH   3   6
HETATM    6  C5  UNL     1     -34.409  15.655  -2.428  1.00 20.00     0.057 C 
BRANCH   6   7
HETATM    7  C6  UNL     1     -33.329  15.286  -3.456  1.00 20.00     0.043 C 
HETATM    8  C4  UNL     1     -33.488  13.837  -3.913  1.00 20.00     0.021 C 
BRANCH   7   9
HETATM    9  S9  UNL     1     -33.387  16.372  -4.925  1.00 20.00    -0.178 SA
HETATM   10  H21 UNL     1     -32.060  16.496  -5.046  1.00 20.00     0.102 HD
ENDBRANCH   7   9
ENDBRANCH   6   7
ENDBRANCH   3   6
TORSDOF 3
ENDMDL
MODEL 7
REMARK VINA RESULT:      -3.1      2.274      4.379
REMARK  3 active torsions:
REMARK  status: ('A' for Active; 'I' for Inactive)
REMARK    1  A    between atoms: C3_3  and  C5_5 
REMARK    2  A    between atoms: C5_5  and  C6_6 
REMARK    3  A    between atoms: C6_6  and  S9_9 
ROOT
HETATM    1  C1  UNL     1     -35.367  17.803  -0.322  1.00 20.00     0.179 C 
HETATM    2  C2  UNL     1     -34.721  18.992  -1.009  1.00 20.00     0.103 C 
HETATM    3  C3  UNL     1     -34.058  16.614  -1.837  1.00 20.00     0.183 C 
HETATM    4  O7  UNL     1     -34.504  16.670  -0.474  1.00 20.00    -0.375 OA
HETATM    5  S8  UNL     1     -34.104  18.283  -2.543  1.00 20.00    -0.135 SA
ENDROOT
BRANCH   3   6
HETATM    6  C5  UNL     1     -34.944  15.665  -2.629  1.00 20.00     0.057 C 
BRANCH   6   7
HETATM    7  C6  UNL     1     -34.262  15.067  -3.868  1.00 20.00     0.043 C 
HETATM    8  C4  UNL     1     -32.771  14.852  -3.617  1.00 20.00     0.021 C 
BRANCH   7   9
HETATM    9  S9  UNL     1     -35.009  13.470  -4.353  1.00 20.00    -0.178 SA
HETATM   10  H21 UNL     1     -36.278  13.875  -4.219  1.00 20.00     0.102 HD
ENDBRANCH   7   9
ENDBRANCH   6   7
ENDBRANCH   3   6
TORSDOF 3
ENDMDL
MODEL 8
REMARK VINA RESULT:      -3.0      2.026      3.961
REMARK  3 active torsions:
REMARK  status: ('A' for Active; 'I' for Inactive)
REMARK    1  A    between atoms: C3_3  and  C5_5 
REMARK    2  A    between atoms: C5_5  and  C6_6 
REMARK    3  A    between atoms: C6_6  and  S9_9 
ROOT
HETATM    1  C1  UNL     1     -34.951  15.589  -2.742  1.00 20.00     0.179 C 
HETATM    2  C2  UNL     1     -33.956  16.677  -3.103  1.00 20.00     0.103 C 
HETATM    3  C3  UNL     1     -33.839  14.443  -4.436  1.00 20.00     0.183 C 
HETATM    4  O7  UNL     1     -34.394  14.324  -3.118  1.00 20.00    -0.375 OA
HETATM    5  S8  UNL     1     -33.385  16.172  -4.733  1.00 20.00    -0.135 SA
ENDROOT
BRANCH   3   6
HETATM    6  C5  UNL     1     -34.851  13.963  -5.465  1.00 20.00     0.057 C 
BRANCH   6   7
HETATM    7  C6  UNL     1     -35.374  15.073  -6.387  1.00 20.00     0.043 C 
HETATM    8  C4  UNL     1     -35.302  14.642  -7.851  1.00 20.00     0.021 C 
BRANCH   7   9
HETATM    9  S9  UNL     1     -37.102  15.526  -5.997  1.00 20.00    -0.178 SA
HETATM   10  H21 UNL     1     -37.161  14.834  -4.852  1.00 20.00     0.102 HD
ENDBRANCH   7   9
ENDBRANCH   6   7
ENDBRANCH   3   6
TORSDOF 3
ENDMDL
MODEL 9
REMARK VINA RESULT:      -3.0      1.729      2.094
REMARK  3 active torsions:
REMARK  status: ('A' for Active; 'I' for Inactive)
REMARK    1  A    between atoms: C3_3  and  C5_5 
REMARK    2  A    between atoms: C5_5  and  C6_6 
REMARK    3  A    between atoms: C6_6  and  S9_9 
ROOT
HETATM    1  C1  UNL     1     -35.229  16.547  -4.669  1.00 20.00     0.179 C 
HETATM    2  C2  UNL     1     -34.084  15.695  -5.183  1.00 20.00     0.103 C 
HETATM    3  C3  UNL     1     -33.867  16.691  -2.787  1.00 20.00     0.183 C 
HETATM    4  O7  UNL     1     -34.718  17.436  -3.669  1.00 20.00    -0.375 OA
HETATM    5  S8  UNL     1     -33.202  15.258  -3.675  1.00 20.00    -0.135 SA
ENDROOT
BRANCH   3   6
HETATM    6  C5  UNL     1     -34.655  16.251  -1.562  1.00 20.00     0.057 C 
BRANCH   6   7
HETATM    7  C6  UNL     1     -34.520  17.200  -0.362  1.00 20.00     0.043 C 
HETATM    8  C4  UNL     1     -33.271  18.069  -0.495  1.00 20.00     0.021 C 
BRANCH   7   9
HETATM    9  S9  UNL     1     -35.975  18.292  -0.188  1.00 20.00    -0.178 SA
HETATM   10  H21 UNL     1     -35.956  18.734  -1.452  1.00 20.00     0.102 HD
ENDBRANCH   7   9
ENDBRANCH   6   7
ENDBRANCH   3   6
TORSDOF 3
ENDMDL
