MODEL 1
REMARK VINA RESULT:      -4.6      0.000      0.000
REMARK  1 active torsions:
REMARK  status: ('A' for Active; 'I' for Inactive)
REMARK    1  A    between atoms: C6_6  and  C7_7 
ROOT
HETATM    1  C1  UNL     1     -34.552   5.861   6.528  1.00 20.00     0.005 C 
HETATM    2  C2  UNL     1     -33.713   6.447   5.388  1.00 20.00     0.011 C 
HETATM    3  C3  UNL     1     -35.644   5.291   4.414  1.00 20.00     0.015 C 
HETATM    4  C4  UNL     1     -34.041   4.056   4.957  1.00 20.00     0.015 C 
HETATM    5  C5  UNL     1     -35.199   4.694   5.787  1.00 20.00    -0.013 C 
HETATM    6  C6  UNL     1     -34.094   5.463   4.273  1.00 20.00    -0.031 C 
ENDROOT
BRANCH   6   7
HETATM    7  C7  UNL     1     -33.464   5.689   2.930  1.00 20.00     0.094 C 
HETATM    8 BR8  UNL     1     -32.159   7.132   3.034  1.00 20.00    -0.096 Br
ENDBRANCH   6   7
TORSDOF 1
ENDMDL
MODEL 2
REMARK VINA RESULT:      -3.9     12.074     12.829
REMARK  1 active torsions:
REMARK  status: ('A' for Active; 'I' for Inactive)
REMARK    1  A    between atoms: C6_6  and  C7_7 
ROOT
HETATM    1  C1  UNL     1     -35.757  13.681  -4.338  1.00 20.00     0.005 C 
HETATM    2  C2  UNL     1     -35.640  14.864  -3.370  1.00 20.00     0.011 C 
HETATM    3  C3  UNL     1     -34.059  15.211  -5.211  1.00 20.00     0.015 C 
HETATM    4  C4  UNL     1     -33.405  13.912  -3.704  1.00 20.00     0.015 C 
HETATM    5  C5  UNL     1     -34.350  13.704  -4.929  1.00 20.00    -0.013 C 
HETATM    6  C6  UNL     1     -34.187  15.268  -3.652  1.00 20.00    -0.031 C 
ENDROOT
BRANCH   6   7
HETATM    7  C7  UNL     1     -33.649  16.436  -2.878  1.00 20.00     0.094 C 
HETATM    8 BR8  UNL     1     -34.601  16.617  -1.187  1.00 20.00    -0.096 Br
ENDBRANCH   6   7
TORSDOF 1
ENDMDL
MODEL 3
REMARK VINA RESULT:      -3.8      9.053     10.051
REMARK  1 active torsions:
REMARK  status: ('A' for Active; 'I' for Inactive)
REMARK    1  A    between atoms: C6_6  and  C7_7 
ROOT
HETATM    1  C1  UNL     1     -40.657   6.150  -0.047  1.00 20.00     0.005 C 
HETATM    2  C2  UNL     1     -41.201   6.816  -1.315  1.00 20.00     0.011 C 
HETATM    3  C3  UNL     1     -42.851   5.181  -0.530  1.00 20.00     0.015 C 
HETATM    4  C4  UNL     1     -41.257   4.385  -1.632  1.00 20.00     0.015 C 
HETATM    5  C5  UNL     1     -41.387   4.812  -0.136  1.00 20.00    -0.013 C 
HETATM    6  C6  UNL     1     -42.111   5.685  -1.815  1.00 20.00    -0.031 C 
ENDROOT
BRANCH   6   7
HETATM    7  C7  UNL     1     -42.864   5.938  -3.087  1.00 20.00     0.094 C 
HETATM    8 BR8  UNL     1     -42.649   7.795  -3.638  1.00 20.00    -0.096 Br
ENDBRANCH   6   7
TORSDOF 1
ENDMDL
MODEL 4
REMARK VINA RESULT:      -3.7      9.202     10.304
REMARK  1 active torsions:
REMARK  status: ('A' for Active; 'I' for Inactive)
REMARK    1  A    between atoms: C6_6  and  C7_7 
ROOT
HETATM    1  C1  UNL     1     -40.581   5.883  -0.280  1.00 20.00     0.005 C 
HETATM    2  C2  UNL     1     -40.948   4.709  -1.193  1.00 20.00     0.011 C 
HETATM    3  C3  UNL     1     -41.725   6.781  -2.248  1.00 20.00     0.015 C 
HETATM    4  C4  UNL     1     -42.978   6.012  -0.756  1.00 20.00     0.015 C 
HETATM    5  C5  UNL     1     -41.673   6.867  -0.691  1.00 20.00    -0.013 C 
HETATM    6  C6  UNL     1     -42.165   5.319  -1.901  1.00 20.00    -0.031 C 
ENDROOT
BRANCH   6   7
HETATM    7  C7  UNL     1     -42.853   4.460  -2.920  1.00 20.00     0.094 C 
HETATM    8 BR8  UNL     1     -41.941   2.746  -3.081  1.00 20.00    -0.096 Br
ENDBRANCH   6   7
TORSDOF 1
ENDMDL
MODEL 5
REMARK VINA RESULT:      -3.7      9.084     10.237
REMARK  1 active torsions:
REMARK  status: ('A' for Active; 'I' for Inactive)
REMARK    1  A    between atoms: C6_6  and  C7_7 
ROOT
HETATM    1  C1  UNL     1     -40.892   4.668  -1.183  1.00 20.00     0.005 C 
HETATM    2  C2  UNL     1     -41.883   5.305  -2.163  1.00 20.00     0.011 C 
HETATM    3  C3  UNL     1     -40.946   7.075  -0.749  1.00 20.00     0.015 C 
HETATM    4  C4  UNL     1     -42.507   5.974   0.111  1.00 20.00     0.015 C 
HETATM    5  C5  UNL     1     -40.981   5.682  -0.046  1.00 20.00    -0.013 C 
HETATM    6  C6  UNL     1     -42.292   6.531  -1.336  1.00 20.00    -0.031 C 
ENDROOT
BRANCH   6   7
HETATM    7  C7  UNL     1     -43.292   7.461  -1.958  1.00 20.00     0.094 C 
HETATM    8 BR8  UNL     1     -42.918   7.676  -3.858  1.00 20.00    -0.096 Br
ENDBRANCH   6   7
TORSDOF 1
ENDMDL
MODEL 6
REMARK VINA RESULT:      -3.6     12.254     13.490
REMARK  1 active torsions:
REMARK  status: ('A' for Active; 'I' for Inactive)
REMARK    1  A    between atoms: C6_6  and  C7_7 
ROOT
HETATM    1  C1  UNL     1     -34.806  13.282  -4.872  1.00 20.00     0.005 C 
HETATM    2  C2  UNL     1     -34.454  14.534  -5.681  1.00 20.00     0.011 C 
HETATM    3  C3  UNL     1     -32.950  14.414  -3.750  1.00 20.00     0.015 C 
HETATM    4  C4  UNL     1     -34.850  15.202  -3.356  1.00 20.00     0.015 C 
HETATM    5  C5  UNL     1     -34.333  13.736  -3.494  1.00 20.00    -0.013 C 
HETATM    6  C6  UNL     1     -33.864  15.395  -4.557  1.00 20.00    -0.031 C 
ENDROOT
BRANCH   6   7
HETATM    7  C7  UNL     1     -33.377  16.762  -4.939  1.00 20.00     0.094 C 
HETATM    8 BR8  UNL     1     -34.340  17.405  -6.506  1.00 20.00    -0.096 Br
ENDBRANCH   6   7
TORSDOF 1
ENDMDL
MODEL 7
REMARK VINA RESULT:      -3.6      9.116     10.166
REMARK  1 active torsions:
REMARK  status: ('A' for Active; 'I' for Inactive)
REMARK    1  A    between atoms: C6_6  and  C7_7 
ROOT
HETATM    1  C1  UNL     1     -41.200   6.973  -1.346  1.00 20.00     0.005 C 
HETATM    2  C2  UNL     1     -42.242   6.078  -2.024  1.00 20.00     0.011 C 
HETATM    3  C3  UNL     1     -42.106   5.450   0.341  1.00 20.00     0.015 C 
HETATM    4  C4  UNL     1     -40.613   4.642  -0.886  1.00 20.00     0.015 C 
HETATM    5  C5  UNL     1     -40.773   6.042  -0.214  1.00 20.00    -0.013 C 
HETATM    6  C6  UNL     1     -42.149   4.853  -1.105  1.00 20.00    -0.031 C 
ENDROOT
BRANCH   6   7
HETATM    7  C7  UNL     1     -43.045   3.695  -1.432  1.00 20.00     0.094 C 
HETATM    8 BR8  UNL     1     -43.293   3.560  -3.360  1.00 20.00    -0.096 Br
ENDBRANCH   6   7
TORSDOF 1
ENDMDL
MODEL 8
REMARK VINA RESULT:      -3.6     12.347     13.402
REMARK  1 active torsions:
REMARK  status: ('A' for Active; 'I' for Inactive)
REMARK    1  A    between atoms: C6_6  and  C7_7 
ROOT
HETATM    1  C1  UNL     1     -33.450  13.694  -3.768  1.00 20.00     0.005 C 
HETATM    2  C2  UNL     1     -33.451  15.204  -4.027  1.00 20.00     0.011 C 
HETATM    3  C3  UNL     1     -35.776  14.439  -3.901  1.00 20.00     0.015 C 
HETATM    4  C4  UNL     1     -34.829  14.124  -5.742  1.00 20.00     0.015 C 
HETATM    5  C5  UNL     1     -34.793  13.333  -4.397  1.00 20.00    -0.013 C 
HETATM    6  C6  UNL     1     -34.802  15.329  -4.743  1.00 20.00    -0.031 C 
ENDROOT
BRANCH   6   7
HETATM    7  C7  UNL     1     -35.207  16.704  -5.186  1.00 20.00     0.094 C 
HETATM    8 BR8  UNL     1     -33.658  17.887  -5.204  1.00 20.00    -0.096 Br
ENDBRANCH   6   7
TORSDOF 1
ENDMDL
MODEL 9
REMARK VINA RESULT:      -3.6     12.178     12.979
REMARK  1 active torsions:
REMARK  status: ('A' for Active; 'I' for Inactive)
REMARK    1  A    between atoms: C6_6  and  C7_7 
ROOT
HETATM    1  C1  UNL     1     -33.624  16.149  -2.595  1.00 20.00     0.005 C 
HETATM    2  C2  UNL     1     -35.071  15.652  -2.673  1.00 20.00     0.011 C 
HETATM    3  C3  UNL     1     -33.611  13.937  -3.640  1.00 20.00     0.015 C 
HETATM    4  C4  UNL     1     -34.088  15.528  -4.916  1.00 20.00     0.015 C 
HETATM    5  C5  UNL     1     -33.034  15.381  -3.775  1.00 20.00    -0.013 C 
HETATM    6  C6  UNL     1     -34.945  14.719  -3.885  1.00 20.00    -0.031 C 
ENDROOT
BRANCH   6   7
HETATM    7  C7  UNL     1     -36.190  14.001  -4.316  1.00 20.00     0.094 C 
HETATM    8 BR8  UNL     1     -37.766  15.038  -3.829  1.00 20.00    -0.096 Br
ENDBRANCH   6   7
TORSDOF 1
ENDMDL
