MODEL 1
REMARK VINA RESULT:      -3.8      0.000      0.000
REMARK  1 active torsions:
REMARK  status: ('A' for Active; 'I' for Inactive)
REMARK    1  A    between atoms: C5_5  and  C6_6 
ROOT
HETATM    1  C1  UNL     1     -34.108   5.373   3.295  1.00 20.00     0.015 C 
HETATM    2  C2  UNL     1     -32.986   6.570   5.242  1.00 20.00     0.015 C 
HETATM    3  C3  UNL     1     -35.384   5.082   4.075  1.00 20.00     0.074 C 
HETATM    4  C4  UNL     1     -34.172   6.376   6.179  1.00 20.00     0.074 C 
HETATM    5  C5  UNL     1     -33.390   6.646   3.762  1.00 20.00    -0.003 C 
HETATM    6  S7  UNL     1     -35.054   4.827   5.841  1.00 20.00    -0.169 SA
ENDROOT
BRANCH   5   7
HETATM    7  C6  UNL     1     -32.155   6.903   2.894  1.00 20.00     0.089 C 
HETATM    8 BR8  UNL     1     -32.376   8.577   1.943  1.00 20.00    -0.096 Br
ENDBRANCH   5   7
TORSDOF 1
ENDMDL
MODEL 2
REMARK VINA RESULT:      -3.7     11.407     11.950
REMARK  1 active torsions:
REMARK  status: ('A' for Active; 'I' for Inactive)
REMARK    1  A    between atoms: C5_5  and  C6_6 
ROOT
HETATM    1  C1  UNL     1     -35.673  15.740  -3.368  1.00 20.00     0.015 C 
HETATM    2  C2  UNL     1     -33.211  15.089  -3.402  1.00 20.00     0.015 C 
HETATM    3  C3  UNL     1     -36.142  14.395  -3.908  1.00 20.00     0.074 C 
HETATM    4  C4  UNL     1     -33.482  13.691  -3.944  1.00 20.00     0.074 C 
HETATM    5  C5  UNL     1     -34.370  15.648  -2.562  1.00 20.00    -0.003 C 
HETATM    6  S7  UNL     1     -34.928  13.660  -5.039  1.00 20.00    -0.169 SA
ENDROOT
BRANCH   5   7
HETATM    7  C6  UNL     1     -33.998  17.024  -2.005  1.00 20.00     0.089 C 
HETATM    8 BR8  UNL     1     -34.745  17.221  -0.227  1.00 20.00    -0.096 Br
ENDBRANCH   5   7
TORSDOF 1
ENDMDL
MODEL 3
REMARK VINA RESULT:      -3.5     11.698     12.759
REMARK  1 active torsions:
REMARK  status: ('A' for Active; 'I' for Inactive)
REMARK    1  A    between atoms: C5_5  and  C6_6 
ROOT
HETATM    1  C1  UNL     1     -34.248  14.966  -3.066  1.00 20.00     0.015 C 
HETATM    2  C2  UNL     1     -34.323  16.643  -4.981  1.00 20.00     0.015 C 
HETATM    3  C3  UNL     1     -34.080  13.764  -3.988  1.00 20.00     0.074 C 
HETATM    4  C4  UNL     1     -34.161  15.576  -6.057  1.00 20.00     0.074 C 
HETATM    5  C5  UNL     1     -33.665  16.262  -3.647  1.00 20.00    -0.003 C 
HETATM    6  S7  UNL     1     -34.929  14.005  -5.573  1.00 20.00    -0.169 SA
ENDROOT
BRANCH   5   7
HETATM    7  C6  UNL     1     -33.818  17.405  -2.641  1.00 20.00     0.089 C 
HETATM    8 BR8  UNL     1     -34.596  16.719  -1.003  1.00 20.00    -0.096 Br
ENDBRANCH   5   7
TORSDOF 1
ENDMDL
MODEL 4
REMARK VINA RESULT:      -3.4     11.987     13.004
REMARK  1 active torsions:
REMARK  status: ('A' for Active; 'I' for Inactive)
REMARK    1  A    between atoms: C5_5  and  C6_6 
ROOT
HETATM    1  C1  UNL     1     -33.622  15.995  -5.046  1.00 20.00     0.015 C 
HETATM    2  C2  UNL     1     -34.007  16.002  -2.528  1.00 20.00     0.015 C 
HETATM    3  C3  UNL     1     -33.479  17.510  -5.132  1.00 20.00     0.074 C 
HETATM    4  C4  UNL     1     -33.895  17.517  -2.412  1.00 20.00     0.074 C 
HETATM    5  C5  UNL     1     -33.186  15.422  -3.690  1.00 20.00    -0.003 C 
HETATM    6  S7  UNL     1     -34.507  18.357  -3.899  1.00 20.00    -0.169 SA
ENDROOT
BRANCH   5   7
HETATM    7  C6  UNL     1     -33.302  13.896  -3.703  1.00 20.00     0.089 C 
HETATM    8 BR8  UNL     1     -34.811  13.375  -4.802  1.00 20.00    -0.096 Br
ENDBRANCH   5   7
TORSDOF 1
ENDMDL
MODEL 5
REMARK VINA RESULT:      -3.3     12.340     13.395
REMARK  1 active torsions:
REMARK  status: ('A' for Active; 'I' for Inactive)
REMARK    1  A    between atoms: C5_5  and  C6_6 
ROOT
HETATM    1  C1  UNL     1     -34.348  16.101  -6.010  1.00 20.00     0.015 C 
HETATM    2  C2  UNL     1     -34.798  13.725  -5.210  1.00 20.00     0.015 C 
HETATM    3  C3  UNL     1     -33.264  16.355  -4.969  1.00 20.00     0.074 C 
HETATM    4  C4  UNL     1     -33.750  13.788  -4.106  1.00 20.00     0.074 C 
HETATM    5  C5  UNL     1     -34.467  14.624  -6.411  1.00 20.00    -0.003 C 
HETATM    6  S7  UNL     1     -33.587  15.461  -3.424  1.00 20.00    -0.169 SA
ENDROOT
BRANCH   5   7
HETATM    7  C6  UNL     1     -35.531  14.459  -7.499  1.00 20.00     0.089 C 
HETATM    8 BR8  UNL     1     -37.116  15.458  -7.004  1.00 20.00    -0.096 Br
ENDBRANCH   5   7
TORSDOF 1
ENDMDL
MODEL 6
REMARK VINA RESULT:      -3.3      9.736     10.860
REMARK  1 active torsions:
REMARK  status: ('A' for Active; 'I' for Inactive)
REMARK    1  A    between atoms: C5_5  and  C6_6 
ROOT
HETATM    1  C1  UNL     1     -42.820   5.502  -2.855  1.00 20.00     0.015 C 
HETATM    2  C2  UNL     1     -41.525   4.582  -0.865  1.00 20.00     0.015 C 
HETATM    3  C3  UNL     1     -42.161   6.874  -2.781  1.00 20.00     0.074 C 
HETATM    4  C4  UNL     1     -40.762   5.880  -0.631  1.00 20.00     0.074 C 
HETATM    5  C5  UNL     1     -41.923   4.370  -2.334  1.00 20.00    -0.003 C 
HETATM    6  S7  UNL     1     -41.750   7.335  -1.075  1.00 20.00    -0.169 SA
ENDROOT
BRANCH   5   7
HETATM    7  C6  UNL     1     -42.629   3.022  -2.497  1.00 20.00     0.089 C 
HETATM    8 BR8  UNL     1     -41.600   1.901  -3.698  1.00 20.00    -0.096 Br
ENDBRANCH   5   7
TORSDOF 1
ENDMDL
MODEL 7
REMARK VINA RESULT:      -3.3     12.136     13.051
REMARK  1 active torsions:
REMARK  status: ('A' for Active; 'I' for Inactive)
REMARK    1  A    between atoms: C5_5  and  C6_6 
ROOT
HETATM    1  C1  UNL     1     -34.647  16.343  -1.320  1.00 20.00     0.015 C 
HETATM    2  C2  UNL     1     -33.852  18.515  -2.385  1.00 20.00     0.015 C 
HETATM    3  C3  UNL     1     -34.616  15.568  -2.632  1.00 20.00     0.074 C 
HETATM    4  C4  UNL     1     -33.757  17.915  -3.783  1.00 20.00     0.074 C 
HETATM    5  C5  UNL     1     -33.624  17.487  -1.268  1.00 20.00    -0.003 C 
HETATM    6  S7  UNL     1     -35.006  16.628  -4.052  1.00 20.00    -0.169 SA
ENDROOT
BRANCH   5   7
HETATM    7  C6  UNL     1     -33.675  18.175   0.098  1.00 20.00     0.089 C 
HETATM    8 BR8  UNL     1     -32.011  19.122   0.402  1.00 20.00    -0.096 Br
ENDBRANCH   5   7
TORSDOF 1
ENDMDL
MODEL 8
REMARK VINA RESULT:      -3.3      9.734     10.910
REMARK  1 active torsions:
REMARK  status: ('A' for Active; 'I' for Inactive)
REMARK    1  A    between atoms: C5_5  and  C6_6 
ROOT
HETATM    1  C1  UNL     1     -40.735   4.549  -1.196  1.00 20.00     0.015 C 
HETATM    2  C2  UNL     1     -42.585   5.331  -2.762  1.00 20.00     0.015 C 
HETATM    3  C3  UNL     1     -40.935   5.701  -0.218  1.00 20.00     0.074 C 
HETATM    4  C4  UNL     1     -42.934   6.545  -1.910  1.00 20.00     0.074 C 
HETATM    5  C5  UNL     1     -42.018   4.160  -1.945  1.00 20.00    -0.003 C 
HETATM    6  S7  UNL     1     -41.479   7.214  -1.058  1.00 20.00    -0.169 SA
ENDROOT
BRANCH   5   7
HETATM    7  C6  UNL     1     -41.751   2.962  -2.859  1.00 20.00     0.089 C 
HETATM    8 BR8  UNL     1     -43.291   2.668  -3.999  1.00 20.00    -0.096 Br
ENDBRANCH   5   7
TORSDOF 1
ENDMDL
MODEL 9
REMARK VINA RESULT:      -3.2      9.726     10.803
REMARK  1 active torsions:
REMARK  status: ('A' for Active; 'I' for Inactive)
REMARK    1  A    between atoms: C5_5  and  C6_6 
ROOT
HETATM    1  C1  UNL     1     -41.770   7.484  -1.209  1.00 20.00     0.015 C 
HETATM    2  C2  UNL     1     -42.777   5.777  -2.808  1.00 20.00     0.015 C 
HETATM    3  C3  UNL     1     -40.844   6.471  -0.548  1.00 20.00     0.074 C 
HETATM    4  C4  UNL     1     -41.932   4.627  -2.276  1.00 20.00     0.074 C 
HETATM    5  C5  UNL     1     -42.093   7.146  -2.671  1.00 20.00    -0.003 C 
HETATM    6  S7  UNL     1     -41.576   4.812  -0.507  1.00 20.00    -0.169 SA
ENDROOT
BRANCH   5   7
HETATM    7  C6  UNL     1     -42.976   8.238  -3.281  1.00 20.00     0.089 C 
HETATM    8 BR8  UNL     1     -42.191   8.842  -4.947  1.00 20.00    -0.096 Br
ENDBRANCH   5   7
TORSDOF 1
ENDMDL
