MODEL 1
REMARK VINA RESULT:      -4.0      0.000      0.000
REMARK  2 active torsions:
REMARK  status: ('A' for Active; 'I' for Inactive)
REMARK    1  A    between atoms: C1_1  and  C3_3 
REMARK    2  A    between atoms: C3_3  and  C4_4 
ROOT
HETATM    1  C1  UNL     1     -34.263   5.685   5.226  1.00 20.00     0.078 C 
HETATM    2  S5  UNL     1     -34.841   4.191   5.675  1.00 20.00    -0.072 SA
HETATM    3 CL6  UNL     1     -33.830   6.789   6.461  1.00 20.00    -0.076 Cl
ENDROOT
BRANCH   1   4
HETATM    4  C3  UNL     1     -34.068   6.130   3.801  1.00 20.00     0.063 C 
BRANCH   4   5
HETATM    5  C4  UNL     1     -32.583   6.218   3.451  1.00 20.00     0.002 C 
HETATM    6  C2  UNL     1     -32.272   7.479   2.660  1.00 20.00     0.005 C 
ENDBRANCH   4   5
ENDBRANCH   1   4
TORSDOF 2
ENDMDL
MODEL 2
REMARK VINA RESULT:      -3.8      2.541      3.576
REMARK  2 active torsions:
REMARK  status: ('A' for Active; 'I' for Inactive)
REMARK    1  A    between atoms: C1_1  and  C3_3 
REMARK    2  A    between atoms: C3_3  and  C4_4 
ROOT
HETATM    1  C1  UNL     1     -33.874   6.175   4.190  1.00 20.00     0.078 C 
HETATM    2  S5  UNL     1     -32.515   6.417   3.261  1.00 20.00    -0.072 SA
HETATM    3 CL6  UNL     1     -35.308   5.665   3.407  1.00 20.00    -0.076 Cl
ENDROOT
BRANCH   1   4
HETATM    4  C3  UNL     1     -33.925   6.348   5.685  1.00 20.00     0.063 C 
BRANCH   4   5
HETATM    5  C4  UNL     1     -34.862   5.326   6.325  1.00 20.00     0.002 C 
HETATM    6  C2  UNL     1     -34.477   3.905   5.946  1.00 20.00     0.005 C 
ENDBRANCH   4   5
ENDBRANCH   1   4
TORSDOF 2
ENDMDL
MODEL 3
REMARK VINA RESULT:      -3.8      1.702      1.702
REMARK  2 active torsions:
REMARK  status: ('A' for Active; 'I' for Inactive)
REMARK    1  A    between atoms: C1_1  and  C3_3 
REMARK    2  A    between atoms: C3_3  and  C4_4 
ROOT
HETATM    1  C1  UNL     1     -34.290   5.499   4.964  1.00 20.00     0.078 C 
HETATM    2  S5  UNL     1     -33.995   6.446   6.300  1.00 20.00    -0.072 SA
HETATM    3 CL6  UNL     1     -34.997   3.959   5.204  1.00 20.00    -0.076 Cl
ENDROOT
BRANCH   1   4
HETATM    4  C3  UNL     1     -34.000   5.914   3.546  1.00 20.00     0.063 C 
BRANCH   4   5
HETATM    5  C4  UNL     1     -32.504   6.136   3.334  1.00 20.00     0.002 C 
HETATM    6  C2  UNL     1     -32.229   7.477   2.673  1.00 20.00     0.005 C 
ENDBRANCH   4   5
ENDBRANCH   1   4
TORSDOF 2
ENDMDL
MODEL 4
REMARK VINA RESULT:      -3.7      2.214      3.238
REMARK  2 active torsions:
REMARK  status: ('A' for Active; 'I' for Inactive)
REMARK    1  A    between atoms: C1_1  and  C3_3 
REMARK    2  A    between atoms: C3_3  and  C4_4 
ROOT
HETATM    1  C1  UNL     1     -33.494   6.329   4.186  1.00 20.00     0.078 C 
HETATM    2  S5  UNL     1     -32.185   6.879   3.317  1.00 20.00    -0.072 SA
HETATM    3 CL6  UNL     1     -33.644   6.819   5.818  1.00 20.00    -0.076 Cl
ENDROOT
BRANCH   1   4
HETATM    4  C3  UNL     1     -34.577   5.445   3.626  1.00 20.00     0.063 C 
BRANCH   4   5
HETATM    5  C4  UNL     1     -35.476   4.908   4.738  1.00 20.00     0.002 C 
HETATM    6  C2  UNL     1     -34.789   3.805   5.527  1.00 20.00     0.005 C 
ENDBRANCH   4   5
ENDBRANCH   1   4
TORSDOF 2
ENDMDL
MODEL 5
REMARK VINA RESULT:      -3.6      1.625      1.625
REMARK  2 active torsions:
REMARK  status: ('A' for Active; 'I' for Inactive)
REMARK    1  A    between atoms: C1_1  and  C3_3 
REMARK    2  A    between atoms: C3_3  and  C4_4 
ROOT
HETATM    1  C1  UNL     1     -34.427   5.540   4.669  1.00 20.00     0.078 C 
HETATM    2  S5  UNL     1     -34.722   4.535   5.962  1.00 20.00    -0.072 SA
HETATM    3 CL6  UNL     1     -35.585   5.598   3.410  1.00 20.00    -0.076 Cl
ENDROOT
BRANCH   1   4
HETATM    4  C3  UNL     1     -33.218   6.428   4.539  1.00 20.00     0.063 C 
BRANCH   4   5
HETATM    5  C4  UNL     1     -32.551   6.252   3.176  1.00 20.00     0.002 C 
HETATM    6  C2  UNL     1     -32.174   7.591   2.565  1.00 20.00     0.005 C 
ENDBRANCH   4   5
ENDBRANCH   1   4
TORSDOF 2
ENDMDL
MODEL 6
REMARK VINA RESULT:      -3.4      1.144      1.306
REMARK  2 active torsions:
REMARK  status: ('A' for Active; 'I' for Inactive)
REMARK    1  A    between atoms: C1_1  and  C3_3 
REMARK    2  A    between atoms: C3_3  and  C4_4 
ROOT
HETATM    1  C1  UNL     1     -33.791   6.209   4.725  1.00 20.00     0.078 C 
HETATM    2  S5  UNL     1     -34.925   5.355   3.857  1.00 20.00    -0.072 SA
HETATM    3 CL6  UNL     1     -34.110   6.528   6.376  1.00 20.00    -0.076 Cl
ENDROOT
BRANCH   1   4
HETATM    4  C3  UNL     1     -32.483   6.701   4.165  1.00 20.00     0.063 C 
BRANCH   4   5
HETATM    5  C4  UNL     1     -32.525   6.756   2.639  1.00 20.00     0.002 C 
HETATM    6  C2  UNL     1     -32.105   8.121   2.119  1.00 20.00     0.005 C 
ENDBRANCH   4   5
ENDBRANCH   1   4
TORSDOF 2
ENDMDL
MODEL 7
REMARK VINA RESULT:      -3.3      2.191      3.352
REMARK  2 active torsions:
REMARK  status: ('A' for Active; 'I' for Inactive)
REMARK    1  A    between atoms: C1_1  and  C3_3 
REMARK    2  A    between atoms: C3_3  and  C4_4 
ROOT
HETATM    1  C1  UNL     1     -33.697   6.179   4.229  1.00 20.00     0.078 C 
HETATM    2  S5  UNL     1     -34.951   5.652   3.270  1.00 20.00    -0.072 SA
HETATM    3 CL6  UNL     1     -32.208   6.560   3.475  1.00 20.00    -0.076 Cl
ENDROOT
BRANCH   1   4
HETATM    4  C3  UNL     1     -33.788   6.371   5.719  1.00 20.00     0.063 C 
BRANCH   4   5
HETATM    5  C4  UNL     1     -34.811   5.418   6.334  1.00 20.00     0.002 C 
HETATM    6  C2  UNL     1     -34.461   3.966   6.048  1.00 20.00     0.005 C 
ENDBRANCH   4   5
ENDBRANCH   1   4
TORSDOF 2
ENDMDL
MODEL 8
REMARK VINA RESULT:      -3.1     11.893     12.108
REMARK  2 active torsions:
REMARK  status: ('A' for Active; 'I' for Inactive)
REMARK    1  A    between atoms: C1_1  and  C3_3 
REMARK    2  A    between atoms: C3_3  and  C4_4 
ROOT
HETATM    1  C1  UNL     1     -34.215  14.560  -3.536  1.00 20.00     0.078 C 
HETATM    2  S5  UNL     1     -34.883  13.414  -4.541  1.00 20.00    -0.072 SA
HETATM    3 CL6  UNL     1     -32.514  14.752  -3.546  1.00 20.00    -0.076 Cl
ENDROOT
BRANCH   1   4
HETATM    4  C3  UNL     1     -35.008  15.465  -2.631  1.00 20.00     0.063 C 
BRANCH   4   5
HETATM    5  C4  UNL     1     -34.099  16.470  -1.926  1.00 20.00     0.002 C 
HETATM    6  C2  UNL     1     -34.639  16.841  -0.554  1.00 20.00     0.005 C 
ENDBRANCH   4   5
ENDBRANCH   1   4
TORSDOF 2
ENDMDL
MODEL 9
REMARK VINA RESULT:      -3.1      3.121      3.823
REMARK  2 active torsions:
REMARK  status: ('A' for Active; 'I' for Inactive)
REMARK    1  A    between atoms: C1_1  and  C3_3 
REMARK    2  A    between atoms: C3_3  and  C4_4 
ROOT
HETATM    1  C1  UNL     1     -32.086   7.446   2.895  1.00 20.00     0.078 C 
HETATM    2  S5  UNL     1     -32.083   8.497   1.605  1.00 20.00    -0.072 SA
HETATM    3 CL6  UNL     1     -31.101   7.820   4.244  1.00 20.00    -0.076 Cl
ENDROOT
BRANCH   1   4
HETATM    4  C3  UNL     1     -32.919   6.194   2.972  1.00 20.00     0.063 C 
BRANCH   4   5
HETATM    5  C4  UNL     1     -33.844   6.223   4.187  1.00 20.00     0.002 C 
HETATM    6  C2  UNL     1     -35.056   5.328   3.985  1.00 20.00     0.005 C 
ENDBRANCH   4   5
ENDBRANCH   1   4
TORSDOF 2
ENDMDL
