MODEL 1
REMARK VINA RESULT:      -4.4      0.000      0.000
REMARK  1 active torsions:
REMARK  status: ('A' for Active; 'I' for Inactive)
REMARK    1  A    between atoms: C2_2  and  C5_5 
ROOT
HETATM    1  C1  UNL     1     -33.862   6.546   6.302  1.00 20.00     0.077 C 
HETATM    2  C3  UNL     1     -33.961   4.051   5.955  1.00 20.00     0.034 A 
HETATM    3  C4  UNL     1     -35.366   4.528   6.155  1.00 20.00     0.034 A 
HETATM    4  C5  UNL     1     -34.348   5.446   5.513  1.00 20.00     0.109 A 
HETATM    5  N7  UNL     1     -33.470   7.434   6.939  1.00 20.00    -0.196 NA
ENDROOT
BRANCH   4   6
HETATM    6  C2  UNL     1     -34.469   5.696   4.065  1.00 20.00     0.145 C 
HETATM    7  C6  UNL     1     -33.222   6.137   3.347  1.00 20.00     0.093 C 
HETATM    8  O8  UNL     1     -35.536   5.546   3.471  1.00 20.00    -0.296 OA
ENDBRANCH   4   6
TORSDOF 1
ENDMDL
MODEL 2
REMARK VINA RESULT:      -4.3      2.090      2.808
REMARK  1 active torsions:
REMARK  status: ('A' for Active; 'I' for Inactive)
REMARK    1  A    between atoms: C2_2  and  C5_5 
ROOT
HETATM    1  C1  UNL     1     -33.135   6.289   3.888  1.00 20.00     0.077 C 
HETATM    2  C3  UNL     1     -35.562   5.610   3.815  1.00 20.00     0.034 A 
HETATM    3  C4  UNL     1     -34.763   4.373   4.083  1.00 20.00     0.034 A 
HETATM    4  C5  UNL     1     -34.258   5.712   4.577  1.00 20.00     0.109 A 
HETATM    5  N7  UNL     1     -32.229   6.754   3.332  1.00 20.00    -0.196 NA
ENDROOT
BRANCH   4   6
HETATM    6  C2  UNL     1     -34.331   5.979   6.026  1.00 20.00     0.145 C 
HETATM    7  C6  UNL     1     -33.502   7.122   6.546  1.00 20.00     0.093 C 
HETATM    8  O8  UNL     1     -35.039   5.303   6.771  1.00 20.00    -0.296 OA
ENDBRANCH   4   6
TORSDOF 1
ENDMDL
MODEL 3
REMARK VINA RESULT:      -4.2     12.737     13.344
REMARK  1 active torsions:
REMARK  status: ('A' for Active; 'I' for Inactive)
REMARK    1  A    between atoms: C2_2  and  C5_5 
ROOT
HETATM    1  C1  UNL     1     -37.039  14.546  -3.886  1.00 20.00     0.077 C 
HETATM    2  C3  UNL     1     -35.121  16.174  -4.043  1.00 20.00     0.034 A 
HETATM    3  C4  UNL     1     -34.801  15.216  -2.938  1.00 20.00     0.034 A 
HETATM    4  C5  UNL     1     -35.634  14.752  -4.114  1.00 20.00     0.109 A 
HETATM    5  N7  UNL     1     -38.173  14.380  -3.703  1.00 20.00    -0.196 NA
ENDROOT
BRANCH   4   6
HETATM    6  C2  UNL     1     -34.998  13.843  -5.086  1.00 20.00     0.145 C 
HETATM    7  C6  UNL     1     -34.636  14.430  -6.424  1.00 20.00     0.093 C 
HETATM    8  O8  UNL     1     -34.772  12.665  -4.815  1.00 20.00    -0.296 OA
ENDBRANCH   4   6
TORSDOF 1
ENDMDL
MODEL 4
REMARK VINA RESULT:      -4.2     12.605     13.204
REMARK  1 active torsions:
REMARK  status: ('A' for Active; 'I' for Inactive)
REMARK    1  A    between atoms: C2_2  and  C5_5 
ROOT
HETATM    1  C1  UNL     1     -34.594  13.702  -4.260  1.00 20.00     0.077 C 
HETATM    2  C3  UNL     1     -32.759  15.286  -3.570  1.00 20.00     0.034 A 
HETATM    3  C4  UNL     1     -33.482  15.918  -4.718  1.00 20.00     0.034 A 
HETATM    4  C5  UNL     1     -34.232  15.005  -3.771  1.00 20.00     0.109 A 
HETATM    5  N7  UNL     1     -34.886  12.650  -4.654  1.00 20.00    -0.196 NA
ENDROOT
BRANCH   4   6
HETATM    6  C2  UNL     1     -35.182  15.627  -2.830  1.00 20.00     0.145 C 
HETATM    7  C6  UNL     1     -34.597  16.251  -1.592  1.00 20.00     0.093 C 
HETATM    8  O8  UNL     1     -36.392  15.640  -3.048  1.00 20.00    -0.296 OA
ENDBRANCH   4   6
TORSDOF 1
ENDMDL
MODEL 5
REMARK VINA RESULT:      -4.2      0.783      2.397
REMARK  1 active torsions:
REMARK  status: ('A' for Active; 'I' for Inactive)
REMARK    1  A    between atoms: C2_2  and  C5_5 
ROOT
HETATM    1  C1  UNL     1     -33.597   6.770   5.877  1.00 20.00     0.077 C 
HETATM    2  C3  UNL     1     -33.692   7.005   3.370  1.00 20.00     0.034 A 
HETATM    3  C4  UNL     1     -32.713   5.916   3.677  1.00 20.00     0.034 A 
HETATM    4  C5  UNL     1     -33.881   6.157   4.608  1.00 20.00     0.109 A 
HETATM    5  N7  UNL     1     -33.368   7.266   6.902  1.00 20.00    -0.196 NA
ENDROOT
BRANCH   4   6
HETATM    6  C2  UNL     1     -34.977   5.170   4.600  1.00 20.00     0.145 C 
HETATM    7  C6  UNL     1     -34.912   4.077   5.633  1.00 20.00     0.093 C 
HETATM    8  O8  UNL     1     -35.901   5.238   3.791  1.00 20.00    -0.296 OA
ENDBRANCH   4   6
TORSDOF 1
ENDMDL
MODEL 6
REMARK VINA RESULT:      -4.1     13.263     14.299
REMARK  1 active torsions:
REMARK  status: ('A' for Active; 'I' for Inactive)
REMARK    1  A    between atoms: C2_2  and  C5_5 
ROOT
HETATM    1  C1  UNL     1     -34.709  13.667  -4.953  1.00 20.00     0.077 C 
HETATM    2  C3  UNL     1     -34.333  15.143  -6.961  1.00 20.00     0.034 A 
HETATM    3  C4  UNL     1     -35.560  15.645  -6.265  1.00 20.00     0.034 A 
HETATM    4  C5  UNL     1     -34.458  14.988  -5.460  1.00 20.00     0.109 A 
HETATM    5  N7  UNL     1     -34.912  12.600  -4.543  1.00 20.00    -0.196 NA
ENDROOT
BRANCH   4   6
HETATM    6  C2  UNL     1     -33.621  15.857  -4.611  1.00 20.00     0.145 C 
HETATM    7  C6  UNL     1     -33.841  15.765  -3.125  1.00 20.00     0.093 C 
HETATM    8  O8  UNL     1     -32.782  16.616  -5.094  1.00 20.00    -0.296 OA
ENDBRANCH   4   6
TORSDOF 1
ENDMDL
MODEL 7
REMARK VINA RESULT:      -4.1     12.147     12.692
REMARK  1 active torsions:
REMARK  status: ('A' for Active; 'I' for Inactive)
REMARK    1  A    between atoms: C2_2  and  C5_5 
ROOT
HETATM    1  C1  UNL     1     -34.995  15.629  -2.401  1.00 20.00     0.077 C 
HETATM    2  C3  UNL     1     -36.910  14.783  -3.806  1.00 20.00     0.034 A 
HETATM    3  C4  UNL     1     -36.052  15.635  -4.690  1.00 20.00     0.034 A 
HETATM    4  C5  UNL     1     -35.421  14.870  -3.546  1.00 20.00     0.109 A 
HETATM    5  N7  UNL     1     -34.652  16.241  -1.477  1.00 20.00    -0.196 NA
ENDROOT
BRANCH   4   6
HETATM    6  C2  UNL     1     -34.599  13.693  -3.882  1.00 20.00     0.145 C 
HETATM    7  C6  UNL     1     -33.113  13.826  -3.681  1.00 20.00     0.093 C 
HETATM    8  O8  UNL     1     -35.103  12.652  -4.301  1.00 20.00    -0.296 OA
ENDBRANCH   4   6
TORSDOF 1
ENDMDL
MODEL 8
REMARK VINA RESULT:      -4.0     13.073     13.916
REMARK  1 active torsions:
REMARK  status: ('A' for Active; 'I' for Inactive)
REMARK    1  A    between atoms: C2_2  and  C5_5 
ROOT
HETATM    1  C1  UNL     1     -34.575  13.691  -4.498  1.00 20.00     0.077 C 
HETATM    2  C3  UNL     1     -34.011  15.616  -2.972  1.00 20.00     0.034 A 
HETATM    3  C4  UNL     1     -32.748  15.218  -3.670  1.00 20.00     0.034 A 
HETATM    4  C5  UNL     1     -34.078  15.034  -4.367  1.00 20.00     0.109 A 
HETATM    5  N7  UNL     1     -34.976  12.607  -4.603  1.00 20.00    -0.196 NA
ENDROOT
BRANCH   4   6
HETATM    6  C2  UNL     1     -34.402  15.952  -5.476  1.00 20.00     0.145 C 
HETATM    7  C6  UNL     1     -34.217  15.419  -6.871  1.00 20.00     0.093 C 
HETATM    8  O8  UNL     1     -34.806  17.095  -5.270  1.00 20.00    -0.296 OA
ENDBRANCH   4   6
TORSDOF 1
ENDMDL
MODEL 9
REMARK VINA RESULT:      -3.9      1.806      2.236
REMARK  1 active torsions:
REMARK  status: ('A' for Active; 'I' for Inactive)
REMARK    1  A    between atoms: C2_2  and  C5_5 
ROOT
HETATM    1  C1  UNL     1     -33.077   6.196   4.182  1.00 20.00     0.077 C 
HETATM    2  C3  UNL     1     -33.549   5.136   6.420  1.00 20.00     0.034 A 
HETATM    3  C4  UNL     1     -34.328   6.413   6.361  1.00 20.00     0.034 A 
HETATM    4  C5  UNL     1     -34.051   5.645   5.086  1.00 20.00     0.109 A 
HETATM    5  N7  UNL     1     -32.292   6.641   3.453  1.00 20.00    -0.196 NA
ENDROOT
BRANCH   4   6
HETATM    6  C2  UNL     1     -35.178   4.928   4.461  1.00 20.00     0.145 C 
HETATM    7  C6  UNL     1     -36.015   5.706   3.481  1.00 20.00     0.093 C 
HETATM    8  O8  UNL     1     -35.419   3.751   4.724  1.00 20.00    -0.296 OA
ENDBRANCH   4   6
TORSDOF 1
ENDMDL
