MODEL 1
REMARK VINA RESULT:      -5.4      0.000      0.000
REMARK  1 active torsions:
REMARK  status: ('A' for Active; 'I' for Inactive)
REMARK    1  A    between atoms: C1_1  and  C3_3 
ROOT
HETATM    1  C1  UNL     1     -34.109   6.137   4.670  1.00 20.00     0.143 C 
HETATM    2  C2  UNL     1     -34.215   6.229   6.001  1.00 20.00     0.190 C 
HETATM    3  F4  UNL     1     -35.089   5.446   6.669  1.00 20.00    -0.193 F 
HETATM    4 CL8  UNL     1     -33.247   7.340   6.895  1.00 20.00    -0.051 Cl
ENDROOT
BRANCH   1   5
HETATM    5  C3  UNL     1     -34.897   5.212   3.810  1.00 20.00     0.411 C 
HETATM    6  F5  UNL     1     -35.033   3.967   4.331  1.00 20.00    -0.167 F 
HETATM    7  F6  UNL     1     -34.321   5.064   2.589  1.00 20.00    -0.167 F 
HETATM    8  F7  UNL     1     -36.150   5.686   3.596  1.00 20.00    -0.167 F 
ENDBRANCH   1   5
TORSDOF 1
ENDMDL
MODEL 2
REMARK VINA RESULT:      -5.4      1.734      2.786
REMARK  1 active torsions:
REMARK  status: ('A' for Active; 'I' for Inactive)
REMARK    1  A    between atoms: C1_1  and  C3_3 
ROOT
HETATM    1  C1  UNL     1     -33.783   5.957   4.783  1.00 20.00     0.143 C 
HETATM    2  C2  UNL     1     -33.442   6.029   3.491  1.00 20.00     0.190 C 
HETATM    3  F4  UNL     1     -34.062   5.249   2.579  1.00 20.00    -0.193 F 
HETATM    4 CL8  UNL     1     -32.211   7.111   2.955  1.00 20.00    -0.051 Cl
ENDROOT
BRANCH   1   5
HETATM    5  C3  UNL     1     -34.830   5.059   5.343  1.00 20.00     0.411 C 
HETATM    6  F5  UNL     1     -34.440   3.763   5.441  1.00 20.00    -0.167 F 
HETATM    7  F6  UNL     1     -35.951   5.072   4.578  1.00 20.00    -0.167 F 
HETATM    8  F7  UNL     1     -35.201   5.451   6.588  1.00 20.00    -0.167 F 
ENDBRANCH   1   5
TORSDOF 1
ENDMDL
MODEL 3
REMARK VINA RESULT:      -4.9      1.860      2.164
REMARK  1 active torsions:
REMARK  status: ('A' for Active; 'I' for Inactive)
REMARK    1  A    between atoms: C1_1  and  C3_3 
ROOT
HETATM    1  C1  UNL     1     -34.084   5.569   3.831  1.00 20.00     0.143 C 
HETATM    2  C2  UNL     1     -33.212   6.450   4.334  1.00 20.00     0.190 C 
HETATM    3  F4  UNL     1     -33.303   6.835   5.626  1.00 20.00    -0.193 F 
HETATM    4 CL8  UNL     1     -31.954   7.113   3.360  1.00 20.00    -0.051 Cl
ENDROOT
BRANCH   1   5
HETATM    5  C3  UNL     1     -35.201   4.941   4.588  1.00 20.00     0.411 C 
HETATM    6  F5  UNL     1     -35.240   5.297   5.896  1.00 20.00    -0.167 F 
HETATM    7  F6  UNL     1     -35.119   3.586   4.554  1.00 20.00    -0.167 F 
HETATM    8  F7  UNL     1     -36.405   5.273   4.056  1.00 20.00    -0.167 F 
ENDBRANCH   1   5
TORSDOF 1
ENDMDL
MODEL 4
REMARK VINA RESULT:      -4.9      2.444      3.325
REMARK  1 active torsions:
REMARK  status: ('A' for Active; 'I' for Inactive)
REMARK    1  A    between atoms: C1_1  and  C3_3 
ROOT
HETATM    1  C1  UNL     1     -33.243   6.295   4.531  1.00 20.00     0.143 C 
HETATM    2  C2  UNL     1     -34.297   5.478   4.417  1.00 20.00     0.190 C 
HETATM    3  F4  UNL     1     -34.677   5.025   3.202  1.00 20.00    -0.193 F 
HETATM    4 CL8  UNL     1     -35.194   4.983   5.803  1.00 20.00    -0.051 Cl
ENDROOT
BRANCH   1   5
HETATM    5  C3  UNL     1     -32.406   6.778   3.399  1.00 20.00     0.411 C 
HETATM    6  F5  UNL     1     -33.076   7.574   2.528  1.00 20.00    -0.167 F 
HETATM    7  F6  UNL     1     -31.909   5.741   2.676  1.00 20.00    -0.167 F 
HETATM    8  F7  UNL     1     -31.341   7.492   3.842  1.00 20.00    -0.167 F 
ENDBRANCH   1   5
TORSDOF 1
ENDMDL
MODEL 5
REMARK VINA RESULT:      -4.9      2.442      3.327
REMARK  1 active torsions:
REMARK  status: ('A' for Active; 'I' for Inactive)
REMARK    1  A    between atoms: C1_1  and  C3_3 
ROOT
HETATM    1  C1  UNL     1     -33.240   6.284   4.549  1.00 20.00     0.143 C 
HETATM    2  C2  UNL     1     -34.297   5.473   4.425  1.00 20.00     0.190 C 
HETATM    3  F4  UNL     1     -34.678   5.033   3.206  1.00 20.00    -0.193 F 
HETATM    4 CL8  UNL     1     -35.197   4.967   5.806  1.00 20.00    -0.051 Cl
ENDROOT
BRANCH   1   5
HETATM    5  C3  UNL     1     -32.401   6.775   3.422  1.00 20.00     0.411 C 
HETATM    6  F5  UNL     1     -31.325   7.500   3.819  1.00 20.00    -0.167 F 
HETATM    7  F6  UNL     1     -33.117   7.567   2.583  1.00 20.00    -0.167 F 
HETATM    8  F7  UNL     1     -31.925   5.746   2.676  1.00 20.00    -0.167 F 
ENDBRANCH   1   5
TORSDOF 1
ENDMDL
MODEL 6
REMARK VINA RESULT:      -4.7      2.612      3.364
REMARK  1 active torsions:
REMARK  status: ('A' for Active; 'I' for Inactive)
REMARK    1  A    between atoms: C1_1  and  C3_3 
ROOT
HETATM    1  C1  UNL     1     -34.843   4.858   4.799  1.00 20.00     0.143 C 
HETATM    2  C2  UNL     1     -34.067   5.573   3.975  1.00 20.00     0.190 C 
HETATM    3  F4  UNL     1     -33.135   6.412   4.477  1.00 20.00    -0.193 F 
HETATM    4 CL8  UNL     1     -34.229   5.445   2.264  1.00 20.00    -0.051 Cl
ENDROOT
BRANCH   1   5
HETATM    5  C3  UNL     1     -34.780   4.898   6.285  1.00 20.00     0.411 C 
HETATM    6  F5  UNL     1     -34.815   6.153   6.799  1.00 20.00    -0.167 F 
HETATM    7  F6  UNL     1     -33.641   4.320   6.745  1.00 20.00    -0.167 F 
HETATM    8  F7  UNL     1     -35.815   4.219   6.841  1.00 20.00    -0.167 F 
ENDBRANCH   1   5
TORSDOF 1
ENDMDL
MODEL 7
REMARK VINA RESULT:      -4.7      2.651      3.370
REMARK  1 active torsions:
REMARK  status: ('A' for Active; 'I' for Inactive)
REMARK    1  A    between atoms: C1_1  and  C3_3 
ROOT
HETATM    1  C1  UNL     1     -34.788   4.993   4.804  1.00 20.00     0.143 C 
HETATM    2  C2  UNL     1     -33.979   5.626   3.947  1.00 20.00     0.190 C 
HETATM    3  F4  UNL     1     -32.989   6.422   4.408  1.00 20.00    -0.193 F 
HETATM    4 CL8  UNL     1     -34.171   5.447   2.243  1.00 20.00    -0.051 Cl
ENDROOT
BRANCH   1   5
HETATM    5  C3  UNL     1     -34.703   5.082   6.288  1.00 20.00     0.411 C 
HETATM    6  F5  UNL     1     -33.645   4.416   6.814  1.00 20.00    -0.167 F 
HETATM    7  F6  UNL     1     -35.816   4.575   6.876  1.00 20.00    -0.167 F 
HETATM    8  F7  UNL     1     -34.597   6.371   6.699  1.00 20.00    -0.167 F 
ENDBRANCH   1   5
TORSDOF 1
ENDMDL
MODEL 8
REMARK VINA RESULT:      -4.6      2.461      2.915
REMARK  1 active torsions:
REMARK  status: ('A' for Active; 'I' for Inactive)
REMARK    1  A    between atoms: C1_1  and  C3_3 
ROOT
HETATM    1  C1  UNL     1     -33.691   5.584   4.280  1.00 20.00     0.143 C 
HETATM    2  C2  UNL     1     -34.232   5.736   5.495  1.00 20.00     0.190 C 
HETATM    3  F4  UNL     1     -33.995   6.858   6.209  1.00 20.00    -0.193 F 
HETATM    4 CL8  UNL     1     -35.241   4.517   6.179  1.00 20.00    -0.051 Cl
ENDROOT
BRANCH   1   5
HETATM    5  C3  UNL     1     -32.810   6.575   3.605  1.00 20.00     0.411 C 
HETATM    6  F5  UNL     1     -31.963   7.216   4.449  1.00 20.00    -0.167 F 
HETATM    7  F6  UNL     1     -33.538   7.535   2.979  1.00 20.00    -0.167 F 
HETATM    8  F7  UNL     1     -32.043   5.985   2.654  1.00 20.00    -0.167 F 
ENDBRANCH   1   5
TORSDOF 1
ENDMDL
MODEL 9
REMARK VINA RESULT:      -4.6      1.776      2.782
REMARK  1 active torsions:
REMARK  status: ('A' for Active; 'I' for Inactive)
REMARK    1  A    between atoms: C1_1  and  C3_3 
ROOT
HETATM    1  C1  UNL     1     -33.781   6.474   3.842  1.00 20.00     0.143 C 
HETATM    2  C2  UNL     1     -32.496   6.482   3.469  1.00 20.00     0.190 C 
HETATM    3  F4  UNL     1     -31.988   5.451   2.758  1.00 20.00    -0.193 F 
HETATM    4 CL8  UNL     1     -31.458   7.795   3.878  1.00 20.00    -0.051 Cl
ENDROOT
BRANCH   1   5
HETATM    5  C3  UNL     1     -34.755   5.391   3.538  1.00 20.00     0.411 C 
HETATM    6  F5  UNL     1     -36.048   5.803   3.539  1.00 20.00    -0.167 F 
HETATM    7  F6  UNL     1     -34.667   4.382   4.443  1.00 20.00    -0.167 F 
HETATM    8  F7  UNL     1     -34.520   4.844   2.319  1.00 20.00    -0.167 F 
ENDBRANCH   1   5
TORSDOF 1
ENDMDL
