MODEL 1
REMARK VINA RESULT:      -4.1      0.000      0.000
REMARK  2 active torsions:
REMARK  status: ('A' for Active; 'I' for Inactive)
REMARK    1  A    between atoms: C1_1  and  C4_4 
REMARK    2  A    between atoms: C4_4  and  C5_5 
ROOT
HETATM    1  C2  UNL     1     -34.857   4.381   4.483  1.00 20.00     0.020 A 
HETATM    2  C3  UNL     1     -35.601   5.565   3.945  1.00 20.00     0.020 A 
HETATM    3  C4  UNL     1     -34.210   5.750   4.517  1.00 20.00     0.039 A 
ENDROOT
BRANCH   3   4
HETATM    4  C1  UNL     1     -33.115   6.000   3.549  1.00 20.00     0.243 C 
HETATM    5  O6  UNL     1     -32.232   6.833   3.728  1.00 20.00    -0.306 OA
ENDBRANCH   3   4
BRANCH   3   6
HETATM    6  C5  UNL     1     -34.106   6.425   5.861  1.00 20.00     0.238 C 
HETATM    7  F7  UNL     1     -34.436   5.530   6.830  1.00 20.00    -0.254 F 
ENDBRANCH   3   6
TORSDOF 2
ENDMDL
MODEL 2
REMARK VINA RESULT:      -4.0      1.962      2.516
REMARK  2 active torsions:
REMARK  status: ('A' for Active; 'I' for Inactive)
REMARK    1  A    between atoms: C1_1  and  C4_4 
REMARK    2  A    between atoms: C4_4  and  C5_5 
ROOT
HETATM    1  C2  UNL     1     -35.623   5.404   4.204  1.00 20.00     0.020 A 
HETATM    2  C3  UNL     1     -34.863   4.208   4.688  1.00 20.00     0.020 A 
HETATM    3  C4  UNL     1     -34.285   5.594   4.887  1.00 20.00     0.039 A 
ENDROOT
BRANCH   3   4
HETATM    4  C1  UNL     1     -34.306   6.138   6.266  1.00 20.00     0.243 C 
HETATM    5  O6  UNL     1     -33.525   6.996   6.667  1.00 20.00    -0.306 OA
ENDBRANCH   3   4
BRANCH   3   6
HETATM    6  C5  UNL     1     -33.120   5.983   4.014  1.00 20.00     0.238 C 
HETATM    7  F7  UNL     1     -33.440   7.112   3.327  1.00 20.00    -0.254 F 
ENDBRANCH   3   6
TORSDOF 2
ENDMDL
MODEL 3
REMARK VINA RESULT:      -4.0      1.813      2.445
REMARK  2 active torsions:
REMARK  status: ('A' for Active; 'I' for Inactive)
REMARK    1  A    between atoms: C1_1  and  C4_4 
REMARK    2  A    between atoms: C4_4  and  C5_5 
ROOT
HETATM    1  C2  UNL     1     -34.159   6.860   3.625  1.00 20.00     0.020 A 
HETATM    2  C3  UNL     1     -33.042   5.867   3.724  1.00 20.00     0.020 A 
HETATM    3  C4  UNL     1     -34.191   5.802   4.709  1.00 20.00     0.039 A 
ENDROOT
BRANCH   3   4
HETATM    4  C1  UNL     1     -35.160   4.693   4.537  1.00 20.00     0.243 C 
HETATM    5  O6  UNL     1     -35.066   3.616   5.119  1.00 20.00    -0.306 OA
ENDBRANCH   3   4
BRANCH   3   6
HETATM    6  C5  UNL     1     -33.912   6.258   6.118  1.00 20.00     0.238 C 
HETATM    7  F7  UNL     1     -34.964   5.916   6.909  1.00 20.00    -0.254 F 
ENDBRANCH   3   6
TORSDOF 2
ENDMDL
MODEL 4
REMARK VINA RESULT:      -4.0      1.768      2.354
REMARK  2 active torsions:
REMARK  status: ('A' for Active; 'I' for Inactive)
REMARK    1  A    between atoms: C1_1  and  C4_4 
REMARK    2  A    between atoms: C4_4  and  C5_5 
ROOT
HETATM    1  C2  UNL     1     -34.639   5.842   6.392  1.00 20.00     0.020 A 
HETATM    2  C3  UNL     1     -33.862   4.588   6.135  1.00 20.00     0.020 A 
HETATM    3  C4  UNL     1     -34.360   5.414   4.967  1.00 20.00     0.039 A 
ENDROOT
BRANCH   3   4
HETATM    4  C1  UNL     1     -33.348   6.195   4.216  1.00 20.00     0.243 C 
HETATM    5  O6  UNL     1     -33.036   5.957   3.054  1.00 20.00    -0.306 OA
ENDBRANCH   3   4
BRANCH   3   6
HETATM    6  C5  UNL     1     -35.519   4.858   4.180  1.00 20.00     0.238 C 
HETATM    7  F7  UNL     1     -36.092   5.864   3.467  1.00 20.00    -0.254 F 
ENDBRANCH   3   6
TORSDOF 2
ENDMDL
MODEL 5
REMARK VINA RESULT:      -3.9      1.510      2.169
REMARK  2 active torsions:
REMARK  status: ('A' for Active; 'I' for Inactive)
REMARK    1  A    between atoms: C1_1  and  C4_4 
REMARK    2  A    between atoms: C4_4  and  C5_5 
ROOT
HETATM    1  C2  UNL     1     -33.540   5.658   3.914  1.00 20.00     0.020 A 
HETATM    2  C3  UNL     1     -35.017   5.895   3.832  1.00 20.00     0.020 A 
HETATM    3  C4  UNL     1     -34.406   5.417   5.133  1.00 20.00     0.039 A 
ENDROOT
BRANCH   3   4
HETATM    4  C1  UNL     1     -34.310   6.406   6.233  1.00 20.00     0.243 C 
HETATM    5  O6  UNL     1     -33.253   6.911   6.598  1.00 20.00    -0.306 OA
ENDBRANCH   3   4
BRANCH   3   6
HETATM    6  C5  UNL     1     -34.657   3.982   5.521  1.00 20.00     0.238 C 
HETATM    7  F7  UNL     1     -35.540   3.952   6.555  1.00 20.00    -0.254 F 
ENDBRANCH   3   6
TORSDOF 2
ENDMDL
MODEL 6
REMARK VINA RESULT:      -3.7      2.311      2.739
REMARK  2 active torsions:
REMARK  status: ('A' for Active; 'I' for Inactive)
REMARK    1  A    between atoms: C1_1  and  C4_4 
REMARK    2  A    between atoms: C4_4  and  C5_5 
ROOT
HETATM    1  C2  UNL     1     -34.043   4.390   6.010  1.00 20.00     0.020 A 
HETATM    2  C3  UNL     1     -34.701   5.671   6.423  1.00 20.00     0.020 A 
HETATM    3  C4  UNL     1     -34.421   5.410   4.957  1.00 20.00     0.039 A 
ENDROOT
BRANCH   3   4
HETATM    4  C1  UNL     1     -35.586   5.090   4.097  1.00 20.00     0.243 C 
HETATM    5  O6  UNL     1     -36.096   5.893   3.323  1.00 20.00    -0.306 OA
ENDBRANCH   3   4
BRANCH   3   6
HETATM    6  C5  UNL     1     -33.296   6.191   4.325  1.00 20.00     0.238 C 
HETATM    7  F7  UNL     1     -33.028   5.664   3.100  1.00 20.00    -0.254 F 
ENDBRANCH   3   6
TORSDOF 2
ENDMDL
MODEL 7
REMARK VINA RESULT:      -3.7      1.910      2.703
REMARK  2 active torsions:
REMARK  status: ('A' for Active; 'I' for Inactive)
REMARK    1  A    between atoms: C1_1  and  C4_4 
REMARK    2  A    between atoms: C4_4  and  C5_5 
ROOT
HETATM    1  C2  UNL     1     -32.595   5.800   3.484  1.00 20.00     0.020 A 
HETATM    2  C3  UNL     1     -33.290   7.108   3.262  1.00 20.00     0.020 A 
HETATM    3  C4  UNL     1     -33.879   6.100   4.228  1.00 20.00     0.039 A 
ENDROOT
BRANCH   3   4
HETATM    4  C1  UNL     1     -33.763   6.408   5.673  1.00 20.00     0.243 C 
HETATM    5  O6  UNL     1     -34.527   5.962   6.524  1.00 20.00    -0.306 OA
ENDBRANCH   3   4
BRANCH   3   6
HETATM    6  C5  UNL     1     -35.117   5.366   3.780  1.00 20.00     0.238 C 
HETATM    7  F7  UNL     1     -35.072   4.093   4.257  1.00 20.00    -0.254 F 
ENDBRANCH   3   6
TORSDOF 2
ENDMDL
MODEL 8
REMARK VINA RESULT:      -3.4     12.476     13.150
REMARK  2 active torsions:
REMARK  status: ('A' for Active; 'I' for Inactive)
REMARK    1  A    between atoms: C1_1  and  C4_4 
REMARK    2  A    between atoms: C4_4  and  C5_5 
ROOT
HETATM    1  C2  UNL     1     -32.897  14.786  -3.667  1.00 20.00     0.020 A 
HETATM    2  C3  UNL     1     -33.955  15.639  -3.037  1.00 20.00     0.020 A 
HETATM    3  C4  UNL     1     -34.266  14.876  -4.308  1.00 20.00     0.039 A 
ENDROOT
BRANCH   3   4
HETATM    4  C1  UNL     1     -35.147  13.690  -4.181  1.00 20.00     0.243 C 
HETATM    5  O6  UNL     1     -34.849  12.577  -4.603  1.00 20.00    -0.306 OA
ENDBRANCH   3   4
BRANCH   3   6
HETATM    6  C5  UNL     1     -34.375  15.678  -5.580  1.00 20.00     0.238 C 
HETATM    7  F7  UNL     1     -34.045  14.884  -6.633  1.00 20.00    -0.254 F 
ENDBRANCH   3   6
TORSDOF 2
ENDMDL
MODEL 9
REMARK VINA RESULT:      -3.4     12.343     13.002
REMARK  2 active torsions:
REMARK  status: ('A' for Active; 'I' for Inactive)
REMARK    1  A    between atoms: C1_1  and  C4_4 
REMARK    2  A    between atoms: C4_4  and  C5_5 
ROOT
HETATM    1  C2  UNL     1     -35.279  15.760  -4.982  1.00 20.00     0.020 A 
HETATM    2  C3  UNL     1     -34.218  15.682  -6.037  1.00 20.00     0.020 A 
HETATM    3  C4  UNL     1     -34.114  14.808  -4.804  1.00 20.00     0.039 A 
ENDROOT
BRANCH   3   4
HETATM    4  C1  UNL     1     -34.394  13.363  -4.980  1.00 20.00     0.243 C 
HETATM    5  O6  UNL     1     -35.126  12.720  -4.234  1.00 20.00    -0.306 OA
ENDBRANCH   3   4
BRANCH   3   6
HETATM    6  C5  UNL     1     -33.072  15.185  -3.782  1.00 20.00     0.238 C 
HETATM    7  F7  UNL     1     -32.288  14.103  -3.531  1.00 20.00    -0.254 F 
ENDBRANCH   3   6
TORSDOF 2
ENDMDL
