MODEL 1
REMARK VINA RESULT:      -3.4      0.000      0.000
REMARK  1 active torsions:
REMARK  status: ('A' for Active; 'I' for Inactive)
REMARK    1  A    between atoms: C3_3  and  C4_4 
ROOT
HETATM    1  C1  UNL     1     -34.808  13.577  -4.737  1.00 20.00     0.149 A 
HETATM    2  C2  UNL     1     -34.860  14.467  -5.790  1.00 20.00     0.093 A 
HETATM    3  C3  UNL     1     -34.106  15.369  -3.687  1.00 20.00     0.089 A 
HETATM    4  N5  UNL     1     -34.376  14.092  -3.532  1.00 20.00    -0.255 NA
HETATM    5  S6  UNL     1     -34.351  16.016  -5.258  1.00 20.00    -0.060 SA
HETATM    6 CL7  UNL     1     -35.337  14.196  -7.406  1.00 20.00    -0.075 Cl
ENDROOT
BRANCH   3   7
HETATM    7  C4  UNL     1     -33.617  16.259  -2.612  1.00 20.00     0.181 C 
HETATM    8 CL8  UNL     1     -34.737  16.264  -1.225  1.00 20.00    -0.123 Cl
ENDBRANCH   3   7
TORSDOF 1
ENDMDL
MODEL 2
REMARK VINA RESULT:      -3.3      1.332      4.149
REMARK  1 active torsions:
REMARK  status: ('A' for Active; 'I' for Inactive)
REMARK    1  A    between atoms: C3_3  and  C4_4 
ROOT
HETATM    1  C1  UNL     1     -33.345  15.742  -3.267  1.00 20.00     0.149 A 
HETATM    2  C2  UNL     1     -34.498  15.833  -2.515  1.00 20.00     0.093 A 
HETATM    3  C3  UNL     1     -34.749  14.878  -4.713  1.00 20.00     0.089 A 
HETATM    4  N5  UNL     1     -33.487  15.195  -4.526  1.00 20.00    -0.255 NA
HETATM    5  S6  UNL     1     -35.820  15.212  -3.414  1.00 20.00    -0.060 SA
HETATM    6 CL7  UNL     1     -34.708  16.446  -0.936  1.00 20.00    -0.075 Cl
ENDROOT
BRANCH   3   7
HETATM    7  C4  UNL     1     -35.286  14.265  -5.947  1.00 20.00     0.181 C 
HETATM    8 CL8  UNL     1     -34.486  14.932  -7.394  1.00 20.00    -0.123 Cl
ENDBRANCH   3   7
TORSDOF 1
ENDMDL
MODEL 3
REMARK VINA RESULT:      -3.3      1.008      3.917
REMARK  1 active torsions:
REMARK  status: ('A' for Active; 'I' for Inactive)
REMARK    1  A    between atoms: C3_3  and  C4_4 
ROOT
HETATM    1  C1  UNL     1     -34.388  14.163  -3.514  1.00 20.00     0.149 A 
HETATM    2  C2  UNL     1     -34.486  15.482  -3.121  1.00 20.00     0.093 A 
HETATM    3  C3  UNL     1     -34.340  15.101  -5.495  1.00 20.00     0.089 A 
HETATM    4  N5  UNL     1     -34.305  13.944  -4.874  1.00 20.00    -0.255 NA
HETATM    5  S6  UNL     1     -34.471  16.496  -4.504  1.00 20.00    -0.060 SA
HETATM    6 CL7  UNL     1     -34.606  16.130  -1.546  1.00 20.00    -0.075 Cl
ENDROOT
BRANCH   3   7
HETATM    7  C4  UNL     1     -34.272  15.267  -6.964  1.00 20.00     0.181 C 
HETATM    8 CL8  UNL     1     -35.529  14.299  -7.776  1.00 20.00    -0.123 Cl
ENDBRANCH   3   7
TORSDOF 1
ENDMDL
MODEL 4
REMARK VINA RESULT:      -3.3     12.502     13.512
REMARK  1 active torsions:
REMARK  status: ('A' for Active; 'I' for Inactive)
REMARK    1  A    between atoms: C3_3  and  C4_4 
ROOT
HETATM    1  C1  UNL     1     -42.680   6.124  -2.858  1.00 20.00     0.149 A 
HETATM    2  C2  UNL     1     -41.763   6.062  -1.829  1.00 20.00     0.093 A 
HETATM    3  C3  UNL     1     -42.436   3.947  -2.765  1.00 20.00     0.089 A 
HETATM    4  N5  UNL     1     -43.066   4.913  -3.396  1.00 20.00    -0.255 NA
HETATM    5  S6  UNL     1     -41.365   4.424  -1.513  1.00 20.00    -0.060 SA
HETATM    6 CL7  UNL     1     -41.063   7.335  -0.932  1.00 20.00    -0.075 Cl
ENDROOT
BRANCH   3   7
HETATM    7  C4  UNL     1     -42.596   2.507  -3.065  1.00 20.00     0.181 C 
HETATM    8 CL8  UNL     1     -41.173   1.872  -3.931  1.00 20.00    -0.123 Cl
ENDBRANCH   3   7
TORSDOF 1
ENDMDL
MODEL 5
REMARK VINA RESULT:      -3.3     11.780     12.480
REMARK  1 active torsions:
REMARK  status: ('A' for Active; 'I' for Inactive)
REMARK    1  A    between atoms: C3_3  and  C4_4 
ROOT
HETATM    1  C1  UNL     1     -34.488   5.163   3.562  1.00 20.00     0.149 A 
HETATM    2  C2  UNL     1     -34.447   5.356   4.927  1.00 20.00     0.093 A 
HETATM    3  C3  UNL     1     -32.859   6.629   3.637  1.00 20.00     0.089 A 
HETATM    4  N5  UNL     1     -33.580   5.891   2.821  1.00 20.00    -0.255 NA
HETATM    5  S6  UNL     1     -33.221   6.494   5.309  1.00 20.00    -0.060 SA
HETATM    6 CL7  UNL     1     -35.403   4.640   6.146  1.00 20.00    -0.075 Cl
ENDROOT
BRANCH   3   7
HETATM    7  C4  UNL     1     -31.781   7.545   3.207  1.00 20.00     0.181 C 
HETATM    8 CL8  UNL     1     -32.230   8.407   1.712  1.00 20.00    -0.123 Cl
ENDBRANCH   3   7
TORSDOF 1
ENDMDL
MODEL 6
REMARK VINA RESULT:      -3.2      1.765      2.023
REMARK  1 active torsions:
REMARK  status: ('A' for Active; 'I' for Inactive)
REMARK    1  A    between atoms: C3_3  and  C4_4 
ROOT
HETATM    1  C1  UNL     1     -33.437  16.660  -5.030  1.00 20.00     0.149 A 
HETATM    2  C2  UNL     1     -34.203  15.587  -5.436  1.00 20.00     0.093 A 
HETATM    3  C3  UNL     1     -34.355  16.163  -3.102  1.00 20.00     0.089 A 
HETATM    4  N5  UNL     1     -33.523  16.992  -3.693  1.00 20.00    -0.255 NA
HETATM    5  S6  UNL     1     -35.068  14.960  -4.095  1.00 20.00    -0.060 SA
HETATM    6 CL7  UNL     1     -34.351  14.897  -6.990  1.00 20.00    -0.075 Cl
ENDROOT
BRANCH   3   7
HETATM    7  C4  UNL     1     -34.701  16.207  -1.664  1.00 20.00     0.181 C 
HETATM    8 CL8  UNL     1     -33.728  17.430  -0.807  1.00 20.00    -0.123 Cl
ENDBRANCH   3   7
TORSDOF 1
ENDMDL
MODEL 7
REMARK VINA RESULT:      -3.2      1.667      4.149
REMARK  1 active torsions:
REMARK  status: ('A' for Active; 'I' for Inactive)
REMARK    1  A    between atoms: C3_3  and  C4_4 
ROOT
HETATM    1  C1  UNL     1     -36.295  15.952  -3.160  1.00 20.00     0.149 A 
HETATM    2  C2  UNL     1     -35.081  15.844  -2.515  1.00 20.00     0.093 A 
HETATM    3  C3  UNL     1     -35.226  14.770  -4.666  1.00 20.00     0.089 A 
HETATM    4  N5  UNL     1     -36.380  15.337  -4.394  1.00 20.00    -0.255 NA
HETATM    5  S6  UNL     1     -33.995  14.935  -3.482  1.00 20.00    -0.060 SA
HETATM    6 CL7  UNL     1     -34.610  16.466  -0.997  1.00 20.00    -0.075 Cl
ENDROOT
BRANCH   3   7
HETATM    7  C4  UNL     1     -34.935  14.014  -5.904  1.00 20.00     0.181 C 
HETATM    8 CL8  UNL     1     -34.307  15.090  -7.179  1.00 20.00    -0.123 Cl
ENDBRANCH   3   7
TORSDOF 1
ENDMDL
MODEL 8
REMARK VINA RESULT:      -3.1      2.929      3.758
REMARK  1 active torsions:
REMARK  status: ('A' for Active; 'I' for Inactive)
REMARK    1  A    between atoms: C3_3  and  C4_4 
ROOT
HETATM    1  C1  UNL     1     -37.938  15.353  -3.582  1.00 20.00     0.149 A 
HETATM    2  C2  UNL     1     -37.095  16.439  -3.462  1.00 20.00     0.093 A 
HETATM    3  C3  UNL     1     -36.042  14.349  -4.035  1.00 20.00     0.089 A 
HETATM    4  N5  UNL     1     -37.336  14.155  -3.911  1.00 20.00    -0.255 NA
HETATM    5  S6  UNL     1     -35.480  15.948  -3.769  1.00 20.00    -0.060 SA
HETATM    6 CL7  UNL     1     -37.472  18.057  -3.074  1.00 20.00    -0.075 Cl
ENDROOT
BRANCH   3   7
HETATM    7  C4  UNL     1     -35.066  13.293  -4.381  1.00 20.00     0.181 C 
HETATM    8 CL8  UNL     1     -33.435  13.711  -3.795  1.00 20.00    -0.123 Cl
ENDBRANCH   3   7
TORSDOF 1
ENDMDL
MODEL 9
REMARK VINA RESULT:      -3.0     12.055     12.782
REMARK  1 active torsions:
REMARK  status: ('A' for Active; 'I' for Inactive)
REMARK    1  A    between atoms: C3_3  and  C4_4 
ROOT
HETATM    1  C1  UNL     1     -32.842   6.140   2.573  1.00 20.00     0.149 A 
HETATM    2  C2  UNL     1     -32.421   6.855   3.675  1.00 20.00     0.093 A 
HETATM    3  C3  UNL     1     -34.357   5.459   4.005  1.00 20.00     0.089 A 
HETATM    4  N5  UNL     1     -33.951   5.340   2.761  1.00 20.00    -0.255 NA
HETATM    5  S6  UNL     1     -33.451   6.519   5.005  1.00 20.00    -0.060 SA
HETATM    6 CL7  UNL     1     -31.106   7.934   3.821  1.00 20.00    -0.075 Cl
ENDROOT
BRANCH   3   7
HETATM    7  C4  UNL     1     -35.522   4.751   4.579  1.00 20.00     0.181 C 
HETATM    8 CL8  UNL     1     -35.221   4.290   6.274  1.00 20.00    -0.123 Cl
ENDBRANCH   3   7
TORSDOF 1
ENDMDL
