MODEL 1
REMARK VINA RESULT:      -4.4      0.000      0.000
REMARK  1 active torsions:
REMARK  status: ('A' for Active; 'I' for Inactive)
REMARK    1  A    between atoms: C2_2  and  C3_3 
ROOT
HETATM    1  C1  UNL     1     -33.138   6.295   4.136  1.00 20.00     0.018 C 
HETATM    2  C2  UNL     1     -34.257   5.560   4.139  1.00 20.00     0.188 C 
HETATM    3  C4  UNL     1     -32.594   6.987   2.928  1.00 20.00     0.039 C 
HETATM    4  F7  UNL     1     -34.955   5.421   2.987  1.00 20.00    -0.199 F 
ENDROOT
BRANCH   2   5
HETATM    5  C3  UNL     1     -34.787   4.863   5.402  1.00 20.00     0.238 C 
HETATM    6  O5  UNL     1     -35.128   3.657   5.222  1.00 20.00    -0.642 OA
HETATM    7  O6  UNL     1     -34.824   5.550   6.460  1.00 20.00    -0.642 OA
ENDBRANCH   2   5
TORSDOF 1
ENDMDL
MODEL 2
REMARK VINA RESULT:      -4.4      0.033      1.220
REMARK  1 active torsions:
REMARK  status: ('A' for Active; 'I' for Inactive)
REMARK    1  A    between atoms: C2_2  and  C3_3 
ROOT
HETATM    1  C1  UNL     1     -33.135   6.283   4.139  1.00 20.00     0.018 C 
HETATM    2  C2  UNL     1     -34.257   5.551   4.146  1.00 20.00     0.188 C 
HETATM    3  C4  UNL     1     -32.603   6.987   2.933  1.00 20.00     0.039 C 
HETATM    4  F7  UNL     1     -34.969   5.428   3.001  1.00 20.00    -0.199 F 
ENDROOT
BRANCH   2   5
HETATM    5  C3  UNL     1     -34.774   4.840   5.407  1.00 20.00     0.238 C 
HETATM    6  O5  UNL     1     -34.799   5.572   6.439  1.00 20.00    -0.642 OA
HETATM    7  O6  UNL     1     -35.112   3.630   5.282  1.00 20.00    -0.642 OA
ENDBRANCH   2   5
TORSDOF 1
ENDMDL
MODEL 3
REMARK VINA RESULT:      -4.1      2.338      2.636
REMARK  1 active torsions:
REMARK  status: ('A' for Active; 'I' for Inactive)
REMARK    1  A    between atoms: C2_2  and  C3_3 
ROOT
HETATM    1  C1  UNL     1     -33.781   6.558   5.728  1.00 20.00     0.018 C 
HETATM    2  C2  UNL     1     -34.676   5.565   5.800  1.00 20.00     0.188 C 
HETATM    3  C4  UNL     1     -33.346   7.379   6.898  1.00 20.00     0.039 C 
HETATM    4  F7  UNL     1     -35.235   5.268   6.997  1.00 20.00    -0.199 F 
ENDROOT
BRANCH   2   5
HETATM    5  C3  UNL     1     -35.100   4.740   4.573  1.00 20.00     0.238 C 
HETATM    6  O5  UNL     1     -35.144   3.493   4.780  1.00 20.00    -0.642 OA
HETATM    7  O6  UNL     1     -35.354   5.381   3.515  1.00 20.00    -0.642 OA
ENDBRANCH   2   5
TORSDOF 1
ENDMDL
MODEL 4
REMARK VINA RESULT:      -4.0      2.601      3.452
REMARK  1 active torsions:
REMARK  status: ('A' for Active; 'I' for Inactive)
REMARK    1  A    between atoms: C2_2  and  C3_3 
ROOT
HETATM    1  C1  UNL     1     -34.549   4.927   5.087  1.00 20.00     0.018 C 
HETATM    2  C2  UNL     1     -33.738   5.982   4.937  1.00 20.00     0.188 C 
HETATM    3  C4  UNL     1     -35.238   4.577   6.366  1.00 20.00     0.039 C 
HETATM    4  F7  UNL     1     -33.514   6.795   5.995  1.00 20.00    -0.199 F 
ENDROOT
BRANCH   2   5
HETATM    5  C3  UNL     1     -33.045   6.311   3.604  1.00 20.00     0.238 C 
HETATM    6  O5  UNL     1     -33.558   5.736   2.600  1.00 20.00    -0.642 OA
HETATM    7  O6  UNL     1     -32.062   7.102   3.652  1.00 20.00    -0.642 OA
ENDBRANCH   2   5
TORSDOF 1
ENDMDL
MODEL 5
REMARK VINA RESULT:      -4.0      1.926      2.440
REMARK  1 active torsions:
REMARK  status: ('A' for Active; 'I' for Inactive)
REMARK    1  A    between atoms: C2_2  and  C3_3 
ROOT
HETATM    1  C1  UNL     1     -34.224   6.389   6.312  1.00 20.00     0.018 C 
HETATM    2  C2  UNL     1     -34.124   5.856   5.088  1.00 20.00     0.188 C 
HETATM    3  C4  UNL     1     -33.242   7.359   6.885  1.00 20.00     0.039 C 
HETATM    4  F7  UNL     1     -33.076   6.203   4.303  1.00 20.00    -0.199 F 
ENDROOT
BRANCH   2   5
HETATM    5  C3  UNL     1     -35.154   4.861   4.530  1.00 20.00     0.238 C 
HETATM    6  O5  UNL     1     -35.944   5.359   3.676  1.00 20.00    -0.642 OA
HETATM    7  O6  UNL     1     -35.103   3.679   4.972  1.00 20.00    -0.642 OA
ENDBRANCH   2   5
TORSDOF 1
ENDMDL
MODEL 6
REMARK VINA RESULT:      -3.9      2.847      3.722
REMARK  1 active torsions:
REMARK  status: ('A' for Active; 'I' for Inactive)
REMARK    1  A    between atoms: C2_2  and  C3_3 
ROOT
HETATM    1  C1  UNL     1     -33.825   6.127   4.679  1.00 20.00     0.018 C 
HETATM    2  C2  UNL     1     -33.299   6.253   3.454  1.00 20.00     0.188 C 
HETATM    3  C4  UNL     1     -34.873   5.125   5.042  1.00 20.00     0.039 C 
HETATM    4  F7  UNL     1     -33.728   5.431   2.467  1.00 20.00    -0.199 F 
ENDROOT
BRANCH   2   5
HETATM    5  C3  UNL     1     -32.222   7.297   3.118  1.00 20.00     0.238 C 
HETATM    6  O5  UNL     1     -31.356   7.457   4.027  1.00 20.00    -0.642 OA
HETATM    7  O6  UNL     1     -32.313   7.869   1.996  1.00 20.00    -0.642 OA
ENDBRANCH   2   5
TORSDOF 1
ENDMDL
MODEL 7
REMARK VINA RESULT:      -3.9      2.442      3.256
REMARK  1 active torsions:
REMARK  status: ('A' for Active; 'I' for Inactive)
REMARK    1  A    between atoms: C2_2  and  C3_3 
ROOT
HETATM    1  C1  UNL     1     -34.033   5.442   5.257  1.00 20.00     0.018 C 
HETATM    2  C2  UNL     1     -34.079   5.787   3.964  1.00 20.00     0.188 C 
HETATM    3  C4  UNL     1     -35.160   4.788   5.989  1.00 20.00     0.039 C 
HETATM    4  F7  UNL     1     -35.207   5.538   3.257  1.00 20.00    -0.199 F 
ENDROOT
BRANCH   2   5
HETATM    5  C3  UNL     1     -32.899   6.459   3.243  1.00 20.00     0.238 C 
HETATM    6  O5  UNL     1     -31.887   5.713   3.105  1.00 20.00    -0.642 OA
HETATM    7  O6  UNL     1     -33.063   7.655   2.874  1.00 20.00    -0.642 OA
ENDBRANCH   2   5
TORSDOF 1
ENDMDL
MODEL 8
REMARK VINA RESULT:      -3.8     12.017     12.253
REMARK  1 active torsions:
REMARK  status: ('A' for Active; 'I' for Inactive)
REMARK    1  A    between atoms: C2_2  and  C3_3 
ROOT
HETATM    1  C1  UNL     1     -34.882  15.547  -2.638  1.00 20.00     0.018 C 
HETATM    2  C2  UNL     1     -34.404  14.556  -3.402  1.00 20.00     0.188 C 
HETATM    3  C4  UNL     1     -34.024  16.516  -1.891  1.00 20.00     0.039 C 
HETATM    4  F7  UNL     1     -33.064  14.404  -3.518  1.00 20.00    -0.199 F 
ENDROOT
BRANCH   2   5
HETATM    5  C3  UNL     1     -35.318  13.577  -4.156  1.00 20.00     0.238 C 
HETATM    6  O5  UNL     1     -36.548  13.864  -4.091  1.00 20.00    -0.642 OA
HETATM    7  O6  UNL     1     -34.756  12.613  -4.748  1.00 20.00    -0.642 OA
ENDBRANCH   2   5
TORSDOF 1
ENDMDL
MODEL 9
REMARK VINA RESULT:      -3.7      1.826      2.166
REMARK  1 active torsions:
REMARK  status: ('A' for Active; 'I' for Inactive)
REMARK    1  A    between atoms: C2_2  and  C3_3 
ROOT
HETATM    1  C1  UNL     1     -34.568   5.504   3.914  1.00 20.00     0.018 C 
HETATM    2  C2  UNL     1     -33.750   6.183   4.727  1.00 20.00     0.188 C 
HETATM    3  C4  UNL     1     -34.329   5.318   2.451  1.00 20.00     0.039 C 
HETATM    4  F7  UNL     1     -32.629   6.743   4.213  1.00 20.00    -0.199 F 
ENDROOT
BRANCH   2   5
HETATM    5  C3  UNL     1     -34.028   6.355   6.229  1.00 20.00     0.238 C 
HETATM    6  O5  UNL     1     -34.904   5.564   6.686  1.00 20.00    -0.642 OA
HETATM    7  O6  UNL     1     -33.369   7.246   6.833  1.00 20.00    -0.642 OA
ENDBRANCH   2   5
TORSDOF 1
ENDMDL
