MODEL 1
REMARK VINA RESULT:      -4.9      0.000      0.000
REMARK  0 active torsions:
REMARK  status: ('A' for Active; 'I' for Inactive)
ROOT
HETATM    1  C1  UNL     1     -34.593  15.569  -2.297  1.00 20.00     0.052 A 
HETATM    2  C2  UNL     1     -33.721  17.292  -4.220  1.00 20.00     0.126 A 
HETATM    3  C3  UNL     1     -34.593  15.148  -3.630  1.00 20.00    -0.047 A 
HETATM    4  C4  UNL     1     -34.164  16.036  -4.626  1.00 20.00    -0.034 A 
HETATM    5  C5  UNL     1     -34.140  16.847  -2.009  1.00 20.00     0.126 A 
HETATM    6  C6  UNL     1     -35.112  13.774  -3.972  1.00 20.00     0.039 C 
HETATM    7  C7  UNL     1     -34.114  15.646  -6.077  1.00 20.00     0.040 C 
HETATM    8  C8  UNL     1     -34.709  13.313  -5.373  1.00 20.00     0.005 C 
HETATM    9  C9  UNL     1     -34.963  14.415  -6.394  1.00 20.00     0.005 C 
HETATM   10  N10 UNL     1     -33.701  17.720  -2.938  1.00 20.00    -0.248 NA
HETATM   11 CL11 UNL     1     -34.107  17.432  -0.397  1.00 20.00    -0.062 Cl
ENDROOT
TORSDOF 0
ENDMDL
MODEL 2
REMARK VINA RESULT:      -4.8     12.714     14.172
REMARK  0 active torsions:
REMARK  status: ('A' for Active; 'I' for Inactive)
ROOT
HETATM    1  C1  UNL     1     -41.579   3.246  -2.372  1.00 20.00     0.052 A 
HETATM    2  C2  UNL     1     -43.352   5.127  -3.233  1.00 20.00     0.126 A 
HETATM    3  C3  UNL     1     -41.543   4.519  -1.797  1.00 20.00    -0.047 A 
HETATM    4  C4  UNL     1     -42.440   5.497  -2.249  1.00 20.00    -0.034 A 
HETATM    5  C5  UNL     1     -42.523   2.991  -3.353  1.00 20.00     0.126 A 
HETATM    6  C6  UNL     1     -40.503   4.831  -0.751  1.00 20.00     0.039 C 
HETATM    7  C7  UNL     1     -42.477   6.881  -1.662  1.00 20.00     0.040 C 
HETATM    8  C8  UNL     1     -40.814   6.099   0.045  1.00 20.00     0.005 C 
HETATM    9  C9  UNL     1     -41.206   7.236  -0.890  1.00 20.00     0.005 C 
HETATM   10  N10 UNL     1     -43.414   3.900  -3.798  1.00 20.00    -0.248 NA
HETATM   11 CL11 UNL     1     -42.630   1.451  -4.101  1.00 20.00    -0.062 Cl
ENDROOT
TORSDOF 0
ENDMDL
MODEL 3
REMARK VINA RESULT:      -4.8      2.423      4.231
REMARK  0 active torsions:
REMARK  status: ('A' for Active; 'I' for Inactive)
ROOT
HETATM    1  C1  UNL     1     -34.513  15.057  -2.902  1.00 20.00     0.052 A 
HETATM    2  C2  UNL     1     -33.553  17.036  -4.511  1.00 20.00     0.126 A 
HETATM    3  C3  UNL     1     -34.305  16.327  -2.358  1.00 20.00    -0.047 A 
HETATM    4  C4  UNL     1     -33.794  17.345  -3.175  1.00 20.00    -0.034 A 
HETATM    5  C5  UNL     1     -34.228  14.860  -4.244  1.00 20.00     0.126 A 
HETATM    6  C6  UNL     1     -34.575  16.558  -0.892  1.00 20.00     0.039 C 
HETATM    7  C7  UNL     1     -33.567  18.741  -2.666  1.00 20.00     0.040 C 
HETATM    8  C8  UNL     1     -34.672  18.039  -0.527  1.00 20.00     0.005 C 
HETATM    9  C9  UNL     1     -33.516  18.820  -1.141  1.00 20.00     0.005 C 
HETATM   10  N10 UNL     1     -33.755  15.820  -5.065  1.00 20.00    -0.248 NA
HETATM   11 CL11 UNL     1     -34.461  13.329  -4.983  1.00 20.00    -0.062 Cl
ENDROOT
TORSDOF 0
ENDMDL
MODEL 4
REMARK VINA RESULT:      -4.5      2.690      3.520
REMARK  0 active torsions:
REMARK  status: ('A' for Active; 'I' for Inactive)
ROOT
HETATM    1  C1  UNL     1     -34.764  16.339  -6.769  1.00 20.00     0.052 A 
HETATM    2  C2  UNL     1     -33.349  17.296  -4.645  1.00 20.00     0.126 A 
HETATM    3  C3  UNL     1     -34.443  15.468  -5.724  1.00 20.00    -0.047 A 
HETATM    4  C4  UNL     1     -33.700  15.949  -4.638  1.00 20.00    -0.034 A 
HETATM    5  C5  UNL     1     -34.353  17.659  -6.677  1.00 20.00     0.126 A 
HETATM    6  C6  UNL     1     -34.850  14.018  -5.816  1.00 20.00     0.039 C 
HETATM    7  C7  UNL     1     -33.339  15.078  -3.467  1.00 20.00     0.040 C 
HETATM    8  C8  UNL     1     -34.778  13.289  -4.475  1.00 20.00     0.005 C 
HETATM    9  C9  UNL     1     -33.458  13.586  -3.773  1.00 20.00     0.005 C 
HETATM   10  N10 UNL     1     -33.654  18.162  -5.638  1.00 20.00    -0.248 NA
HETATM   11 CL11 UNL     1     -34.712  18.787  -7.918  1.00 20.00    -0.062 Cl
ENDROOT
TORSDOF 0
ENDMDL
MODEL 5
REMARK VINA RESULT:      -4.5      2.564      4.720
REMARK  0 active torsions:
REMARK  status: ('A' for Active; 'I' for Inactive)
ROOT
HETATM    1  C1  UNL     1     -33.742  17.155  -4.555  1.00 20.00     0.052 A 
HETATM    2  C2  UNL     1     -34.774  15.163  -3.006  1.00 20.00     0.126 A 
HETATM    3  C3  UNL     1     -33.878  17.371  -3.181  1.00 20.00    -0.047 A 
HETATM    4  C4  UNL     1     -34.425  16.357  -2.381  1.00 20.00    -0.034 A 
HETATM    5  C5  UNL     1     -34.132  15.930  -5.072  1.00 20.00     0.126 A 
HETATM    6  C6  UNL     1     -33.492  18.707  -2.599  1.00 20.00     0.039 C 
HETATM    7  C7  UNL     1     -34.580  16.508  -0.894  1.00 20.00     0.040 C 
HETATM    8  C8  UNL     1     -33.333  18.677  -1.079  1.00 20.00     0.005 C 
HETATM    9  C9  UNL     1     -34.514  17.963  -0.431  1.00 20.00     0.005 C 
HETATM   10  N10 UNL     1     -34.643  14.925  -4.331  1.00 20.00    -0.248 NA
HETATM   11 CL11 UNL     1     -33.991  15.590  -6.747  1.00 20.00    -0.062 Cl
ENDROOT
TORSDOF 0
ENDMDL
MODEL 6
REMARK VINA RESULT:      -4.5      2.864      3.444
REMARK  0 active torsions:
REMARK  status: ('A' for Active; 'I' for Inactive)
ROOT
HETATM    1  C1  UNL     1     -37.020  14.456  -4.053  1.00 20.00     0.052 A 
HETATM    2  C2  UNL     1     -36.117  16.723  -2.839  1.00 20.00     0.126 A 
HETATM    3  C3  UNL     1     -35.648  14.599  -3.826  1.00 20.00    -0.047 A 
HETATM    4  C4  UNL     1     -35.176  15.770  -3.218  1.00 20.00    -0.034 A 
HETATM    5  C5  UNL     1     -37.866  15.474  -3.644  1.00 20.00     0.126 A 
HETATM    6  C6  UNL     1     -34.704  13.520  -4.292  1.00 20.00     0.039 C 
HETATM    7  C7  UNL     1     -33.718  15.983  -2.919  1.00 20.00     0.040 C 
HETATM    8  C8  UNL     1     -33.318  13.619  -3.655  1.00 20.00     0.005 C 
HETATM    9  C9  UNL     1     -32.803  15.052  -3.713  1.00 20.00     0.005 C 
HETATM   10  N10 UNL     1     -37.449  16.605  -3.039  1.00 20.00    -0.248 NA
HETATM   11 CL11 UNL     1     -39.561  15.369  -3.887  1.00 20.00    -0.062 Cl
ENDROOT
TORSDOF 0
ENDMDL
MODEL 7
REMARK VINA RESULT:      -4.5      5.682      7.419
REMARK  0 active torsions:
REMARK  status: ('A' for Active; 'I' for Inactive)
ROOT
HETATM    1  C1  UNL     1     -31.500  19.078   3.159  1.00 20.00     0.052 A 
HETATM    2  C2  UNL     1     -34.074  18.262   3.529  1.00 20.00     0.126 A 
HETATM    3  C3  UNL     1     -32.299  18.836   2.037  1.00 20.00    -0.047 A 
HETATM    4  C4  UNL     1     -33.618  18.398   2.220  1.00 20.00    -0.034 A 
HETATM    5  C5  UNL     1     -32.056  18.900   4.415  1.00 20.00     0.126 A 
HETATM    6  C6  UNL     1     -31.707  18.991   0.659  1.00 20.00     0.039 C 
HETATM    7  C7  UNL     1     -34.542  18.141   1.064  1.00 20.00     0.040 C 
HETATM    8  C8  UNL     1     -32.764  19.068  -0.442  1.00 20.00     0.005 C 
HETATM    9  C9  UNL     1     -33.805  17.969  -0.264  1.00 20.00     0.005 C 
HETATM   10  N10 UNL     1     -33.326  18.500   4.630  1.00 20.00    -0.248 NA
HETATM   11 CL11 UNL     1     -31.139  19.181   5.838  1.00 20.00    -0.062 Cl
ENDROOT
TORSDOF 0
ENDMDL
MODEL 8
REMARK VINA RESULT:      -4.4     11.408     12.605
REMARK  0 active torsions:
REMARK  status: ('A' for Active; 'I' for Inactive)
ROOT
HETATM    1  C1  UNL     1     -33.180   6.628   2.471  1.00 20.00     0.052 A 
HETATM    2  C2  UNL     1     -32.259   7.553   4.863  1.00 20.00     0.126 A 
HETATM    3  C3  UNL     1     -33.717   6.102   3.649  1.00 20.00    -0.047 A 
HETATM    4  C4  UNL     1     -33.235   6.561   4.883  1.00 20.00    -0.034 A 
HETATM    5  C5  UNL     1     -32.204   7.606   2.570  1.00 20.00     0.126 A 
HETATM    6  C6  UNL     1     -34.757   5.013   3.568  1.00 20.00     0.039 C 
HETATM    7  C7  UNL     1     -33.782   6.060   6.191  1.00 20.00     0.040 C 
HETATM    8  C8  UNL     1     -35.515   4.809   4.880  1.00 20.00     0.005 C 
HETATM    9  C9  UNL     1     -34.546   4.744   6.055  1.00 20.00     0.005 C 
HETATM   10  N10 UNL     1     -31.730   8.085   3.738  1.00 20.00    -0.248 NA
HETATM   11 CL11 UNL     1     -31.501   8.300   1.168  1.00 20.00    -0.062 Cl
ENDROOT
TORSDOF 0
ENDMDL
MODEL 9
REMARK VINA RESULT:      -4.4      2.635      3.364
REMARK  0 active torsions:
REMARK  status: ('A' for Active; 'I' for Inactive)
ROOT
HETATM    1  C1  UNL     1     -36.082  16.794  -2.802  1.00 20.00     0.052 A 
HETATM    2  C2  UNL     1     -37.064  14.569  -4.033  1.00 20.00     0.126 A 
HETATM    3  C3  UNL     1     -35.190  15.794  -3.201  1.00 20.00    -0.047 A 
HETATM    4  C4  UNL     1     -35.691  14.640  -3.818  1.00 20.00    -0.034 A 
HETATM    5  C5  UNL     1     -37.432  16.613  -3.057  1.00 20.00     0.126 A 
HETATM    6  C6  UNL     1     -33.720  15.952  -2.905  1.00 20.00     0.039 C 
HETATM    7  C7  UNL     1     -34.791  13.534  -4.296  1.00 20.00     0.040 C 
HETATM    8  C8  UNL     1     -32.840  14.999  -3.713  1.00 20.00     0.005 C 
HETATM    9  C9  UNL     1     -33.400  13.582  -3.665  1.00 20.00     0.005 C 
HETATM   10  N10 UNL     1     -37.947  15.525  -3.666  1.00 20.00    -0.248 NA
HETATM   11 CL11 UNL     1     -38.586  17.797  -2.599  1.00 20.00    -0.062 Cl
ENDROOT
TORSDOF 0
ENDMDL
