MODEL 1
REMARK VINA RESULT:      -3.6      0.000      0.000
REMARK  2 active torsions:
REMARK  status: ('A' for Active; 'I' for Inactive)
REMARK    1  A    between atoms: C5_5  and  C6_6 
REMARK    2  A    between atoms: C6_6  and  C7_7 
ROOT
HETATM    1  C1  UNL     1     -36.693  14.768  -3.861  1.00 20.00     0.012 C 
HETATM    2  C6  UNL     1     -35.321  15.040  -3.214  1.00 20.00     0.002 C 
ENDROOT
BRANCH   2   3
HETATM    3  C5  UNL     1     -35.306  16.452  -2.588  1.00 20.00     0.119 C 
HETATM    4 CL8  UNL     1     -34.629  16.453  -0.934  1.00 20.00    -0.130 Cl
ENDBRANCH   2   3
BRANCH   2   5
HETATM    5  C7  UNL     1     -34.114  14.806  -4.203  1.00 20.00    -0.047 C 
HETATM    6  C2  UNL     1     -34.636  14.416  -5.605  1.00 20.00     0.015 C 
HETATM    7  C3  UNL     1     -33.228  13.639  -3.713  1.00 20.00     0.015 C 
HETATM    8  C4  UNL     1     -33.226  16.056  -4.352  1.00 20.00     0.015 C 
ENDBRANCH   2   5
TORSDOF 2
ENDMDL
MODEL 2
REMARK VINA RESULT:      -3.6      1.016      2.446
REMARK  2 active torsions:
REMARK  status: ('A' for Active; 'I' for Inactive)
REMARK    1  A    between atoms: C5_5  and  C6_6 
REMARK    2  A    between atoms: C6_6  and  C7_7 
ROOT
HETATM    1  C1  UNL     1     -33.433  16.850  -5.186  1.00 20.00     0.012 C 
HETATM    2  C6  UNL     1     -34.284  16.124  -4.126  1.00 20.00     0.002 C 
ENDROOT
BRANCH   2   3
HETATM    3  C5  UNL     1     -33.557  16.146  -2.763  1.00 20.00     0.119 C 
HETATM    4 CL8  UNL     1     -34.695  16.283  -1.391  1.00 20.00    -0.130 Cl
ENDBRANCH   2   3
BRANCH   2   5
HETATM    5  C7  UNL     1     -34.703  14.666  -4.563  1.00 20.00    -0.047 C 
HETATM    6  C2  UNL     1     -33.729  13.625  -3.964  1.00 20.00     0.015 C 
HETATM    7  C3  UNL     1     -34.631  14.516  -6.099  1.00 20.00     0.015 C 
HETATM    8  C4  UNL     1     -36.130  14.306  -4.109  1.00 20.00     0.015 C 
ENDBRANCH   2   5
TORSDOF 2
ENDMDL
MODEL 3
REMARK VINA RESULT:      -3.5      1.030      2.113
REMARK  2 active torsions:
REMARK  status: ('A' for Active; 'I' for Inactive)
REMARK    1  A    between atoms: C5_5  and  C6_6 
REMARK    2  A    between atoms: C6_6  and  C7_7 
ROOT
HETATM    1  C1  UNL     1     -33.475  16.855  -5.165  1.00 20.00     0.012 C 
HETATM    2  C6  UNL     1     -34.306  16.078  -4.125  1.00 20.00     0.002 C 
ENDROOT
BRANCH   2   3
HETATM    3  C5  UNL     1     -33.577  16.079  -2.763  1.00 20.00     0.119 C 
HETATM    4 CL8  UNL     1     -34.707  16.267  -1.391  1.00 20.00    -0.130 Cl
ENDBRANCH   2   3
BRANCH   2   5
HETATM    5  C7  UNL     1     -34.691  14.624  -4.603  1.00 20.00    -0.047 C 
HETATM    6  C2  UNL     1     -36.114  14.261  -4.121  1.00 20.00     0.015 C 
HETATM    7  C3  UNL     1     -33.730  13.579  -3.994  1.00 20.00     0.015 C 
HETATM    8  C4  UNL     1     -34.651  14.480  -6.136  1.00 20.00     0.015 C 
ENDBRANCH   2   5
TORSDOF 2
ENDMDL
MODEL 4
REMARK VINA RESULT:      -3.5     11.797     12.587
REMARK  2 active torsions:
REMARK  status: ('A' for Active; 'I' for Inactive)
REMARK    1  A    between atoms: C5_5  and  C6_6 
REMARK    2  A    between atoms: C6_6  and  C7_7 
ROOT
HETATM    1  C1  UNL     1     -32.658   6.718   4.070  1.00 20.00     0.012 C 
HETATM    2  C6  UNL     1     -34.067   6.498   4.653  1.00 20.00     0.002 C 
ENDROOT
BRANCH   2   3
HETATM    3  C5  UNL     1     -33.971   6.220   6.169  1.00 20.00     0.119 C 
HETATM    4 CL8  UNL     1     -33.238   7.583   7.063  1.00 20.00    -0.130 Cl
ENDBRANCH   2   3
BRANCH   2   5
HETATM    5  C7  UNL     1     -34.887   5.388   3.887  1.00 20.00    -0.047 C 
HETATM    6  C2  UNL     1     -35.043   4.130   4.771  1.00 20.00     0.015 C 
HETATM    7  C3  UNL     1     -34.144   4.948   2.606  1.00 20.00     0.015 C 
HETATM    8  C4  UNL     1     -36.294   5.870   3.486  1.00 20.00     0.015 C 
ENDBRANCH   2   5
TORSDOF 2
ENDMDL
MODEL 5
REMARK VINA RESULT:      -3.5      2.258      3.316
REMARK  2 active torsions:
REMARK  status: ('A' for Active; 'I' for Inactive)
REMARK    1  A    between atoms: C5_5  and  C6_6 
REMARK    2  A    between atoms: C6_6  and  C7_7 
ROOT
HETATM    1  C1  UNL     1     -33.253  13.892  -3.715  1.00 20.00     0.012 C 
HETATM    2  C6  UNL     1     -34.650  14.378  -3.282  1.00 20.00     0.002 C 
ENDROOT
BRANCH   2   3
HETATM    3  C5  UNL     1     -35.708  13.919  -4.309  1.00 20.00     0.119 C 
HETATM    4 CL8  UNL     1     -35.089  13.963  -5.985  1.00 20.00    -0.130 Cl
ENDBRANCH   2   3
BRANCH   2   5
HETATM    5  C7  UNL     1     -34.707  15.932  -3.010  1.00 20.00    -0.047 C 
HETATM    6  C2  UNL     1     -36.050  16.515  -3.507  1.00 20.00     0.015 C 
HETATM    7  C3  UNL     1     -33.587  16.662  -3.784  1.00 20.00     0.015 C 
HETATM    8  C4  UNL     1     -34.561  16.271  -1.515  1.00 20.00     0.015 C 
ENDBRANCH   2   5
TORSDOF 2
ENDMDL
MODEL 6
REMARK VINA RESULT:      -3.5     12.242     13.314
REMARK  2 active torsions:
REMARK  status: ('A' for Active; 'I' for Inactive)
REMARK    1  A    between atoms: C5_5  and  C6_6 
REMARK    2  A    between atoms: C6_6  and  C7_7 
ROOT
HETATM    1  C1  UNL     1     -33.673   7.007   6.495  1.00 20.00     0.012 C 
HETATM    2  C6  UNL     1     -33.546   5.989   5.345  1.00 20.00     0.002 C 
ENDROOT
BRANCH   2   3
HETATM    3  C5  UNL     1     -33.428   6.732   3.995  1.00 20.00     0.119 C 
HETATM    4 CL8  UNL     1     -32.142   6.052   2.958  1.00 20.00    -0.130 Cl
ENDBRANCH   2   3
BRANCH   2   5
HETATM    5  C7  UNL     1     -34.700   4.913   5.342  1.00 20.00    -0.047 C 
HETATM    6  C2  UNL     1     -35.465   4.943   6.685  1.00 20.00     0.015 C 
HETATM    7  C3  UNL     1     -34.118   3.490   5.189  1.00 20.00     0.015 C 
HETATM    8  C4  UNL     1     -35.715   5.144   4.206  1.00 20.00     0.015 C 
ENDBRANCH   2   5
TORSDOF 2
ENDMDL
MODEL 7
REMARK VINA RESULT:      -3.5     12.258     13.352
REMARK  2 active torsions:
REMARK  status: ('A' for Active; 'I' for Inactive)
REMARK    1  A    between atoms: C5_5  and  C6_6 
REMARK    2  A    between atoms: C6_6  and  C7_7 
ROOT
HETATM    1  C1  UNL     1     -33.663   7.018   6.492  1.00 20.00     0.012 C 
HETATM    2  C6  UNL     1     -33.552   5.984   5.354  1.00 20.00     0.002 C 
ENDROOT
BRANCH   2   3
HETATM    3  C5  UNL     1     -33.466   6.708   3.992  1.00 20.00     0.119 C 
HETATM    4 CL8  UNL     1     -32.148   6.069   2.968  1.00 20.00    -0.130 Cl
ENDBRANCH   2   3
BRANCH   2   5
HETATM    5  C7  UNL     1     -34.698   4.900   5.390  1.00 20.00    -0.047 C 
HETATM    6  C2  UNL     1     -34.103   3.485   5.203  1.00 20.00     0.015 C 
HETATM    7  C3  UNL     1     -35.696   5.124   4.232  1.00 20.00     0.015 C 
HETATM    8  C4  UNL     1     -35.483   4.919   6.714  1.00 20.00     0.015 C 
ENDBRANCH   2   5
TORSDOF 2
ENDMDL
MODEL 8
REMARK VINA RESULT:      -3.4     11.575     12.560
REMARK  2 active torsions:
REMARK  status: ('A' for Active; 'I' for Inactive)
REMARK    1  A    between atoms: C5_5  and  C6_6 
REMARK    2  A    between atoms: C6_6  and  C7_7 
ROOT
HETATM    1  C1  UNL     1     -34.912   3.990   5.191  1.00 20.00     0.012 C 
HETATM    2  C6  UNL     1     -33.983   5.218   5.238  1.00 20.00     0.002 C 
ENDROOT
BRANCH   2   3
HETATM    3  C5  UNL     1     -34.447   6.187   6.348  1.00 20.00     0.119 C 
HETATM    4 CL8  UNL     1     -33.149   7.304   6.858  1.00 20.00    -0.130 Cl
ENDBRANCH   2   3
BRANCH   2   5
HETATM    5  C7  UNL     1     -33.829   5.932   3.839  1.00 20.00    -0.047 C 
HETATM    6  C2  UNL     1     -34.643   7.246   3.815  1.00 20.00     0.015 C 
HETATM    7  C3  UNL     1     -34.386   5.038   2.708  1.00 20.00     0.015 C 
HETATM    8  C4  UNL     1     -32.363   6.269   3.510  1.00 20.00     0.015 C 
ENDBRANCH   2   5
TORSDOF 2
ENDMDL
MODEL 9
REMARK VINA RESULT:      -3.4      2.520      3.070
REMARK  2 active torsions:
REMARK  status: ('A' for Active; 'I' for Inactive)
REMARK    1  A    between atoms: C5_5  and  C6_6 
REMARK    2  A    between atoms: C6_6  and  C7_7 
ROOT
HETATM    1  C1  UNL     1     -34.929  13.312  -4.229  1.00 20.00     0.012 C 
HETATM    2  C6  UNL     1     -35.081  14.844  -4.163  1.00 20.00     0.002 C 
ENDROOT
BRANCH   2   3
HETATM    3  C5  UNL     1     -35.665  15.372  -5.492  1.00 20.00     0.119 C 
HETATM    4 CL8  UNL     1     -35.300  14.292  -6.869  1.00 20.00    -0.130 Cl
ENDBRANCH   2   3
BRANCH   2   5
HETATM    5  C7  UNL     1     -33.746  15.581  -3.755  1.00 20.00    -0.047 C 
HETATM    6  C2  UNL     1     -32.598  14.559  -3.590  1.00 20.00     0.015 C 
HETATM    7  C3  UNL     1     -33.912  16.293  -2.395  1.00 20.00     0.015 C 
HETATM    8  C4  UNL     1     -33.312  16.627  -4.798  1.00 20.00     0.015 C 
ENDBRANCH   2   5
TORSDOF 2
ENDMDL
