MODEL 1
REMARK VINA RESULT:      -5.0      0.000      0.000
REMARK  2 active torsions:
REMARK  status: ('A' for Active; 'I' for Inactive)
REMARK    1  A    between atoms: C3_3  and  C4_4 
REMARK    2  A    between atoms: C3_3  and  C5_5 
ROOT
HETATM    1  C3  UNL     1     -33.722   6.264   4.500  1.00 20.00     0.157 C 
ENDROOT
BRANCH   1   2
HETATM    2  C4  UNL     1     -34.791   5.183   4.629  1.00 20.00     0.245 C 
HETATM    3  C1  UNL     1     -35.103   4.839   6.071  1.00 20.00     0.090 C 
HETATM    4  F6  UNL     1     -34.387   4.056   3.990  1.00 20.00    -0.207 F 
HETATM    5  F7  UNL     1     -35.934   5.590   4.021  1.00 20.00    -0.207 F 
ENDBRANCH   1   2
BRANCH   1   6
HETATM    6  C5  UNL     1     -32.953   6.164   3.187  1.00 20.00     0.245 C 
HETATM    7  C2  UNL     1     -32.477   7.513   2.684  1.00 20.00     0.090 C 
HETATM    8  F8  UNL     1     -31.875   5.355   3.345  1.00 20.00    -0.207 F 
HETATM    9  F9  UNL     1     -33.734   5.597   2.236  1.00 20.00    -0.207 F 
ENDBRANCH   1   6
TORSDOF 2
ENDMDL
MODEL 2
REMARK VINA RESULT:      -5.0      0.016      3.490
REMARK  2 active torsions:
REMARK  status: ('A' for Active; 'I' for Inactive)
REMARK    1  A    between atoms: C3_3  and  C4_4 
REMARK    2  A    between atoms: C3_3  and  C5_5 
ROOT
HETATM    1  C3  UNL     1     -33.732   6.278   4.488  1.00 20.00     0.157 C 
ENDROOT
BRANCH   1   2
HETATM    2  C4  UNL     1     -32.947   6.174   3.184  1.00 20.00     0.245 C 
HETATM    3  C1  UNL     1     -32.469   7.520   2.681  1.00 20.00     0.090 C 
HETATM    4  F6  UNL     1     -33.718   5.599   2.227  1.00 20.00    -0.207 F 
HETATM    5  F7  UNL     1     -31.871   5.366   3.358  1.00 20.00    -0.207 F 
ENDBRANCH   1   2
BRANCH   1   6
HETATM    6  C5  UNL     1     -34.789   5.185   4.618  1.00 20.00     0.245 C 
HETATM    7  C2  UNL     1     -35.092   4.833   6.061  1.00 20.00     0.090 C 
HETATM    8  F8  UNL     1     -35.939   5.582   4.017  1.00 20.00    -0.207 F 
HETATM    9  F9  UNL     1     -34.376   4.065   3.975  1.00 20.00    -0.207 F 
ENDBRANCH   1   6
TORSDOF 2
ENDMDL
MODEL 3
REMARK VINA RESULT:      -5.0      1.069      1.280
REMARK  2 active torsions:
REMARK  status: ('A' for Active; 'I' for Inactive)
REMARK    1  A    between atoms: C3_3  and  C4_4 
REMARK    2  A    between atoms: C3_3  and  C5_5 
ROOT
HETATM    1  C3  UNL     1     -33.671   5.446   4.839  1.00 20.00     0.157 C 
ENDROOT
BRANCH   1   2
HETATM    2  C4  UNL     1     -34.965   4.665   5.054  1.00 20.00     0.245 C 
HETATM    3  C1  UNL     1     -35.315   4.508   6.519  1.00 20.00     0.090 C 
HETATM    4  F6  UNL     1     -34.857   3.432   4.498  1.00 20.00    -0.207 F 
HETATM    5  F7  UNL     1     -35.991   5.291   4.425  1.00 20.00    -0.207 F 
ENDBRANCH   1   2
BRANCH   1   6
HETATM    6  C5  UNL     1     -33.634   6.142   3.482  1.00 20.00     0.245 C 
HETATM    7  C2  UNL     1     -32.241   6.596   3.096  1.00 20.00     0.090 C 
HETATM    8  F8  UNL     1     -34.100   5.305   2.521  1.00 20.00    -0.207 F 
HETATM    9  F9  UNL     1     -34.455   7.222   3.495  1.00 20.00    -0.207 F 
ENDBRANCH   1   6
TORSDOF 2
ENDMDL
MODEL 4
REMARK VINA RESULT:      -5.0      1.069      3.515
REMARK  2 active torsions:
REMARK  status: ('A' for Active; 'I' for Inactive)
REMARK    1  A    between atoms: C3_3  and  C4_4 
REMARK    2  A    between atoms: C3_3  and  C5_5 
ROOT
HETATM    1  C3  UNL     1     -33.677   5.456   4.847  1.00 20.00     0.157 C 
ENDROOT
BRANCH   1   2
HETATM    2  C4  UNL     1     -33.632   6.145   3.486  1.00 20.00     0.245 C 
HETATM    3  C1  UNL     1     -32.235   6.589   3.103  1.00 20.00     0.090 C 
HETATM    4  F6  UNL     1     -34.447   7.229   3.491  1.00 20.00    -0.207 F 
HETATM    5  F7  UNL     1     -34.101   5.306   2.529  1.00 20.00    -0.207 F 
ENDBRANCH   1   2
BRANCH   1   6
HETATM    6  C5  UNL     1     -34.965   4.665   5.053  1.00 20.00     0.245 C 
HETATM    7  C2  UNL     1     -35.320   4.495   6.516  1.00 20.00     0.090 C 
HETATM    8  F8  UNL     1     -35.995   5.289   4.427  1.00 20.00    -0.207 F 
HETATM    9  F9  UNL     1     -34.848   3.437   4.488  1.00 20.00    -0.207 F 
ENDBRANCH   1   6
TORSDOF 2
ENDMDL
MODEL 5
REMARK VINA RESULT:      -4.6      1.118      3.440
REMARK  2 active torsions:
REMARK  status: ('A' for Active; 'I' for Inactive)
REMARK    1  A    between atoms: C3_3  and  C4_4 
REMARK    2  A    between atoms: C3_3  and  C5_5 
ROOT
HETATM    1  C3  UNL     1     -33.489   6.616   4.623  1.00 20.00     0.157 C 
ENDROOT
BRANCH   1   2
HETATM    2  C4  UNL     1     -32.786   6.288   3.309  1.00 20.00     0.245 C 
HETATM    3  C1  UNL     1     -32.316   7.526   2.573  1.00 20.00     0.090 C 
HETATM    4  F6  UNL     1     -33.623   5.592   2.499  1.00 20.00    -0.207 F 
HETATM    5  F7  UNL     1     -31.716   5.489   3.547  1.00 20.00    -0.207 F 
ENDBRANCH   1   2
BRANCH   1   6
HETATM    6  C5  UNL     1     -34.402   5.486   5.090  1.00 20.00     0.245 C 
HETATM    7  C2  UNL     1     -35.583   5.270   4.165  1.00 20.00     0.090 C 
HETATM    8  F8  UNL     1     -33.698   4.329   5.172  1.00 20.00    -0.207 F 
HETATM    9  F9  UNL     1     -34.868   5.754   6.335  1.00 20.00    -0.207 F 
ENDBRANCH   1   6
TORSDOF 2
ENDMDL
MODEL 6
REMARK VINA RESULT:      -4.6      1.143      1.562
REMARK  2 active torsions:
REMARK  status: ('A' for Active; 'I' for Inactive)
REMARK    1  A    between atoms: C3_3  and  C4_4 
REMARK    2  A    between atoms: C3_3  and  C5_5 
ROOT
HETATM    1  C3  UNL     1     -33.501   6.603   4.669  1.00 20.00     0.157 C 
ENDROOT
BRANCH   1   2
HETATM    2  C4  UNL     1     -34.396   5.470   5.162  1.00 20.00     0.245 C 
HETATM    3  C1  UNL     1     -35.565   5.203   4.237  1.00 20.00     0.090 C 
HETATM    4  F6  UNL     1     -34.876   5.765   6.396  1.00 20.00    -0.207 F 
HETATM    5  F7  UNL     1     -33.670   4.331   5.287  1.00 20.00    -0.207 F 
ENDBRANCH   1   2
BRANCH   1   6
HETATM    6  C5  UNL     1     -32.820   6.270   3.346  1.00 20.00     0.245 C 
HETATM    7  C2  UNL     1     -32.355   7.505   2.600  1.00 20.00     0.090 C 
HETATM    8  F8  UNL     1     -31.748   5.468   3.568  1.00 20.00    -0.207 F 
HETATM    9  F9  UNL     1     -33.671   5.576   2.550  1.00 20.00    -0.207 F 
ENDBRANCH   1   6
TORSDOF 2
ENDMDL
MODEL 7
REMARK VINA RESULT:      -4.5      1.744      3.466
REMARK  2 active torsions:
REMARK  status: ('A' for Active; 'I' for Inactive)
REMARK    1  A    between atoms: C3_3  and  C4_4 
REMARK    2  A    between atoms: C3_3  and  C5_5 
ROOT
HETATM    1  C3  UNL     1     -35.203   4.987   4.537  1.00 20.00     0.157 C 
ENDROOT
BRANCH   1   2
HETATM    2  C4  UNL     1     -34.192   5.748   3.684  1.00 20.00     0.245 C 
HETATM    3  C1  UNL     1     -34.195   5.300   2.237  1.00 20.00     0.090 C 
HETATM    4  F6  UNL     1     -32.945   5.582   4.189  1.00 20.00    -0.207 F 
HETATM    5  F7  UNL     1     -34.460   7.078   3.729  1.00 20.00    -0.207 F 
ENDBRANCH   1   2
BRANCH   1   6
HETATM    6  C5  UNL     1     -34.739   4.829   5.982  1.00 20.00     0.245 C 
HETATM    7  C2  UNL     1     -34.260   6.132   6.589  1.00 20.00     0.090 C 
HETATM    8  F8  UNL     1     -35.754   4.344   6.741  1.00 20.00    -0.207 F 
HETATM    9  F9  UNL     1     -33.732   3.923   6.046  1.00 20.00    -0.207 F 
ENDBRANCH   1   6
TORSDOF 2
ENDMDL
MODEL 8
REMARK VINA RESULT:      -4.3      1.992      2.570
REMARK  2 active torsions:
REMARK  status: ('A' for Active; 'I' for Inactive)
REMARK    1  A    between atoms: C3_3  and  C4_4 
REMARK    2  A    between atoms: C3_3  and  C5_5 
ROOT
HETATM    1  C3  UNL     1     -34.063   6.130   4.646  1.00 20.00     0.157 C 
ENDROOT
BRANCH   1   2
HETATM    2  C4  UNL     1     -34.224   5.843   6.136  1.00 20.00     0.245 C 
HETATM    3  C1  UNL     1     -33.824   7.018   7.004  1.00 20.00     0.090 C 
HETATM    4  F6  UNL     1     -33.470   4.769   6.482  1.00 20.00    -0.207 F 
HETATM    5  F7  UNL     1     -35.514   5.520   6.406  1.00 20.00    -0.207 F 
ENDBRANCH   1   2
BRANCH   1   6
HETATM    6  C5  UNL     1     -34.905   5.197   3.782  1.00 20.00     0.245 C 
HETATM    7  C2  UNL     1     -34.336   5.018   2.388  1.00 20.00     0.090 C 
HETATM    8  F8  UNL     1     -34.997   3.979   4.372  1.00 20.00    -0.207 F 
HETATM    9  F9  UNL     1     -36.168   5.679   3.677  1.00 20.00    -0.207 F 
ENDBRANCH   1   6
TORSDOF 2
ENDMDL
MODEL 9
REMARK VINA RESULT:      -3.9     11.439     12.302
REMARK  2 active torsions:
REMARK  status: ('A' for Active; 'I' for Inactive)
REMARK    1  A    between atoms: C3_3  and  C4_4 
REMARK    2  A    between atoms: C3_3  and  C5_5 
ROOT
HETATM    1  C3  UNL     1     -34.831  14.828  -3.022  1.00 20.00     0.157 C 
ENDROOT
BRANCH   1   2
HETATM    2  C4  UNL     1     -33.994  14.215  -4.141  1.00 20.00     0.245 C 
HETATM    3  C1  UNL     1     -34.748  13.159  -4.922  1.00 20.00     0.090 C 
HETATM    4  F6  UNL     1     -32.872  13.655  -3.623  1.00 20.00    -0.207 F 
HETATM    5  F7  UNL     1     -33.589  15.185  -4.998  1.00 20.00    -0.207 F 
ENDBRANCH   1   2
BRANCH   1   6
HETATM    6  C5  UNL     1     -34.251  16.147  -2.521  1.00 20.00     0.245 C 
HETATM    7  C2  UNL     1     -34.694  16.483  -1.111  1.00 20.00     0.090 C 
HETATM    8  F8  UNL     1     -32.895  16.094  -2.547  1.00 20.00    -0.207 F 
HETATM    9  F9  UNL     1     -34.621  17.157  -3.346  1.00 20.00    -0.207 F 
ENDBRANCH   1   6
TORSDOF 2
ENDMDL
