MODEL 1
REMARK VINA RESULT:      -5.1      0.000      0.000
REMARK  0 active torsions:
REMARK  status: ('A' for Active; 'I' for Inactive)
ROOT
HETATM    1  C1  UNL     1     -33.276  14.960  -3.485  1.00 20.00     0.001 C 
HETATM    2  C2  UNL     1     -33.799  13.754  -3.808  1.00 20.00     0.001 C 
HETATM    3  C3  UNL     1     -34.552  16.678  -7.564  1.00 20.00     0.001 C 
HETATM    4  C4  UNL     1     -35.120  15.364  -7.918  1.00 20.00     0.001 C 
HETATM    5  C5  UNL     1     -34.220  17.186  -6.355  1.00 20.00     0.009 C 
HETATM    6  C6  UNL     1     -35.459  14.319  -7.127  1.00 20.00     0.009 C 
HETATM    7  C7  UNL     1     -33.325  16.145  -4.341  1.00 20.00     0.009 C 
HETATM    8  C8  UNL     1     -34.490  13.456  -5.063  1.00 20.00     0.009 C 
HETATM    9  C9  UNL     1     -34.396  16.459  -5.104  1.00 20.00    -0.039 C 
HETATM   10  C10 UNL     1     -35.316  14.334  -5.674  1.00 20.00    -0.039 C 
HETATM   11  C11 UNL     1     -35.670  15.667  -5.081  1.00 20.00     0.123 C 
HETATM   12 BR12 UNL     1     -36.554  15.585  -3.353  1.00 20.00    -0.081 Br
ENDROOT
TORSDOF 0
ENDMDL
MODEL 2
REMARK VINA RESULT:      -5.1      0.710      3.782
REMARK  0 active torsions:
REMARK  status: ('A' for Active; 'I' for Inactive)
ROOT
HETATM    1  C1  UNL     1     -35.316  15.228  -7.831  1.00 20.00     0.001 C 
HETATM    2  C2  UNL     1     -34.845  16.476  -7.607  1.00 20.00     0.001 C 
HETATM    3  C3  UNL     1     -33.505  13.765  -3.856  1.00 20.00     0.001 C 
HETATM    4  C4  UNL     1     -32.990  15.126  -3.613  1.00 20.00     0.001 C 
HETATM    5  C5  UNL     1     -34.472  13.338  -4.699  1.00 20.00     0.009 C 
HETATM    6  C6  UNL     1     -33.349  16.306  -4.169  1.00 20.00     0.009 C 
HETATM    7  C7  UNL     1     -35.157  14.101  -6.911  1.00 20.00     0.009 C 
HETATM    8  C8  UNL     1     -34.106  16.886  -6.413  1.00 20.00     0.009 C 
HETATM    9  C9  UNL     1     -35.230  14.231  -5.568  1.00 20.00    -0.039 C 
HETATM   10  C10 UNL     1     -34.400  16.432  -5.174  1.00 20.00    -0.039 C 
HETATM   11  C11 UNL     1     -35.566  15.529  -4.894  1.00 20.00     0.123 C 
HETATM   12 BR12 UNL     1     -37.303  16.267  -5.356  1.00 20.00    -0.081 Br
ENDROOT
TORSDOF 0
ENDMDL
MODEL 3
REMARK VINA RESULT:      -5.1      2.388      3.770
REMARK  0 active torsions:
REMARK  status: ('A' for Active; 'I' for Inactive)
ROOT
HETATM    1  C1  UNL     1     -35.614  18.069  -3.951  1.00 20.00     0.001 C 
HETATM    2  C2  UNL     1     -34.264  18.156  -3.979  1.00 20.00     0.001 C 
HETATM    3  C3  UNL     1     -35.387  13.475  -4.210  1.00 20.00     0.001 C 
HETATM    4  C4  UNL     1     -33.915  13.570  -4.243  1.00 20.00     0.001 C 
HETATM    5  C5  UNL     1     -36.309  14.383  -3.816  1.00 20.00     0.009 C 
HETATM    6  C6  UNL     1     -33.099  14.589  -3.887  1.00 20.00     0.009 C 
HETATM    7  C7  UNL     1     -36.368  16.815  -3.967  1.00 20.00     0.009 C 
HETATM    8  C8  UNL     1     -33.356  17.009  -4.030  1.00 20.00     0.009 C 
HETATM    9  C9  UNL     1     -35.966  15.705  -3.308  1.00 20.00    -0.039 C 
HETATM   10  C10 UNL     1     -33.586  15.859  -3.358  1.00 20.00    -0.039 C 
HETATM   11  C11 UNL     1     -34.750  15.679  -2.427  1.00 20.00     0.123 C 
HETATM   12 BR12 UNL     1     -34.798  16.912  -0.927  1.00 20.00    -0.081 Br
ENDROOT
TORSDOF 0
ENDMDL
MODEL 4
REMARK VINA RESULT:      -5.1      1.397      3.177
REMARK  0 active torsions:
REMARK  status: ('A' for Active; 'I' for Inactive)
ROOT
HETATM    1  C1  UNL     1     -34.643  13.318  -4.667  1.00 20.00     0.001 C 
HETATM    2  C2  UNL     1     -34.884  13.947  -5.840  1.00 20.00     0.001 C 
HETATM    3  C3  UNL     1     -33.779  17.348  -2.609  1.00 20.00     0.001 C 
HETATM    4  C4  UNL     1     -34.039  18.034  -3.889  1.00 20.00     0.001 C 
HETATM    5  C5  UNL     1     -34.117  16.102  -2.205  1.00 20.00     0.009 C 
HETATM    6  C6  UNL     1     -34.685  17.600  -4.996  1.00 20.00     0.009 C 
HETATM    7  C7  UNL     1     -34.306  13.994  -3.413  1.00 20.00     0.009 C 
HETATM    8  C8  UNL     1     -34.842  15.398  -6.031  1.00 20.00     0.009 C 
HETATM    9  C9  UNL     1     -34.864  15.165  -3.035  1.00 20.00    -0.039 C 
HETATM   10  C10 UNL     1     -35.288  16.275  -5.104  1.00 20.00    -0.039 C 
HETATM   11  C11 UNL     1     -35.945  15.843  -3.825  1.00 20.00     0.123 C 
HETATM   12 BR12 UNL     1     -37.571  14.802  -4.051  1.00 20.00    -0.081 Br
ENDROOT
TORSDOF 0
ENDMDL
MODEL 5
REMARK VINA RESULT:      -4.9      1.885      2.025
REMARK  0 active torsions:
REMARK  status: ('A' for Active; 'I' for Inactive)
ROOT
HETATM    1  C1  UNL     1     -32.723  15.126  -3.985  1.00 20.00     0.001 C 
HETATM    2  C2  UNL     1     -33.394  14.029  -3.566  1.00 20.00     0.001 C 
HETATM    3  C3  UNL     1     -36.567  16.839  -5.858  1.00 20.00     0.001 C 
HETATM    4  C4  UNL     1     -37.298  15.642  -5.404  1.00 20.00     0.001 C 
HETATM    5  C5  UNL     1     -35.376  17.337  -5.455  1.00 20.00     0.009 C 
HETATM    6  C6  UNL     1     -36.972  14.726  -4.462  1.00 20.00     0.009 C 
HETATM    7  C7  UNL     1     -33.329  16.252  -4.697  1.00 20.00     0.009 C 
HETATM    8  C8  UNL     1     -34.826  13.803  -3.762  1.00 20.00     0.009 C 
HETATM    9  C9  UNL     1     -34.563  16.725  -4.411  1.00 20.00    -0.039 C 
HETATM   10  C10 UNL     1     -35.745  14.790  -3.673  1.00 20.00    -0.039 C 
HETATM   11  C11 UNL     1     -35.395  16.196  -3.280  1.00 20.00     0.123 C 
HETATM   12 BR12 UNL     1     -34.595  16.378  -1.518  1.00 20.00    -0.081 Br
ENDROOT
TORSDOF 0
ENDMDL
MODEL 6
REMARK VINA RESULT:      -4.9      1.823      3.372
REMARK  0 active torsions:
REMARK  status: ('A' for Active; 'I' for Inactive)
ROOT
HETATM    1  C1  UNL     1     -36.526  17.031  -5.582  1.00 20.00     0.001 C 
HETATM    2  C2  UNL     1     -37.262  15.914  -5.383  1.00 20.00     0.001 C 
HETATM    3  C3  UNL     1     -32.814  14.986  -3.778  1.00 20.00     0.001 C 
HETATM    4  C4  UNL     1     -33.617  13.768  -3.558  1.00 20.00     0.001 C 
HETATM    5  C5  UNL     1     -33.044  16.046  -4.585  1.00 20.00     0.009 C 
HETATM    6  C6  UNL     1     -34.795  13.389  -4.106  1.00 20.00     0.009 C 
HETATM    7  C7  UNL     1     -35.103  17.160  -5.263  1.00 20.00     0.009 C 
HETATM    8  C8  UNL     1     -36.746  14.667  -4.817  1.00 20.00     0.009 C 
HETATM    9  C9  UNL     1     -34.214  16.158  -5.447  1.00 20.00    -0.039 C 
HETATM   10  C10 UNL     1     -35.512  14.189  -5.094  1.00 20.00    -0.039 C 
HETATM   11  C11 UNL     1     -34.586  14.847  -6.075  1.00 20.00     0.123 C 
HETATM   12 BR12 UNL     1     -35.268  14.971  -7.890  1.00 20.00    -0.081 Br
ENDROOT
TORSDOF 0
ENDMDL
MODEL 7
REMARK VINA RESULT:      -4.8      1.556      2.448
REMARK  0 active torsions:
REMARK  status: ('A' for Active; 'I' for Inactive)
ROOT
HETATM    1  C1  UNL     1     -33.685  17.787  -3.021  1.00 20.00     0.001 C 
HETATM    2  C2  UNL     1     -34.032  16.880  -2.079  1.00 20.00     0.001 C 
HETATM    3  C3  UNL     1     -34.485  14.719  -6.362  1.00 20.00     0.001 C 
HETATM    4  C4  UNL     1     -34.862  13.729  -5.336  1.00 20.00     0.001 C 
HETATM    5  C5  UNL     1     -34.392  16.066  -6.281  1.00 20.00     0.009 C 
HETATM    6  C6  UNL     1     -35.216  13.907  -4.042  1.00 20.00     0.009 C 
HETATM    7  C7  UNL     1     -33.717  17.544  -4.463  1.00 20.00     0.009 C 
HETATM    8  C8  UNL     1     -34.492  15.520  -2.362  1.00 20.00     0.009 C 
HETATM    9  C9  UNL     1     -34.685  16.818  -5.066  1.00 20.00    -0.039 C 
HETATM   10  C10 UNL     1     -35.297  15.218  -3.406  1.00 20.00    -0.039 C 
HETATM   11  C11 UNL     1     -35.865  16.261  -4.324  1.00 20.00     0.123 C 
HETATM   12 BR12 UNL     1     -36.990  17.589  -3.459  1.00 20.00    -0.081 Br
ENDROOT
TORSDOF 0
ENDMDL
MODEL 8
REMARK VINA RESULT:      -4.8      1.962      3.487
REMARK  0 active torsions:
REMARK  status: ('A' for Active; 'I' for Inactive)
ROOT
HETATM    1  C1  UNL     1     -34.982  13.325  -4.199  1.00 20.00     0.001 C 
HETATM    2  C2  UNL     1     -33.684  13.664  -4.024  1.00 20.00     0.001 C 
HETATM    3  C3  UNL     1     -36.304  17.633  -3.245  1.00 20.00     0.001 C 
HETATM    4  C4  UNL     1     -34.890  18.003  -3.052  1.00 20.00     0.001 C 
HETATM    5  C5  UNL     1     -36.847  16.566  -3.875  1.00 20.00     0.009 C 
HETATM    6  C6  UNL     1     -33.761  17.374  -3.454  1.00 20.00     0.009 C 
HETATM    7  C7  UNL     1     -36.108  14.253  -4.090  1.00 20.00     0.009 C 
HETATM    8  C8  UNL     1     -33.212  15.011  -3.698  1.00 20.00     0.009 C 
HETATM    9  C9  UNL     1     -36.054  15.531  -4.527  1.00 20.00    -0.039 C 
HETATM   10  C10 UNL     1     -33.766  16.130  -4.217  1.00 20.00    -0.039 C 
HETATM   11  C11 UNL     1     -34.861  16.096  -5.243  1.00 20.00     0.123 C 
HETATM   12 BR12 UNL     1     -34.401  15.197  -6.903  1.00 20.00    -0.081 Br
ENDROOT
TORSDOF 0
ENDMDL
MODEL 9
REMARK VINA RESULT:      -4.8      1.912      3.334
REMARK  0 active torsions:
REMARK  status: ('A' for Active; 'I' for Inactive)
ROOT
HETATM    1  C1  UNL     1     -35.006  17.296  -2.060  1.00 20.00     0.001 C 
HETATM    2  C2  UNL     1     -36.102  17.370  -2.848  1.00 20.00     0.001 C 
HETATM    3  C3  UNL     1     -33.669  13.426  -4.170  1.00 20.00     0.001 C 
HETATM    4  C4  UNL     1     -34.866  13.504  -5.028  1.00 20.00     0.001 C 
HETATM    5  C5  UNL     1     -33.074  14.379  -3.417  1.00 20.00     0.009 C 
HETATM    6  C6  UNL     1     -35.683  14.551  -5.291  1.00 20.00     0.009 C 
HETATM    7  C7  UNL     1     -33.977  16.260  -2.158  1.00 20.00     0.009 C 
HETATM    8  C8  UNL     1     -36.424  16.424  -3.918  1.00 20.00     0.009 C 
HETATM    9  C9  UNL     1     -33.553  15.753  -3.337  1.00 20.00    -0.039 C 
HETATM   10  C10 UNL     1     -35.487  15.882  -4.727  1.00 20.00    -0.039 C 
HETATM   11  C11 UNL     1     -34.036  16.265  -4.663  1.00 20.00     0.123 C 
HETATM   12 BR12 UNL     1     -33.668  18.142  -5.001  1.00 20.00    -0.081 Br
ENDROOT
TORSDOF 0
ENDMDL
