MODEL 1
REMARK VINA RESULT:      -4.4      0.000      0.000
REMARK  2 active torsions:
REMARK  status: ('A' for Active; 'I' for Inactive)
REMARK    1  A    between atoms: C3_3  and  O10_10 
REMARK    2  A    between atoms: C8_8  and  O10_10 
ROOT
HETATM    1  C1  UNL     1     -33.364  13.884  -3.752  1.00 20.00     0.069 C 
HETATM    2  C2  UNL     1     -34.389  13.449  -4.826  1.00 20.00     0.173 C 
HETATM    3  C3  UNL     1     -34.163  15.190  -3.533  1.00 20.00     0.134 C 
HETATM    4  C4  UNL     1     -34.866  14.942  -4.913  1.00 20.00     0.008 C 
HETATM    5  C5  UNL     1     -36.362  15.267  -4.885  1.00 20.00     0.020 C 
HETATM    6  C6  UNL     1     -34.201  15.661  -6.098  1.00 20.00     0.020 C 
HETATM    7  O9  UNL     1     -35.342  12.543  -4.320  1.00 20.00    -0.234 OA
ENDROOT
BRANCH   3   8
HETATM    8  O10 UNL     1     -33.389  16.396  -3.411  1.00 20.00    -0.385 OA
BRANCH   8   9
HETATM    9  C8  UNL     1     -33.794  17.140  -2.278  1.00 20.00     0.163 C 
HETATM   10  C7  UNL     1     -34.775  16.315  -1.472  1.00 20.00     0.033 C 
ENDBRANCH   8   9
ENDBRANCH   3   8
TORSDOF 2
ENDMDL
MODEL 2
REMARK VINA RESULT:      -4.0      1.603      2.856
REMARK  2 active torsions:
REMARK  status: ('A' for Active; 'I' for Inactive)
REMARK    1  A    between atoms: C3_3  and  O10_10 
REMARK    2  A    between atoms: C8_8  and  O10_10 
ROOT
HETATM    1  C1  UNL     1     -35.890  14.757  -5.146  1.00 20.00     0.069 C 
HETATM    2  C2  UNL     1     -35.304  13.755  -4.124  1.00 20.00     0.173 C 
HETATM    3  C3  UNL     1     -34.588  15.588  -5.063  1.00 20.00     0.134 C 
HETATM    4  C4  UNL     1     -34.250  14.848  -3.722  1.00 20.00     0.008 C 
HETATM    5  C5  UNL     1     -32.770  14.474  -3.606  1.00 20.00     0.020 C 
HETATM    6  C6  UNL     1     -34.697  15.598  -2.457  1.00 20.00     0.020 C 
HETATM    7  O9  UNL     1     -34.770  12.608  -4.745  1.00 20.00    -0.234 OA
ENDROOT
BRANCH   3   8
HETATM    8  O10 UNL     1     -34.749  17.016  -4.989  1.00 20.00    -0.385 OA
BRANCH   8   9
HETATM    9  C8  UNL     1     -33.657  17.676  -5.599  1.00 20.00     0.163 C 
HETATM   10  C7  UNL     1     -33.498  19.047  -4.974  1.00 20.00     0.033 C 
ENDBRANCH   8   9
ENDBRANCH   3   8
TORSDOF 2
ENDMDL
MODEL 3
REMARK VINA RESULT:      -3.9      1.751      3.590
REMARK  2 active torsions:
REMARK  status: ('A' for Active; 'I' for Inactive)
REMARK    1  A    between atoms: C3_3  and  O10_10 
REMARK    2  A    between atoms: C8_8  and  O10_10 
ROOT
HETATM    1  C1  UNL     1     -36.912  16.262  -4.515  1.00 20.00     0.069 C 
HETATM    2  C2  UNL     1     -36.948  15.116  -3.478  1.00 20.00     0.173 C 
HETATM    3  C3  UNL     1     -35.689  15.599  -5.191  1.00 20.00     0.134 C 
HETATM    4  C4  UNL     1     -35.472  14.762  -3.883  1.00 20.00     0.008 C 
HETATM    5  C5  UNL     1     -35.088  13.307  -4.166  1.00 20.00     0.020 C 
HETATM    6  C6  UNL     1     -34.470  15.381  -2.896  1.00 20.00     0.020 C 
HETATM    7  O9  UNL     1     -37.908  14.136  -3.795  1.00 20.00    -0.234 OA
ENDROOT
BRANCH   3   8
HETATM    8  O10 UNL     1     -34.620  16.481  -5.577  1.00 20.00    -0.385 OA
BRANCH   8   9
HETATM    9  C8  UNL     1     -34.376  16.397  -6.968  1.00 20.00     0.163 C 
HETATM   10  C7  UNL     1     -34.652  14.982  -7.431  1.00 20.00     0.033 C 
ENDBRANCH   8   9
ENDBRANCH   3   8
TORSDOF 2
ENDMDL
MODEL 4
REMARK VINA RESULT:      -3.9      1.804      3.565
REMARK  2 active torsions:
REMARK  status: ('A' for Active; 'I' for Inactive)
REMARK    1  A    between atoms: C3_3  and  O10_10 
REMARK    2  A    between atoms: C8_8  and  O10_10 
ROOT
HETATM    1  C1  UNL     1     -35.200  13.213  -4.451  1.00 20.00     0.069 C 
HETATM    2  C2  UNL     1     -34.115  13.709  -3.466  1.00 20.00     0.173 C 
HETATM    3  C3  UNL     1     -35.031  14.512  -5.273  1.00 20.00     0.134 C 
HETATM    4  C4  UNL     1     -34.325  15.158  -4.032  1.00 20.00     0.008 C 
HETATM    5  C5  UNL     1     -33.112  16.010  -4.415  1.00 20.00     0.020 C 
HETATM    6  C6  UNL     1     -35.263  15.969  -3.123  1.00 20.00     0.020 C 
HETATM    7  O9  UNL     1     -32.854  13.140  -3.729  1.00 20.00    -0.234 OA
ENDROOT
BRANCH   3   8
HETATM    8  O10 UNL     1     -36.244  15.140  -5.725  1.00 20.00    -0.385 OA
BRANCH   8   9
HETATM    9  C8  UNL     1     -36.143  15.507  -7.088  1.00 20.00     0.163 C 
HETATM   10  C7  UNL     1     -34.908  14.860  -7.681  1.00 20.00     0.033 C 
ENDBRANCH   8   9
ENDBRANCH   3   8
TORSDOF 2
ENDMDL
MODEL 5
REMARK VINA RESULT:      -3.8      1.585      2.153
REMARK  2 active torsions:
REMARK  status: ('A' for Active; 'I' for Inactive)
REMARK    1  A    between atoms: C3_3  and  O10_10 
REMARK    2  A    between atoms: C8_8  and  O10_10 
ROOT
HETATM    1  C1  UNL     1     -35.628  13.959  -4.250  1.00 20.00     0.069 C 
HETATM    2  C2  UNL     1     -34.532  14.010  -5.340  1.00 20.00     0.173 C 
HETATM    3  C3  UNL     1     -35.140  15.324  -3.711  1.00 20.00     0.134 C 
HETATM    4  C4  UNL     1     -33.796  15.106  -4.488  1.00 20.00     0.008 C 
HETATM    5  C5  UNL     1     -33.286  16.382  -5.164  1.00 20.00     0.020 C 
HETATM    6  C6  UNL     1     -32.673  14.480  -3.645  1.00 20.00     0.020 C 
HETATM    7  O9  UNL     1     -35.031  14.452  -6.581  1.00 20.00    -0.234 OA
ENDROOT
BRANCH   3   8
HETATM    8  O10 UNL     1     -35.045  15.446  -2.280  1.00 20.00    -0.385 OA
BRANCH   8   9
HETATM    9  C8  UNL     1     -35.207  16.793  -1.878  1.00 20.00     0.163 C 
HETATM   10  C7  UNL     1     -34.692  16.949  -0.463  1.00 20.00     0.033 C 
ENDBRANCH   8   9
ENDBRANCH   3   8
TORSDOF 2
ENDMDL
MODEL 6
REMARK VINA RESULT:      -3.7      1.656      2.484
REMARK  2 active torsions:
REMARK  status: ('A' for Active; 'I' for Inactive)
REMARK    1  A    between atoms: C3_3  and  O10_10 
REMARK    2  A    between atoms: C8_8  and  O10_10 
ROOT
HETATM    1  C1  UNL     1     -34.260  15.287  -2.771  1.00 20.00     0.069 C 
HETATM    2  C2  UNL     1     -33.305  14.665  -3.816  1.00 20.00     0.173 C 
HETATM    3  C3  UNL     1     -35.342  15.438  -3.865  1.00 20.00     0.134 C 
HETATM    4  C4  UNL     1     -34.217  15.266  -4.944  1.00 20.00     0.008 C 
HETATM    5  C5  UNL     1     -34.652  14.388  -6.121  1.00 20.00     0.020 C 
HETATM    6  C6  UNL     1     -33.637  16.589  -5.469  1.00 20.00     0.020 C 
HETATM    7  O9  UNL     1     -33.282  13.258  -3.749  1.00 20.00    -0.234 OA
ENDROOT
BRANCH   3   8
HETATM    8  O10 UNL     1     -36.063  16.683  -3.879  1.00 20.00    -0.385 OA
BRANCH   8   9
HETATM    9  C8  UNL     1     -37.457  16.456  -3.962  1.00 20.00     0.163 C 
HETATM   10  C7  UNL     1     -37.721  14.969  -3.851  1.00 20.00     0.033 C 
ENDBRANCH   8   9
ENDBRANCH   3   8
TORSDOF 2
ENDMDL
MODEL 7
REMARK VINA RESULT:      -3.6      1.844      2.857
REMARK  2 active torsions:
REMARK  status: ('A' for Active; 'I' for Inactive)
REMARK    1  A    between atoms: C3_3  and  O10_10 
REMARK    2  A    between atoms: C8_8  and  O10_10 
ROOT
HETATM    1  C1  UNL     1     -35.298  16.698  -4.390  1.00 20.00     0.069 C 
HETATM    2  C2  UNL     1     -34.397  15.780  -5.248  1.00 20.00     0.173 C 
HETATM    3  C3  UNL     1     -34.489  16.302  -3.133  1.00 20.00     0.134 C 
HETATM    4  C4  UNL     1     -33.942  15.065  -3.925  1.00 20.00     0.008 C 
HETATM    5  C5  UNL     1     -32.454  14.806  -3.672  1.00 20.00     0.020 C 
HETATM    6  C6  UNL     1     -34.739  13.769  -3.703  1.00 20.00     0.020 C 
HETATM    7  O9  UNL     1     -33.387  16.497  -5.919  1.00 20.00    -0.234 OA
ENDROOT
BRANCH   3   8
HETATM    8  O10 UNL     1     -35.253  16.022  -1.947  1.00 20.00    -0.385 OA
BRANCH   8   9
HETATM    9  C8  UNL     1     -34.628  16.576  -0.804  1.00 20.00     0.163 C 
HETATM   10  C7  UNL     1     -33.659  17.653  -1.246  1.00 20.00     0.033 C 
ENDBRANCH   8   9
ENDBRANCH   3   8
TORSDOF 2
ENDMDL
MODEL 8
REMARK VINA RESULT:      -3.6      1.574      3.538
REMARK  2 active torsions:
REMARK  status: ('A' for Active; 'I' for Inactive)
REMARK    1  A    between atoms: C3_3  and  O10_10 
REMARK    2  A    between atoms: C8_8  and  O10_10 
ROOT
HETATM    1  C1  UNL     1     -34.148  14.328  -3.805  1.00 20.00     0.069 C 
HETATM    2  C2  UNL     1     -33.289  15.576  -3.495  1.00 20.00     0.173 C 
HETATM    3  C3  UNL     1     -35.413  15.217  -3.823  1.00 20.00     0.134 C 
HETATM    4  C4  UNL     1     -34.602  16.318  -3.058  1.00 20.00     0.008 C 
HETATM    5  C5  UNL     1     -34.886  17.732  -3.572  1.00 20.00     0.020 C 
HETATM    6  C6  UNL     1     -34.769  16.278  -1.530  1.00 20.00     0.020 C 
HETATM    7  O9  UNL     1     -32.663  16.093  -4.646  1.00 20.00    -0.234 OA
ENDROOT
BRANCH   3   8
HETATM    8  O10 UNL     1     -36.572  14.687  -3.155  1.00 20.00    -0.385 OA
BRANCH   8   9
HETATM    9  C8  UNL     1     -37.757  15.052  -3.838  1.00 20.00     0.163 C 
HETATM   10  C7  UNL     1     -37.432  15.282  -5.299  1.00 20.00     0.033 C 
ENDBRANCH   8   9
ENDBRANCH   3   8
TORSDOF 2
ENDMDL
MODEL 9
REMARK VINA RESULT:      -3.6     11.438     13.015
REMARK  2 active torsions:
REMARK  status: ('A' for Active; 'I' for Inactive)
REMARK    1  A    between atoms: C3_3  and  O10_10 
REMARK    2  A    between atoms: C8_8  and  O10_10 
ROOT
HETATM    1  C1  UNL     1     -42.021   6.934  -2.523  1.00 20.00     0.069 C 
HETATM    2  C2  UNL     1     -42.168   7.633  -1.152  1.00 20.00     0.173 C 
HETATM    3  C3  UNL     1     -42.379   5.583  -1.861  1.00 20.00     0.134 C 
HETATM    4  C4  UNL     1     -42.048   6.224  -0.469  1.00 20.00     0.008 C 
HETATM    5  C5  UNL     1     -43.042   5.820   0.624  1.00 20.00     0.020 C 
HETATM    6  C6  UNL     1     -40.611   5.972   0.017  1.00 20.00     0.020 C 
HETATM    7  O9  UNL     1     -43.417   8.266  -1.005  1.00 20.00    -0.234 OA
ENDROOT
BRANCH   3   8
HETATM    8  O10 UNL     1     -41.584   4.451  -2.255  1.00 20.00    -0.385 OA
BRANCH   8   9
HETATM    9  C8  UNL     1     -42.408   3.368  -2.641  1.00 20.00     0.163 C 
HETATM   10  C7  UNL     1     -41.561   2.333  -3.353  1.00 20.00     0.033 C 
ENDBRANCH   8   9
ENDBRANCH   3   8
TORSDOF 2
ENDMDL
