MODEL 1
REMARK VINA RESULT:      -5.3      0.000      0.000
REMARK  2 active torsions:
REMARK  status: ('A' for Active; 'I' for Inactive)
REMARK    1  A    between atoms: C2_2  and  C3_3 
REMARK    2  A    between atoms: C3_3  and  C7_7 
ROOT
HETATM    1  C3  UNL     1     -34.872   4.850   4.784  1.00 20.00     0.255 C 
HETATM    2  O8  UNL     1     -35.126   3.732   4.345  1.00 20.00    -0.283 OA
ENDROOT
BRANCH   1   3
HETATM    3  C2  UNL     1     -34.727   6.036   3.897  1.00 20.00     0.062 C 
HETATM    4  C1  UNL     1     -33.531   6.408   3.439  1.00 20.00    -0.076 C 
HETATM    5  C4  UNL     1     -33.071   7.538   2.544  1.00 20.00     0.034 C 
HETATM    6  C5  UNL     1     -32.136   5.852   3.615  1.00 20.00     0.034 C 
HETATM    7  C6  UNL     1     -31.683   7.255   3.160  1.00 20.00     0.009 C 
ENDBRANCH   1   3
BRANCH   1   8
HETATM    8  C7  UNL     1     -34.690   5.098   6.253  1.00 20.00     0.455 C 
HETATM    9  F9  UNL     1     -35.800   4.775   6.963  1.00 20.00    -0.163 F 
HETATM   10  F10 UNL     1     -33.667   4.368   6.767  1.00 20.00    -0.163 F 
HETATM   11  F11 UNL     1     -34.417   6.399   6.521  1.00 20.00    -0.163 F 
ENDBRANCH   1   8
TORSDOF 2
ENDMDL
MODEL 2
REMARK VINA RESULT:      -5.1      3.939      5.019
REMARK  2 active torsions:
REMARK  status: ('A' for Active; 'I' for Inactive)
REMARK    1  A    between atoms: C2_2  and  C3_3 
REMARK    2  A    between atoms: C3_3  and  C7_7 
ROOT
HETATM    1  C3  UNL     1     -32.126   7.458   2.949  1.00 20.00     0.255 C 
HETATM    2  O8  UNL     1     -31.289   7.543   3.843  1.00 20.00    -0.283 OA
ENDROOT
BRANCH   1   3
HETATM    3  C2  UNL     1     -33.146   6.374   2.919  1.00 20.00     0.062 C 
HETATM    4  C1  UNL     1     -33.844   6.059   4.010  1.00 20.00    -0.076 C 
HETATM    5  C4  UNL     1     -34.922   5.034   4.290  1.00 20.00     0.034 C 
HETATM    6  C5  UNL     1     -33.860   6.601   5.422  1.00 20.00     0.034 C 
HETATM    7  C6  UNL     1     -34.535   5.257   5.767  1.00 20.00     0.009 C 
ENDBRANCH   1   3
BRANCH   1   8
HETATM    8  C7  UNL     1     -32.179   8.446   1.821  1.00 20.00     0.455 C 
HETATM    9  F9  UNL     1     -33.177   8.165   0.947  1.00 20.00    -0.163 F 
HETATM   10  F10 UNL     1     -32.388   9.712   2.266  1.00 20.00    -0.163 F 
HETATM   11  F11 UNL     1     -31.026   8.467   1.107  1.00 20.00    -0.163 F 
ENDBRANCH   1   8
TORSDOF 2
ENDMDL
MODEL 3
REMARK VINA RESULT:      -5.0      2.931      4.314
REMARK  2 active torsions:
REMARK  status: ('A' for Active; 'I' for Inactive)
REMARK    1  A    between atoms: C2_2  and  C3_3 
REMARK    2  A    between atoms: C3_3  and  C7_7 
ROOT
HETATM    1  C3  UNL     1     -33.616   6.991   3.315  1.00 20.00     0.255 C 
HETATM    2  O8  UNL     1     -34.250   8.042   3.293  1.00 20.00    -0.283 OA
ENDROOT
BRANCH   1   3
HETATM    3  C2  UNL     1     -34.268   5.677   3.563  1.00 20.00     0.062 C 
HETATM    4  C1  UNL     1     -34.547   5.272   4.802  1.00 20.00    -0.076 C 
HETATM    5  C4  UNL     1     -35.189   4.023   5.364  1.00 20.00     0.034 C 
HETATM    6  C5  UNL     1     -34.347   5.896   6.165  1.00 20.00     0.034 C 
HETATM    7  C6  UNL     1     -34.511   4.452   6.682  1.00 20.00     0.009 C 
ENDBRANCH   1   3
BRANCH   1   8
HETATM    8  C7  UNL     1     -32.132   6.960   3.091  1.00 20.00     0.455 C 
HETATM    9  F9  UNL     1     -31.652   5.692   3.041  1.00 20.00    -0.163 F 
HETATM   10  F10 UNL     1     -31.783   7.561   1.924  1.00 20.00    -0.163 F 
HETATM   11  F11 UNL     1     -31.454   7.598   4.078  1.00 20.00    -0.163 F 
ENDBRANCH   1   8
TORSDOF 2
ENDMDL
MODEL 4
REMARK VINA RESULT:      -4.9      1.543      1.798
REMARK  2 active torsions:
REMARK  status: ('A' for Active; 'I' for Inactive)
REMARK    1  A    between atoms: C2_2  and  C3_3 
REMARK    2  A    between atoms: C3_3  and  C7_7 
ROOT
HETATM    1  C3  UNL     1     -34.245   5.758   5.307  1.00 20.00     0.255 C 
HETATM    2  O8  UNL     1     -34.026   6.636   6.136  1.00 20.00    -0.283 OA
ENDROOT
BRANCH   1   3
HETATM    3  C2  UNL     1     -34.073   5.985   3.846  1.00 20.00     0.062 C 
HETATM    4  C1  UNL     1     -33.007   6.631   3.374  1.00 20.00    -0.076 C 
HETATM    5  C4  UNL     1     -32.558   7.009   1.979  1.00 20.00     0.034 C 
HETATM    6  C5  UNL     1     -31.794   7.249   4.034  1.00 20.00     0.034 C 
HETATM    7  C6  UNL     1     -31.662   8.031   2.710  1.00 20.00     0.009 C 
ENDBRANCH   1   3
BRANCH   1   8
HETATM    8  C7  UNL     1     -34.705   4.388   5.713  1.00 20.00     0.455 C 
HETATM    9  F9  UNL     1     -35.668   4.438   6.667  1.00 20.00    -0.163 F 
HETATM   10  F10 UNL     1     -35.222   3.696   4.666  1.00 20.00    -0.163 F 
HETATM   11  F11 UNL     1     -33.693   3.638   6.216  1.00 20.00    -0.163 F 
ENDBRANCH   1   8
TORSDOF 2
ENDMDL
MODEL 5
REMARK VINA RESULT:      -4.7      2.480      3.162
REMARK  2 active torsions:
REMARK  status: ('A' for Active; 'I' for Inactive)
REMARK    1  A    between atoms: C2_2  and  C3_3 
REMARK    2  A    between atoms: C3_3  and  C7_7 
ROOT
HETATM    1  C3  UNL     1     -33.392   6.336   3.938  1.00 20.00     0.255 C 
HETATM    2  O8  UNL     1     -33.324   6.769   5.085  1.00 20.00    -0.283 OA
ENDROOT
BRANCH   1   3
HETATM    3  C2  UNL     1     -32.345   6.622   2.920  1.00 20.00     0.062 C 
HETATM    4  C1  UNL     1     -32.271   7.815   2.329  1.00 20.00    -0.076 C 
HETATM    5  C4  UNL     1     -31.346   8.397   1.283  1.00 20.00     0.034 C 
HETATM    6  C5  UNL     1     -33.074   9.089   2.465  1.00 20.00     0.034 C 
HETATM    7  C6  UNL     1     -32.470   9.436   1.087  1.00 20.00     0.009 C 
ENDBRANCH   1   3
BRANCH   1   8
HETATM    8  C7  UNL     1     -34.541   5.484   3.484  1.00 20.00     0.455 C 
HETATM    9  F9  UNL     1     -35.703   6.183   3.436  1.00 20.00    -0.163 F 
HETATM   10  F10 UNL     1     -34.335   4.975   2.242  1.00 20.00    -0.163 F 
HETATM   11  F11 UNL     1     -34.752   4.429   4.310  1.00 20.00    -0.163 F 
ENDBRANCH   1   8
TORSDOF 2
ENDMDL
MODEL 6
REMARK VINA RESULT:      -4.7     12.214     13.073
REMARK  2 active torsions:
REMARK  status: ('A' for Active; 'I' for Inactive)
REMARK    1  A    between atoms: C2_2  and  C3_3 
REMARK    2  A    between atoms: C3_3  and  C7_7 
ROOT
HETATM    1  C3  UNL     1     -34.288  15.634  -4.058  1.00 20.00     0.255 C 
HETATM    2  O8  UNL     1     -35.272  15.907  -4.738  1.00 20.00    -0.283 OA
ENDROOT
BRANCH   1   3
HETATM    3  C2  UNL     1     -33.547  16.667  -3.285  1.00 20.00     0.062 C 
HETATM    4  C1  UNL     1     -33.839  16.908  -2.007  1.00 20.00    -0.076 C 
HETATM    5  C4  UNL     1     -33.280  17.869  -0.980  1.00 20.00     0.034 C 
HETATM    6  C5  UNL     1     -34.845  16.316  -1.045  1.00 20.00     0.034 C 
HETATM    7  C6  UNL     1     -34.612  17.613  -0.241  1.00 20.00     0.009 C 
ENDBRANCH   1   3
BRANCH   1   8
HETATM    8  C7  UNL     1     -33.763  14.231  -3.958  1.00 20.00     0.455 C 
HETATM    9  F9  UNL     1     -33.909  13.551  -5.123  1.00 20.00    -0.163 F 
HETATM   10  F10 UNL     1     -32.441  14.205  -3.648  1.00 20.00    -0.163 F 
HETATM   11  F11 UNL     1     -34.403  13.514  -3.002  1.00 20.00    -0.163 F 
ENDBRANCH   1   8
TORSDOF 2
ENDMDL
MODEL 7
REMARK VINA RESULT:      -4.6     12.169     12.974
REMARK  2 active torsions:
REMARK  status: ('A' for Active; 'I' for Inactive)
REMARK    1  A    between atoms: C2_2  and  C3_3 
REMARK    2  A    between atoms: C3_3  and  C7_7 
ROOT
HETATM    1  C3  UNL     1     -33.636  14.106  -3.949  1.00 20.00     0.255 C 
HETATM    2  O8  UNL     1     -32.959  13.190  -3.493  1.00 20.00    -0.283 OA
ENDROOT
BRANCH   1   3
HETATM    3  C2  UNL     1     -33.263  15.535  -3.765  1.00 20.00     0.062 C 
HETATM    4  C1  UNL     1     -33.807  16.266  -2.791  1.00 20.00    -0.076 C 
HETATM    5  C4  UNL     1     -33.637  17.706  -2.359  1.00 20.00     0.034 C 
HETATM    6  C5  UNL     1     -34.814  15.959  -1.705  1.00 20.00     0.034 C 
HETATM    7  C6  UNL     1     -34.990  17.491  -1.647  1.00 20.00     0.009 C 
ENDBRANCH   1   3
BRANCH   1   8
HETATM    8  C7  UNL     1     -34.893  13.847  -4.727  1.00 20.00     0.455 C 
HETATM    9  F9  UNL     1     -34.825  12.687  -5.428  1.00 20.00    -0.163 F 
HETATM   10  F10 UNL     1     -35.980  13.756  -3.919  1.00 20.00    -0.163 F 
HETATM   11  F11 UNL     1     -35.152  14.832  -5.622  1.00 20.00    -0.163 F 
ENDBRANCH   1   8
TORSDOF 2
ENDMDL
MODEL 8
REMARK VINA RESULT:      -4.6     13.226     13.651
REMARK  2 active torsions:
REMARK  status: ('A' for Active; 'I' for Inactive)
REMARK    1  A    between atoms: C2_2  and  C3_3 
REMARK    2  A    between atoms: C3_3  and  C7_7 
ROOT
HETATM    1  C3  UNL     1     -34.564  13.824  -4.907  1.00 20.00     0.255 C 
HETATM    2  O8  UNL     1     -34.886  12.659  -4.690  1.00 20.00    -0.283 OA
ENDROOT
BRANCH   1   3
HETATM    3  C2  UNL     1     -33.798  14.632  -3.919  1.00 20.00     0.062 C 
HETATM    4  C1  UNL     1     -34.424  15.431  -3.055  1.00 20.00    -0.076 C 
HETATM    5  C4  UNL     1     -33.938  16.353  -1.958  1.00 20.00     0.034 C 
HETATM    6  C5  UNL     1     -35.882  15.743  -2.802  1.00 20.00     0.034 C 
HETATM    7  C6  UNL     1     -35.333  17.001  -2.096  1.00 20.00     0.009 C 
ENDBRANCH   1   3
BRANCH   1   8
HETATM    8  C7  UNL     1     -34.921  14.515  -6.190  1.00 20.00     0.455 C 
HETATM    9  F9  UNL     1     -33.888  15.249  -6.676  1.00 20.00    -0.163 F 
HETATM   10  F10 UNL     1     -35.268  13.632  -7.161  1.00 20.00    -0.163 F 
HETATM   11  F11 UNL     1     -35.968  15.363  -6.039  1.00 20.00    -0.163 F 
ENDBRANCH   1   8
TORSDOF 2
ENDMDL
MODEL 9
REMARK VINA RESULT:      -4.5     12.228     13.701
REMARK  2 active torsions:
REMARK  status: ('A' for Active; 'I' for Inactive)
REMARK    1  A    between atoms: C2_2  and  C3_3 
REMARK    2  A    between atoms: C3_3  and  C7_7 
ROOT
HETATM    1  C3  UNL     1     -34.733  13.713  -4.639  1.00 20.00     0.255 C 
HETATM    2  O8  UNL     1     -34.791  12.511  -4.885  1.00 20.00    -0.283 OA
ENDROOT
BRANCH   1   3
HETATM    3  C2  UNL     1     -35.746  14.676  -5.151  1.00 20.00     0.062 C 
HETATM    4  C1  UNL     1     -35.604  15.250  -6.346  1.00 20.00    -0.076 C 
HETATM    5  C4  UNL     1     -36.439  16.242  -7.124  1.00 20.00     0.034 C 
HETATM    6  C5  UNL     1     -34.553  15.141  -7.429  1.00 20.00     0.034 C 
HETATM    7  C6  UNL     1     -35.137  16.483  -7.918  1.00 20.00     0.009 C 
ENDBRANCH   1   3
BRANCH   1   8
HETATM    8  C7  UNL     1     -33.633  14.295  -3.801  1.00 20.00     0.455 C 
HETATM    9  F9  UNL     1     -32.943  15.255  -4.465  1.00 20.00    -0.163 F 
HETATM   10  F10 UNL     1     -34.109  14.866  -2.664  1.00 20.00    -0.163 F 
HETATM   11  F11 UNL     1     -32.731  13.356  -3.419  1.00 20.00    -0.163 F 
ENDBRANCH   1   8
TORSDOF 2
ENDMDL
