MODEL 1
REMARK VINA RESULT:      -6.3      0.000      0.000
REMARK  1 active torsions:
REMARK  status: ('A' for Active; 'I' for Inactive)
REMARK    1  A    between atoms: C3_3  and  C5_5 
ROOT
HETATM    1  C1  UNL     1     -34.727   5.308   3.584  1.00 20.00     0.055 A 
HETATM    2  C2  UNL     1     -35.126   4.570   4.616  1.00 20.00     0.085 A 
HETATM    3  C3  UNL     1     -33.810   6.378   4.055  1.00 20.00     0.273 A 
HETATM    4  C4  UNL     1     -34.505   5.082   5.853  1.00 20.00     0.378 A 
HETATM    5  O6  UNL     1     -33.658   6.176   5.472  1.00 20.00    -0.273 OA
HETATM    6  F7  UNL     1     -34.363   7.607   3.880  1.00 20.00    -0.202 F 
HETATM    7  F8  UNL     1     -35.414   5.539   6.747  1.00 20.00    -0.171 F 
HETATM    8  F9  UNL     1     -33.741   4.155   6.479  1.00 20.00    -0.171 F 
ENDROOT
BRANCH   3   9
HETATM    9  C5  UNL     1     -32.446   6.354   3.392  1.00 20.00     0.337 C 
HETATM   10  F10 UNL     1     -32.381   5.274   2.570  1.00 20.00    -0.226 F 
HETATM   11 CL11 UNL     1     -32.184   7.827   2.441  1.00 20.00    -0.083 Cl
ENDBRANCH   3   9
TORSDOF 1
ENDMDL
MODEL 2
REMARK VINA RESULT:      -5.4      1.671      1.851
REMARK  1 active torsions:
REMARK  status: ('A' for Active; 'I' for Inactive)
REMARK    1  A    between atoms: C3_3  and  C5_5 
ROOT
HETATM    1  C1  UNL     1     -34.809   4.205   5.120  1.00 20.00     0.055 A 
HETATM    2  C2  UNL     1     -34.440   4.615   6.330  1.00 20.00     0.085 A 
HETATM    3  C3  UNL     1     -34.815   5.356   4.180  1.00 20.00     0.273 A 
HETATM    4  C4  UNL     1     -34.166   6.065   6.294  1.00 20.00     0.378 A 
HETATM    5  O6  UNL     1     -34.364   6.493   4.939  1.00 20.00    -0.273 OA
HETATM    6  F7  UNL     1     -36.077   5.631   3.754  1.00 20.00    -0.202 F 
HETATM    7  F8  UNL     1     -35.000   6.777   7.090  1.00 20.00    -0.171 F 
HETATM    8  F9  UNL     1     -32.896   6.368   6.653  1.00 20.00    -0.171 F 
ENDROOT
BRANCH   3   9
HETATM    9  C5  UNL     1     -33.919   5.167   2.970  1.00 20.00     0.337 C 
HETATM   10  F10 UNL     1     -34.665   5.327   1.847  1.00 20.00    -0.226 F 
HETATM   11 CL11 UNL     1     -32.604   6.356   2.972  1.00 20.00    -0.083 Cl
ENDBRANCH   3   9
TORSDOF 1
ENDMDL
MODEL 3
REMARK VINA RESULT:      -5.3      1.712      3.708
REMARK  1 active torsions:
REMARK  status: ('A' for Active; 'I' for Inactive)
REMARK    1  A    between atoms: C3_3  and  C5_5 
ROOT
HETATM    1  C1  UNL     1     -34.966   5.285   3.822  1.00 20.00     0.055 A 
HETATM    2  C2  UNL     1     -34.334   5.701   2.728  1.00 20.00     0.085 A 
HETATM    3  C3  UNL     1     -34.065   5.401   4.998  1.00 20.00     0.273 A 
HETATM    4  C4  UNL     1     -32.967   6.132   3.085  1.00 20.00     0.378 A 
HETATM    5  O6  UNL     1     -32.841   5.978   4.507  1.00 20.00    -0.273 OA
HETATM    6  F7  UNL     1     -33.759   4.176   5.502  1.00 20.00    -0.202 F 
HETATM    7  F8  UNL     1     -32.008   5.385   2.490  1.00 20.00    -0.171 F 
HETATM    8  F9  UNL     1     -32.730   7.430   2.778  1.00 20.00    -0.171 F 
ENDROOT
BRANCH   3   9
HETATM    9  C5  UNL     1     -34.619   6.267   6.113  1.00 20.00     0.337 C 
HETATM   10  F10 UNL     1     -35.150   5.459   7.068  1.00 20.00    -0.226 F 
HETATM   11 CL11 UNL     1     -33.339   7.257   6.835  1.00 20.00    -0.083 Cl
ENDBRANCH   3   9
TORSDOF 1
ENDMDL
MODEL 4
REMARK VINA RESULT:      -5.0      2.496      3.635
REMARK  1 active torsions:
REMARK  status: ('A' for Active; 'I' for Inactive)
REMARK    1  A    between atoms: C3_3  and  C5_5 
ROOT
HETATM    1  C1  UNL     1     -34.189   6.635   4.960  1.00 20.00     0.055 A 
HETATM    2  C2  UNL     1     -33.009   6.952   4.437  1.00 20.00     0.085 A 
HETATM    3  C3  UNL     1     -34.864   5.626   4.104  1.00 20.00     0.273 A 
HETATM    4  C4  UNL     1     -32.798   6.179   3.197  1.00 20.00     0.378 A 
HETATM    5  O6  UNL     1     -33.945   5.331   3.036  1.00 20.00    -0.273 OA
HETATM    6  F7  UNL     1     -35.988   6.141   3.536  1.00 20.00    -0.202 F 
HETATM    7  F8  UNL     1     -32.693   6.964   2.099  1.00 20.00    -0.171 F 
HETATM    8  F9  UNL     1     -31.695   5.394   3.250  1.00 20.00    -0.171 F 
ENDROOT
BRANCH   3   9
HETATM    9  C5  UNL     1     -35.224   4.344   4.831  1.00 20.00     0.337 C 
HETATM   10  F10 UNL     1     -34.757   3.291   4.110  1.00 20.00    -0.226 F 
HETATM   11 CL11 UNL     1     -34.495   4.314   6.446  1.00 20.00    -0.083 Cl
ENDBRANCH   3   9
TORSDOF 1
ENDMDL
MODEL 5
REMARK VINA RESULT:      -4.9     12.009     12.560
REMARK  1 active torsions:
REMARK  status: ('A' for Active; 'I' for Inactive)
REMARK    1  A    between atoms: C3_3  and  C5_5 
ROOT
HETATM    1  C1  UNL     1     -33.273  15.727  -4.450  1.00 20.00     0.055 A 
HETATM    2  C2  UNL     1     -33.792  16.663  -3.662  1.00 20.00     0.085 A 
HETATM    3  C3  UNL     1     -33.636  14.380  -3.938  1.00 20.00     0.273 A 
HETATM    4  C4  UNL     1     -34.545  16.020  -2.567  1.00 20.00     0.378 A 
HETATM    5  O6  UNL     1     -34.470  14.604  -2.786  1.00 20.00    -0.273 OA
HETATM    6  F7  UNL     1     -32.535  13.706  -3.512  1.00 20.00    -0.202 F 
HETATM    7  F8  UNL     1     -34.028  16.289  -1.345  1.00 20.00    -0.171 F 
HETATM    8  F9  UNL     1     -35.852  16.377  -2.550  1.00 20.00    -0.171 F 
ENDROOT
BRANCH   3   9
HETATM    9  C5  UNL     1     -34.381  13.520  -4.942  1.00 20.00     0.337 C 
HETATM   10  F10 UNL     1     -35.513  13.050  -4.356  1.00 20.00    -0.226 F 
HETATM   11 CL11 UNL     1     -34.817  14.466  -6.376  1.00 20.00    -0.083 Cl
ENDBRANCH   3   9
TORSDOF 1
ENDMDL
MODEL 6
REMARK VINA RESULT:      -4.8      9.572     10.300
REMARK  1 active torsions:
REMARK  status: ('A' for Active; 'I' for Inactive)
REMARK    1  A    between atoms: C3_3  and  C5_5 
ROOT
HETATM    1  C1  UNL     1     -43.163   5.698  -1.136  1.00 20.00     0.055 A 
HETATM    2  C2  UNL     1     -42.606   6.441  -0.185  1.00 20.00     0.085 A 
HETATM    3  C3  UNL     1     -42.179   5.450  -2.221  1.00 20.00     0.273 A 
HETATM    4  C4  UNL     1     -41.209   6.742  -0.553  1.00 20.00     0.378 A 
HETATM    5  O6  UNL     1     -40.955   6.079  -1.800  1.00 20.00    -0.273 OA
HETATM    6  F7  UNL     1     -42.564   6.053  -3.377  1.00 20.00    -0.202 F 
HETATM    7  F8  UNL     1     -40.984   8.067  -0.723  1.00 20.00    -0.171 F 
HETATM    8  F9  UNL     1     -40.317   6.286   0.359  1.00 20.00    -0.171 F 
ENDROOT
BRANCH   3   9
HETATM    9  C5  UNL     1     -41.924   3.980  -2.495  1.00 20.00     0.337 C 
HETATM   10  F10 UNL     1     -40.716   3.643  -1.971  1.00 20.00    -0.226 F 
HETATM   11 CL11 UNL     1     -43.182   2.975  -1.753  1.00 20.00    -0.083 Cl
ENDBRANCH   3   9
TORSDOF 1
ENDMDL
MODEL 7
REMARK VINA RESULT:      -4.8     11.932     13.064
REMARK  1 active torsions:
REMARK  status: ('A' for Active; 'I' for Inactive)
REMARK    1  A    between atoms: C3_3  and  C5_5 
ROOT
HETATM    1  C1  UNL     1     -32.834  14.752  -3.587  1.00 20.00     0.055 A 
HETATM    2  C2  UNL     1     -33.532  13.657  -3.873  1.00 20.00     0.085 A 
HETATM    3  C3  UNL     1     -33.550  15.951  -4.094  1.00 20.00     0.273 A 
HETATM    4  C4  UNL     1     -34.769  14.035  -4.584  1.00 20.00     0.378 A 
HETATM    5  O6  UNL     1     -34.778  15.467  -4.670  1.00 20.00    -0.273 OA
HETATM    6  F7  UNL     1     -32.849  16.555  -5.090  1.00 20.00    -0.202 F 
HETATM    7  F8  UNL     1     -34.826  13.534  -5.841  1.00 20.00    -0.171 F 
HETATM    8  F9  UNL     1     -35.889  13.643  -3.932  1.00 20.00    -0.171 F 
ENDROOT
BRANCH   3   9
HETATM    9  C5  UNL     1     -33.865  16.978  -3.022  1.00 20.00     0.337 C 
HETATM   10  F10 UNL     1     -34.752  17.874  -3.527  1.00 20.00    -0.226 F 
HETATM   11 CL11 UNL     1     -34.571  16.199  -1.595  1.00 20.00    -0.083 Cl
ENDBRANCH   3   9
TORSDOF 1
ENDMDL
MODEL 8
REMARK VINA RESULT:      -4.7      1.992      2.409
REMARK  1 active torsions:
REMARK  status: ('A' for Active; 'I' for Inactive)
REMARK    1  A    between atoms: C3_3  and  C5_5 
ROOT
HETATM    1  C1  UNL     1     -33.801   6.844   5.289  1.00 20.00     0.055 A 
HETATM    2  C2  UNL     1     -34.197   6.318   6.445  1.00 20.00     0.085 A 
HETATM    3  C3  UNL     1     -33.668   5.772   4.269  1.00 20.00     0.273 A 
HETATM    4  C4  UNL     1     -34.365   4.860   6.288  1.00 20.00     0.378 A 
HETATM    5  O6  UNL     1     -34.074   4.552   4.917  1.00 20.00    -0.273 OA
HETATM    6  F7  UNL     1     -32.371   5.615   3.892  1.00 20.00    -0.202 F 
HETATM    7  F8  UNL     1     -33.523   4.146   7.072  1.00 20.00    -0.171 F 
HETATM    8  F9  UNL     1     -35.627   4.446   6.555  1.00 20.00    -0.171 F 
ENDROOT
BRANCH   3   9
HETATM    9  C5  UNL     1     -34.516   5.993   3.031  1.00 20.00     0.337 C 
HETATM   10  F10 UNL     1     -34.158   5.082   2.089  1.00 20.00    -0.226 F 
HETATM   11 CL11 UNL     1     -36.237   5.797   3.406  1.00 20.00    -0.083 Cl
ENDBRANCH   3   9
TORSDOF 1
ENDMDL
MODEL 9
REMARK VINA RESULT:      -4.7     12.351     12.859
REMARK  1 active torsions:
REMARK  status: ('A' for Active; 'I' for Inactive)
REMARK    1  A    between atoms: C3_3  and  C5_5 
ROOT
HETATM    1  C1  UNL     1     -34.387  15.233  -5.448  1.00 20.00     0.055 A 
HETATM    2  C2  UNL     1     -33.369  15.821  -4.827  1.00 20.00     0.085 A 
HETATM    3  C3  UNL     1     -34.909  14.119  -4.615  1.00 20.00     0.273 A 
HETATM    4  C4  UNL     1     -33.133  15.153  -3.532  1.00 20.00     0.378 A 
HETATM    5  O6  UNL     1     -34.130  14.129  -3.404  1.00 20.00    -0.273 OA
HETATM    6  F7  UNL     1     -34.700  12.919  -5.218  1.00 20.00    -0.202 F 
HETATM    7  F8  UNL     1     -31.913  14.570  -3.455  1.00 20.00    -0.171 F 
HETATM    8  F9  UNL     1     -33.255  15.996  -2.478  1.00 20.00    -0.171 F 
ENDROOT
BRANCH   3   9
HETATM    9  C5  UNL     1     -36.381  14.246  -4.270  1.00 20.00     0.337 C 
HETATM   10  F10 UNL     1     -36.494  14.872  -3.070  1.00 20.00    -0.226 F 
HETATM   11 CL11 UNL     1     -37.235  15.191  -5.503  1.00 20.00    -0.083 Cl
ENDBRANCH   3   9
TORSDOF 1
ENDMDL
