MODEL 1
REMARK VINA RESULT:      -4.3      0.000      0.000
REMARK  1 active torsions:
REMARK  status: ('A' for Active; 'I' for Inactive)
REMARK    1  A    between atoms: C4_4  and  C9_9 
ROOT
HETATM    1  C1  UNL     1     -35.195  17.503   0.139  1.00 20.00     0.017 C 
HETATM    2  C2  UNL     1     -34.700  16.892  -0.767  1.00 20.00    -0.089 C 
HETATM    3  C3  UNL     1     -34.091  16.170  -1.834  1.00 20.00     0.066 C 
HETATM    4  C4  UNL     1     -34.761  15.632  -2.876  1.00 20.00    -0.068 C 
HETATM    5  C5  UNL     1     -36.270  15.747  -2.991  1.00 20.00     0.044 C 
ENDROOT
BRANCH   4   6
HETATM    6  C9  UNL     1     -34.049  14.863  -4.023  1.00 20.00    -0.028 C 
HETATM    7  C6  UNL     1     -34.690  13.471  -4.216  1.00 20.00     0.019 C 
HETATM    8  C7  UNL     1     -34.117  15.577  -5.394  1.00 20.00     0.019 C 
HETATM    9  C8  UNL     1     -32.556  14.683  -3.681  1.00 20.00     0.019 C 
ENDBRANCH   4   6
TORSDOF 1
ENDMDL
MODEL 2
REMARK VINA RESULT:      -4.3      1.091      1.370
REMARK  1 active torsions:
REMARK  status: ('A' for Active; 'I' for Inactive)
REMARK    1  A    between atoms: C4_4  and  C9_9 
ROOT
HETATM    1  C1  UNL     1     -34.243  17.750  -0.111  1.00 20.00     0.017 C 
HETATM    2  C2  UNL     1     -34.430  16.893  -0.930  1.00 20.00    -0.089 C 
HETATM    3  C3  UNL     1     -34.660  15.862  -1.886  1.00 20.00     0.066 C 
HETATM    4  C4  UNL     1     -34.327  15.939  -3.192  1.00 20.00    -0.068 C 
HETATM    5  C5  UNL     1     -33.671  17.180  -3.769  1.00 20.00     0.044 C 
ENDROOT
BRANCH   4   6
HETATM    6  C9  UNL     1     -34.588  14.781  -4.194  1.00 20.00    -0.028 C 
HETATM    7  C6  UNL     1     -36.047  14.288  -4.078  1.00 20.00     0.019 C 
HETATM    8  C7  UNL     1     -34.368  15.171  -5.675  1.00 20.00     0.019 C 
HETATM    9  C8  UNL     1     -33.637  13.605  -3.890  1.00 20.00     0.019 C 
ENDBRANCH   4   6
TORSDOF 1
ENDMDL
MODEL 3
REMARK VINA RESULT:      -4.3      1.072      1.743
REMARK  1 active torsions:
REMARK  status: ('A' for Active; 'I' for Inactive)
REMARK    1  A    between atoms: C4_4  and  C9_9 
ROOT
HETATM    1  C1  UNL     1     -34.239  17.757  -0.111  1.00 20.00     0.017 C 
HETATM    2  C2  UNL     1     -34.417  16.894  -0.927  1.00 20.00    -0.089 C 
HETATM    3  C3  UNL     1     -34.638  15.857  -1.879  1.00 20.00     0.066 C 
HETATM    4  C4  UNL     1     -34.310  15.934  -3.186  1.00 20.00    -0.068 C 
HETATM    5  C5  UNL     1     -33.671  17.180  -3.770  1.00 20.00     0.044 C 
ENDROOT
BRANCH   4   6
HETATM    6  C9  UNL     1     -34.560  14.769  -4.182  1.00 20.00    -0.028 C 
HETATM    7  C6  UNL     1     -33.592  13.600  -3.897  1.00 20.00     0.019 C 
HETATM    8  C7  UNL     1     -35.992  14.185  -4.119  1.00 20.00     0.019 C 
HETATM    9  C8  UNL     1     -34.337  15.262  -5.627  1.00 20.00     0.019 C 
ENDBRANCH   4   6
TORSDOF 1
ENDMDL
MODEL 4
REMARK VINA RESULT:      -4.3      1.051      1.979
REMARK  1 active torsions:
REMARK  status: ('A' for Active; 'I' for Inactive)
REMARK    1  A    between atoms: C4_4  and  C9_9 
ROOT
HETATM    1  C1  UNL     1     -34.390  17.683  -0.050  1.00 20.00     0.017 C 
HETATM    2  C2  UNL     1     -34.541  16.840  -0.891  1.00 20.00    -0.089 C 
HETATM    3  C3  UNL     1     -34.730  15.825  -1.873  1.00 20.00     0.066 C 
HETATM    4  C4  UNL     1     -34.360  15.932  -3.166  1.00 20.00    -0.068 C 
HETATM    5  C5  UNL     1     -33.702  17.191  -3.700  1.00 20.00     0.044 C 
ENDROOT
BRANCH   4   6
HETATM    6  C9  UNL     1     -34.577  14.790  -4.197  1.00 20.00    -0.028 C 
HETATM    7  C6  UNL     1     -34.317  15.303  -5.631  1.00 20.00     0.019 C 
HETATM    8  C7  UNL     1     -33.649  13.570  -3.988  1.00 20.00     0.019 C 
HETATM    9  C8  UNL     1     -36.028  14.275  -4.106  1.00 20.00     0.019 C 
ENDBRANCH   4   6
TORSDOF 1
ENDMDL
MODEL 5
REMARK VINA RESULT:      -4.2     11.587     13.560
REMARK  1 active torsions:
REMARK  status: ('A' for Active; 'I' for Inactive)
REMARK    1  A    between atoms: C4_4  and  C9_9 
ROOT
HETATM    1  C1  UNL     1     -41.623   2.059  -3.668  1.00 20.00     0.017 C 
HETATM    2  C2  UNL     1     -41.547   2.938  -2.855  1.00 20.00    -0.089 C 
HETATM    3  C3  UNL     1     -41.442   3.970  -1.878  1.00 20.00     0.066 C 
HETATM    4  C4  UNL     1     -42.107   5.143  -1.928  1.00 20.00    -0.068 C 
HETATM    5  C5  UNL     1     -43.042   5.475  -3.077  1.00 20.00     0.044 C 
ENDROOT
BRANCH   4   6
HETATM    6  C9  UNL     1     -41.968   6.233  -0.829  1.00 20.00    -0.028 C 
HETATM    7  C6  UNL     1     -40.622   6.082  -0.089  1.00 20.00     0.019 C 
HETATM    8  C7  UNL     1     -42.016   7.681  -1.372  1.00 20.00     0.019 C 
HETATM    9  C8  UNL     1     -43.118   6.094   0.190  1.00 20.00     0.019 C 
ENDBRANCH   4   6
TORSDOF 1
ENDMDL
MODEL 6
REMARK VINA RESULT:      -4.1     11.560     12.491
REMARK  1 active torsions:
REMARK  status: ('A' for Active; 'I' for Inactive)
REMARK    1  A    between atoms: C4_4  and  C9_9 
ROOT
HETATM    1  C1  UNL     1     -31.821   8.005   1.848  1.00 20.00     0.017 C 
HETATM    2  C2  UNL     1     -32.265   7.464   2.824  1.00 20.00    -0.089 C 
HETATM    3  C3  UNL     1     -32.777   6.835   3.995  1.00 20.00     0.066 C 
HETATM    4  C4  UNL     1     -33.720   5.869   3.995  1.00 20.00    -0.068 C 
HETATM    5  C5  UNL     1     -34.341   5.367   2.704  1.00 20.00     0.044 C 
ENDROOT
BRANCH   4   6
HETATM    6  C9  UNL     1     -34.237   5.204   5.301  1.00 20.00    -0.028 C 
HETATM    7  C6  UNL     1     -35.637   4.592   5.074  1.00 20.00     0.019 C 
HETATM    8  C7  UNL     1     -33.334   4.062   5.824  1.00 20.00     0.019 C 
HETATM    9  C8  UNL     1     -34.328   6.259   6.422  1.00 20.00     0.019 C 
ENDBRANCH   4   6
TORSDOF 1
ENDMDL
MODEL 7
REMARK VINA RESULT:      -4.0     11.347     12.608
REMARK  1 active torsions:
REMARK  status: ('A' for Active; 'I' for Inactive)
REMARK    1  A    between atoms: C4_4  and  C9_9 
ROOT
HETATM    1  C1  UNL     1     -43.038   8.373  -4.793  1.00 20.00     0.017 C 
HETATM    2  C2  UNL     1     -42.585   7.860  -3.807  1.00 20.00    -0.089 C 
HETATM    3  C3  UNL     1     -42.036   7.271  -2.631  1.00 20.00     0.066 C 
HETATM    4  C4  UNL     1     -42.217   5.986  -2.262  1.00 20.00    -0.068 C 
HETATM    5  C5  UNL     1     -43.059   5.034  -3.092  1.00 20.00     0.044 C 
ENDROOT
BRANCH   4   6
HETATM    6  C9  UNL     1     -41.586   5.387  -0.975  1.00 20.00    -0.028 C 
HETATM    7  C6  UNL     1     -40.732   6.450  -0.249  1.00 20.00     0.019 C 
HETATM    8  C7  UNL     1     -42.623   4.874   0.053  1.00 20.00     0.019 C 
HETATM    9  C8  UNL     1     -40.686   4.190  -1.344  1.00 20.00     0.019 C 
ENDBRANCH   4   6
TORSDOF 1
ENDMDL
MODEL 8
REMARK VINA RESULT:      -4.0     11.491     13.527
REMARK  1 active torsions:
REMARK  status: ('A' for Active; 'I' for Inactive)
REMARK    1  A    between atoms: C4_4  and  C9_9 
ROOT
HETATM    1  C1  UNL     1     -41.790   1.767  -3.439  1.00 20.00     0.017 C 
HETATM    2  C2  UNL     1     -42.064   2.905  -3.174  1.00 20.00    -0.089 C 
HETATM    3  C3  UNL     1     -42.405   4.256  -2.875  1.00 20.00     0.066 C 
HETATM    4  C4  UNL     1     -41.764   5.027  -1.972  1.00 20.00    -0.068 C 
HETATM    5  C5  UNL     1     -40.594   4.494  -1.164  1.00 20.00     0.044 C 
ENDROOT
BRANCH   4   6
HETATM    6  C9  UNL     1     -42.167   6.500  -1.690  1.00 20.00    -0.028 C 
HETATM    7  C6  UNL     1     -42.486   7.233  -3.011  1.00 20.00     0.019 C 
HETATM    8  C7  UNL     1     -43.416   6.648  -0.788  1.00 20.00     0.019 C 
HETATM    9  C8  UNL     1     -41.009   7.231  -0.980  1.00 20.00     0.019 C 
ENDBRANCH   4   6
TORSDOF 1
ENDMDL
MODEL 9
REMARK VINA RESULT:      -3.9     12.743     14.409
REMARK  1 active torsions:
REMARK  status: ('A' for Active; 'I' for Inactive)
REMARK    1  A    between atoms: C4_4  and  C9_9 
ROOT
HETATM    1  C1  UNL     1     -40.844   6.165  -0.614  1.00 20.00     0.017 C 
HETATM    2  C2  UNL     1     -41.058   5.130  -1.181  1.00 20.00    -0.089 C 
HETATM    3  C3  UNL     1     -41.294   3.891  -1.845  1.00 20.00     0.066 C 
HETATM    4  C4  UNL     1     -42.301   3.668  -2.715  1.00 20.00    -0.068 C 
HETATM    5  C5  UNL     1     -43.307   4.752  -3.058  1.00 20.00     0.044 C 
ENDROOT
BRANCH   4   6
HETATM    6  C9  UNL     1     -42.509   2.301  -3.424  1.00 20.00    -0.028 C 
HETATM    7  C6  UNL     1     -43.221   1.308  -2.479  1.00 20.00     0.019 C 
HETATM    8  C7  UNL     1     -43.368   2.384  -4.709  1.00 20.00     0.019 C 
HETATM    9  C8  UNL     1     -41.143   1.713  -3.831  1.00 20.00     0.019 C 
ENDBRANCH   4   6
TORSDOF 1
ENDMDL
