MODEL 1
REMARK VINA RESULT:      -4.4      0.000      0.000
REMARK  1 active torsions:
REMARK  status: ('A' for Active; 'I' for Inactive)
REMARK    1  A    between atoms: C4_4  and  C10_10 
ROOT
HETATM    1  C1  UNL     1     -35.254   4.577   4.698  1.00 20.00    -0.004 C 
HETATM    2  C2  UNL     1     -34.327   5.203   3.790  1.00 20.00     0.003 C 
HETATM    3  C3  UNL     1     -35.257   4.869   6.005  1.00 20.00    -0.026 C 
HETATM    4  C4  UNL     1     -33.537   6.220   4.172  1.00 20.00    -0.072 C 
HETATM    5  C5  UNL     1     -34.312   5.869   6.606  1.00 20.00     0.031 C 
HETATM    6  C6  UNL     1     -33.572   6.754   5.585  1.00 20.00     0.038 C 
ENDROOT
BRANCH   4   7
HETATM    7  C10 UNL     1     -32.596   6.900   3.224  1.00 20.00    -0.028 C 
HETATM    8  C7  UNL     1     -32.069   5.875   2.208  1.00 20.00     0.019 C 
HETATM    9  C8  UNL     1     -31.414   7.499   4.004  1.00 20.00     0.019 C 
HETATM   10  C9  UNL     1     -33.330   8.027   2.480  1.00 20.00     0.019 C 
ENDBRANCH   4   7
TORSDOF 1
ENDMDL
MODEL 2
REMARK VINA RESULT:      -4.4     11.403     12.388
REMARK  1 active torsions:
REMARK  status: ('A' for Active; 'I' for Inactive)
REMARK    1  A    between atoms: C4_4  and  C10_10 
ROOT
HETATM    1  C1  UNL     1     -33.620  13.982  -3.876  1.00 20.00    -0.004 C 
HETATM    2  C2  UNL     1     -33.670  15.165  -3.055  1.00 20.00     0.003 C 
HETATM    3  C3  UNL     1     -34.736  13.415  -4.352  1.00 20.00    -0.026 C 
HETATM    4  C4  UNL     1     -34.812  15.846  -2.861  1.00 20.00    -0.072 C 
HETATM    5  C5  UNL     1     -36.101  13.974  -4.075  1.00 20.00     0.031 C 
HETATM    6  C6  UNL     1     -36.111  15.398  -3.488  1.00 20.00     0.038 C 
ENDROOT
BRANCH   4   7
HETATM    7  C10 UNL     1     -34.865  17.098  -2.037  1.00 20.00    -0.028 C 
HETATM    8  C7  UNL     1     -33.781  18.073  -2.523  1.00 20.00     0.019 C 
HETATM    9  C8  UNL     1     -34.619  16.758  -0.558  1.00 20.00     0.019 C 
HETATM   10  C9  UNL     1     -36.247  17.756  -2.179  1.00 20.00     0.019 C 
ENDBRANCH   4   7
TORSDOF 1
ENDMDL
MODEL 3
REMARK VINA RESULT:      -4.4     11.409     12.342
REMARK  1 active torsions:
REMARK  status: ('A' for Active; 'I' for Inactive)
REMARK    1  A    between atoms: C4_4  and  C10_10 
ROOT
HETATM    1  C1  UNL     1     -36.158  14.021  -4.064  1.00 20.00    -0.004 C 
HETATM    2  C2  UNL     1     -36.115  15.272  -3.349  1.00 20.00     0.003 C 
HETATM    3  C3  UNL     1     -35.039  13.362  -4.387  1.00 20.00    -0.026 C 
HETATM    4  C4  UNL     1     -34.972  15.753  -2.833  1.00 20.00    -0.072 C 
HETATM    5  C5  UNL     1     -33.675  13.869  -4.020  1.00 20.00     0.031 C 
HETATM    6  C6  UNL     1     -33.665  15.011  -2.986  1.00 20.00     0.038 C 
ENDROOT
BRANCH   4   7
HETATM    7  C10 UNL     1     -34.925  17.036  -2.058  1.00 20.00    -0.028 C 
HETATM    8  C7  UNL     1     -34.632  16.727  -0.582  1.00 20.00     0.019 C 
HETATM    9  C8  UNL     1     -36.275  17.763  -2.170  1.00 20.00     0.019 C 
HETATM   10  C9  UNL     1     -33.818  17.944  -2.620  1.00 20.00     0.019 C 
ENDBRANCH   4   7
TORSDOF 1
ENDMDL
MODEL 4
REMARK VINA RESULT:      -4.4     11.411     12.346
REMARK  1 active torsions:
REMARK  status: ('A' for Active; 'I' for Inactive)
REMARK    1  A    between atoms: C4_4  and  C10_10 
ROOT
HETATM    1  C1  UNL     1     -36.161  14.024  -4.075  1.00 20.00    -0.004 C 
HETATM    2  C2  UNL     1     -36.116  15.276  -3.363  1.00 20.00     0.003 C 
HETATM    3  C3  UNL     1     -35.042  13.360  -4.391  1.00 20.00    -0.026 C 
HETATM    4  C4  UNL     1     -34.974  15.754  -2.841  1.00 20.00    -0.072 C 
HETATM    5  C5  UNL     1     -33.678  13.862  -4.016  1.00 20.00     0.031 C 
HETATM    6  C6  UNL     1     -33.670  15.006  -2.985  1.00 20.00     0.038 C 
ENDROOT
BRANCH   4   7
HETATM    7  C10 UNL     1     -34.926  17.038  -2.068  1.00 20.00    -0.028 C 
HETATM    8  C7  UNL     1     -36.280  17.754  -2.188  1.00 20.00     0.019 C 
HETATM    9  C8  UNL     1     -33.819  17.944  -2.631  1.00 20.00     0.019 C 
HETATM   10  C9  UNL     1     -34.631  16.744  -0.588  1.00 20.00     0.019 C 
ENDBRANCH   4   7
TORSDOF 1
ENDMDL
MODEL 5
REMARK VINA RESULT:      -4.3      0.140      1.578
REMARK  1 active torsions:
REMARK  status: ('A' for Active; 'I' for Inactive)
REMARK    1  A    between atoms: C4_4  and  C10_10 
ROOT
HETATM    1  C1  UNL     1     -34.298   5.895   6.496  1.00 20.00    -0.004 C 
HETATM    2  C2  UNL     1     -33.457   6.592   5.556  1.00 20.00     0.003 C 
HETATM    3  C3  UNL     1     -35.216   5.009   6.090  1.00 20.00    -0.026 C 
HETATM    4  C4  UNL     1     -33.437   6.273   4.252  1.00 20.00    -0.072 C 
HETATM    5  C5  UNL     1     -35.421   4.674   4.641  1.00 20.00     0.031 C 
HETATM    6  C6  UNL     1     -34.308   5.169   3.698  1.00 20.00     0.038 C 
ENDROOT
BRANCH   4   7
HETATM    7  C10 UNL     1     -32.539   6.969   3.273  1.00 20.00    -0.028 C 
HETATM    8  C7  UNL     1     -32.000   5.947   2.261  1.00 20.00     0.019 C 
HETATM    9  C8  UNL     1     -31.361   7.619   4.018  1.00 20.00     0.019 C 
HETATM   10  C9  UNL     1     -33.327   8.060   2.529  1.00 20.00     0.019 C 
ENDBRANCH   4   7
TORSDOF 1
ENDMDL
MODEL 6
REMARK VINA RESULT:      -4.3     11.470     12.867
REMARK  1 active torsions:
REMARK  status: ('A' for Active; 'I' for Inactive)
REMARK    1  A    between atoms: C4_4  and  C10_10 
ROOT
HETATM    1  C1  UNL     1     -34.660  17.125  -0.158  1.00 20.00    -0.004 C 
HETATM    2  C2  UNL     1     -34.704  16.300  -1.339  1.00 20.00     0.003 C 
HETATM    3  C3  UNL     1     -34.025  18.305  -0.154  1.00 20.00    -0.026 C 
HETATM    4  C4  UNL     1     -34.259  16.738  -2.527  1.00 20.00    -0.072 C 
HETATM    5  C5  UNL     1     -33.335  18.848  -1.371  1.00 20.00     0.031 C 
HETATM    6  C6  UNL     1     -33.674  18.122  -2.686  1.00 20.00     0.038 C 
ENDROOT
BRANCH   4   7
HETATM    7  C10 UNL     1     -34.335  15.899  -3.767  1.00 20.00    -0.028 C 
HETATM    8  C7  UNL     1     -34.126  14.423  -3.395  1.00 20.00     0.019 C 
HETATM    9  C8  UNL     1     -33.243  16.334  -4.759  1.00 20.00     0.019 C 
HETATM   10  C9  UNL     1     -35.712  16.070  -4.429  1.00 20.00     0.019 C 
ENDBRANCH   4   7
TORSDOF 1
ENDMDL
MODEL 7
REMARK VINA RESULT:      -4.3     11.477     12.909
REMARK  1 active torsions:
REMARK  status: ('A' for Active; 'I' for Inactive)
REMARK    1  A    between atoms: C4_4  and  C10_10 
ROOT
HETATM    1  C1  UNL     1     -34.686  17.121  -0.134  1.00 20.00    -0.004 C 
HETATM    2  C2  UNL     1     -34.736  16.306  -1.321  1.00 20.00     0.003 C 
HETATM    3  C3  UNL     1     -34.030  18.289  -0.116  1.00 20.00    -0.026 C 
HETATM    4  C4  UNL     1     -34.273  16.746  -2.503  1.00 20.00    -0.072 C 
HETATM    5  C5  UNL     1     -33.320  18.829  -1.323  1.00 20.00     0.031 C 
HETATM    6  C6  UNL     1     -33.662  18.120  -2.647  1.00 20.00     0.038 C 
ENDROOT
BRANCH   4   7
HETATM    7  C10 UNL     1     -34.355  15.917  -3.750  1.00 20.00    -0.028 C 
HETATM    8  C7  UNL     1     -33.212  16.312  -4.698  1.00 20.00     0.019 C 
HETATM    9  C8  UNL     1     -35.703  16.158  -4.449  1.00 20.00     0.019 C 
HETATM   10  C9  UNL     1     -34.232  14.426  -3.394  1.00 20.00     0.019 C 
ENDBRANCH   4   7
TORSDOF 1
ENDMDL
MODEL 8
REMARK VINA RESULT:      -4.3     11.419     12.896
REMARK  1 active torsions:
REMARK  status: ('A' for Active; 'I' for Inactive)
REMARK    1  A    between atoms: C4_4  and  C10_10 
ROOT
HETATM    1  C1  UNL     1     -34.628  17.156  -0.173  1.00 20.00    -0.004 C 
HETATM    2  C2  UNL     1     -34.683  16.305  -1.335  1.00 20.00     0.003 C 
HETATM    3  C3  UNL     1     -33.998  18.336  -0.201  1.00 20.00    -0.026 C 
HETATM    4  C4  UNL     1     -34.252  16.719  -2.537  1.00 20.00    -0.072 C 
HETATM    5  C5  UNL     1     -33.322  18.856  -1.436  1.00 20.00     0.031 C 
HETATM    6  C6  UNL     1     -33.673  18.101  -2.732  1.00 20.00     0.038 C 
ENDROOT
BRANCH   4   7
HETATM    7  C10 UNL     1     -34.338  15.853  -3.758  1.00 20.00    -0.028 C 
HETATM    8  C7  UNL     1     -35.692  16.080  -4.448  1.00 20.00     0.019 C 
HETATM    9  C8  UNL     1     -34.211  14.373  -3.358  1.00 20.00     0.019 C 
HETATM   10  C9  UNL     1     -33.202  16.209  -4.731  1.00 20.00     0.019 C 
ENDBRANCH   4   7
TORSDOF 1
ENDMDL
MODEL 9
REMARK VINA RESULT:      -4.2      9.656     10.998
REMARK  1 active torsions:
REMARK  status: ('A' for Active; 'I' for Inactive)
REMARK    1  A    between atoms: C4_4  and  C10_10 
ROOT
HETATM    1  C1  UNL     1     -41.893   7.224  -1.907  1.00 20.00    -0.004 C 
HETATM    2  C2  UNL     1     -42.410   5.994  -2.452  1.00 20.00     0.003 C 
HETATM    3  C3  UNL     1     -41.113   7.233  -0.818  1.00 20.00    -0.026 C 
HETATM    4  C4  UNL     1     -42.008   4.795  -1.999  1.00 20.00    -0.072 C 
HETATM    5  C5  UNL     1     -40.717   5.973  -0.105  1.00 20.00     0.031 C 
HETATM    6  C6  UNL     1     -40.998   4.673  -0.882  1.00 20.00     0.038 C 
ENDROOT
BRANCH   4   7
HETATM    7  C10 UNL     1     -42.515   3.511  -2.584  1.00 20.00    -0.028 C 
HETATM    8  C7  UNL     1     -43.320   2.750  -1.520  1.00 20.00     0.019 C 
HETATM    9  C8  UNL     1     -41.330   2.644  -3.044  1.00 20.00     0.019 C 
HETATM   10  C9  UNL     1     -43.417   3.809  -3.793  1.00 20.00     0.019 C 
ENDBRANCH   4   7
TORSDOF 1
ENDMDL
