MODEL 1
REMARK VINA RESULT:      -5.0      0.000      0.000
REMARK  1 active torsions:
REMARK  status: ('A' for Active; 'I' for Inactive)
REMARK    1  A    between atoms: C4_4  and  C9_9 
ROOT
HETATM    1  C5  UNL     1     -33.751  17.336  -3.361  1.00 20.00     0.135 C 
HETATM    2  C6  UNL     1     -34.203  18.485  -2.496  1.00 20.00     0.079 C 
HETATM    3  C7  UNL     1     -34.155  17.871  -1.103  1.00 20.00     0.008 C 
HETATM    4  C8  UNL     1     -34.487  16.401  -1.322  1.00 20.00     0.017 C 
HETATM    5  C9  UNL     1     -33.719  16.029  -2.596  1.00 20.00     0.090 C 
HETATM    6  O10 UNL     1     -33.450  17.458  -4.543  1.00 20.00    -0.297 OA
ENDROOT
BRANCH   5   7
HETATM    7  C4  UNL     1     -34.300  14.856  -3.341  1.00 20.00    -0.023 A 
HETATM    8  C1  UNL     1     -35.649  14.673  -3.723  1.00 20.00     0.034 A 
HETATM    9  C2  UNL     1     -35.701  13.464  -4.376  1.00 20.00     0.142 A 
HETATM   10  O11 UNL     1     -34.470  12.891  -4.419  1.00 20.00    -0.334 OA
HETATM   11  C3  UNL     1     -33.622  13.745  -3.787  1.00 20.00     0.149 A 
ENDBRANCH   5   7
TORSDOF 1
ENDMDL
MODEL 2
REMARK VINA RESULT:      -4.7      1.569      4.244
REMARK  1 active torsions:
REMARK  status: ('A' for Active; 'I' for Inactive)
REMARK    1  A    between atoms: C4_4  and  C9_9 
ROOT
HETATM    1  C5  UNL     1     -33.560  14.764  -3.674  1.00 20.00     0.135 C 
HETATM    2  C6  UNL     1     -34.214  13.441  -3.984  1.00 20.00     0.079 C 
HETATM    3  C7  UNL     1     -35.653  13.857  -4.264  1.00 20.00     0.008 C 
HETATM    4  C8  UNL     1     -35.881  15.067  -3.367  1.00 20.00     0.017 C 
HETATM    5  C9  UNL     1     -34.578  15.868  -3.479  1.00 20.00     0.090 C 
HETATM    6  O10 UNL     1     -32.346  14.912  -3.589  1.00 20.00    -0.297 OA
ENDROOT
BRANCH   5   7
HETATM    7  C4  UNL     1     -34.307  16.765  -2.300  1.00 20.00    -0.023 A 
HETATM    8  C1  UNL     1     -34.620  16.508  -0.945  1.00 20.00     0.034 A 
HETATM    9  C2  UNL     1     -34.185  17.605  -0.237  1.00 20.00     0.142 A 
HETATM   10  O11 UNL     1     -33.626  18.521  -1.072  1.00 20.00    -0.334 OA
HETATM   11  C3  UNL     1     -33.704  18.002  -2.326  1.00 20.00     0.149 A 
ENDBRANCH   5   7
TORSDOF 1
ENDMDL
MODEL 3
REMARK VINA RESULT:      -4.6      1.511      4.294
REMARK  1 active torsions:
REMARK  status: ('A' for Active; 'I' for Inactive)
REMARK    1  A    between atoms: C4_4  and  C9_9 
ROOT
HETATM    1  C5  UNL     1     -35.870  14.876  -3.782  1.00 20.00     0.135 C 
HETATM    2  C6  UNL     1     -35.602  14.103  -5.049  1.00 20.00     0.079 C 
HETATM    3  C7  UNL     1     -34.304  13.381  -4.711  1.00 20.00     0.008 C 
HETATM    4  C8  UNL     1     -33.572  14.331  -3.772  1.00 20.00     0.017 C 
HETATM    5  C9  UNL     1     -34.675  14.871  -2.851  1.00 20.00     0.090 C 
HETATM    6  O10 UNL     1     -36.932  15.440  -3.548  1.00 20.00    -0.297 OA
ENDROOT
BRANCH   5   7
HETATM    7  C4  UNL     1     -34.358  16.208  -2.236  1.00 20.00    -0.023 A 
HETATM    8  C1  UNL     1     -34.557  16.595  -0.890  1.00 20.00     0.034 A 
HETATM    9  C2  UNL     1     -34.121  17.897  -0.798  1.00 20.00     0.142 A 
HETATM   10  O11 UNL     1     -33.667  18.334  -2.002  1.00 20.00    -0.334 OA
HETATM   11  C3  UNL     1     -33.814  17.301  -2.871  1.00 20.00     0.149 A 
ENDBRANCH   5   7
TORSDOF 1
ENDMDL
MODEL 4
REMARK VINA RESULT:      -4.5      1.111      1.111
REMARK  1 active torsions:
REMARK  status: ('A' for Active; 'I' for Inactive)
REMARK    1  A    between atoms: C4_4  and  C9_9 
ROOT
HETATM    1  C5  UNL     1     -35.277  17.483  -3.106  1.00 20.00     0.135 C 
HETATM    2  C6  UNL     1     -35.950  18.222  -1.978  1.00 20.00     0.079 C 
HETATM    3  C7  UNL     1     -35.100  17.816  -0.781  1.00 20.00     0.008 C 
HETATM    4  C8  UNL     1     -34.630  16.404  -1.108  1.00 20.00     0.017 C 
HETATM    5  C9  UNL     1     -34.278  16.462  -2.600  1.00 20.00     0.090 C 
HETATM    6  O10 UNL     1     -35.520  17.691  -4.289  1.00 20.00    -0.297 OA
ENDROOT
BRANCH   5   7
HETATM    7  C4  UNL     1     -34.342  15.129  -3.296  1.00 20.00    -0.023 A 
HETATM    8  C1  UNL     1     -35.505  14.427  -3.690  1.00 20.00     0.034 A 
HETATM    9  C2  UNL     1     -35.069  13.267  -4.285  1.00 20.00     0.142 A 
HETATM   10  O11 UNL     1     -33.711  13.209  -4.282  1.00 20.00    -0.334 OA
HETATM   11  C3  UNL     1     -33.276  14.346  -3.678  1.00 20.00     0.149 A 
ENDBRANCH   5   7
TORSDOF 1
ENDMDL
MODEL 5
REMARK VINA RESULT:      -4.5      2.590      4.032
REMARK  1 active torsions:
REMARK  status: ('A' for Active; 'I' for Inactive)
REMARK    1  A    between atoms: C4_4  and  C9_9 
ROOT
HETATM    1  C5  UNL     1     -34.519  13.595  -4.153  1.00 20.00     0.135 C 
HETATM    2  C6  UNL     1     -33.084  13.657  -3.695  1.00 20.00     0.079 C 
HETATM    3  C7  UNL     1     -32.877  15.153  -3.500  1.00 20.00     0.008 C 
HETATM    4  C8  UNL     1     -33.775  15.801  -4.546  1.00 20.00     0.017 C 
HETATM    5  C9  UNL     1     -35.060  14.965  -4.506  1.00 20.00     0.090 C 
HETATM    6  O10 UNL     1     -35.159  12.553  -4.228  1.00 20.00    -0.297 OA
ENDROOT
BRANCH   5   7
HETATM    7  C4  UNL     1     -35.860  15.010  -5.781  1.00 20.00    -0.023 A 
HETATM    8  C1  UNL     1     -35.410  14.678  -7.081  1.00 20.00     0.034 A 
HETATM    9  C2  UNL     1     -36.485  14.870  -7.918  1.00 20.00     0.142 A 
HETATM   10  O11 UNL     1     -37.566  15.300  -7.216  1.00 20.00    -0.334 OA
HETATM   11  C3  UNL     1     -37.178  15.382  -5.916  1.00 20.00     0.149 A 
ENDBRANCH   5   7
TORSDOF 1
ENDMDL
MODEL 6
REMARK VINA RESULT:      -4.4      1.760      4.230
REMARK  1 active torsions:
REMARK  status: ('A' for Active; 'I' for Inactive)
REMARK    1  A    between atoms: C4_4  and  C9_9 
ROOT
HETATM    1  C5  UNL     1     -35.705  15.202  -4.341  1.00 20.00     0.135 C 
HETATM    2  C6  UNL     1     -35.261  14.321  -5.481  1.00 20.00     0.079 C 
HETATM    3  C7  UNL     1     -34.360  13.317  -4.773  1.00 20.00     0.008 C 
HETATM    4  C8  UNL     1     -33.742  14.103  -3.623  1.00 20.00     0.017 C 
HETATM    5  C9  UNL     1     -34.902  14.948  -3.082  1.00 20.00     0.090 C 
HETATM    6  O10 UNL     1     -36.609  16.024  -4.436  1.00 20.00    -0.297 OA
ENDROOT
BRANCH   5   7
HETATM    7  C4  UNL     1     -34.466  16.194  -2.358  1.00 20.00    -0.023 A 
HETATM    8  C1  UNL     1     -33.791  17.308  -2.911  1.00 20.00     0.034 A 
HETATM    9  C2  UNL     1     -33.605  18.195  -1.876  1.00 20.00     0.142 A 
HETATM   10  O11 UNL     1     -34.122  17.696  -0.721  1.00 20.00    -0.334 OA
HETATM   11  C3  UNL     1     -34.644  16.479  -1.024  1.00 20.00     0.149 A 
ENDBRANCH   5   7
TORSDOF 1
ENDMDL
MODEL 7
REMARK VINA RESULT:      -4.3      2.297      3.714
REMARK  1 active torsions:
REMARK  status: ('A' for Active; 'I' for Inactive)
REMARK    1  A    between atoms: C4_4  and  C9_9 
ROOT
HETATM    1  C5  UNL     1     -34.802  13.794  -3.918  1.00 20.00     0.135 C 
HETATM    2  C6  UNL     1     -33.386  14.307  -3.841  1.00 20.00     0.079 C 
HETATM    3  C7  UNL     1     -33.558  15.592  -3.040  1.00 20.00     0.008 C 
HETATM    4  C8  UNL     1     -34.941  16.099  -3.426  1.00 20.00     0.017 C 
HETATM    5  C9  UNL     1     -35.807  14.833  -3.466  1.00 20.00     0.090 C 
HETATM    6  O10 UNL     1     -35.091  12.668  -4.306  1.00 20.00    -0.297 OA
ENDROOT
BRANCH   5   7
HETATM    7  C4  UNL     1     -37.022  14.950  -4.347  1.00 20.00    -0.023 A 
HETATM    8  C1  UNL     1     -38.371  14.752  -3.970  1.00 20.00     0.034 A 
HETATM    9  C2  UNL     1     -39.121  14.969  -5.103  1.00 20.00     0.142 A 
HETATM   10  O11 UNL     1     -38.318  15.286  -6.153  1.00 20.00    -0.334 OA
HETATM   11  C3  UNL     1     -37.043  15.273  -5.685  1.00 20.00     0.149 A 
ENDBRANCH   5   7
TORSDOF 1
ENDMDL
MODEL 8
REMARK VINA RESULT:      -4.3      2.080      4.387
REMARK  1 active torsions:
REMARK  status: ('A' for Active; 'I' for Inactive)
REMARK    1  A    between atoms: C4_4  and  C9_9 
ROOT
HETATM    1  C5  UNL     1     -34.710  13.894  -5.176  1.00 20.00     0.135 C 
HETATM    2  C6  UNL     1     -35.104  13.873  -6.631  1.00 20.00     0.079 C 
HETATM    3  C7  UNL     1     -34.356  15.083  -7.178  1.00 20.00     0.008 C 
HETATM    4  C8  UNL     1     -34.317  16.065  -6.015  1.00 20.00     0.017 C 
HETATM    5  C9  UNL     1     -34.021  15.187  -4.792  1.00 20.00     0.090 C 
HETATM    6  O10 UNL     1     -34.931  12.968  -4.404  1.00 20.00    -0.297 OA
ENDROOT
BRANCH   5   7
HETATM    7  C4  UNL     1     -34.485  15.778  -3.488  1.00 20.00    -0.023 A 
HETATM    8  C1  UNL     1     -33.694  16.057  -2.349  1.00 20.00     0.034 A 
HETATM    9  C2  UNL     1     -34.548  16.587  -1.410  1.00 20.00     0.142 A 
HETATM   10  O11 UNL     1     -35.815  16.650  -1.898  1.00 20.00    -0.334 OA
HETATM   11  C3  UNL     1     -35.768  16.157  -3.164  1.00 20.00     0.149 A 
ENDBRANCH   5   7
TORSDOF 1
ENDMDL
MODEL 9
REMARK VINA RESULT:      -4.3     12.334     14.137
REMARK  1 active torsions:
REMARK  status: ('A' for Active; 'I' for Inactive)
REMARK    1  A    between atoms: C4_4  and  C9_9 
ROOT
HETATM    1  C5  UNL     1     -42.368   5.797  -2.403  1.00 20.00     0.135 C 
HETATM    2  C6  UNL     1     -42.361   6.817  -1.293  1.00 20.00     0.079 C 
HETATM    3  C7  UNL     1     -41.180   6.358  -0.448  1.00 20.00     0.008 C 
HETATM    4  C8  UNL     1     -41.158   4.844  -0.614  1.00 20.00     0.017 C 
HETATM    5  C9  UNL     1     -41.456   4.626  -2.103  1.00 20.00     0.090 C 
HETATM    6  O10 UNL     1     -43.039   5.913  -3.422  1.00 20.00    -0.297 OA
ENDROOT
BRANCH   5   7
HETATM    7  C4  UNL     1     -42.047   3.277  -2.418  1.00 20.00    -0.023 A 
HETATM    8  C1  UNL     1     -41.548   2.319  -3.330  1.00 20.00     0.034 A 
HETATM    9  C2  UNL     1     -42.415   1.253  -3.278  1.00 20.00     0.142 A 
HETATM   10  O11 UNL     1     -43.417   1.495  -2.393  1.00 20.00    -0.334 OA
HETATM   11  C3  UNL     1     -43.186   2.729  -1.873  1.00 20.00     0.149 A 
ENDBRANCH   5   7
TORSDOF 1
ENDMDL
