MODEL 1
REMARK VINA RESULT:      -4.1      0.000      0.000
REMARK  4 active torsions:
REMARK  status: ('A' for Active; 'I' for Inactive)
REMARK    1  A    between atoms: C5_5  and  C8_8 
REMARK    2  A    between atoms: C7_7  and  N10_10 
REMARK    3  A    between atoms: C8_8  and  N10_10 
REMARK    4  A    between atoms: C9_9  and  N10_10 
ROOT
HETATM    1  C1  UNL     1     -34.708  14.922  -7.450  1.00 20.00     0.013 C 
HETATM    2  C2  UNL     1     -34.216  15.613  -6.600  1.00 20.00    -0.087 C 
HETATM    3  C7  UNL     1     -33.614  16.459  -5.567  1.00 20.00     0.364 C 
ENDROOT
BRANCH   3   4
HETATM    4  N10 UNL     1     -33.962  15.972  -4.233  1.00 20.00     0.099 N 
BRANCH   4   5
HETATM    5  C8  UNL     1     -34.123  17.092  -3.306  1.00 20.00     0.278 C 
BRANCH   5   6
HETATM    6  C5  UNL     1     -33.708  16.711  -1.925  1.00 20.00     0.014 A 
HETATM    7  C3  UNL     1     -33.745  17.726  -0.816  1.00 20.00     0.007 A 
HETATM    8  C4  UNL     1     -34.734  16.594  -0.832  1.00 20.00     0.007 A 
ENDBRANCH   5   6
ENDBRANCH   4   5
BRANCH   4   9
HETATM    9  C9  UNL     1     -32.942  15.047  -3.743  1.00 20.00     0.269 C 
HETATM   10  C6  UNL     1     -33.437  13.640  -3.762  1.00 20.00     0.037 C 
ENDBRANCH   4   9
ENDBRANCH   3   4
TORSDOF 4
ENDMDL
MODEL 2
REMARK VINA RESULT:      -4.1      1.177      4.121
REMARK  4 active torsions:
REMARK  status: ('A' for Active; 'I' for Inactive)
REMARK    1  A    between atoms: C5_5  and  C8_8 
REMARK    2  A    between atoms: C7_7  and  N10_10 
REMARK    3  A    between atoms: C8_8  and  N10_10 
REMARK    4  A    between atoms: C9_9  and  N10_10 
ROOT
HETATM    1  C1  UNL     1     -34.502  16.909  -0.629  1.00 20.00     0.013 C 
HETATM    2  C2  UNL     1     -34.659  16.264  -1.630  1.00 20.00    -0.087 C 
HETATM    3  C7  UNL     1     -34.857  15.477  -2.849  1.00 20.00     0.364 C 
ENDROOT
BRANCH   3   4
HETATM    4  N10 UNL     1     -33.572  15.069  -3.415  1.00 20.00     0.099 N 
BRANCH   4   5
HETATM    5  C8  UNL     1     -33.104  16.059  -4.384  1.00 20.00     0.278 C 
BRANCH   5   6
HETATM    6  C5  UNL     1     -34.237  16.604  -5.186  1.00 20.00     0.014 A 
HETATM    7  C3  UNL     1     -34.006  17.729  -6.157  1.00 20.00     0.007 A 
HETATM    8  C4  UNL     1     -34.308  16.347  -6.666  1.00 20.00     0.007 A 
ENDBRANCH   5   6
ENDBRANCH   4   5
BRANCH   4   9
HETATM    9  C9  UNL     1     -33.684  13.753  -4.042  1.00 20.00     0.269 C 
HETATM   10  C6  UNL     1     -35.111  13.345  -4.187  1.00 20.00     0.037 C 
ENDBRANCH   4   9
ENDBRANCH   3   4
TORSDOF 4
ENDMDL
MODEL 3
REMARK VINA RESULT:      -4.1      1.099      2.322
REMARK  4 active torsions:
REMARK  status: ('A' for Active; 'I' for Inactive)
REMARK    1  A    between atoms: C5_5  and  C8_8 
REMARK    2  A    between atoms: C7_7  and  N10_10 
REMARK    3  A    between atoms: C8_8  and  N10_10 
REMARK    4  A    between atoms: C9_9  and  N10_10 
ROOT
HETATM    1  C1  UNL     1     -34.988  13.288  -4.569  1.00 20.00     0.013 C 
HETATM    2  C2  UNL     1     -34.067  13.961  -4.195  1.00 20.00    -0.087 C 
HETATM    3  C7  UNL     1     -32.940  14.777  -3.736  1.00 20.00     0.364 C 
ENDROOT
BRANCH   3   4
HETATM    4  N10 UNL     1     -33.187  16.194  -4.002  1.00 20.00     0.099 N 
BRANCH   4   5
HETATM    5  C8  UNL     1     -34.229  16.707  -3.115  1.00 20.00     0.278 C 
BRANCH   5   6
HETATM    6  C5  UNL     1     -33.821  16.593  -1.684  1.00 20.00     0.014 A 
HETATM    7  C3  UNL     1     -33.667  17.827  -0.840  1.00 20.00     0.007 A 
HETATM    8  C4  UNL     1     -34.811  16.884  -0.590  1.00 20.00     0.007 A 
ENDBRANCH   5   6
ENDBRANCH   4   5
BRANCH   4   9
HETATM    9  C9  UNL     1     -33.563  16.393  -5.401  1.00 20.00     0.269 C 
HETATM   10  C6  UNL     1     -33.669  17.843  -5.729  1.00 20.00     0.037 C 
ENDBRANCH   4   9
ENDBRANCH   3   4
TORSDOF 4
ENDMDL
MODEL 4
REMARK VINA RESULT:      -3.9      1.723      4.617
REMARK  4 active torsions:
REMARK  status: ('A' for Active; 'I' for Inactive)
REMARK    1  A    between atoms: C5_5  and  C8_8 
REMARK    2  A    between atoms: C7_7  and  N10_10 
REMARK    3  A    between atoms: C8_8  and  N10_10 
REMARK    4  A    between atoms: C9_9  and  N10_10 
ROOT
HETATM    1  C1  UNL     1     -34.870  17.439   0.330  1.00 20.00     0.013 C 
HETATM    2  C2  UNL     1     -34.468  16.995  -0.711  1.00 20.00    -0.087 C 
HETATM    3  C7  UNL     1     -33.972  16.451  -1.977  1.00 20.00     0.364 C 
ENDROOT
BRANCH   3   4
HETATM    4  N10 UNL     1     -34.749  16.972  -3.102  1.00 20.00     0.099 N 
BRANCH   4   5
HETATM    5  C8  UNL     1     -34.972  15.924  -4.097  1.00 20.00     0.278 C 
BRANCH   5   6
HETATM    6  C5  UNL     1     -34.783  14.569  -3.503  1.00 20.00     0.014 A 
HETATM    7  C3  UNL     1     -35.193  13.342  -4.270  1.00 20.00     0.007 A 
HETATM    8  C4  UNL     1     -33.736  13.642  -4.055  1.00 20.00     0.007 A 
ENDBRANCH   5   6
ENDBRANCH   4   5
BRANCH   4   9
HETATM    9  C9  UNL     1     -34.068  18.115  -3.707  1.00 20.00     0.269 C 
HETATM   10  C6  UNL     1     -33.541  17.774  -5.060  1.00 20.00     0.037 C 
ENDBRANCH   4   9
ENDBRANCH   3   4
TORSDOF 4
ENDMDL
MODEL 5
REMARK VINA RESULT:      -3.8      2.591      2.786
REMARK  4 active torsions:
REMARK  status: ('A' for Active; 'I' for Inactive)
REMARK    1  A    between atoms: C5_5  and  C8_8 
REMARK    2  A    between atoms: C7_7  and  N10_10 
REMARK    3  A    between atoms: C8_8  and  N10_10 
REMARK    4  A    between atoms: C9_9  and  N10_10 
ROOT
HETATM    1  C1  UNL     1     -38.924  15.039  -3.551  1.00 20.00     0.013 C 
HETATM    2  C2  UNL     1     -37.772  14.987  -3.888  1.00 20.00    -0.087 C 
HETATM    3  C7  UNL     1     -36.369  14.921  -4.304  1.00 20.00     0.364 C 
ENDROOT
BRANCH   3   4
HETATM    4  N10 UNL     1     -35.484  14.933  -3.140  1.00 20.00     0.099 N 
BRANCH   4   5
HETATM    5  C8  UNL     1     -35.429  16.272  -2.554  1.00 20.00     0.278 C 
BRANCH   5   6
HETATM    6  C5  UNL     1     -34.533  16.300  -1.362  1.00 20.00     0.014 A 
HETATM    7  C3  UNL     1     -33.665  17.499  -1.095  1.00 20.00     0.007 A 
HETATM    8  C4  UNL     1     -34.842  17.210  -0.205  1.00 20.00     0.007 A 
ENDBRANCH   5   6
ENDBRANCH   4   5
BRANCH   4   9
HETATM    9  C9  UNL     1     -34.144  14.483  -3.513  1.00 20.00     0.269 C 
HETATM   10  C6  UNL     1     -34.205  13.402  -4.538  1.00 20.00     0.037 C 
ENDBRANCH   4   9
ENDBRANCH   3   4
TORSDOF 4
ENDMDL
MODEL 6
REMARK VINA RESULT:      -3.8      1.463      2.434
REMARK  4 active torsions:
REMARK  status: ('A' for Active; 'I' for Inactive)
REMARK    1  A    between atoms: C5_5  and  C8_8 
REMARK    2  A    between atoms: C7_7  and  N10_10 
REMARK    3  A    between atoms: C8_8  and  N10_10 
REMARK    4  A    between atoms: C9_9  and  N10_10 
ROOT
HETATM    1  C1  UNL     1     -36.625  14.698  -3.875  1.00 20.00     0.013 C 
HETATM    2  C2  UNL     1     -35.438  14.644  -3.694  1.00 20.00    -0.087 C 
HETATM    3  C7  UNL     1     -33.993  14.573  -3.472  1.00 20.00     0.364 C 
ENDROOT
BRANCH   3   4
HETATM    4  N10 UNL     1     -33.380  15.891  -3.633  1.00 20.00     0.099 N 
BRANCH   4   5
HETATM    5  C8  UNL     1     -34.129  16.898  -2.883  1.00 20.00     0.278 C 
BRANCH   5   6
HETATM    6  C5  UNL     1     -33.730  16.904  -1.445  1.00 20.00     0.014 A 
HETATM    7  C3  UNL     1     -33.905  18.146  -0.616  1.00 20.00     0.007 A 
HETATM    8  C4  UNL     1     -34.780  16.949  -0.370  1.00 20.00     0.007 A 
ENDBRANCH   5   6
ENDBRANCH   4   5
BRANCH   4   9
HETATM    9  C9  UNL     1     -33.312  16.253  -5.048  1.00 20.00     0.269 C 
HETATM   10  C6  UNL     1     -33.603  17.702  -5.247  1.00 20.00     0.037 C 
ENDBRANCH   4   9
ENDBRANCH   3   4
TORSDOF 4
ENDMDL
MODEL 7
REMARK VINA RESULT:      -3.8     11.157     12.756
REMARK  4 active torsions:
REMARK  status: ('A' for Active; 'I' for Inactive)
REMARK    1  A    between atoms: C5_5  and  C8_8 
REMARK    2  A    between atoms: C7_7  and  N10_10 
REMARK    3  A    between atoms: C8_8  and  N10_10 
REMARK    4  A    between atoms: C9_9  and  N10_10 
ROOT
HETATM    1  C1  UNL     1     -32.062   8.838   1.462  1.00 20.00     0.013 C 
HETATM    2  C2  UNL     1     -32.157   7.928   2.240  1.00 20.00    -0.087 C 
HETATM    3  C7  UNL     1     -32.266   6.816   3.188  1.00 20.00     0.364 C 
ENDROOT
BRANCH   3   4
HETATM    4  N10 UNL     1     -33.629   6.713   3.707  1.00 20.00     0.099 N 
BRANCH   4   5
HETATM    5  C8  UNL     1     -33.620   6.148   5.056  1.00 20.00     0.278 C 
BRANCH   5   6
HETATM    6  C5  UNL     1     -34.862   5.364   5.319  1.00 20.00     0.014 A 
HETATM    7  C3  UNL     1     -34.783   3.886   5.581  1.00 20.00     0.007 A 
HETATM    8  C4  UNL     1     -35.141   4.828   6.696  1.00 20.00     0.007 A 
ENDBRANCH   5   6
ENDBRANCH   4   5
BRANCH   4   9
HETATM    9  C9  UNL     1     -34.455   5.898   2.818  1.00 20.00     0.269 C 
HETATM   10  C6  UNL     1     -33.638   4.866   2.119  1.00 20.00     0.037 C 
ENDBRANCH   4   9
ENDBRANCH   3   4
TORSDOF 4
ENDMDL
MODEL 8
REMARK VINA RESULT:      -3.8      2.067      4.790
REMARK  4 active torsions:
REMARK  status: ('A' for Active; 'I' for Inactive)
REMARK    1  A    between atoms: C5_5  and  C8_8 
REMARK    2  A    between atoms: C7_7  and  N10_10 
REMARK    3  A    between atoms: C8_8  and  N10_10 
REMARK    4  A    between atoms: C9_9  and  N10_10 
ROOT
HETATM    1  C1  UNL     1     -34.646  16.700  -0.794  1.00 20.00     0.013 C 
HETATM    2  C2  UNL     1     -34.460  16.104  -1.820  1.00 20.00    -0.087 C 
HETATM    3  C7  UNL     1     -34.228  15.379  -3.071  1.00 20.00     0.364 C 
ENDROOT
BRANCH   3   4
HETATM    4  N10 UNL     1     -35.432  14.658  -3.482  1.00 20.00     0.099 N 
BRANCH   4   5
HETATM    5  C8  UNL     1     -35.284  14.152  -4.845  1.00 20.00     0.278 C 
BRANCH   5   6
HETATM    6  C5  UNL     1     -34.479  15.088  -5.682  1.00 20.00     0.014 A 
HETATM    7  C3  UNL     1     -34.419  14.909  -7.174  1.00 20.00     0.007 A 
HETATM    8  C4  UNL     1     -35.165  16.074  -6.587  1.00 20.00     0.007 A 
ENDBRANCH   5   6
ENDBRANCH   4   5
BRANCH   4   9
HETATM    9  C9  UNL     1     -36.605  15.526  -3.383  1.00 20.00     0.269 C 
HETATM   10  C6  UNL     1     -37.828  14.835  -3.882  1.00 20.00     0.037 C 
ENDBRANCH   4   9
ENDBRANCH   3   4
TORSDOF 4
ENDMDL
MODEL 9
REMARK VINA RESULT:      -3.7     11.496     13.445
REMARK  4 active torsions:
REMARK  status: ('A' for Active; 'I' for Inactive)
REMARK    1  A    between atoms: C5_5  and  C8_8 
REMARK    2  A    between atoms: C7_7  and  N10_10 
REMARK    3  A    between atoms: C8_8  and  N10_10 
REMARK    4  A    between atoms: C9_9  and  N10_10 
ROOT
HETATM    1  C1  UNL     1     -33.361   7.732   7.142  1.00 20.00     0.013 C 
HETATM    2  C2  UNL     1     -33.831   6.706   6.729  1.00 20.00    -0.087 C 
HETATM    3  C7  UNL     1     -34.404   5.454   6.232  1.00 20.00     0.364 C 
ENDROOT
BRANCH   3   4
HETATM    4  N10 UNL     1     -34.137   5.295   4.803  1.00 20.00     0.099 N 
BRANCH   4   5
HETATM    5  C8  UNL     1     -33.816   6.587   4.197  1.00 20.00     0.278 C 
BRANCH   5   6
HETATM    6  C5  UNL     1     -32.547   6.514   3.416  1.00 20.00     0.014 A 
HETATM    7  C3  UNL     1     -32.207   7.588   2.420  1.00 20.00     0.007 A 
HETATM    8  C4  UNL     1     -31.428   7.477   3.701  1.00 20.00     0.007 A 
ENDBRANCH   5   6
ENDBRANCH   4   5
BRANCH   4   9
HETATM    9  C9  UNL     1     -35.286   4.688   4.132  1.00 20.00     0.269 C 
HETATM   10  C6  UNL     1     -36.116   5.719   3.447  1.00 20.00     0.037 C 
ENDBRANCH   4   9
ENDBRANCH   3   4
TORSDOF 4
ENDMDL
