MODEL 1
REMARK VINA RESULT:      -4.7      0.000      0.000
REMARK  1 active torsions:
REMARK  status: ('A' for Active; 'I' for Inactive)
REMARK    1  A    between atoms: C4_4  and  C9_9 
ROOT
HETATM    1  C5  UNL     1     -33.994  17.545  -3.004  1.00 20.00     0.135 C 
HETATM    2  C6  UNL     1     -33.447  18.327  -1.836  1.00 20.00     0.079 C 
HETATM    3  C7  UNL     1     -34.314  17.827  -0.688  1.00 20.00     0.008 C 
HETATM    4  C8  UNL     1     -34.634  16.383  -1.051  1.00 20.00     0.017 C 
HETATM    5  C9  UNL     1     -34.917  16.430  -2.558  1.00 20.00     0.090 C 
HETATM    6  O10 UNL     1     -33.715  17.791  -4.171  1.00 20.00    -0.297 OA
ENDROOT
BRANCH   5   7
HETATM    7  C4  UNL     1     -34.698  15.118  -3.263  1.00 20.00    -0.023 A 
HETATM    8  C1  UNL     1     -35.674  14.332  -3.921  1.00 20.00     0.034 A 
HETATM    9  C2  UNL     1     -35.009  13.231  -4.412  1.00 20.00     0.142 A 
HETATM   10  O11 UNL     1     -33.688  13.291  -4.096  1.00 20.00    -0.334 OA
HETATM   11  C3  UNL     1     -33.508  14.442  -3.398  1.00 20.00     0.149 A 
ENDBRANCH   5   7
TORSDOF 1
ENDMDL
MODEL 2
REMARK VINA RESULT:      -4.7      1.054      4.267
REMARK  1 active torsions:
REMARK  status: ('A' for Active; 'I' for Inactive)
REMARK    1  A    between atoms: C4_4  and  C9_9 
ROOT
HETATM    1  C5  UNL     1     -33.480  14.512  -3.666  1.00 20.00     0.135 C 
HETATM    2  C6  UNL     1     -34.212  13.714  -4.717  1.00 20.00     0.079 C 
HETATM    3  C7  UNL     1     -35.646  13.759  -4.205  1.00 20.00     0.008 C 
HETATM    4  C8  UNL     1     -35.759  15.107  -3.503  1.00 20.00     0.017 C 
HETATM    5  C9  UNL     1     -34.433  15.246  -2.745  1.00 20.00     0.090 C 
HETATM    6  O10 UNL     1     -32.259  14.554  -3.580  1.00 20.00    -0.297 OA
ENDROOT
BRANCH   5   7
HETATM    7  C4  UNL     1     -34.043  16.670  -2.451  1.00 20.00    -0.023 A 
HETATM    8  C1  UNL     1     -33.790  17.239  -1.180  1.00 20.00     0.034 A 
HETATM    9  C2  UNL     1     -33.471  18.558  -1.408  1.00 20.00     0.142 A 
HETATM   10  O11 UNL     1     -33.513  18.836  -2.738  1.00 20.00    -0.334 OA
HETATM   11  C3  UNL     1     -33.861  17.682  -3.365  1.00 20.00     0.149 A 
ENDBRANCH   5   7
TORSDOF 1
ENDMDL
MODEL 3
REMARK VINA RESULT:      -4.6     11.355     12.554
REMARK  1 active torsions:
REMARK  status: ('A' for Active; 'I' for Inactive)
REMARK    1  A    between atoms: C4_4  and  C9_9 
ROOT
HETATM    1  C5  UNL     1     -34.104   6.067   5.905  1.00 20.00     0.135 C 
HETATM    2  C6  UNL     1     -34.490   4.736   6.500  1.00 20.00     0.079 C 
HETATM    3  C7  UNL     1     -35.346   4.132   5.394  1.00 20.00     0.008 C 
HETATM    4  C8  UNL     1     -34.748   4.681   4.105  1.00 20.00     0.017 C 
HETATM    5  C9  UNL     1     -34.441   6.148   4.430  1.00 20.00     0.090 C 
HETATM    6  O10 UNL     1     -33.578   6.967   6.549  1.00 20.00    -0.297 OA
ENDROOT
BRANCH   5   7
HETATM    7  C4  UNL     1     -33.359   6.752   3.575  1.00 20.00    -0.023 A 
HETATM    8  C1  UNL     1     -33.387   8.009   2.926  1.00 20.00     0.034 A 
HETATM    9  C2  UNL     1     -32.185   8.127   2.268  1.00 20.00     0.142 A 
HETATM   10  O11 UNL     1     -31.420   7.021   2.470  1.00 20.00    -0.334 OA
HETATM   11  C3  UNL     1     -32.141   6.190   3.266  1.00 20.00     0.149 A 
ENDBRANCH   5   7
TORSDOF 1
ENDMDL
MODEL 4
REMARK VINA RESULT:      -4.6      0.687      1.171
REMARK  1 active torsions:
REMARK  status: ('A' for Active; 'I' for Inactive)
REMARK    1  A    between atoms: C4_4  and  C9_9 
ROOT
HETATM    1  C5  UNL     1     -34.348  17.507  -3.259  1.00 20.00     0.135 C 
HETATM    2  C6  UNL     1     -33.670  18.339  -2.199  1.00 20.00     0.079 C 
HETATM    3  C7  UNL     1     -34.305  17.804  -0.923  1.00 20.00     0.008 C 
HETATM    4  C8  UNL     1     -34.588  16.337  -1.222  1.00 20.00     0.017 C 
HETATM    5  C9  UNL     1     -35.115  16.344  -2.663  1.00 20.00     0.090 C 
HETATM    6  O10 UNL     1     -34.279  17.752  -4.457  1.00 20.00    -0.297 OA
ENDROOT
BRANCH   5   7
HETATM    7  C4  UNL     1     -34.931  15.038  -3.388  1.00 20.00    -0.023 A 
HETATM    8  C1  UNL     1     -33.707  14.383  -3.667  1.00 20.00     0.034 A 
HETATM    9  C2  UNL     1     -34.036  13.231  -4.344  1.00 20.00     0.142 A 
HETATM   10  O11 UNL     1     -35.383  13.138  -4.500  1.00 20.00    -0.334 OA
HETATM   11  C3  UNL     1     -35.920  14.240  -3.916  1.00 20.00     0.149 A 
ENDBRANCH   5   7
TORSDOF 1
ENDMDL
MODEL 5
REMARK VINA RESULT:      -4.5      2.922      4.359
REMARK  1 active torsions:
REMARK  status: ('A' for Active; 'I' for Inactive)
REMARK    1  A    between atoms: C4_4  and  C9_9 
ROOT
HETATM    1  C5  UNL     1     -34.308  13.603  -4.706  1.00 20.00     0.135 C 
HETATM    2  C6  UNL     1     -33.602  14.008  -3.436  1.00 20.00     0.079 C 
HETATM    3  C7  UNL     1     -32.957  15.326  -3.841  1.00 20.00     0.008 C 
HETATM    4  C8  UNL     1     -33.918  15.926  -4.860  1.00 20.00     0.017 C 
HETATM    5  C9  UNL     1     -34.347  14.730  -5.718  1.00 20.00     0.090 C 
HETATM    6  O10 UNL     1     -34.790  12.490  -4.886  1.00 20.00    -0.297 OA
ENDROOT
BRANCH   5   7
HETATM    7  C4  UNL     1     -35.678  14.911  -6.399  1.00 20.00    -0.023 A 
HETATM    8  C1  UNL     1     -35.980  14.658  -7.758  1.00 20.00     0.034 A 
HETATM    9  C2  UNL     1     -37.312  14.967  -7.917  1.00 20.00     0.142 A 
HETATM   10  O11 UNL     1     -37.846  15.395  -6.742  1.00 20.00    -0.334 OA
HETATM   11  C3  UNL     1     -36.845  15.357  -5.824  1.00 20.00     0.149 A 
ENDBRANCH   5   7
TORSDOF 1
ENDMDL
MODEL 6
REMARK VINA RESULT:      -4.5      1.548      4.116
REMARK  1 active torsions:
REMARK  status: ('A' for Active; 'I' for Inactive)
REMARK    1  A    between atoms: C4_4  and  C9_9 
ROOT
HETATM    1  C5  UNL     1     -33.756  15.633  -4.560  1.00 20.00     0.135 C 
HETATM    2  C6  UNL     1     -34.178  14.827  -5.764  1.00 20.00     0.079 C 
HETATM    3  C7  UNL     1     -34.847  13.621  -5.117  1.00 20.00     0.008 C 
HETATM    4  C8  UNL     1     -35.456  14.166  -3.831  1.00 20.00     0.017 C 
HETATM    5  C9  UNL     1     -34.384  15.116  -3.282  1.00 20.00     0.090 C 
HETATM    6  O10 UNL     1     -32.995  16.591  -4.622  1.00 20.00    -0.297 OA
ENDROOT
BRANCH   5   7
HETATM    7  C4  UNL     1     -34.922  16.188  -2.373  1.00 20.00    -0.023 A 
HETATM    8  C1  UNL     1     -34.437  16.542  -1.092  1.00 20.00     0.034 A 
HETATM    9  C2  UNL     1     -35.240  17.568  -0.650  1.00 20.00     0.142 A 
HETATM   10  O11 UNL     1     -36.189  17.865  -1.576  1.00 20.00    -0.334 OA
HETATM   11  C3  UNL     1     -35.988  17.022  -2.622  1.00 20.00     0.149 A 
ENDBRANCH   5   7
TORSDOF 1
ENDMDL
MODEL 7
REMARK VINA RESULT:      -4.5     12.368     14.381
REMARK  1 active torsions:
REMARK  status: ('A' for Active; 'I' for Inactive)
REMARK    1  A    between atoms: C4_4  and  C9_9 
ROOT
HETATM    1  C5  UNL     1     -42.527   5.496  -2.581  1.00 20.00     0.135 C 
HETATM    2  C6  UNL     1     -41.606   6.636  -2.223  1.00 20.00     0.079 C 
HETATM    3  C7  UNL     1     -40.972   6.135  -0.932  1.00 20.00     0.008 C 
HETATM    4  C8  UNL     1     -40.913   4.622  -1.096  1.00 20.00     0.017 C 
HETATM    5  C9  UNL     1     -42.257   4.263  -1.743  1.00 20.00     0.090 C 
HETATM    6  O10 UNL     1     -43.388   5.571  -3.449  1.00 20.00    -0.297 OA
ENDROOT
BRANCH   5   7
HETATM    7  C4  UNL     1     -42.239   2.973  -2.518  1.00 20.00    -0.023 A 
HETATM    8  C1  UNL     1     -41.200   2.496  -3.353  1.00 20.00     0.034 A 
HETATM    9  C2  UNL     1     -41.631   1.285  -3.844  1.00 20.00     0.142 A 
HETATM   10  O11 UNL     1     -42.869   0.989  -3.365  1.00 20.00    -0.334 OA
HETATM   11  C3  UNL     1     -43.230   2.021  -2.559  1.00 20.00     0.149 A 
ENDBRANCH   5   7
TORSDOF 1
ENDMDL
MODEL 8
REMARK VINA RESULT:      -4.5      1.613      4.279
REMARK  1 active torsions:
REMARK  status: ('A' for Active; 'I' for Inactive)
REMARK    1  A    between atoms: C4_4  and  C9_9 
ROOT
HETATM    1  C5  UNL     1     -35.662  15.139  -3.831  1.00 20.00     0.135 C 
HETATM    2  C6  UNL     1     -35.557  13.671  -4.164  1.00 20.00     0.079 C 
HETATM    3  C7  UNL     1     -34.069  13.518  -4.449  1.00 20.00     0.008 C 
HETATM    4  C8  UNL     1     -33.397  14.538  -3.537  1.00 20.00     0.017 C 
HETATM    5  C9  UNL     1     -34.301  15.774  -3.630  1.00 20.00     0.090 C 
HETATM    6  O10 UNL     1     -36.728  15.736  -3.737  1.00 20.00    -0.297 OA
ENDROOT
BRANCH   5   7
HETATM    7  C4  UNL     1     -34.210  16.689  -2.438  1.00 20.00    -0.023 A 
HETATM    8  C1  UNL     1     -34.592  16.396  -1.107  1.00 20.00     0.034 A 
HETATM    9  C2  UNL     1     -34.326  17.530  -0.375  1.00 20.00     0.142 A 
HETATM   10  O11 UNL     1     -33.807  18.502  -1.171  1.00 20.00    -0.334 OA
HETATM   11  C3  UNL     1     -33.739  17.982  -2.424  1.00 20.00     0.149 A 
ENDBRANCH   5   7
TORSDOF 1
ENDMDL
MODEL 9
REMARK VINA RESULT:      -4.5      2.671      4.085
REMARK  1 active torsions:
REMARK  status: ('A' for Active; 'I' for Inactive)
REMARK    1  A    between atoms: C4_4  and  C9_9 
ROOT
HETATM    1  C5  UNL     1     -34.375  13.612  -4.562  1.00 20.00     0.135 C 
HETATM    2  C6  UNL     1     -33.184  13.799  -3.655  1.00 20.00     0.079 C 
HETATM    3  C7  UNL     1     -32.916  15.292  -3.792  1.00 20.00     0.008 C 
HETATM    4  C8  UNL     1     -34.290  15.909  -4.022  1.00 20.00     0.017 C 
HETATM    5  C9  UNL     1     -34.980  14.935  -4.985  1.00 20.00     0.090 C 
HETATM    6  O10 UNL     1     -34.795  12.513  -4.907  1.00 20.00    -0.297 OA
ENDROOT
BRANCH   5   7
HETATM    7  C4  UNL     1     -36.484  14.980  -4.929  1.00 20.00    -0.023 A 
HETATM    8  C1  UNL     1     -37.300  14.764  -3.793  1.00 20.00     0.034 A 
HETATM    9  C2  UNL     1     -38.599  14.908  -4.224  1.00 20.00     0.142 A 
HETATM   10  O11 UNL     1     -38.633  15.195  -5.552  1.00 20.00    -0.334 OA
HETATM   11  C3  UNL     1     -37.342  15.238  -5.973  1.00 20.00     0.149 A 
ENDBRANCH   5   7
TORSDOF 1
ENDMDL
