MODEL 1
REMARK VINA RESULT:      -4.7      0.000      0.000
REMARK  1 active torsions:
REMARK  status: ('A' for Active; 'I' for Inactive)
REMARK    1  A    between atoms: C4_4  and  C8_8 
ROOT
HETATM    1  C5  UNL     1     -34.792  14.353  -5.820  1.00 20.00     0.002 C 
HETATM    2  C6  UNL     1     -34.711  15.699  -5.096  1.00 20.00     0.011 C 
HETATM    3  C7  UNL     1     -34.782  13.279  -4.733  1.00 20.00     0.021 C 
HETATM    4  C8  UNL     1     -34.910  15.382  -3.603  1.00 20.00     0.039 C 
HETATM    5  C9  UNL     1     -34.279  13.980  -3.474  1.00 20.00     0.090 C 
HETATM    6 CL11 UNL     1     -32.488  14.031  -3.476  1.00 20.00    -0.124 Cl
ENDROOT
BRANCH   4   7
HETATM    7  C4  UNL     1     -34.456  16.423  -2.602  1.00 20.00    -0.028 A 
HETATM    8  C1  UNL     1     -34.621  16.384  -1.197  1.00 20.00     0.034 A 
HETATM    9  C2  UNL     1     -34.052  17.538  -0.711  1.00 20.00     0.142 A 
HETATM   10  O10 UNL     1     -33.549  18.286  -1.729  1.00 20.00    -0.334 OA
HETATM   11  C3  UNL     1     -33.799  17.601  -2.875  1.00 20.00     0.148 A 
ENDBRANCH   4   7
TORSDOF 1
ENDMDL
MODEL 2
REMARK VINA RESULT:      -4.5      1.544      1.641
REMARK  1 active torsions:
REMARK  status: ('A' for Active; 'I' for Inactive)
REMARK    1  A    between atoms: C4_4  and  C8_8 
ROOT
HETATM    1  C5  UNL     1     -35.160  13.601  -4.537  1.00 20.00     0.002 C 
HETATM    2  C6  UNL     1     -35.848  14.674  -3.690  1.00 20.00     0.011 C 
HETATM    3  C7  UNL     1     -33.683  13.624  -4.143  1.00 20.00     0.021 C 
HETATM    4  C8  UNL     1     -34.803  15.119  -2.650  1.00 20.00     0.039 C 
HETATM    5  C9  UNL     1     -33.477  14.952  -3.421  1.00 20.00     0.090 C 
HETATM    6 CL11 UNL     1     -33.206  16.262  -4.613  1.00 20.00    -0.124 Cl
ENDROOT
BRANCH   4   7
HETATM    7  C4  UNL     1     -35.024  16.450  -1.964  1.00 20.00    -0.028 A 
HETATM    8  C1  UNL     1     -34.440  16.891  -0.753  1.00 20.00     0.034 A 
HETATM    9  C2  UNL     1     -34.934  18.155  -0.527  1.00 20.00     0.142 A 
HETATM   10  O10 UNL     1     -35.787  18.517  -1.522  1.00 20.00    -0.334 OA
HETATM   11  C3  UNL     1     -35.836  17.475  -2.391  1.00 20.00     0.148 A 
ENDBRANCH   4   7
TORSDOF 1
ENDMDL
MODEL 3
REMARK VINA RESULT:      -4.5      1.459      1.898
REMARK  1 active torsions:
REMARK  status: ('A' for Active; 'I' for Inactive)
REMARK    1  A    between atoms: C4_4  and  C8_8 
ROOT
HETATM    1  C5  UNL     1     -34.537  13.286  -4.830  1.00 20.00     0.002 C 
HETATM    2  C6  UNL     1     -34.283  13.975  -3.487  1.00 20.00     0.011 C 
HETATM    3  C7  UNL     1     -34.617  14.397  -5.875  1.00 20.00     0.021 C 
HETATM    4  C8  UNL     1     -33.972  15.445  -3.825  1.00 20.00     0.039 C 
HETATM    5  C9  UNL     1     -34.831  15.684  -5.084  1.00 20.00     0.090 C 
HETATM    6 CL11 UNL     1     -36.570  15.884  -4.701  1.00 20.00    -0.124 Cl
ENDROOT
BRANCH   4   7
HETATM    7  C4  UNL     1     -34.107  16.461  -2.710  1.00 20.00    -0.028 A 
HETATM    8  C1  UNL     1     -34.611  16.235  -1.407  1.00 20.00     0.034 A 
HETATM    9  C2  UNL     1     -34.540  17.443  -0.754  1.00 20.00     0.142 A 
HETATM   10  O10 UNL     1     -34.027  18.398  -1.574  1.00 20.00    -0.334 OA
HETATM   11  C3  UNL     1     -33.767  17.793  -2.762  1.00 20.00     0.148 A 
ENDBRANCH   4   7
TORSDOF 1
ENDMDL
MODEL 4
REMARK VINA RESULT:      -4.4      2.330      4.420
REMARK  1 active torsions:
REMARK  status: ('A' for Active; 'I' for Inactive)
REMARK    1  A    between atoms: C4_4  and  C8_8 
ROOT
HETATM    1  C5  UNL     1     -34.752  17.845  -1.064  1.00 20.00     0.002 C 
HETATM    2  C6  UNL     1     -34.488  16.370  -1.377  1.00 20.00     0.011 C 
HETATM    3  C7  UNL     1     -35.498  18.413  -2.271  1.00 20.00     0.021 C 
HETATM    4  C8  UNL     1     -35.306  16.059  -2.644  1.00 20.00     0.039 C 
HETATM    5  C9  UNL     1     -35.276  17.406  -3.395  1.00 20.00     0.090 C 
HETATM    6 CL11 UNL     1     -33.701  17.714  -4.191  1.00 20.00    -0.124 Cl
ENDROOT
BRANCH   4   7
HETATM    7  C4  UNL     1     -34.919  14.831  -3.441  1.00 20.00    -0.028 A 
HETATM    8  C1  UNL     1     -35.706  14.158  -4.405  1.00 20.00     0.034 A 
HETATM    9  C2  UNL     1     -34.942  13.108  -4.858  1.00 20.00     0.142 A 
HETATM   10  O10 UNL     1     -33.736  13.092  -4.232  1.00 20.00    -0.334 OA
HETATM   11  C3  UNL     1     -33.730  14.142  -3.371  1.00 20.00     0.148 A 
ENDBRANCH   4   7
TORSDOF 1
ENDMDL
MODEL 5
REMARK VINA RESULT:      -4.4      0.585      1.116
REMARK  1 active torsions:
REMARK  status: ('A' for Active; 'I' for Inactive)
REMARK    1  A    between atoms: C4_4  and  C8_8 
ROOT
HETATM    1  C5  UNL     1     -34.783  14.356  -5.862  1.00 20.00     0.002 C 
HETATM    2  C6  UNL     1     -34.712  15.693  -5.121  1.00 20.00     0.011 C 
HETATM    3  C7  UNL     1     -34.787  13.269  -4.789  1.00 20.00     0.021 C 
HETATM    4  C8  UNL     1     -34.931  15.358  -3.634  1.00 20.00     0.039 C 
HETATM    5  C9  UNL     1     -34.301  13.954  -3.515  1.00 20.00     0.090 C 
HETATM    6 CL11 UNL     1     -32.511  14.004  -3.493  1.00 20.00    -0.124 Cl
ENDROOT
BRANCH   4   7
HETATM    7  C4  UNL     1     -34.489  16.386  -2.614  1.00 20.00    -0.028 A 
HETATM    8  C1  UNL     1     -33.823  17.608  -2.869  1.00 20.00     0.034 A 
HETATM    9  C2  UNL     1     -33.629  18.201  -1.644  1.00 20.00     0.142 A 
HETATM   10  O10 UNL     1     -34.132  17.421  -0.651  1.00 20.00    -0.334 OA
HETATM   11  C3  UNL     1     -34.653  16.319  -1.250  1.00 20.00     0.148 A 
ENDBRANCH   4   7
TORSDOF 1
ENDMDL
MODEL 6
REMARK VINA RESULT:      -4.4      2.431      4.233
REMARK  1 active torsions:
REMARK  status: ('A' for Active; 'I' for Inactive)
REMARK    1  A    between atoms: C4_4  and  C8_8 
ROOT
HETATM    1  C5  UNL     1     -34.843  18.951  -2.932  1.00 20.00     0.002 C 
HETATM    2  C6  UNL     1     -35.123  17.684  -3.744  1.00 20.00     0.011 C 
HETATM    3  C7  UNL     1     -33.682  18.615  -1.996  1.00 20.00     0.021 C 
HETATM    4  C8  UNL     1     -33.956  16.726  -3.438  1.00 20.00     0.039 C 
HETATM    5  C9  UNL     1     -33.602  17.091  -1.981  1.00 20.00     0.090 C 
HETATM    6 CL11 UNL     1     -34.777  16.429  -0.802  1.00 20.00    -0.124 Cl
ENDROOT
BRANCH   4   7
HETATM    7  C4  UNL     1     -34.163  15.256  -3.736  1.00 20.00    -0.028 A 
HETATM    8  C1  UNL     1     -35.379  14.621  -4.086  1.00 20.00     0.034 A 
HETATM    9  C2  UNL     1     -35.078  13.290  -4.260  1.00 20.00     0.142 A 
HETATM   10  O10 UNL     1     -33.756  13.067  -4.037  1.00 20.00    -0.334 OA
HETATM   11  C3  UNL     1     -33.207  14.268  -3.719  1.00 20.00     0.148 A 
ENDBRANCH   4   7
TORSDOF 1
ENDMDL
MODEL 7
REMARK VINA RESULT:      -4.3     11.344     12.462
REMARK  1 active torsions:
REMARK  status: ('A' for Active; 'I' for Inactive)
REMARK    1  A    between atoms: C4_4  and  C8_8 
ROOT
HETATM    1  C5  UNL     1     -35.037   5.090   6.486  1.00 20.00     0.002 C 
HETATM    2  C6  UNL     1     -34.035   6.154   6.032  1.00 20.00     0.011 C 
HETATM    3  C7  UNL     1     -35.173   4.104   5.326  1.00 20.00     0.021 C 
HETATM    4  C8  UNL     1     -33.426   5.621   4.722  1.00 20.00     0.039 C 
HETATM    5  C9  UNL     1     -34.599   4.826   4.111  1.00 20.00     0.090 C 
HETATM    6 CL11 UNL     1     -35.845   5.890   3.386  1.00 20.00    -0.124 Cl
ENDROOT
BRANCH   4   7
HETATM    7  C4  UNL     1     -32.740   6.620   3.814  1.00 20.00    -0.028 A 
HETATM    8  C1  UNL     1     -32.954   6.798   2.427  1.00 20.00     0.034 A 
HETATM    9  C2  UNL     1     -32.112   7.812   2.036  1.00 20.00     0.142 A 
HETATM   10  O10 UNL     1     -31.392   8.268   3.095  1.00 20.00    -0.334 OA
HETATM   11  C3  UNL     1     -31.779   7.537   4.172  1.00 20.00     0.148 A 
ENDBRANCH   4   7
TORSDOF 1
ENDMDL
MODEL 8
REMARK VINA RESULT:      -4.3     12.913     14.616
REMARK  1 active torsions:
REMARK  status: ('A' for Active; 'I' for Inactive)
REMARK    1  A    between atoms: C4_4  and  C8_8 
ROOT
HETATM    1  C5  UNL     1     -41.814   7.133  -1.193  1.00 20.00     0.002 C 
HETATM    2  C6  UNL     1     -42.374   6.085  -2.158  1.00 20.00     0.011 C 
HETATM    3  C7  UNL     1     -40.767   6.417  -0.341  1.00 20.00     0.021 C 
HETATM    4  C8  UNL     1     -41.461   4.853  -2.011  1.00 20.00     0.039 C 
HETATM    5  C9  UNL     1     -41.041   4.928  -0.528  1.00 20.00     0.090 C 
HETATM    6 CL11 UNL     1     -42.344   4.400   0.582  1.00 20.00    -0.124 Cl
ENDROOT
BRANCH   4   7
HETATM    7  C4  UNL     1     -42.000   3.523  -2.495  1.00 20.00    -0.028 A 
HETATM    8  C1  UNL     1     -41.282   2.508  -3.171  1.00 20.00     0.034 A 
HETATM    9  C2  UNL     1     -42.181   1.495  -3.407  1.00 20.00     0.142 A 
HETATM   10  O10 UNL     1     -43.408   1.824  -2.922  1.00 20.00    -0.334 OA
HETATM   11  C3  UNL     1     -43.289   3.059  -2.370  1.00 20.00     0.148 A 
ENDBRANCH   4   7
TORSDOF 1
ENDMDL
MODEL 9
REMARK VINA RESULT:      -4.2      2.707      4.594
REMARK  1 active torsions:
REMARK  status: ('A' for Active; 'I' for Inactive)
REMARK    1  A    between atoms: C4_4  and  C8_8 
ROOT
HETATM    1  C5  UNL     1     -33.842  17.450  -2.071  1.00 20.00     0.002 C 
HETATM    2  C6  UNL     1     -33.626  17.113  -3.548  1.00 20.00     0.011 C 
HETATM    3  C7  UNL     1     -34.655  16.299  -1.481  1.00 20.00     0.021 C 
HETATM    4  C8  UNL     1     -34.100  15.657  -3.717  1.00 20.00     0.039 C 
HETATM    5  C9  UNL     1     -35.239  15.558  -2.680  1.00 20.00     0.090 C 
HETATM    6 CL11 UNL     1     -36.739  16.369  -3.229  1.00 20.00    -0.124 Cl
ENDROOT
BRANCH   4   7
HETATM    7  C4  UNL     1     -34.419  15.186  -5.120  1.00 20.00    -0.028 A 
HETATM    8  C1  UNL     1     -34.096  15.838  -6.333  1.00 20.00     0.034 A 
HETATM    9  C2  UNL     1     -34.585  15.040  -7.340  1.00 20.00     0.142 A 
HETATM   10  O10 UNL     1     -35.191  13.939  -6.823  1.00 20.00    -0.334 OA
HETATM   11  C3  UNL     1     -35.086  14.035  -5.472  1.00 20.00     0.148 A 
ENDBRANCH   4   7
TORSDOF 1
ENDMDL
