MODEL 1
REMARK VINA RESULT:      -4.9      0.000      0.000
REMARK  1 active torsions:
REMARK  status: ('A' for Active; 'I' for Inactive)
REMARK    1  A    between atoms: C4_4  and  C8_8 
ROOT
HETATM    1  C5  UNL     1     -34.487  17.905  -0.812  1.00 20.00     0.002 C 
HETATM    2  C6  UNL     1     -34.735  16.436  -1.168  1.00 20.00     0.011 C 
HETATM    3  C7  UNL     1     -33.666  18.492  -1.958  1.00 20.00     0.021 C 
HETATM    4  C8  UNL     1     -33.838  16.145  -2.385  1.00 20.00     0.039 C 
HETATM    5  C9  UNL     1     -33.815  17.505  -3.113  1.00 20.00     0.090 C 
HETATM    6 CL11 UNL     1     -35.336  17.832  -4.002  1.00 20.00    -0.124 Cl
ENDROOT
BRANCH   4   7
HETATM    7  C4  UNL     1     -34.175  14.932  -3.227  1.00 20.00    -0.028 A 
HETATM    8  C1  UNL     1     -35.464  14.504  -3.625  1.00 20.00     0.034 A 
HETATM    9  C2  UNL     1     -35.273  13.365  -4.372  1.00 20.00     0.142 A 
HETATM   10  O10 UNL     1     -33.950  13.067  -4.461  1.00 20.00    -0.334 OA
HETATM   11  C3  UNL     1     -33.288  14.026  -3.761  1.00 20.00     0.148 A 
ENDBRANCH   4   7
TORSDOF 1
ENDMDL
MODEL 2
REMARK VINA RESULT:      -4.8      0.909      1.307
REMARK  1 active torsions:
REMARK  status: ('A' for Active; 'I' for Inactive)
REMARK    1  A    between atoms: C4_4  and  C8_8 
ROOT
HETATM    1  C5  UNL     1     -34.191  17.972  -0.359  1.00 20.00     0.002 C 
HETATM    2  C6  UNL     1     -34.720  16.599  -0.784  1.00 20.00     0.011 C 
HETATM    3  C7  UNL     1     -33.405  18.517  -1.550  1.00 20.00     0.021 C 
HETATM    4  C8  UNL     1     -34.015  16.275  -2.114  1.00 20.00     0.039 C 
HETATM    5  C9  UNL     1     -33.838  17.671  -2.745  1.00 20.00     0.090 C 
HETATM    6 CL11 UNL     1     -35.364  18.315  -3.427  1.00 20.00    -0.124 Cl
ENDROOT
BRANCH   4   7
HETATM    7  C4  UNL     1     -34.638  15.210  -2.993  1.00 20.00    -0.028 A 
HETATM    8  C1  UNL     1     -33.968  14.154  -3.656  1.00 20.00     0.034 A 
HETATM    9  C2  UNL     1     -34.939  13.450  -4.329  1.00 20.00     0.142 A 
HETATM   10  O10 UNL     1     -36.163  14.004  -4.121  1.00 20.00    -0.334 OA
HETATM   11  C3  UNL     1     -35.971  15.075  -3.306  1.00 20.00     0.148 A 
ENDBRANCH   4   7
TORSDOF 1
ENDMDL
MODEL 3
REMARK VINA RESULT:      -4.7      2.035      4.276
REMARK  1 active torsions:
REMARK  status: ('A' for Active; 'I' for Inactive)
REMARK    1  A    between atoms: C4_4  and  C8_8 
ROOT
HETATM    1  C5  UNL     1     -34.086  13.577  -4.594  1.00 20.00     0.002 C 
HETATM    2  C6  UNL     1     -33.411  14.631  -3.713  1.00 20.00     0.011 C 
HETATM    3  C7  UNL     1     -35.577  13.633  -4.266  1.00 20.00     0.021 C 
HETATM    4  C8  UNL     1     -34.489  15.094  -2.717  1.00 20.00     0.039 C 
HETATM    5  C9  UNL     1     -35.784  14.962  -3.544  1.00 20.00     0.090 C 
HETATM    6 CL11 UNL     1     -35.972  16.283  -4.740  1.00 20.00    -0.124 Cl
ENDROOT
BRANCH   4   7
HETATM    7  C4  UNL     1     -34.268  16.417  -2.013  1.00 20.00    -0.028 A 
HETATM    8  C1  UNL     1     -34.614  16.740  -0.679  1.00 20.00     0.034 A 
HETATM    9  C2  UNL     1     -34.223  18.046  -0.490  1.00 20.00     0.142 A 
HETATM   10  O10 UNL     1     -33.658  18.544  -1.621  1.00 20.00    -0.334 OA
HETATM   11  C3  UNL     1     -33.689  17.547  -2.543  1.00 20.00     0.148 A 
ENDBRANCH   4   7
TORSDOF 1
ENDMDL
MODEL 4
REMARK VINA RESULT:      -4.5      2.378      4.316
REMARK  1 active torsions:
REMARK  status: ('A' for Active; 'I' for Inactive)
REMARK    1  A    between atoms: C4_4  and  C8_8 
ROOT
HETATM    1  C5  UNL     1     -34.413  13.286  -4.853  1.00 20.00     0.002 C 
HETATM    2  C6  UNL     1     -34.534  13.924  -3.466  1.00 20.00     0.011 C 
HETATM    3  C7  UNL     1     -34.924  14.324  -5.849  1.00 20.00     0.021 C 
HETATM    4  C8  UNL     1     -35.347  15.215  -3.670  1.00 20.00     0.039 C 
HETATM    5  C9  UNL     1     -34.928  15.649  -5.090  1.00 20.00     0.090 C 
HETATM    6 CL11 UNL     1     -33.293  16.380  -5.130  1.00 20.00    -0.124 Cl
ENDROOT
BRANCH   4   7
HETATM    7  C4  UNL     1     -35.263  16.271  -2.588  1.00 20.00    -0.028 A 
HETATM    8  C1  UNL     1     -34.418  16.263  -1.453  1.00 20.00     0.034 A 
HETATM    9  C2  UNL     1     -34.694  17.421  -0.763  1.00 20.00     0.142 A 
HETATM   10  O10 UNL     1     -35.654  18.140  -1.402  1.00 20.00    -0.334 OA
HETATM   11  C3  UNL     1     -35.995  17.434  -2.512  1.00 20.00     0.148 A 
ENDBRANCH   4   7
TORSDOF 1
ENDMDL
MODEL 5
REMARK VINA RESULT:      -4.5      2.315      4.407
REMARK  1 active torsions:
REMARK  status: ('A' for Active; 'I' for Inactive)
REMARK    1  A    between atoms: C4_4  and  C8_8 
ROOT
HETATM    1  C5  UNL     1     -34.521  14.433  -6.079  1.00 20.00     0.002 C 
HETATM    2  C6  UNL     1     -34.166  15.715  -5.321  1.00 20.00     0.011 C 
HETATM    3  C7  UNL     1     -34.832  13.379  -5.017  1.00 20.00     0.021 C 
HETATM    4  C8  UNL     1     -34.034  15.304  -3.844  1.00 20.00     0.039 C 
HETATM    5  C9  UNL     1     -35.061  14.159  -3.725  1.00 20.00     0.090 C 
HETATM    6 CL11 UNL     1     -36.750  14.756  -3.664  1.00 20.00    -0.124 Cl
ENDROOT
BRANCH   4   7
HETATM    7  C4  UNL     1     -34.121  16.401  -2.803  1.00 20.00    -0.028 A 
HETATM    8  C1  UNL     1     -34.513  16.262  -1.450  1.00 20.00     0.034 A 
HETATM    9  C2  UNL     1     -34.438  17.521  -0.901  1.00 20.00     0.142 A 
HETATM   10  O10 UNL     1     -34.024  18.423  -1.828  1.00 20.00    -0.334 OA
HETATM   11  C3  UNL     1     -33.833  17.734  -2.983  1.00 20.00     0.148 A 
ENDBRANCH   4   7
TORSDOF 1
ENDMDL
MODEL 6
REMARK VINA RESULT:      -4.4      2.553      4.331
REMARK  1 active torsions:
REMARK  status: ('A' for Active; 'I' for Inactive)
REMARK    1  A    between atoms: C4_4  and  C8_8 
ROOT
HETATM    1  C5  UNL     1     -35.527  14.103  -4.686  1.00 20.00     0.002 C 
HETATM    2  C6  UNL     1     -35.671  14.932  -3.406  1.00 20.00     0.011 C 
HETATM    3  C7  UNL     1     -34.389  14.738  -5.482  1.00 20.00     0.021 C 
HETATM    4  C8  UNL     1     -34.786  16.174  -3.612  1.00 20.00     0.039 C 
HETATM    5  C9  UNL     1     -33.643  15.625  -4.489  1.00 20.00     0.090 C 
HETATM    6 CL11 UNL     1     -32.472  14.642  -3.554  1.00 20.00    -0.124 Cl
ENDROOT
BRANCH   4   7
HETATM    7  C4  UNL     1     -34.378  16.953  -2.379  1.00 20.00    -0.028 A 
HETATM    8  C1  UNL     1     -34.582  16.579  -1.029  1.00 20.00     0.034 A 
HETATM    9  C2  UNL     1     -34.048  17.593  -0.268  1.00 20.00     0.142 A 
HETATM   10  O10 UNL     1     -33.527  18.564  -1.063  1.00 20.00    -0.334 OA
HETATM   11  C3  UNL     1     -33.732  18.167  -2.346  1.00 20.00     0.148 A 
ENDBRANCH   4   7
TORSDOF 1
ENDMDL
MODEL 7
REMARK VINA RESULT:      -4.3      2.492      4.366
REMARK  1 active torsions:
REMARK  status: ('A' for Active; 'I' for Inactive)
REMARK    1  A    between atoms: C4_4  and  C8_8 
ROOT
HETATM    1  C5  UNL     1     -33.771  15.648  -5.371  1.00 20.00     0.002 C 
HETATM    2  C6  UNL     1     -33.592  16.778  -4.354  1.00 20.00     0.011 C 
HETATM    3  C7  UNL     1     -34.191  14.415  -4.575  1.00 20.00     0.021 C 
HETATM    4  C8  UNL     1     -33.665  16.108  -2.970  1.00 20.00     0.039 C 
HETATM    5  C9  UNL     1     -34.646  14.944  -3.217  1.00 20.00     0.090 C 
HETATM    6 CL11 UNL     1     -36.350  15.491  -3.315  1.00 20.00    -0.124 Cl
ENDROOT
BRANCH   4   7
HETATM    7  C4  UNL     1     -33.957  16.996  -1.778  1.00 20.00    -0.028 A 
HETATM    8  C1  UNL     1     -34.657  16.640  -0.601  1.00 20.00     0.034 A 
HETATM    9  C2  UNL     1     -34.672  17.765   0.189  1.00 20.00     0.142 A 
HETATM   10  O10 UNL     1     -34.025  18.790  -0.425  1.00 20.00    -0.334 OA
HETATM   11  C3  UNL     1     -33.592  18.314  -1.622  1.00 20.00     0.148 A 
ENDBRANCH   4   7
TORSDOF 1
ENDMDL
MODEL 8
REMARK VINA RESULT:      -4.3      2.784      3.429
REMARK  1 active torsions:
REMARK  status: ('A' for Active; 'I' for Inactive)
REMARK    1  A    between atoms: C4_4  and  C8_8 
ROOT
HETATM    1  C5  UNL     1     -33.690  16.799  -2.628  1.00 20.00     0.002 C 
HETATM    2  C6  UNL     1     -33.812  16.772  -4.154  1.00 20.00     0.011 C 
HETATM    3  C7  UNL     1     -34.832  15.938  -2.092  1.00 20.00     0.021 C 
HETATM    4  C8  UNL     1     -35.167  16.107  -4.453  1.00 20.00     0.039 C 
HETATM    5  C9  UNL     1     -35.314  15.113  -3.283  1.00 20.00     0.090 C 
HETATM    6 CL11 UNL     1     -34.280  13.663  -3.479  1.00 20.00    -0.124 Cl
ENDROOT
BRANCH   4   7
HETATM    7  C4  UNL     1     -35.379  15.547  -5.845  1.00 20.00    -0.028 A 
HETATM    8  C1  UNL     1     -34.385  15.282  -6.817  1.00 20.00     0.034 A 
HETATM    9  C2  UNL     1     -35.048  14.787  -7.915  1.00 20.00     0.142 A 
HETATM   10  O10 UNL     1     -36.385  14.729  -7.680  1.00 20.00    -0.334 OA
HETATM   11  C3  UNL     1     -36.579  15.194  -6.418  1.00 20.00     0.148 A 
ENDBRANCH   4   7
TORSDOF 1
ENDMDL
MODEL 9
REMARK VINA RESULT:      -4.3     11.514     12.465
REMARK  1 active torsions:
REMARK  status: ('A' for Active; 'I' for Inactive)
REMARK    1  A    between atoms: C4_4  and  C8_8 
ROOT
HETATM    1  C5  UNL     1     -35.630   4.493   4.831  1.00 20.00     0.002 C 
HETATM    2  C6  UNL     1     -35.043   5.409   3.754  1.00 20.00     0.011 C 
HETATM    3  C7  UNL     1     -34.531   4.294   5.872  1.00 20.00     0.021 C 
HETATM    4  C8  UNL     1     -33.539   5.510   4.068  1.00 20.00     0.039 C 
HETATM    5  C9  UNL     1     -33.513   5.401   5.606  1.00 20.00     0.090 C 
HETATM    6 CL11 UNL     1     -34.035   6.914   6.411  1.00 20.00    -0.124 Cl
ENDROOT
BRANCH   4   7
HETATM    7  C4  UNL     1     -32.775   6.669   3.460  1.00 20.00    -0.028 A 
HETATM    8  C1  UNL     1     -33.140   7.425   2.321  1.00 20.00     0.034 A 
HETATM    9  C2  UNL     1     -32.147   8.361   2.151  1.00 20.00     0.142 A 
HETATM   10  O10 UNL     1     -31.196   8.230   3.113  1.00 20.00    -0.334 OA
HETATM   11  C3  UNL     1     -31.586   7.197   3.906  1.00 20.00     0.148 A 
ENDBRANCH   4   7
TORSDOF 1
ENDMDL
