MODEL 1
REMARK VINA RESULT:      -4.6      0.000      0.000
REMARK  2 active torsions:
REMARK  status: ('A' for Active; 'I' for Inactive)
REMARK    1  A    between atoms: C5_5  and  C6_6 
REMARK    2  A    between atoms: C6_6  and  C7_7 
ROOT
HETATM    1  C1  UNL     1     -33.237   6.407   5.276  1.00 20.00     0.031 C 
HETATM    2  C2  UNL     1     -34.402   5.256   3.375  1.00 20.00     0.031 C 
HETATM    3  C3  UNL     1     -34.438   6.042   6.140  1.00 20.00     0.168 C 
HETATM    4  C4  UNL     1     -35.538   4.955   4.346  1.00 20.00     0.168 C 
HETATM    5  C5  UNL     1     -33.646   6.518   3.802  1.00 20.00    -0.010 C 
HETATM    6  O8  UNL     1     -35.044   4.835   5.680  1.00 20.00    -0.391 OA
ENDROOT
BRANCH   5   7
HETATM    7  C6  UNL     1     -32.430   6.758   2.910  1.00 20.00     0.020 C 
BRANCH   7   8
HETATM    8  C7  UNL     1     -32.176   8.232   2.623  1.00 20.00     0.115 C 
HETATM    9 CL9  UNL     1     -31.734   8.515   0.924  1.00 20.00    -0.130 Cl
ENDBRANCH   7   8
ENDBRANCH   5   7
TORSDOF 2
ENDMDL
MODEL 2
REMARK VINA RESULT:      -4.6      0.847      1.794
REMARK  2 active torsions:
REMARK  status: ('A' for Active; 'I' for Inactive)
REMARK    1  A    between atoms: C5_5  and  C6_6 
REMARK    2  A    between atoms: C6_6  and  C7_7 
ROOT
HETATM    1  C1  UNL     1     -34.790   4.790   4.009  1.00 20.00     0.031 C 
HETATM    2  C2  UNL     1     -33.770   6.686   5.296  1.00 20.00     0.031 C 
HETATM    3  C3  UNL     1     -35.146   4.163   5.351  1.00 20.00     0.168 C 
HETATM    4  C4  UNL     1     -34.183   5.954   6.567  1.00 20.00     0.168 C 
HETATM    5  C5  UNL     1     -33.561   5.697   4.145  1.00 20.00    -0.010 C 
HETATM    6  O8  UNL     1     -35.355   5.170   6.341  1.00 20.00    -0.391 OA
ENDROOT
BRANCH   5   7
HETATM    7  C6  UNL     1     -33.270   6.429   2.837  1.00 20.00     0.020 C 
BRANCH   7   8
HETATM    8  C7  UNL     1     -32.052   7.340   2.916  1.00 20.00     0.115 C 
HETATM    9 CL9  UNL     1     -32.055   8.572   1.633  1.00 20.00    -0.130 Cl
ENDBRANCH   7   8
ENDBRANCH   5   7
TORSDOF 2
ENDMDL
MODEL 3
REMARK VINA RESULT:      -4.3     11.231     11.637
REMARK  2 active torsions:
REMARK  status: ('A' for Active; 'I' for Inactive)
REMARK    1  A    between atoms: C5_5  and  C6_6 
REMARK    2  A    between atoms: C6_6  and  C7_7 
ROOT
HETATM    1  C1  UNL     1     -35.876  15.176  -3.188  1.00 20.00     0.031 C 
HETATM    2  C2  UNL     1     -33.635  14.166  -3.688  1.00 20.00     0.031 C 
HETATM    3  C3  UNL     1     -36.455  14.238  -4.240  1.00 20.00     0.168 C 
HETATM    4  C4  UNL     1     -34.339  13.283  -4.711  1.00 20.00     0.168 C 
HETATM    5  C5  UNL     1     -34.402  15.476  -3.484  1.00 20.00    -0.010 C 
HETATM    6  O8  UNL     1     -35.689  13.036  -4.321  1.00 20.00    -0.391 OA
ENDROOT
BRANCH   5   7
HETATM    7  C6  UNL     1     -33.776  16.312  -2.371  1.00 20.00     0.020 C 
BRANCH   7   8
HETATM    8  C7  UNL     1     -34.685  16.482  -1.161  1.00 20.00     0.115 C 
HETATM    9 CL9  UNL     1     -34.051  17.683  -0.013  1.00 20.00    -0.130 Cl
ENDBRANCH   7   8
ENDBRANCH   5   7
TORSDOF 2
ENDMDL
MODEL 4
REMARK VINA RESULT:      -4.0     11.317     12.299
REMARK  2 active torsions:
REMARK  status: ('A' for Active; 'I' for Inactive)
REMARK    1  A    between atoms: C5_5  and  C6_6 
REMARK    2  A    between atoms: C6_6  and  C7_7 
ROOT
HETATM    1  C1  UNL     1     -34.248  16.016  -5.099  1.00 20.00     0.031 C 
HETATM    2  C2  UNL     1     -34.388  14.003  -3.608  1.00 20.00     0.031 C 
HETATM    3  C3  UNL     1     -34.378  15.062  -6.280  1.00 20.00     0.168 C 
HETATM    4  C4  UNL     1     -34.511  13.161  -4.873  1.00 20.00     0.168 C 
HETATM    5  C5  UNL     1     -33.626  15.301  -3.893  1.00 20.00    -0.010 C 
HETATM    6  O8  UNL     1     -35.134  13.908  -5.918  1.00 20.00    -0.391 OA
ENDROOT
BRANCH   5   7
HETATM    7  C6  UNL     1     -33.606  16.208  -2.665  1.00 20.00     0.020 C 
BRANCH   7   8
HETATM    8  C7  UNL     1     -34.907  16.177  -1.873  1.00 20.00     0.115 C 
HETATM    9 CL9  UNL     1     -34.718  16.885  -0.253  1.00 20.00    -0.130 Cl
ENDBRANCH   7   8
ENDBRANCH   5   7
TORSDOF 2
ENDMDL
MODEL 5
REMARK VINA RESULT:      -3.7     11.554     12.778
REMARK  2 active torsions:
REMARK  status: ('A' for Active; 'I' for Inactive)
REMARK    1  A    between atoms: C5_5  and  C6_6 
REMARK    2  A    between atoms: C6_6  and  C7_7 
ROOT
HETATM    1  C1  UNL     1     -33.930  16.101  -2.584  1.00 20.00     0.031 C 
HETATM    2  C2  UNL     1     -33.538  16.080  -5.062  1.00 20.00     0.031 C 
HETATM    3  C3  UNL     1     -33.829  17.620  -2.652  1.00 20.00     0.168 C 
HETATM    4  C4  UNL     1     -33.459  17.601  -4.992  1.00 20.00     0.168 C 
HETATM    5  C5  UNL     1     -33.133  15.455  -3.723  1.00 20.00    -0.010 C 
HETATM    6  O8  UNL     1     -34.264  18.100  -3.925  1.00 20.00    -0.391 OA
ENDROOT
BRANCH   5   7
HETATM    7  C6  UNL     1     -33.328  13.941  -3.742  1.00 20.00     0.020 C 
BRANCH   7   8
HETATM    8  C7  UNL     1     -34.351  13.478  -4.771  1.00 20.00     0.115 C 
HETATM    9 CL9  UNL     1     -36.021  13.726  -4.211  1.00 20.00    -0.130 Cl
ENDBRANCH   7   8
ENDBRANCH   5   7
TORSDOF 2
ENDMDL
MODEL 6
REMARK VINA RESULT:      -3.7      9.909     11.122
REMARK  2 active torsions:
REMARK  status: ('A' for Active; 'I' for Inactive)
REMARK    1  A    between atoms: C5_5  and  C6_6 
REMARK    2  A    between atoms: C6_6  and  C7_7 
ROOT
HETATM    1  C1  UNL     1     -42.608   6.043  -2.958  1.00 20.00     0.031 C 
HETATM    2  C2  UNL     1     -41.275   4.370  -1.648  1.00 20.00     0.031 C 
HETATM    3  C3  UNL     1     -42.081   7.106  -2.001  1.00 20.00     0.168 C 
HETATM    4  C4  UNL     1     -40.822   5.526  -0.765  1.00 20.00     0.168 C 
HETATM    5  C5  UNL     1     -42.639   4.670  -2.276  1.00 20.00    -0.010 C 
HETATM    6  O8  UNL     1     -40.792   6.746  -1.504  1.00 20.00    -0.391 OA
ENDROOT
BRANCH   5   7
HETATM    7  C6  UNL     1     -43.044   3.576  -3.261  1.00 20.00     0.020 C 
BRANCH   7   8
HETATM    8  C7  UNL     1     -42.461   2.212  -2.919  1.00 20.00     0.115 C 
HETATM    9 CL9  UNL     1     -41.203   1.715  -4.074  1.00 20.00    -0.130 Cl
ENDBRANCH   7   8
ENDBRANCH   5   7
TORSDOF 2
ENDMDL
MODEL 7
REMARK VINA RESULT:      -3.7     11.910     13.129
REMARK  2 active torsions:
REMARK  status: ('A' for Active; 'I' for Inactive)
REMARK    1  A    between atoms: C5_5  and  C6_6 
REMARK    2  A    between atoms: C6_6  and  C7_7 
ROOT
HETATM    1  C1  UNL     1     -34.841  13.951  -5.236  1.00 20.00     0.031 C 
HETATM    2  C2  UNL     1     -33.730  16.198  -5.336  1.00 20.00     0.031 C 
HETATM    3  C3  UNL     1     -35.240  14.162  -6.692  1.00 20.00     0.168 C 
HETATM    4  C4  UNL     1     -34.190  16.283  -6.787  1.00 20.00     0.168 C 
HETATM    5  C5  UNL     1     -34.665  15.297  -4.524  1.00 20.00    -0.010 C 
HETATM    6  O8  UNL     1     -34.284  14.982  -7.365  1.00 20.00    -0.391 OA
ENDROOT
BRANCH   5   7
HETATM    7  C6  UNL     1     -34.144  15.103  -3.102  1.00 20.00     0.020 C 
BRANCH   7   8
HETATM    8  C7  UNL     1     -33.854  16.413  -2.383  1.00 20.00     0.115 C 
HETATM    9 CL9  UNL     1     -34.653  16.497  -0.796  1.00 20.00    -0.130 Cl
ENDBRANCH   7   8
ENDBRANCH   5   7
TORSDOF 2
ENDMDL
MODEL 8
REMARK VINA RESULT:      -3.7     11.660     12.427
REMARK  2 active torsions:
REMARK  status: ('A' for Active; 'I' for Inactive)
REMARK    1  A    between atoms: C5_5  and  C6_6 
REMARK    2  A    between atoms: C6_6  and  C7_7 
ROOT
HETATM    1  C1  UNL     1     -34.650  16.659  -0.731  1.00 20.00     0.031 C 
HETATM    2  C2  UNL     1     -33.896  17.796  -2.836  1.00 20.00     0.031 C 
HETATM    3  C3  UNL     1     -34.114  17.866   0.030  1.00 20.00     0.168 C 
HETATM    4  C4  UNL     1     -33.402  18.940  -1.958  1.00 20.00     0.168 C 
HETATM    5  C5  UNL     1     -33.900  16.478  -2.055  1.00 20.00    -0.010 C 
HETATM    6  O8  UNL     1     -34.190  19.044  -0.773  1.00 20.00    -0.391 OA
ENDROOT
BRANCH   5   7
HETATM    7  C6  UNL     1     -34.510  15.350  -2.884  1.00 20.00     0.020 C 
BRANCH   7   8
HETATM    8  C7  UNL     1     -33.498  14.638  -3.770  1.00 20.00     0.115 C 
HETATM    9 CL9  UNL     1     -34.228  13.284  -4.664  1.00 20.00    -0.130 Cl
ENDBRANCH   7   8
ENDBRANCH   5   7
TORSDOF 2
ENDMDL
MODEL 9
REMARK VINA RESULT:      -3.5     11.112     12.653
REMARK  2 active torsions:
REMARK  status: ('A' for Active; 'I' for Inactive)
REMARK    1  A    between atoms: C5_5  and  C6_6 
REMARK    2  A    between atoms: C6_6  and  C7_7 
ROOT
HETATM    1  C1  UNL     1     -34.870  15.012  -5.448  1.00 20.00     0.031 C 
HETATM    2  C2  UNL     1     -33.078  15.232  -3.706  1.00 20.00     0.031 C 
HETATM    3  C3  UNL     1     -34.805  13.506  -5.222  1.00 20.00     0.168 C 
HETATM    4  C4  UNL     1     -33.113  13.714  -3.577  1.00 20.00     0.168 C 
HETATM    5  C5  UNL     1     -33.527  15.668  -5.104  1.00 20.00    -0.010 C 
HETATM    6  O8  UNL     1     -34.414  13.211  -3.882  1.00 20.00    -0.391 OA
ENDROOT
BRANCH   5   7
HETATM    7  C6  UNL     1     -33.616  17.188  -5.204  1.00 20.00     0.020 C 
BRANCH   7   8
HETATM    8  C7  UNL     1     -33.843  17.868  -3.861  1.00 20.00     0.115 C 
HETATM    9 CL9  UNL     1     -35.565  18.204  -3.565  1.00 20.00    -0.130 Cl
ENDBRANCH   7   8
ENDBRANCH   5   7
TORSDOF 2
ENDMDL
