MODEL 1
REMARK VINA RESULT:      -5.2      0.000      0.000
REMARK  3 active torsions:
REMARK  status: ('A' for Active; 'I' for Inactive)
REMARK    1  A    between atoms: C5_5  and  C6_6 
REMARK    2  A    between atoms: C6_6  and  C7_7 
REMARK    3  A    between atoms: C7_7  and  C8_8 
ROOT
HETATM    1  C1  UNL     1     -33.998   5.147   6.408  1.00 20.00     0.004 C 
HETATM    2  C2  UNL     1     -35.115   4.294   5.823  1.00 20.00     0.026 C 
HETATM    3  C3  UNL     1     -34.034   6.550   5.813  1.00 20.00     0.032 C 
HETATM    4  C4  UNL     1     -35.090   4.337   4.302  1.00 20.00     0.168 C 
HETATM    5  C5  UNL     1     -34.095   6.529   4.283  1.00 20.00     0.121 C 
HETATM    6  O9  UNL     1     -35.150   5.679   3.820  1.00 20.00    -0.386 OA
ENDROOT
BRANCH   5   7
HETATM    7  C6  UNL     1     -32.761   6.169   3.632  1.00 20.00     0.033 C 
BRANCH   7   8
HETATM    8  C7  UNL     1     -31.919   7.415   3.360  1.00 20.00     0.017 C 
BRANCH   8   9
HETATM    9  C8  UNL     1     -32.035   7.846   1.904  1.00 20.00     0.115 C 
HETATM   10 CL10 UNL     1     -32.496   9.561   1.798  1.00 20.00    -0.130 Cl
ENDBRANCH   8   9
ENDBRANCH   7   8
ENDBRANCH   5   7
TORSDOF 3
ENDMDL
MODEL 2
REMARK VINA RESULT:      -4.3     11.632     12.505
REMARK  3 active torsions:
REMARK  status: ('A' for Active; 'I' for Inactive)
REMARK    1  A    between atoms: C5_5  and  C6_6 
REMARK    2  A    between atoms: C6_6  and  C7_7 
REMARK    3  A    between atoms: C7_7  and  C8_8 
ROOT
HETATM    1  C1  UNL     1     -34.417  15.876  -5.742  1.00 20.00     0.004 C 
HETATM    2  C2  UNL     1     -34.549  14.396  -6.073  1.00 20.00     0.026 C 
HETATM    3  C3  UNL     1     -33.255  16.104  -4.782  1.00 20.00     0.032 C 
HETATM    4  C4  UNL     1     -34.602  13.559  -4.803  1.00 20.00     0.168 C 
HETATM    5  C5  UNL     1     -33.317  15.174  -3.567  1.00 20.00     0.121 C 
HETATM    6  O9  UNL     1     -33.473  13.809  -3.969  1.00 20.00    -0.386 OA
ENDROOT
BRANCH   5   7
HETATM    7  C6  UNL     1     -34.380  15.582  -2.549  1.00 20.00     0.033 C 
BRANCH   7   8
HETATM    8  C7  UNL     1     -33.939  16.803  -1.741  1.00 20.00     0.017 C 
BRANCH   8   9
HETATM    9  C8  UNL     1     -34.699  16.890  -0.426  1.00 20.00     0.115 C 
HETATM   10 CL10 UNL     1     -33.944  18.089   0.650  1.00 20.00    -0.130 Cl
ENDBRANCH   8   9
ENDBRANCH   7   8
ENDBRANCH   5   7
TORSDOF 3
ENDMDL
MODEL 3
REMARK VINA RESULT:      -3.9      1.475      2.166
REMARK  3 active torsions:
REMARK  status: ('A' for Active; 'I' for Inactive)
REMARK    1  A    between atoms: C5_5  and  C6_6 
REMARK    2  A    between atoms: C6_6  and  C7_7 
REMARK    3  A    between atoms: C7_7  and  C8_8 
ROOT
HETATM    1  C1  UNL     1     -35.443   5.399   3.680  1.00 20.00     0.004 C 
HETATM    2  C2  UNL     1     -35.153   5.223   5.164  1.00 20.00     0.026 C 
HETATM    3  C3  UNL     1     -34.165   5.232   2.865  1.00 20.00     0.032 C 
HETATM    4  C4  UNL     1     -34.002   6.116   5.601  1.00 20.00     0.168 C 
HETATM    5  C5  UNL     1     -33.018   6.092   3.406  1.00 20.00     0.121 C 
HETATM    6  O9  UNL     1     -32.837   5.887   4.811  1.00 20.00    -0.386 OA
ENDROOT
BRANCH   5   7
HETATM    7  C6  UNL     1     -33.166   7.574   3.071  1.00 20.00     0.033 C 
BRANCH   7   8
HETATM    8  C7  UNL     1     -32.005   8.071   2.210  1.00 20.00     0.017 C 
BRANCH   8   9
HETATM    9  C8  UNL     1     -32.357   9.383   1.524  1.00 20.00     0.115 C 
HETATM   10 CL10 UNL     1     -32.717   9.107  -0.197  1.00 20.00    -0.130 Cl
ENDBRANCH   8   9
ENDBRANCH   7   8
ENDBRANCH   5   7
TORSDOF 3
ENDMDL
MODEL 4
REMARK VINA RESULT:      -3.9     11.602     12.581
REMARK  3 active torsions:
REMARK  status: ('A' for Active; 'I' for Inactive)
REMARK    1  A    between atoms: C5_5  and  C6_6 
REMARK    2  A    between atoms: C6_6  and  C7_7 
REMARK    3  A    between atoms: C7_7  and  C8_8 
ROOT
HETATM    1  C1  UNL     1     -34.768  13.632  -5.485  1.00 20.00     0.004 C 
HETATM    2  C2  UNL     1     -35.466  14.694  -6.323  1.00 20.00     0.026 C 
HETATM    3  C3  UNL     1     -35.261  13.684  -4.043  1.00 20.00     0.032 C 
HETATM    4  C4  UNL     1     -35.357  16.062  -5.665  1.00 20.00     0.168 C 
HETATM    5  C5  UNL     1     -35.208  15.101  -3.464  1.00 20.00     0.121 C 
HETATM    6  O9  UNL     1     -35.858  16.037  -4.330  1.00 20.00    -0.386 OA
ENDROOT
BRANCH   5   7
HETATM    7  C6  UNL     1     -33.793  15.554  -3.111  1.00 20.00     0.033 C 
BRANCH   7   8
HETATM    8  C7  UNL     1     -33.812  16.758  -2.169  1.00 20.00     0.017 C 
BRANCH   8   9
HETATM    9  C8  UNL     1     -34.714  16.500  -0.971  1.00 20.00     0.115 C 
HETATM   10 CL10 UNL     1     -34.369  17.664   0.330  1.00 20.00    -0.130 Cl
ENDBRANCH   8   9
ENDBRANCH   7   8
ENDBRANCH   5   7
TORSDOF 3
ENDMDL
MODEL 5
REMARK VINA RESULT:      -3.8     11.348     12.693
REMARK  3 active torsions:
REMARK  status: ('A' for Active; 'I' for Inactive)
REMARK    1  A    between atoms: C5_5  and  C6_6 
REMARK    2  A    between atoms: C6_6  and  C7_7 
REMARK    3  A    between atoms: C7_7  and  C8_8 
ROOT
HETATM    1  C1  UNL     1     -33.393  15.131  -3.422  1.00 20.00     0.004 C 
HETATM    2  C2  UNL     1     -33.318  13.641  -3.724  1.00 20.00     0.026 C 
HETATM    3  C3  UNL     1     -34.803  15.512  -2.983  1.00 20.00     0.032 C 
HETATM    4  C4  UNL     1     -34.416  13.228  -4.693  1.00 20.00     0.168 C 
HETATM    5  C5  UNL     1     -35.871  14.995  -3.952  1.00 20.00     0.121 C 
HETATM    6  O9  UNL     1     -35.704  13.596  -4.205  1.00 20.00    -0.386 OA
ENDROOT
BRANCH   5   7
HETATM    7  C6  UNL     1     -35.942  15.794  -5.252  1.00 20.00     0.033 C 
BRANCH   7   8
HETATM    8  C7  UNL     1     -37.057  15.280  -6.162  1.00 20.00     0.017 C 
BRANCH   8   9
HETATM    9  C8  UNL     1     -36.516  14.917  -7.537  1.00 20.00     0.115 C 
HETATM   10 CL10 UNL     1     -34.750  15.130  -7.585  1.00 20.00    -0.130 Cl
ENDBRANCH   8   9
ENDBRANCH   7   8
ENDBRANCH   5   7
TORSDOF 3
ENDMDL
MODEL 6
REMARK VINA RESULT:      -3.8     11.764     12.803
REMARK  3 active torsions:
REMARK  status: ('A' for Active; 'I' for Inactive)
REMARK    1  A    between atoms: C5_5  and  C6_6 
REMARK    2  A    between atoms: C6_6  and  C7_7 
REMARK    3  A    between atoms: C7_7  and  C8_8 
ROOT
HETATM    1  C1  UNL     1     -35.428  15.577  -3.502  1.00 20.00     0.004 C 
HETATM    2  C2  UNL     1     -34.128  15.272  -2.771  1.00 20.00     0.026 C 
HETATM    3  C3  UNL     1     -36.001  14.305  -4.118  1.00 20.00     0.032 C 
HETATM    4  C4  UNL     1     -33.164  14.514  -3.671  1.00 20.00     0.168 C 
HETATM    5  C5  UNL     1     -34.960  13.540  -4.942  1.00 20.00     0.121 C 
HETATM    6  O9  UNL     1     -33.762  13.327  -4.189  1.00 20.00    -0.386 OA
ENDROOT
BRANCH   5   7
HETATM    7  C6  UNL     1     -34.665  14.190  -6.292  1.00 20.00     0.033 C 
BRANCH   7   8
HETATM    8  C7  UNL     1     -35.947  14.654  -6.981  1.00 20.00     0.017 C 
BRANCH   8   9
HETATM    9  C8  UNL     1     -35.825  16.098  -7.447  1.00 20.00     0.115 C 
HETATM   10 CL10 UNL     1     -34.362  16.848  -6.767  1.00 20.00    -0.130 Cl
ENDBRANCH   8   9
ENDBRANCH   7   8
ENDBRANCH   5   7
TORSDOF 3
ENDMDL
MODEL 7
REMARK VINA RESULT:      -3.8     11.970     13.337
REMARK  3 active torsions:
REMARK  status: ('A' for Active; 'I' for Inactive)
REMARK    1  A    between atoms: C5_5  and  C6_6 
REMARK    2  A    between atoms: C6_6  and  C7_7 
REMARK    3  A    between atoms: C7_7  and  C8_8 
ROOT
HETATM    1  C1  UNL     1     -34.347  14.921  -3.050  1.00 20.00     0.004 C 
HETATM    2  C2  UNL     1     -34.558  16.139  -2.162  1.00 20.00     0.026 C 
HETATM    3  C3  UNL     1     -33.184  15.157  -4.008  1.00 20.00     0.032 C 
HETATM    4  C4  UNL     1     -34.673  17.406  -2.998  1.00 20.00     0.168 C 
HETATM    5  C5  UNL     1     -33.312  16.486  -4.757  1.00 20.00     0.121 C 
HETATM    6  O9  UNL     1     -33.541  17.570  -3.850  1.00 20.00    -0.386 OA
ENDROOT
BRANCH   5   7
HETATM    7  C6  UNL     1     -34.362  16.455  -5.866  1.00 20.00     0.033 C 
BRANCH   7   8
HETATM    8  C7  UNL     1     -34.170  15.246  -6.781  1.00 20.00     0.017 C 
BRANCH   8   9
HETATM    9  C8  UNL     1     -35.485  14.508  -6.993  1.00 20.00     0.115 C 
HETATM   10 CL10 UNL     1     -36.707  15.069  -5.827  1.00 20.00    -0.130 Cl
ENDBRANCH   8   9
ENDBRANCH   7   8
ENDBRANCH   5   7
TORSDOF 3
ENDMDL
MODEL 8
REMARK VINA RESULT:      -3.8     11.852     12.868
REMARK  3 active torsions:
REMARK  status: ('A' for Active; 'I' for Inactive)
REMARK    1  A    between atoms: C5_5  and  C6_6 
REMARK    2  A    between atoms: C6_6  and  C7_7 
REMARK    3  A    between atoms: C7_7  and  C8_8 
ROOT
HETATM    1  C1  UNL     1     -33.051  15.278  -3.847  1.00 20.00     0.004 C 
HETATM    2  C2  UNL     1     -33.223  16.396  -4.867  1.00 20.00     0.026 C 
HETATM    3  C3  UNL     1     -34.327  15.104  -3.031  1.00 20.00     0.032 C 
HETATM    4  C4  UNL     1     -33.727  17.667  -4.199  1.00 20.00     0.168 C 
HETATM    5  C5  UNL     1     -34.833  16.430  -2.456  1.00 20.00     0.121 C 
HETATM    6  O9  UNL     1     -34.933  17.430  -3.476  1.00 20.00    -0.386 OA
ENDROOT
BRANCH   5   7
HETATM    7  C6  UNL     1     -34.011  16.924  -1.267  1.00 20.00     0.033 C 
BRANCH   7   8
HETATM    8  C7  UNL     1     -34.873  17.070  -0.014  1.00 20.00     0.017 C 
BRANCH   8   9
HETATM    9  C8  UNL     1     -34.368  18.204   0.867  1.00 20.00     0.115 C 
HETATM   10 CL10 UNL     1     -34.824  17.922   2.564  1.00 20.00    -0.130 Cl
ENDBRANCH   8   9
ENDBRANCH   7   8
ENDBRANCH   5   7
TORSDOF 3
ENDMDL
MODEL 9
REMARK VINA RESULT:      -3.8     11.731     12.720
REMARK  3 active torsions:
REMARK  status: ('A' for Active; 'I' for Inactive)
REMARK    1  A    between atoms: C5_5  and  C6_6 
REMARK    2  A    between atoms: C6_6  and  C7_7 
REMARK    3  A    between atoms: C7_7  and  C8_8 
ROOT
HETATM    1  C1  UNL     1     -36.965  15.796  -6.000  1.00 20.00     0.004 C 
HETATM    2  C2  UNL     1     -38.385  15.354  -5.675  1.00 20.00     0.026 C 
HETATM    3  C3  UNL     1     -35.958  14.787  -5.459  1.00 20.00     0.032 C 
HETATM    4  C4  UNL     1     -38.531  15.046  -4.192  1.00 20.00     0.168 C 
HETATM    5  C5  UNL     1     -36.208  14.452  -3.986  1.00 20.00     0.121 C 
HETATM    6  O9  UNL     1     -37.573  14.079  -3.766  1.00 20.00    -0.386 OA
ENDROOT
BRANCH   5   7
HETATM    7  C6  UNL     1     -35.771  15.562  -3.032  1.00 20.00     0.033 C 
BRANCH   7   8
HETATM    8  C7  UNL     1     -34.259  15.545  -2.812  1.00 20.00     0.017 C 
BRANCH   8   9
HETATM    9  C8  UNL     1     -33.819  16.727  -1.959  1.00 20.00     0.115 C 
HETATM   10 CL10 UNL     1     -34.701  16.740  -0.414  1.00 20.00    -0.130 Cl
ENDBRANCH   8   9
ENDBRANCH   7   8
ENDBRANCH   5   7
TORSDOF 3
ENDMDL
