MODEL 1
REMARK VINA RESULT:      -3.8      0.000      0.000
REMARK  4 active torsions:
REMARK  status: ('A' for Active; 'I' for Inactive)
REMARK    1  A    between atoms: C1_1  and  C2_2 
REMARK    2  A    between atoms: C1_1  and  N9_9 
REMARK    3  A    between atoms: C7_7  and  C8_8 
REMARK    4  A    between atoms: C8_8  and  N9_9 
ROOT
HETATM    1  C4  UNL     1     -33.745  18.111  -2.784  1.00 20.00     0.038 C 
HETATM    2  C5  UNL     1     -35.998  17.171  -3.320  1.00 20.00     0.038 C 
HETATM    3  C8  UNL     1     -34.609  16.840  -2.756  1.00 20.00     0.024 C 
ENDROOT
BRANCH   3   4
HETATM    4  C7  UNL     1     -34.697  16.330  -1.297  1.00 20.00     0.026 C 
HETATM    5  C3  UNL     1     -34.466  17.392  -0.229  1.00 20.00     0.007 C 
ENDBRANCH   3   4
BRANCH   3   6
HETATM    6  N9  UNL     1     -33.977  15.840  -3.598  1.00 20.00    -0.383 N 
HETATM    7  C6  UNL     1     -33.324  16.331  -4.807  1.00 20.00     0.150 C 
BRANCH   6   8
HETATM    8  C1  UNL     1     -34.178  14.502  -3.398  1.00 20.00     0.127 C 
BRANCH   8   9
HETATM    9  C2  UNL     1     -35.003  13.679  -4.068  1.00 20.00     0.275 C 
HETATM   10  O10 UNL     1     -34.786  12.622  -4.718  1.00 20.00    -0.301 OA
ENDBRANCH   8   9
ENDBRANCH   6   8
ENDBRANCH   3   6
TORSDOF 4
ENDMDL
MODEL 2
REMARK VINA RESULT:      -3.8      1.069      1.462
REMARK  4 active torsions:
REMARK  status: ('A' for Active; 'I' for Inactive)
REMARK    1  A    between atoms: C1_1  and  C2_2 
REMARK    2  A    between atoms: C1_1  and  N9_9 
REMARK    3  A    between atoms: C7_7  and  C8_8 
REMARK    4  A    between atoms: C8_8  and  N9_9 
ROOT
HETATM    1  C4  UNL     1     -34.077  17.381  -4.015  1.00 20.00     0.038 C 
HETATM    2  C5  UNL     1     -36.174  17.549  -2.665  1.00 20.00     0.038 C 
HETATM    3  C8  UNL     1     -34.903  16.720  -2.900  1.00 20.00     0.024 C 
ENDROOT
BRANCH   3   4
HETATM    4  C7  UNL     1     -34.035  16.637  -1.621  1.00 20.00     0.026 C 
HETATM    5  C3  UNL     1     -34.759  16.988  -0.327  1.00 20.00     0.007 C 
ENDBRANCH   3   4
BRANCH   3   6
HETATM    6  N9  UNL     1     -35.275  15.386  -3.339  1.00 20.00    -0.383 N 
HETATM    7  C6  UNL     1     -36.704  15.124  -3.470  1.00 20.00     0.150 C 
BRANCH   6   8
HETATM    8  C1  UNL     1     -34.362  14.370  -3.401  1.00 20.00     0.127 C 
BRANCH   8   9
HETATM    9  C2  UNL     1     -34.140  13.516  -4.414  1.00 20.00     0.275 C 
HETATM   10  O10 UNL     1     -34.808  12.541  -4.850  1.00 20.00    -0.301 OA
ENDBRANCH   8   9
ENDBRANCH   6   8
ENDBRANCH   3   6
TORSDOF 4
ENDMDL
MODEL 3
REMARK VINA RESULT:      -3.8      2.014      2.929
REMARK  4 active torsions:
REMARK  status: ('A' for Active; 'I' for Inactive)
REMARK    1  A    between atoms: C1_1  and  C2_2 
REMARK    2  A    between atoms: C1_1  and  N9_9 
REMARK    3  A    between atoms: C7_7  and  C8_8 
REMARK    4  A    between atoms: C8_8  and  N9_9 
ROOT
HETATM    1  C4  UNL     1     -33.507  13.732  -3.795  1.00 20.00     0.038 C 
HETATM    2  C5  UNL     1     -33.166  16.103  -4.510  1.00 20.00     0.038 C 
HETATM    3  C8  UNL     1     -34.180  15.108  -3.929  1.00 20.00     0.024 C 
ENDROOT
BRANCH   3   4
HETATM    4  C7  UNL     1     -34.679  15.555  -2.533  1.00 20.00     0.026 C 
HETATM    5  C3  UNL     1     -33.881  16.686  -1.896  1.00 20.00     0.007 C 
ENDBRANCH   3   4
BRANCH   3   6
HETATM    6  N9  UNL     1     -35.302  14.978  -4.842  1.00 20.00    -0.383 N 
HETATM    7  C6  UNL     1     -35.029  14.318  -6.114  1.00 20.00     0.150 C 
BRANCH   6   8
HETATM    8  C1  UNL     1     -36.481  15.638  -4.627  1.00 20.00     0.127 C 
BRANCH   8   9
HETATM    9  C2  UNL     1     -37.704  15.111  -4.447  1.00 20.00     0.275 C 
HETATM   10  O10 UNL     1     -38.108  14.153  -3.735  1.00 20.00    -0.301 OA
ENDBRANCH   8   9
ENDBRANCH   6   8
ENDBRANCH   3   6
TORSDOF 4
ENDMDL
MODEL 4
REMARK VINA RESULT:      -3.8      1.993      3.280
REMARK  4 active torsions:
REMARK  status: ('A' for Active; 'I' for Inactive)
REMARK    1  A    between atoms: C1_1  and  C2_2 
REMARK    2  A    between atoms: C1_1  and  N9_9 
REMARK    3  A    between atoms: C7_7  and  C8_8 
REMARK    4  A    between atoms: C8_8  and  N9_9 
ROOT
HETATM    1  C4  UNL     1     -33.937  16.471  -2.788  1.00 20.00     0.038 C 
HETATM    2  C5  UNL     1     -32.435  14.637  -3.580  1.00 20.00     0.038 C 
HETATM    3  C8  UNL     1     -33.698  15.446  -3.908  1.00 20.00     0.024 C 
ENDROOT
BRANCH   3   4
HETATM    4  C7  UNL     1     -33.556  16.201  -5.251  1.00 20.00     0.026 C 
HETATM    5  C3  UNL     1     -33.505  17.720  -5.134  1.00 20.00     0.007 C 
ENDBRANCH   3   4
BRANCH   3   6
HETATM    6  N9  UNL     1     -34.841  14.550  -3.957  1.00 20.00    -0.383 N 
HETATM    7  C6  UNL     1     -34.664  13.317  -4.717  1.00 20.00     0.150 C 
BRANCH   6   8
HETATM    8  C1  UNL     1     -36.076  14.939  -3.519  1.00 20.00     0.127 C 
BRANCH   8   9
HETATM    9  C2  UNL     1     -37.266  14.743  -4.114  1.00 20.00     0.275 C 
HETATM   10  O10 UNL     1     -38.327  14.200  -3.707  1.00 20.00    -0.301 OA
ENDBRANCH   8   9
ENDBRANCH   6   8
ENDBRANCH   3   6
TORSDOF 4
ENDMDL
MODEL 5
REMARK VINA RESULT:      -3.8      1.833      3.248
REMARK  4 active torsions:
REMARK  status: ('A' for Active; 'I' for Inactive)
REMARK    1  A    between atoms: C1_1  and  C2_2 
REMARK    2  A    between atoms: C1_1  and  N9_9 
REMARK    3  A    between atoms: C7_7  and  C8_8 
REMARK    4  A    between atoms: C8_8  and  N9_9 
ROOT
HETATM    1  C4  UNL     1     -33.184  15.984  -4.490  1.00 20.00     0.038 C 
HETATM    2  C5  UNL     1     -34.095  16.223  -2.174  1.00 20.00     0.038 C 
HETATM    3  C8  UNL     1     -34.331  15.581  -3.549  1.00 20.00     0.024 C 
ENDROOT
BRANCH   3   4
HETATM    4  C7  UNL     1     -34.378  14.037  -3.454  1.00 20.00     0.026 C 
HETATM    5  C3  UNL     1     -34.554  13.315  -4.785  1.00 20.00     0.007 C 
ENDBRANCH   3   4
BRANCH   3   6
HETATM    6  N9  UNL     1     -35.575  16.086  -4.105  1.00 20.00    -0.383 N 
HETATM    7  C6  UNL     1     -35.469  16.838  -5.350  1.00 20.00     0.150 C 
BRANCH   6   8
HETATM    8  C1  UNL     1     -36.741  16.061  -3.391  1.00 20.00     0.127 C 
BRANCH   8   9
HETATM    9  C2  UNL     1     -37.862  15.369  -3.659  1.00 20.00     0.275 C 
HETATM   10  O10 UNL     1     -38.079  14.133  -3.763  1.00 20.00    -0.301 OA
ENDBRANCH   8   9
ENDBRANCH   6   8
ENDBRANCH   3   6
TORSDOF 4
ENDMDL
MODEL 6
REMARK VINA RESULT:      -3.7      1.117      1.160
REMARK  4 active torsions:
REMARK  status: ('A' for Active; 'I' for Inactive)
REMARK    1  A    between atoms: C1_1  and  C2_2 
REMARK    2  A    between atoms: C1_1  and  N9_9 
REMARK    3  A    between atoms: C7_7  and  C8_8 
REMARK    4  A    between atoms: C8_8  and  N9_9 
ROOT
HETATM    1  C4  UNL     1     -34.734  18.143  -3.716  1.00 20.00     0.038 C 
HETATM    2  C5  UNL     1     -36.264  16.246  -3.161  1.00 20.00     0.038 C 
HETATM    3  C8  UNL     1     -34.798  16.645  -3.378  1.00 20.00     0.024 C 
ENDROOT
BRANCH   3   4
HETATM    4  C7  UNL     1     -33.945  16.384  -2.113  1.00 20.00     0.026 C 
HETATM    5  C3  UNL     1     -34.652  16.661  -0.792  1.00 20.00     0.007 C 
ENDBRANCH   3   4
BRANCH   3   6
HETATM    6  N9  UNL     1     -34.261  15.901  -4.505  1.00 20.00    -0.383 N 
HETATM    7  C6  UNL     1     -33.375  16.634  -5.402  1.00 20.00     0.150 C 
BRANCH   6   8
HETATM    8  C1  UNL     1     -34.737  14.663  -4.838  1.00 20.00     0.127 C 
BRANCH   8   9
HETATM    9  C2  UNL     1     -34.237  13.463  -4.494  1.00 20.00     0.275 C 
HETATM   10  O10 UNL     1     -33.254  13.139  -3.778  1.00 20.00    -0.301 OA
ENDBRANCH   8   9
ENDBRANCH   6   8
ENDBRANCH   3   6
TORSDOF 4
ENDMDL
MODEL 7
REMARK VINA RESULT:      -3.7      2.013      3.890
REMARK  4 active torsions:
REMARK  status: ('A' for Active; 'I' for Inactive)
REMARK    1  A    between atoms: C1_1  and  C2_2 
REMARK    2  A    between atoms: C1_1  and  N9_9 
REMARK    3  A    between atoms: C7_7  and  C8_8 
REMARK    4  A    between atoms: C8_8  and  N9_9 
ROOT
HETATM    1  C4  UNL     1     -33.271  16.319  -5.086  1.00 20.00     0.038 C 
HETATM    2  C5  UNL     1     -33.315  14.177  -3.798  1.00 20.00     0.038 C 
HETATM    3  C8  UNL     1     -34.167  15.167  -4.605  1.00 20.00     0.024 C 
ENDROOT
BRANCH   3   4
HETATM    4  C7  UNL     1     -34.810  14.488  -5.838  1.00 20.00     0.026 C 
HETATM    5  C3  UNL     1     -34.385  15.063  -7.184  1.00 20.00     0.007 C 
ENDBRANCH   3   4
BRANCH   3   6
HETATM    6  N9  UNL     1     -35.199  15.721  -3.745  1.00 20.00    -0.383 N 
HETATM    7  C6  UNL     1     -34.872  15.828  -2.328  1.00 20.00     0.150 C 
BRANCH   6   8
HETATM    8  C1  UNL     1     -36.478  15.913  -4.192  1.00 20.00     0.127 C 
BRANCH   8   9
HETATM    9  C2  UNL     1     -37.611  15.367  -3.720  1.00 20.00     0.275 C 
HETATM   10  O10 UNL     1     -38.022  14.177  -3.697  1.00 20.00    -0.301 OA
ENDBRANCH   8   9
ENDBRANCH   6   8
ENDBRANCH   3   6
TORSDOF 4
ENDMDL
MODEL 8
REMARK VINA RESULT:      -3.7      1.881      3.035
REMARK  4 active torsions:
REMARK  status: ('A' for Active; 'I' for Inactive)
REMARK    1  A    between atoms: C1_1  and  C2_2 
REMARK    2  A    between atoms: C1_1  and  N9_9 
REMARK    3  A    between atoms: C7_7  and  C8_8 
REMARK    4  A    between atoms: C8_8  and  N9_9 
ROOT
HETATM    1  C4  UNL     1     -34.848  13.537  -4.100  1.00 20.00     0.038 C 
HETATM    2  C5  UNL     1     -32.983  15.142  -3.659  1.00 20.00     0.038 C 
HETATM    3  C8  UNL     1     -34.498  15.017  -3.877  1.00 20.00     0.024 C 
ENDROOT
BRANCH   3   4
HETATM    4  C7  UNL     1     -35.292  15.536  -2.654  1.00 20.00     0.026 C 
HETATM    5  C3  UNL     1     -34.468  16.311  -1.633  1.00 20.00     0.007 C 
ENDBRANCH   3   4
BRANCH   3   6
HETATM    6  N9  UNL     1     -34.874  15.759  -5.068  1.00 20.00    -0.383 N 
HETATM    7  C6  UNL     1     -36.171  16.425  -5.033  1.00 20.00     0.150 C 
BRANCH   6   8
HETATM    8  C1  UNL     1     -34.167  15.649  -6.234  1.00 20.00     0.127 C 
BRANCH   8   9
HETATM    9  C2  UNL     1     -34.511  14.987  -7.352  1.00 20.00     0.275 C 
HETATM   10  O10 UNL     1     -35.443  14.174  -7.592  1.00 20.00    -0.301 OA
ENDBRANCH   8   9
ENDBRANCH   6   8
ENDBRANCH   3   6
TORSDOF 4
ENDMDL
MODEL 9
REMARK VINA RESULT:      -3.6      2.428      3.717
REMARK  4 active torsions:
REMARK  status: ('A' for Active; 'I' for Inactive)
REMARK    1  A    between atoms: C1_1  and  C2_2 
REMARK    2  A    between atoms: C1_1  and  N9_9 
REMARK    3  A    between atoms: C7_7  and  C8_8 
REMARK    4  A    between atoms: C8_8  and  N9_9 
ROOT
HETATM    1  C4  UNL     1     -34.552  13.310  -4.515  1.00 20.00     0.038 C 
HETATM    2  C5  UNL     1     -32.712  14.696  -3.544  1.00 20.00     0.038 C 
HETATM    3  C8  UNL     1     -34.134  14.736  -4.121  1.00 20.00     0.024 C 
ENDROOT
BRANCH   3   4
HETATM    4  C7  UNL     1     -35.150  15.283  -3.089  1.00 20.00     0.026 C 
HETATM    5  C3  UNL     1     -34.535  16.046  -1.922  1.00 20.00     0.007 C 
ENDBRANCH   3   4
BRANCH   3   6
HETATM    6  N9  UNL     1     -34.143  15.561  -5.317  1.00 20.00    -0.383 N 
HETATM    7  C6  UNL     1     -34.914  15.054  -6.447  1.00 20.00     0.150 C 
BRANCH   6   8
HETATM    8  C1  UNL     1     -33.297  16.626  -5.460  1.00 20.00     0.127 C 
BRANCH   8   9
HETATM    9  C2  UNL     1     -33.564  17.928  -5.261  1.00 20.00     0.275 C 
HETATM   10  O10 UNL     1     -33.581  18.630  -4.215  1.00 20.00    -0.301 OA
ENDBRANCH   8   9
ENDBRANCH   6   8
ENDBRANCH   3   6
TORSDOF 4
ENDMDL
