MODEL 1
REMARK VINA RESULT:      -3.2      0.000      0.000
REMARK  3 active torsions:
REMARK  status: ('A' for Active; 'I' for Inactive)
REMARK    1  A    between atoms: C3_3  and  C4_4 
REMARK    2  A    between atoms: C3_3  and  N5_5 
REMARK    3  A    between atoms: C4_4  and  S7_7 
ROOT
HETATM    1  C1  UNL     1     -32.137   7.535   2.552  1.00 20.00     0.157 C 
HETATM    2  N5  UNL     1     -32.151   6.614   3.280  1.00 20.00    -0.275 NA
HETATM    3  S6  UNL     1     -32.091   8.773   1.551  1.00 20.00    -0.055 SA
ENDROOT
BRANCH   2   4
HETATM    4  C3  UNL     1     -33.311   6.555   4.175  1.00 20.00     0.160 C 
BRANCH   4   5
HETATM    5  C4  UNL     1     -34.335   5.599   3.583  1.00 20.00     0.095 C 
BRANCH   5   6
HETATM    6  S7  UNL     1     -35.155   4.646   4.892  1.00 20.00    -0.172 SA
HETATM    7  C2  UNL     1     -34.522   5.559   6.318  1.00 20.00     0.089 C 
ENDBRANCH   5   6
ENDBRANCH   4   5
ENDBRANCH   2   4
TORSDOF 3
ENDMDL
MODEL 2
REMARK VINA RESULT:      -3.0     11.031     11.631
REMARK  3 active torsions:
REMARK  status: ('A' for Active; 'I' for Inactive)
REMARK    1  A    between atoms: C3_3  and  C4_4 
REMARK    2  A    between atoms: C3_3  and  N5_5 
REMARK    3  A    between atoms: C4_4  and  S7_7 
ROOT
HETATM    1  C1  UNL     1     -34.918  13.606  -5.605  1.00 20.00     0.157 C 
HETATM    2  N5  UNL     1     -34.699  12.957  -4.652  1.00 20.00    -0.275 NA
HETATM    3  S6  UNL     1     -35.230  14.461  -6.912  1.00 20.00    -0.055 SA
ENDROOT
BRANCH   2   4
HETATM    4  C3  UNL     1     -34.054  13.680  -3.551  1.00 20.00     0.160 C 
BRANCH   4   5
HETATM    5  C4  UNL     1     -34.935  14.855  -3.156  1.00 20.00     0.095 C 
BRANCH   5   6
HETATM    6  S7  UNL     1     -33.922  16.291  -2.700  1.00 20.00    -0.172 SA
HETATM    7  C2  UNL     1     -34.582  16.561  -1.040  1.00 20.00     0.089 C 
ENDBRANCH   5   6
ENDBRANCH   4   5
ENDBRANCH   2   4
TORSDOF 3
ENDMDL
MODEL 3
REMARK VINA RESULT:      -2.8     11.265     11.843
REMARK  3 active torsions:
REMARK  status: ('A' for Active; 'I' for Inactive)
REMARK    1  A    between atoms: C3_3  and  C4_4 
REMARK    2  A    between atoms: C3_3  and  N5_5 
REMARK    3  A    between atoms: C4_4  and  S7_7 
ROOT
HETATM    1  C1  UNL     1     -34.682  16.550  -1.135  1.00 20.00     0.157 C 
HETATM    2  N5  UNL     1     -34.643  15.853  -2.079  1.00 20.00    -0.275 NA
HETATM    3  S6  UNL     1     -34.756  17.476   0.159  1.00 20.00    -0.055 SA
ENDROOT
BRANCH   2   4
HETATM    4  C3  UNL     1     -33.734  16.301  -3.138  1.00 20.00     0.160 C 
BRANCH   4   5
HETATM    5  C4  UNL     1     -32.978  15.096  -3.674  1.00 20.00     0.095 C 
BRANCH   5   6
HETATM    6  S7  UNL     1     -34.118  13.727  -4.022  1.00 20.00    -0.172 SA
HETATM    7  C2  UNL     1     -34.687  14.266  -5.651  1.00 20.00     0.089 C 
ENDBRANCH   5   6
ENDBRANCH   4   5
ENDBRANCH   2   4
TORSDOF 3
ENDMDL
MODEL 4
REMARK VINA RESULT:      -2.7     11.170     11.642
REMARK  3 active torsions:
REMARK  status: ('A' for Active; 'I' for Inactive)
REMARK    1  A    between atoms: C3_3  and  C4_4 
REMARK    2  A    between atoms: C3_3  and  N5_5 
REMARK    3  A    between atoms: C4_4  and  S7_7 
ROOT
HETATM    1  C1  UNL     1     -33.981  16.480  -2.407  1.00 20.00     0.157 C 
HETATM    2  N5  UNL     1     -33.563  16.309  -3.490  1.00 20.00    -0.275 NA
HETATM    3  S6  UNL     1     -34.560  16.740  -0.946  1.00 20.00    -0.055 SA
ENDROOT
BRANCH   2   4
HETATM    4  C3  UNL     1     -32.904  15.016  -3.699  1.00 20.00     0.160 C 
BRANCH   4   5
HETATM    5  C4  UNL     1     -33.920  13.908  -3.473  1.00 20.00     0.095 C 
BRANCH   5   6
HETATM    6  S7  UNL     1     -35.003  13.725  -4.917  1.00 20.00    -0.172 SA
HETATM    7  C2  UNL     1     -36.530  14.355  -4.183  1.00 20.00     0.089 C 
ENDBRANCH   5   6
ENDBRANCH   4   5
ENDBRANCH   2   4
TORSDOF 3
ENDMDL
MODEL 5
REMARK VINA RESULT:      -2.7      1.397      4.582
REMARK  3 active torsions:
REMARK  status: ('A' for Active; 'I' for Inactive)
REMARK    1  A    between atoms: C3_3  and  C4_4 
REMARK    2  A    between atoms: C3_3  and  N5_5 
REMARK    3  A    between atoms: C4_4  and  S7_7 
ROOT
HETATM    1  C1  UNL     1     -34.266   5.705   4.618  1.00 20.00     0.157 C 
HETATM    2  N5  UNL     1     -33.904   6.545   3.883  1.00 20.00    -0.275 NA
HETATM    3  S6  UNL     1     -34.784   4.580   5.620  1.00 20.00    -0.055 SA
ENDROOT
BRANCH   2   4
HETATM    4  C3  UNL     1     -32.607   6.292   3.248  1.00 20.00     0.160 C 
BRANCH   4   5
HETATM    5  C4  UNL     1     -31.856   7.609   3.129  1.00 20.00     0.095 C 
BRANCH   5   6
HETATM    6  S7  UNL     1     -31.929   8.238   1.428  1.00 20.00    -0.172 SA
HETATM    7  C2  UNL     1     -32.607   9.875   1.782  1.00 20.00     0.089 C 
ENDBRANCH   5   6
ENDBRANCH   4   5
ENDBRANCH   2   4
TORSDOF 3
ENDMDL
MODEL 6
REMARK VINA RESULT:      -2.7     11.357     12.428
REMARK  3 active torsions:
REMARK  status: ('A' for Active; 'I' for Inactive)
REMARK    1  A    between atoms: C3_3  and  C4_4 
REMARK    2  A    between atoms: C3_3  and  N5_5 
REMARK    3  A    between atoms: C4_4  and  S7_7 
ROOT
HETATM    1  C1  UNL     1     -33.557  16.743  -5.536  1.00 20.00     0.157 C 
HETATM    2  N5  UNL     1     -32.869  16.291  -4.699  1.00 20.00    -0.275 NA
HETATM    3  S6  UNL     1     -34.465  17.365  -6.687  1.00 20.00    -0.055 SA
ENDROOT
BRANCH   2   4
HETATM    4  C3  UNL     1     -33.581  15.582  -3.632  1.00 20.00     0.160 C 
BRANCH   4   5
HETATM    5  C4  UNL     1     -33.424  14.085  -3.852  1.00 20.00     0.095 C 
BRANCH   5   6
HETATM    6  S7  UNL     1     -34.933  13.381  -4.575  1.00 20.00    -0.172 SA
HETATM    7  C2  UNL     1     -36.127  14.544  -3.876  1.00 20.00     0.089 C 
ENDBRANCH   5   6
ENDBRANCH   4   5
ENDBRANCH   2   4
TORSDOF 3
ENDMDL
MODEL 7
REMARK VINA RESULT:      -2.7     11.590     12.421
REMARK  3 active torsions:
REMARK  status: ('A' for Active; 'I' for Inactive)
REMARK    1  A    between atoms: C3_3  and  C4_4 
REMARK    2  A    between atoms: C3_3  and  N5_5 
REMARK    3  A    between atoms: C4_4  and  S7_7 
ROOT
HETATM    1  C1  UNL     1     -36.337  14.043  -4.079  1.00 20.00     0.157 C 
HETATM    2  N5  UNL     1     -35.563  13.192  -4.311  1.00 20.00    -0.275 NA
HETATM    3  S6  UNL     1     -37.408  15.176  -3.753  1.00 20.00    -0.055 SA
ENDROOT
BRANCH   2   4
HETATM    4  C3  UNL     1     -34.299  13.651  -4.895  1.00 20.00     0.160 C 
BRANCH   4   5
HETATM    5  C4  UNL     1     -33.623  14.595  -3.915  1.00 20.00     0.095 C 
BRANCH   5   6
HETATM    6  S7  UNL     1     -33.288  16.199  -4.695  1.00 20.00    -0.172 SA
HETATM    7  C2  UNL     1     -34.056  15.877  -6.299  1.00 20.00     0.089 C 
ENDBRANCH   5   6
ENDBRANCH   4   5
ENDBRANCH   2   4
TORSDOF 3
ENDMDL
MODEL 8
REMARK VINA RESULT:      -2.6     11.316     11.758
REMARK  3 active torsions:
REMARK  status: ('A' for Active; 'I' for Inactive)
REMARK    1  A    between atoms: C3_3  and  C4_4 
REMARK    2  A    between atoms: C3_3  and  N5_5 
REMARK    3  A    between atoms: C4_4  and  S7_7 
ROOT
HETATM    1  C1  UNL     1     -33.780  14.429  -4.042  1.00 20.00     0.157 C 
HETATM    2  N5  UNL     1     -33.048  15.182  -3.518  1.00 20.00    -0.275 NA
HETATM    3  S6  UNL     1     -34.749  13.388  -4.759  1.00 20.00    -0.055 SA
ENDROOT
BRANCH   2   4
HETATM    4  C3  UNL     1     -33.683  16.396  -2.996  1.00 20.00     0.160 C 
BRANCH   4   5
HETATM    5  C4  UNL     1     -34.770  15.995  -2.012  1.00 20.00     0.095 C 
BRANCH   5   6
HETATM    6  S7  UNL     1     -34.690  17.017  -0.515  1.00 20.00    -0.172 SA
HETATM    7  C2  UNL     1     -33.420  18.183  -1.060  1.00 20.00     0.089 C 
ENDBRANCH   5   6
ENDBRANCH   4   5
ENDBRANCH   2   4
TORSDOF 3
ENDMDL
MODEL 9
REMARK VINA RESULT:      -2.6     11.180     12.448
REMARK  3 active torsions:
REMARK  status: ('A' for Active; 'I' for Inactive)
REMARK    1  A    between atoms: C3_3  and  C4_4 
REMARK    2  A    between atoms: C3_3  and  N5_5 
REMARK    3  A    between atoms: C4_4  and  S7_7 
ROOT
HETATM    1  C1  UNL     1     -34.142  14.573  -3.266  1.00 20.00     0.157 C 
HETATM    2  N5  UNL     1     -34.356  13.456  -3.556  1.00 20.00    -0.275 NA
HETATM    3  S6  UNL     1     -33.850  16.080  -2.842  1.00 20.00    -0.055 SA
ENDROOT
BRANCH   2   4
HETATM    4  C3  UNL     1     -34.486  13.207  -4.995  1.00 20.00     0.160 C 
BRANCH   4   5
HETATM    5  C4  UNL     1     -35.505  14.179  -5.568  1.00 20.00     0.095 C 
BRANCH   5   6
HETATM    6  S7  UNL     1     -34.979  14.770  -7.202  1.00 20.00    -0.172 SA
HETATM    7  C2  UNL     1     -34.271  16.354  -6.694  1.00 20.00     0.089 C 
ENDBRANCH   5   6
ENDBRANCH   4   5
ENDBRANCH   2   4
TORSDOF 3
ENDMDL
