MODEL 1
REMARK VINA RESULT:      -4.4      0.000      0.000
REMARK  3 active torsions:
REMARK  status: ('A' for Active; 'I' for Inactive)
REMARK    1  A    between atoms: C4_4  and  C6_6 
REMARK    2  A    between atoms: C6_6  and  C7_7 
REMARK    3  A    between atoms: C7_7  and  N8_8 
ROOT
HETATM    1  C1  UNL     1     -32.166   7.988   2.269  1.00 20.00     0.158 C 
HETATM    2  N8  UNL     1     -32.164   7.162   3.103  1.00 20.00    -0.271 NA
HETATM    3  S9  UNL     1     -32.133   9.113   1.142  1.00 20.00    -0.055 SA
ENDROOT
BRANCH   2   4
HETATM    4  C7  UNL     1     -33.481   6.581   3.393  1.00 20.00     0.106 C 
HETATM    5  C5  UNL     1     -33.689   5.395   2.462  1.00 20.00     0.034 C 
BRANCH   4   6
HETATM    6  C6  UNL     1     -33.528   6.148   4.860  1.00 20.00     0.031 C 
BRANCH   6   7
HETATM    7  C4  UNL     1     -34.801   5.385   5.203  1.00 20.00    -0.013 A 
HETATM    8  C2  UNL     1     -34.729   3.945   5.630  1.00 20.00     0.005 A 
HETATM    9  C3  UNL     1     -35.097   5.008   6.627  1.00 20.00     0.005 A 
ENDBRANCH   6   7
ENDBRANCH   4   6
ENDBRANCH   2   4
TORSDOF 3
ENDMDL
MODEL 2
REMARK VINA RESULT:      -4.2      2.707      4.913
REMARK  3 active torsions:
REMARK  status: ('A' for Active; 'I' for Inactive)
REMARK    1  A    between atoms: C4_4  and  C6_6 
REMARK    2  A    between atoms: C6_6  and  C7_7 
REMARK    3  A    between atoms: C7_7  and  N8_8 
ROOT
HETATM    1  C1  UNL     1     -34.109   5.775   5.265  1.00 20.00     0.158 C 
HETATM    2  N8  UNL     1     -33.496   6.663   4.805  1.00 20.00    -0.271 NA
HETATM    3  S9  UNL     1     -34.956   4.592   5.913  1.00 20.00    -0.055 SA
ENDROOT
BRANCH   2   4
HETATM    4  C7  UNL     1     -32.633   6.293   3.676  1.00 20.00     0.106 C 
HETATM    5  C5  UNL     1     -33.514   5.713   2.578  1.00 20.00     0.034 C 
BRANCH   4   6
HETATM    6  C6  UNL     1     -31.883   7.534   3.188  1.00 20.00     0.031 C 
BRANCH   6   7
HETATM    7  C4  UNL     1     -32.519   8.149   1.948  1.00 20.00    -0.013 A 
HETATM    8  C2  UNL     1     -32.469   9.636   1.729  1.00 20.00     0.005 A 
HETATM    9  C3  UNL     1     -31.656   8.720   0.858  1.00 20.00     0.005 A 
ENDBRANCH   6   7
ENDBRANCH   4   6
ENDBRANCH   2   4
TORSDOF 3
ENDMDL
MODEL 3
REMARK VINA RESULT:      -4.0     11.159     11.923
REMARK  3 active torsions:
REMARK  status: ('A' for Active; 'I' for Inactive)
REMARK    1  A    between atoms: C4_4  and  C6_6 
REMARK    2  A    between atoms: C6_6  and  C7_7 
REMARK    3  A    between atoms: C7_7  and  N8_8 
ROOT
HETATM    1  C1  UNL     1     -34.947  13.923  -5.682  1.00 20.00     0.158 C 
HETATM    2  N8  UNL     1     -35.102  13.231  -4.747  1.00 20.00    -0.271 NA
HETATM    3  S9  UNL     1     -34.755  14.839  -6.971  1.00 20.00    -0.055 SA
ENDROOT
BRANCH   2   4
HETATM    4  C7  UNL     1     -34.499  13.733  -3.506  1.00 20.00     0.106 C 
HETATM    5  C5  UNL     1     -32.990  13.785  -3.701  1.00 20.00     0.034 C 
BRANCH   4   6
HETATM    6  C6  UNL     1     -35.066  15.121  -3.197  1.00 20.00     0.031 C 
BRANCH   6   7
HETATM    7  C4  UNL     1     -34.140  15.944  -2.311  1.00 20.00    -0.013 A 
HETATM    8  C2  UNL     1     -34.318  17.434  -2.206  1.00 20.00     0.005 A 
HETATM    9  C3  UNL     1     -34.656  16.552  -1.036  1.00 20.00     0.005 A 
ENDBRANCH   6   7
ENDBRANCH   4   6
ENDBRANCH   2   4
TORSDOF 3
ENDMDL
MODEL 4
REMARK VINA RESULT:      -3.8     11.854     12.648
REMARK  3 active torsions:
REMARK  status: ('A' for Active; 'I' for Inactive)
REMARK    1  A    between atoms: C4_4  and  C6_6 
REMARK    2  A    between atoms: C6_6  and  C7_7 
REMARK    3  A    between atoms: C7_7  and  N8_8 
ROOT
HETATM    1  C1  UNL     1     -33.374  17.251  -5.267  1.00 20.00     0.158 C 
HETATM    2  N8  UNL     1     -33.020  16.273  -4.724  1.00 20.00    -0.271 NA
HETATM    3  S9  UNL     1     -33.822  18.588  -6.007  1.00 20.00    -0.055 SA
ENDROOT
BRANCH   2   4
HETATM    4  C7  UNL     1     -34.106  15.402  -4.258  1.00 20.00     0.106 C 
HETATM    5  C5  UNL     1     -33.486  14.114  -3.733  1.00 20.00     0.034 C 
BRANCH   4   6
HETATM    6  C6  UNL     1     -34.895  16.123  -3.164  1.00 20.00     0.031 C 
BRANCH   6   7
HETATM    7  C4  UNL     1     -34.143  16.176  -1.840  1.00 20.00    -0.013 A 
HETATM    8  C2  UNL     1     -33.664  17.492  -1.292  1.00 20.00     0.005 A 
HETATM    9  C3  UNL     1     -34.796  16.765  -0.621  1.00 20.00     0.005 A 
ENDBRANCH   6   7
ENDBRANCH   4   6
ENDBRANCH   2   4
TORSDOF 3
ENDMDL
MODEL 5
REMARK VINA RESULT:      -3.8     11.452     12.080
REMARK  3 active torsions:
REMARK  status: ('A' for Active; 'I' for Inactive)
REMARK    1  A    between atoms: C4_4  and  C6_6 
REMARK    2  A    between atoms: C6_6  and  C7_7 
REMARK    3  A    between atoms: C7_7  and  N8_8 
ROOT
HETATM    1  C1  UNL     1     -33.730  14.187  -4.108  1.00 20.00     0.158 C 
HETATM    2  N8  UNL     1     -32.903  14.837  -3.587  1.00 20.00    -0.271 NA
HETATM    3  S9  UNL     1     -34.829  13.281  -4.821  1.00 20.00    -0.055 SA
ENDROOT
BRANCH   2   4
HETATM    4  C7  UNL     1     -33.356  16.157  -3.132  1.00 20.00     0.106 C 
HETATM    5  C5  UNL     1     -33.775  16.960  -4.356  1.00 20.00     0.034 C 
BRANCH   4   6
HETATM    6  C6  UNL     1     -34.524  15.981  -2.159  1.00 20.00     0.031 C 
BRANCH   6   7
HETATM    7  C4  UNL     1     -34.795  17.236  -1.340  1.00 20.00    -0.013 A 
HETATM    8  C2  UNL     1     -34.855  17.165   0.161  1.00 20.00     0.005 A 
HETATM    9  C3  UNL     1     -33.701  17.853  -0.514  1.00 20.00     0.005 A 
ENDBRANCH   6   7
ENDBRANCH   4   6
ENDBRANCH   2   4
TORSDOF 3
ENDMDL
MODEL 6
REMARK VINA RESULT:      -3.7     11.502     12.251
REMARK  3 active torsions:
REMARK  status: ('A' for Active; 'I' for Inactive)
REMARK    1  A    between atoms: C4_4  and  C6_6 
REMARK    2  A    between atoms: C6_6  and  C7_7 
REMARK    3  A    between atoms: C7_7  and  N8_8 
ROOT
HETATM    1  C1  UNL     1     -33.791  17.434  -4.143  1.00 20.00     0.158 C 
HETATM    2  N8  UNL     1     -33.848  17.511  -2.974  1.00 20.00    -0.271 NA
HETATM    3  S9  UNL     1     -33.709  17.364  -5.732  1.00 20.00    -0.055 SA
ENDROOT
BRANCH   2   4
HETATM    4  C7  UNL     1     -34.108  16.240  -2.287  1.00 20.00     0.106 C 
HETATM    5  C5  UNL     1     -34.625  16.555  -0.889  1.00 20.00     0.034 C 
BRANCH   4   6
HETATM    6  C6  UNL     1     -35.134  15.436  -3.089  1.00 20.00     0.031 C 
BRANCH   6   7
HETATM    7  C4  UNL     1     -34.660  14.018  -3.386  1.00 20.00    -0.013 A 
HETATM    8  C2  UNL     1     -34.300  13.618  -4.790  1.00 20.00     0.005 A 
HETATM    9  C3  UNL     1     -33.225  13.760  -3.749  1.00 20.00     0.005 A 
ENDBRANCH   6   7
ENDBRANCH   4   6
ENDBRANCH   2   4
TORSDOF 3
ENDMDL
MODEL 7
REMARK VINA RESULT:      -3.7     11.567     12.327
REMARK  3 active torsions:
REMARK  status: ('A' for Active; 'I' for Inactive)
REMARK    1  A    between atoms: C4_4  and  C6_6 
REMARK    2  A    between atoms: C6_6  and  C7_7 
REMARK    3  A    between atoms: C7_7  and  N8_8 
ROOT
HETATM    1  C1  UNL     1     -35.173  15.894  -5.486  1.00 20.00     0.158 C 
HETATM    2  N8  UNL     1     -35.930  15.066  -5.140  1.00 20.00    -0.271 NA
HETATM    3  S9  UNL     1     -34.160  17.016  -5.986  1.00 20.00    -0.055 SA
ENDROOT
BRANCH   2   4
HETATM    4  C7  UNL     1     -35.766  14.627  -3.748  1.00 20.00     0.106 C 
HETATM    5  C5  UNL     1     -34.436  13.893  -3.638  1.00 20.00     0.034 C 
BRANCH   4   6
HETATM    6  C6  UNL     1     -35.801  15.849  -2.828  1.00 20.00     0.031 C 
BRANCH   6   7
HETATM    7  C4  UNL     1     -34.589  15.923  -1.909  1.00 20.00    -0.013 A 
HETATM    8  C2  UNL     1     -33.785  17.191  -1.815  1.00 20.00     0.005 A 
HETATM    9  C3  UNL     1     -34.637  16.752  -0.656  1.00 20.00     0.005 A 
ENDBRANCH   6   7
ENDBRANCH   4   6
ENDBRANCH   2   4
TORSDOF 3
ENDMDL
MODEL 8
REMARK VINA RESULT:      -3.6     11.196     13.087
REMARK  3 active torsions:
REMARK  status: ('A' for Active; 'I' for Inactive)
REMARK    1  A    between atoms: C4_4  and  C6_6 
REMARK    2  A    between atoms: C6_6  and  C7_7 
REMARK    3  A    between atoms: C7_7  and  N8_8 
ROOT
HETATM    1  C1  UNL     1     -34.667  16.188  -1.880  1.00 20.00     0.158 C 
HETATM    2  N8  UNL     1     -34.720  15.567  -2.875  1.00 20.00    -0.271 NA
HETATM    3  S9  UNL     1     -34.630  17.030  -0.529  1.00 20.00    -0.055 SA
ENDROOT
BRANCH   2   4
HETATM    4  C7  UNL     1     -33.417  15.268  -3.482  1.00 20.00     0.106 C 
HETATM    5  C5  UNL     1     -33.359  13.773  -3.766  1.00 20.00     0.034 C 
BRANCH   4   6
HETATM    6  C6  UNL     1     -33.262  16.082  -4.768  1.00 20.00     0.031 C 
BRANCH   6   7
HETATM    7  C4  UNL     1     -34.456  15.929  -5.702  1.00 20.00    -0.013 A 
HETATM    8  C2  UNL     1     -34.508  16.692  -6.997  1.00 20.00     0.005 A 
HETATM    9  C3  UNL     1     -34.306  15.203  -7.009  1.00 20.00     0.005 A 
ENDBRANCH   6   7
ENDBRANCH   4   6
ENDBRANCH   2   4
TORSDOF 3
ENDMDL
MODEL 9
REMARK VINA RESULT:      -3.6      2.895      4.915
REMARK  3 active torsions:
REMARK  status: ('A' for Active; 'I' for Inactive)
REMARK    1  A    between atoms: C4_4  and  C6_6 
REMARK    2  A    between atoms: C6_6  and  C7_7 
REMARK    3  A    between atoms: C7_7  and  N8_8 
ROOT
HETATM    1  C1  UNL     1     -34.766   4.975   4.494  1.00 20.00     0.158 C 
HETATM    2  N8  UNL     1     -34.552   5.578   3.510  1.00 20.00    -0.271 NA
HETATM    3  S9  UNL     1     -35.076   4.133   5.810  1.00 20.00    -0.055 SA
ENDROOT
BRANCH   2   4
HETATM    4  C7  UNL     1     -33.709   6.767   3.691  1.00 20.00     0.106 C 
HETATM    5  C5  UNL     1     -33.318   6.850   5.160  1.00 20.00     0.034 C 
BRANCH   4   6
HETATM    6  C6  UNL     1     -32.474   6.648   2.795  1.00 20.00     0.031 C 
BRANCH   6   7
HETATM    7  C4  UNL     1     -31.847   8.001   2.485  1.00 20.00    -0.013 A 
HETATM    8  C2  UNL     1     -31.723   8.470   1.062  1.00 20.00     0.005 A 
HETATM    9  C3  UNL     1     -32.700   9.135   1.990  1.00 20.00     0.005 A 
ENDBRANCH   6   7
ENDBRANCH   4   6
ENDBRANCH   2   4
TORSDOF 3
ENDMDL
