MODEL 1
REMARK VINA RESULT:      -4.0      0.000      0.000
REMARK  4 active torsions:
REMARK  status: ('A' for Active; 'I' for Inactive)
REMARK    1  A    between atoms: C4_4  and  C6_6 
REMARK    2  A    between atoms: C6_6  and  C8_8 
REMARK    3  A    between atoms: C7_7  and  C8_8 
REMARK    4  A    between atoms: C8_8  and  N9_9 
ROOT
HETATM    1  C1  UNL     1     -34.004  17.101  -5.409  1.00 20.00     0.158 C 
HETATM    2  N9  UNL     1     -33.653  17.362  -4.322  1.00 20.00    -0.270 NA
HETATM    3  S10 UNL     1     -34.467  16.777  -6.898  1.00 20.00    -0.055 SA
ENDROOT
BRANCH   2   4
HETATM    4  C8  UNL     1     -34.018  16.367  -3.303  1.00 20.00     0.109 C 
BRANCH   4   5
HETATM    5  C6  UNL     1     -33.255  15.069  -3.592  1.00 20.00     0.032 C 
BRANCH   5   6
HETATM    6  C4  UNL     1     -34.163  13.846  -3.599  1.00 20.00    -0.013 A 
HETATM    7  C2  UNL     1     -35.579  13.957  -4.094  1.00 20.00     0.005 A 
HETATM    8  C3  UNL     1     -34.558  13.205  -4.901  1.00 20.00     0.005 A 
ENDBRANCH   5   6
ENDBRANCH   4   5
BRANCH   4   9
HETATM    9  C7  UNL     1     -33.650  16.922  -1.922  1.00 20.00     0.023 C 
HETATM   10  C5  UNL     1     -34.676  16.597  -0.878  1.00 20.00     0.007 C 
ENDBRANCH   4   9
ENDBRANCH   2   4
TORSDOF 4
ENDMDL
MODEL 2
REMARK VINA RESULT:      -4.0      1.290      3.507
REMARK  4 active torsions:
REMARK  status: ('A' for Active; 'I' for Inactive)
REMARK    1  A    between atoms: C4_4  and  C6_6 
REMARK    2  A    between atoms: C6_6  and  C8_8 
REMARK    3  A    between atoms: C7_7  and  C8_8 
REMARK    4  A    between atoms: C8_8  and  N9_9 
ROOT
HETATM    1  C1  UNL     1     -33.495  17.197  -4.783  1.00 20.00     0.158 C 
HETATM    2  N9  UNL     1     -33.358  16.033  -4.811  1.00 20.00    -0.270 NA
HETATM    3  S10 UNL     1     -33.677  18.779  -4.779  1.00 20.00    -0.055 SA
ENDROOT
BRANCH   2   4
HETATM    4  C8  UNL     1     -33.458  15.371  -3.503  1.00 20.00     0.109 C 
BRANCH   4   5
HETATM    5  C6  UNL     1     -34.771  15.799  -2.837  1.00 20.00     0.032 C 
BRANCH   5   6
HETATM    6  C4  UNL     1     -34.573  16.262  -1.400  1.00 20.00    -0.013 A 
HETATM    7  C2  UNL     1     -33.674  17.429  -1.096  1.00 20.00     0.005 A 
HETATM    8  C3  UNL     1     -35.163  17.565  -0.936  1.00 20.00     0.005 A 
ENDBRANCH   5   6
ENDBRANCH   4   5
BRANCH   4   9
HETATM    9  C7  UNL     1     -33.423  13.853  -3.719  1.00 20.00     0.023 C 
HETATM   10  C5  UNL     1     -34.654  13.340  -4.405  1.00 20.00     0.007 C 
ENDBRANCH   4   9
ENDBRANCH   2   4
TORSDOF 4
ENDMDL
MODEL 3
REMARK VINA RESULT:      -4.0      2.818      4.467
REMARK  4 active torsions:
REMARK  status: ('A' for Active; 'I' for Inactive)
REMARK    1  A    between atoms: C4_4  and  C6_6 
REMARK    2  A    between atoms: C6_6  and  C8_8 
REMARK    3  A    between atoms: C7_7  and  C8_8 
REMARK    4  A    between atoms: C8_8  and  N9_9 
ROOT
HETATM    1  C1  UNL     1     -38.300  14.921  -3.778  1.00 20.00     0.158 C 
HETATM    2  N9  UNL     1     -37.346  14.241  -3.734  1.00 20.00    -0.270 NA
HETATM    3  S10 UNL     1     -39.616  15.817  -3.832  1.00 20.00    -0.055 SA
ENDROOT
BRANCH   2   4
HETATM    4  C8  UNL     1     -36.076  14.951  -3.942  1.00 20.00     0.109 C 
BRANCH   4   5
HETATM    5  C6  UNL     1     -35.969  16.077  -2.906  1.00 20.00     0.032 C 
BRANCH   5   6
HETATM    6  C4  UNL     1     -34.759  15.919  -1.995  1.00 20.00    -0.013 A 
HETATM    7  C2  UNL     1     -33.769  17.041  -1.848  1.00 20.00     0.005 A 
HETATM    8  C3  UNL     1     -34.679  16.688  -0.704  1.00 20.00     0.005 A 
ENDBRANCH   5   6
ENDBRANCH   4   5
BRANCH   4   9
HETATM    9  C7  UNL     1     -34.925  13.951  -3.783  1.00 20.00     0.023 C 
HETATM   10  C5  UNL     1     -34.617  13.219  -5.056  1.00 20.00     0.007 C 
ENDBRANCH   4   9
ENDBRANCH   2   4
TORSDOF 4
ENDMDL
MODEL 4
REMARK VINA RESULT:      -3.8      1.698      3.608
REMARK  4 active torsions:
REMARK  status: ('A' for Active; 'I' for Inactive)
REMARK    1  A    between atoms: C4_4  and  C6_6 
REMARK    2  A    between atoms: C6_6  and  C8_8 
REMARK    3  A    between atoms: C7_7  and  C8_8 
REMARK    4  A    between atoms: C8_8  and  N9_9 
ROOT
HETATM    1  C1  UNL     1     -35.640  15.182  -6.081  1.00 20.00     0.158 C 
HETATM    2  N9  UNL     1     -36.004  15.532  -5.023  1.00 20.00    -0.270 NA
HETATM    3  S10 UNL     1     -35.178  14.713  -7.531  1.00 20.00    -0.055 SA
ENDROOT
BRANCH   2   4
HETATM    4  C8  UNL     1     -34.980  15.472  -3.970  1.00 20.00     0.109 C 
BRANCH   4   5
HETATM    5  C6  UNL     1     -35.520  16.181  -2.722  1.00 20.00     0.032 C 
BRANCH   5   6
HETATM    6  C4  UNL     1     -34.517  16.187  -1.575  1.00 20.00    -0.013 A 
HETATM    7  C2  UNL     1     -33.709  17.421  -1.281  1.00 20.00     0.005 A 
HETATM    8  C3  UNL     1     -34.793  16.989  -0.333  1.00 20.00     0.005 A 
ENDBRANCH   5   6
ENDBRANCH   4   5
BRANCH   4   9
HETATM    9  C7  UNL     1     -34.671  14.000  -3.672  1.00 20.00     0.023 C 
HETATM   10  C5  UNL     1     -33.201  13.702  -3.705  1.00 20.00     0.007 C 
ENDBRANCH   4   9
ENDBRANCH   2   4
TORSDOF 4
ENDMDL
MODEL 5
REMARK VINA RESULT:      -3.7      2.689      3.362
REMARK  4 active torsions:
REMARK  status: ('A' for Active; 'I' for Inactive)
REMARK    1  A    between atoms: C4_4  and  C6_6 
REMARK    2  A    between atoms: C6_6  and  C8_8 
REMARK    3  A    between atoms: C7_7  and  C8_8 
REMARK    4  A    between atoms: C8_8  and  N9_9 
ROOT
HETATM    1  C1  UNL     1     -34.748  16.807  -0.653  1.00 20.00     0.158 C 
HETATM    2  N9  UNL     1     -34.696  16.113  -1.596  1.00 20.00    -0.270 NA
HETATM    3  S10 UNL     1     -34.847  17.731   0.641  1.00 20.00    -0.055 SA
ENDROOT
BRANCH   2   4
HETATM    4  C8  UNL     1     -33.616  16.440  -2.539  1.00 20.00     0.109 C 
BRANCH   4   5
HETATM    5  C6  UNL     1     -33.408  15.244  -3.477  1.00 20.00     0.032 C 
BRANCH   5   6
HETATM    6  C4  UNL     1     -34.587  14.280  -3.465  1.00 20.00    -0.013 A 
HETATM    7  C2  UNL     1     -35.673  14.397  -4.499  1.00 20.00     0.005 A 
HETATM    8  C3  UNL     1     -34.720  13.234  -4.537  1.00 20.00     0.005 A 
ENDBRANCH   5   6
ENDBRANCH   4   5
BRANCH   4   9
HETATM    9  C7  UNL     1     -34.017  17.691  -3.328  1.00 20.00     0.023 C 
HETATM   10  C5  UNL     1     -33.586  17.631  -4.763  1.00 20.00     0.007 C 
ENDBRANCH   4   9
ENDBRANCH   2   4
TORSDOF 4
ENDMDL
MODEL 6
REMARK VINA RESULT:      -3.7      1.858      3.545
REMARK  4 active torsions:
REMARK  status: ('A' for Active; 'I' for Inactive)
REMARK    1  A    between atoms: C4_4  and  C6_6 
REMARK    2  A    between atoms: C6_6  and  C8_8 
REMARK    3  A    between atoms: C7_7  and  C8_8 
REMARK    4  A    between atoms: C8_8  and  N9_9 
ROOT
HETATM    1  C1  UNL     1     -34.756  14.360  -5.985  1.00 20.00     0.158 C 
HETATM    2  N9  UNL     1     -35.036  13.573  -5.163  1.00 20.00    -0.270 NA
HETATM    3  S10 UNL     1     -34.363  15.404  -7.123  1.00 20.00    -0.055 SA
ENDROOT
BRANCH   2   4
HETATM    4  C8  UNL     1     -35.604  14.145  -3.933  1.00 20.00     0.109 C 
BRANCH   4   5
HETATM    5  C6  UNL     1     -34.474  14.800  -3.131  1.00 20.00     0.032 C 
BRANCH   5   6
HETATM    6  C4  UNL     1     -34.878  16.146  -2.544  1.00 20.00    -0.013 A 
HETATM    7  C2  UNL     1     -34.632  16.445  -1.091  1.00 20.00     0.005 A 
HETATM    8  C3  UNL     1     -33.827  17.147  -2.150  1.00 20.00     0.005 A 
ENDBRANCH   5   6
ENDBRANCH   4   5
BRANCH   4   9
HETATM    9  C7  UNL     1     -36.670  15.177  -4.320  1.00 20.00     0.023 C 
HETATM   10  C5  UNL     1     -38.054  14.752  -3.929  1.00 20.00     0.007 C 
ENDBRANCH   4   9
ENDBRANCH   2   4
TORSDOF 4
ENDMDL
MODEL 7
REMARK VINA RESULT:      -3.6      1.394      1.394
REMARK  4 active torsions:
REMARK  status: ('A' for Active; 'I' for Inactive)
REMARK    1  A    between atoms: C4_4  and  C6_6 
REMARK    2  A    between atoms: C6_6  and  C8_8 
REMARK    3  A    between atoms: C7_7  and  C8_8 
REMARK    4  A    between atoms: C8_8  and  N9_9 
ROOT
HETATM    1  C1  UNL     1     -35.646  17.608  -4.209  1.00 20.00     0.158 C 
HETATM    2  N9  UNL     1     -34.549  17.409  -3.847  1.00 20.00    -0.270 NA
HETATM    3  S10 UNL     1     -37.124  17.904  -4.723  1.00 20.00    -0.055 SA
ENDROOT
BRANCH   2   4
HETATM    4  C8  UNL     1     -34.414  16.327  -2.861  1.00 20.00     0.109 C 
BRANCH   4   5
HETATM    5  C6  UNL     1     -33.531  15.226  -3.461  1.00 20.00     0.032 C 
BRANCH   5   6
HETATM    6  C4  UNL     1     -34.251  13.887  -3.558  1.00 20.00    -0.013 A 
HETATM    7  C2  UNL     1     -35.635  13.812  -4.140  1.00 20.00     0.005 A 
HETATM    8  C3  UNL     1     -34.469  13.241  -4.898  1.00 20.00     0.005 A 
ENDBRANCH   5   6
ENDBRANCH   4   5
BRANCH   4   9
HETATM    9  C7  UNL     1     -33.784  16.901  -1.587  1.00 20.00     0.023 C 
HETATM   10  C5  UNL     1     -34.733  16.904  -0.425  1.00 20.00     0.007 C 
ENDBRANCH   4   9
ENDBRANCH   2   4
TORSDOF 4
ENDMDL
MODEL 8
REMARK VINA RESULT:      -3.4      2.685      3.500
REMARK  4 active torsions:
REMARK  status: ('A' for Active; 'I' for Inactive)
REMARK    1  A    between atoms: C4_4  and  C6_6 
REMARK    2  A    between atoms: C6_6  and  C8_8 
REMARK    3  A    between atoms: C7_7  and  C8_8 
REMARK    4  A    between atoms: C8_8  and  N9_9 
ROOT
HETATM    1  C1  UNL     1     -34.032  16.487  -2.125  1.00 20.00     0.158 C 
HETATM    2  N9  UNL     1     -33.593  16.157  -3.161  1.00 20.00    -0.270 NA
HETATM    3  S10 UNL     1     -34.598  16.949  -0.710  1.00 20.00    -0.055 SA
ENDROOT
BRANCH   2   4
HETATM    4  C8  UNL     1     -34.545  15.464  -4.040  1.00 20.00     0.109 C 
BRANCH   4   5
HETATM    5  C6  UNL     1     -34.129  15.701  -5.497  1.00 20.00     0.032 C 
BRANCH   5   6
HETATM    6  C4  UNL     1     -34.723  14.671  -6.448  1.00 20.00    -0.013 A 
HETATM    7  C2  UNL     1     -36.108  14.860  -7.003  1.00 20.00     0.005 A 
HETATM    8  C3  UNL     1     -34.911  15.004  -7.903  1.00 20.00     0.005 A 
ENDBRANCH   5   6
ENDBRANCH   4   5
BRANCH   4   9
HETATM    9  C7  UNL     1     -34.524  13.968  -3.701  1.00 20.00     0.023 C 
HETATM   10  C5  UNL     1     -33.132  13.414  -3.627  1.00 20.00     0.007 C 
ENDBRANCH   4   9
ENDBRANCH   2   4
TORSDOF 4
ENDMDL
MODEL 9
REMARK VINA RESULT:      -3.4     11.959     13.306
REMARK  4 active torsions:
REMARK  status: ('A' for Active; 'I' for Inactive)
REMARK    1  A    between atoms: C4_4  and  C6_6 
REMARK    2  A    between atoms: C6_6  and  C8_8 
REMARK    3  A    between atoms: C7_7  and  C8_8 
REMARK    4  A    between atoms: C8_8  and  N9_9 
ROOT
HETATM    1  C1  UNL     1     -42.220   7.380  -3.219  1.00 20.00     0.158 C 
HETATM    2  N9  UNL     1     -41.536   6.747  -2.507  1.00 20.00    -0.270 NA
HETATM    3  S10 UNL     1     -43.121   8.260  -4.194  1.00 20.00    -0.055 SA
ENDROOT
BRANCH   2   4
HETATM    4  C8  UNL     1     -42.214   5.622  -1.846  1.00 20.00     0.109 C 
BRANCH   4   5
HETATM    5  C6  UNL     1     -42.547   4.562  -2.903  1.00 20.00     0.032 C 
BRANCH   5   6
HETATM    6  C4  UNL     1     -42.071   3.171  -2.506  1.00 20.00    -0.013 A 
HETATM    7  C2  UNL     1     -42.777   1.950  -3.027  1.00 20.00     0.005 A 
HETATM    8  C3  UNL     1     -41.396   2.285  -3.517  1.00 20.00     0.005 A 
ENDBRANCH   5   6
ENDBRANCH   4   5
BRANCH   4   9
HETATM    9  C7  UNL     1     -41.279   5.050  -0.774  1.00 20.00     0.023 C 
HETATM   10  C5  UNL     1     -40.591   6.119   0.022  1.00 20.00     0.007 C 
ENDBRANCH   4   9
ENDBRANCH   2   4
TORSDOF 4
ENDMDL
