MODEL 1
REMARK VINA RESULT:      -5.0      0.000      0.000
REMARK  3 active torsions:
REMARK  status: ('A' for Active; 'I' for Inactive)
REMARK    1  A    between atoms: C2_2  and  C3_3 
REMARK    2  A    between atoms: C3_3  and  C11_11 
REMARK    3  A    between atoms: C11_11  and  C12_12 
ROOT
HETATM    1  C3  UNL     1     -33.699  16.170  -3.514  1.00 20.00     0.159 C 
HETATM    2  O13 UNL     1     -32.923  16.575  -4.377  1.00 20.00    -0.292 OA
ENDROOT
BRANCH   1   3
HETATM    3  C2  UNL     1     -33.955  16.993  -2.330  1.00 20.00    -0.016 C 
HETATM    4  C1  UNL     1     -34.540  16.406  -1.277  1.00 20.00    -0.016 C 
HETATM    5  C4  UNL     1     -34.843  17.145  -0.005  1.00 20.00     0.028 C 
HETATM    6  C6  UNL     1     -34.153  18.510   0.084  1.00 20.00     0.004 C 
HETATM    7  C7  UNL     1     -34.221  19.256  -1.247  1.00 20.00     0.005 C 
HETATM    8  C5  UNL     1     -33.572  18.443  -2.371  1.00 20.00     0.042 C 
ENDBRANCH   1   3
BRANCH   1   9
HETATM    9  C11 UNL     1     -34.437  14.836  -3.610  1.00 20.00     0.059 C 
HETATM   10  C8  UNL     1     -33.438  13.695  -3.816  1.00 20.00     0.018 C 
BRANCH   9  11
HETATM   11  C12 UNL     1     -35.557  14.910  -4.676  1.00 20.00    -0.012 C 
HETATM   12  C9  UNL     1     -35.258  14.096  -5.939  1.00 20.00     0.010 C 
HETATM   13  C10 UNL     1     -36.911  14.485  -4.097  1.00 20.00     0.010 C 
ENDBRANCH   9  11
ENDBRANCH   1   9
TORSDOF 3
ENDMDL
MODEL 2
REMARK VINA RESULT:      -4.9      1.594      5.055
REMARK  3 active torsions:
REMARK  status: ('A' for Active; 'I' for Inactive)
REMARK    1  A    between atoms: C2_2  and  C3_3 
REMARK    2  A    between atoms: C3_3  and  C11_11 
REMARK    3  A    between atoms: C11_11  and  C12_12 
ROOT
HETATM    1  C3  UNL     1     -33.515  15.204  -3.720  1.00 20.00     0.159 C 
HETATM    2  O13 UNL     1     -32.343  14.879  -3.543  1.00 20.00    -0.292 OA
ENDROOT
BRANCH   1   3
HETATM    3  C2  UNL     1     -34.055  15.248  -5.081  1.00 20.00    -0.016 C 
HETATM    4  C1  UNL     1     -33.917  16.390  -5.769  1.00 20.00    -0.016 C 
HETATM    5  C4  UNL     1     -34.420  16.551  -7.175  1.00 20.00     0.028 C 
HETATM    6  C6  UNL     1     -34.810  15.226  -7.836  1.00 20.00     0.004 C 
HETATM    7  C7  UNL     1     -35.575  14.325  -6.869  1.00 20.00     0.005 C 
HETATM    8  C5  UNL     1     -34.746  14.030  -5.616  1.00 20.00     0.042 C 
ENDBRANCH   1   3
BRANCH   1   9
HETATM    9  C11 UNL     1     -34.468  15.562  -2.580  1.00 20.00     0.059 C 
HETATM   10  C8  UNL     1     -35.876  15.805  -3.126  1.00 20.00     0.018 C 
BRANCH   9  11
HETATM   11  C12 UNL     1     -33.893  16.729  -1.739  1.00 20.00    -0.012 C 
HETATM   12  C9  UNL     1     -33.839  18.061  -2.496  1.00 20.00     0.010 C 
HETATM   13  C10 UNL     1     -34.668  16.911  -0.430  1.00 20.00     0.010 C 
ENDBRANCH   9  11
ENDBRANCH   1   9
TORSDOF 3
ENDMDL
MODEL 3
REMARK VINA RESULT:      -4.9      1.250      1.602
REMARK  3 active torsions:
REMARK  status: ('A' for Active; 'I' for Inactive)
REMARK    1  A    between atoms: C2_2  and  C3_3 
REMARK    2  A    between atoms: C3_3  and  C11_11 
REMARK    3  A    between atoms: C11_11  and  C12_12 
ROOT
HETATM    1  C3  UNL     1     -33.666  15.461  -3.660  1.00 20.00     0.159 C 
HETATM    2  O13 UNL     1     -32.526  15.002  -3.699  1.00 20.00    -0.292 OA
ENDROOT
BRANCH   1   3
HETATM    3  C2  UNL     1     -33.989  16.509  -2.689  1.00 20.00    -0.016 C 
HETATM    4  C1  UNL     1     -34.517  16.131  -1.517  1.00 20.00    -0.016 C 
HETATM    5  C4  UNL     1     -34.880  17.114  -0.440  1.00 20.00     0.028 C 
HETATM    6  C6  UNL     1     -34.311  18.516  -0.681  1.00 20.00     0.004 C 
HETATM    7  C7  UNL     1     -34.449  18.928  -2.145  1.00 20.00     0.005 C 
HETATM    8  C5  UNL     1     -33.734  17.937  -3.069  1.00 20.00     0.042 C 
ENDBRANCH   1   3
BRANCH   1   9
HETATM    9  C11 UNL     1     -34.787  15.001  -4.590  1.00 20.00     0.059 C 
HETATM   10  C8  UNL     1     -35.251  13.596  -4.202  1.00 20.00     0.018 C 
BRANCH   9  11
HETATM   11  C12 UNL     1     -34.359  15.150  -6.072  1.00 20.00    -0.012 C 
HETATM   12  C9  UNL     1     -35.283  14.420  -7.053  1.00 20.00     0.010 C 
HETATM   13  C10 UNL     1     -34.239  16.623  -6.474  1.00 20.00     0.010 C 
ENDBRANCH   9  11
ENDBRANCH   1   9
TORSDOF 3
ENDMDL
MODEL 4
REMARK VINA RESULT:      -4.8      1.247      4.861
REMARK  3 active torsions:
REMARK  status: ('A' for Active; 'I' for Inactive)
REMARK    1  A    between atoms: C2_2  and  C3_3 
REMARK    2  A    between atoms: C3_3  and  C11_11 
REMARK    3  A    between atoms: C11_11  and  C12_12 
ROOT
HETATM    1  C3  UNL     1     -34.358  17.327  -3.052  1.00 20.00     0.159 C 
HETATM    2  O13 UNL     1     -33.725  18.144  -3.718  1.00 20.00    -0.292 OA
ENDROOT
BRANCH   1   3
HETATM    3  C2  UNL     1     -34.395  15.925  -3.476  1.00 20.00    -0.016 C 
HETATM    4  C1  UNL     1     -35.596  15.363  -3.670  1.00 20.00    -0.016 C 
HETATM    5  C4  UNL     1     -35.759  13.938  -4.113  1.00 20.00     0.028 C 
HETATM    6  C6  UNL     1     -34.457  13.305  -4.613  1.00 20.00     0.004 C 
HETATM    7  C7  UNL     1     -33.278  13.677  -3.718  1.00 20.00     0.005 C 
HETATM    8  C5  UNL     1     -33.096  15.196  -3.646  1.00 20.00     0.042 C 
ENDBRANCH   1   3
BRANCH   1   9
HETATM    9  C11 UNL     1     -35.117  17.691  -1.777  1.00 20.00     0.059 C 
HETATM   10  C8  UNL     1     -35.588  19.145  -1.841  1.00 20.00     0.018 C 
BRANCH   9  11
HETATM   11  C12 UNL     1     -34.274  17.343  -0.526  1.00 20.00    -0.012 C 
HETATM   12  C9  UNL     1     -33.035  18.227  -0.355  1.00 20.00     0.010 C 
HETATM   13  C10 UNL     1     -35.121  17.389   0.750  1.00 20.00     0.010 C 
ENDBRANCH   9  11
ENDBRANCH   1   9
TORSDOF 3
ENDMDL
MODEL 5
REMARK VINA RESULT:      -4.7      1.442      2.128
REMARK  3 active torsions:
REMARK  status: ('A' for Active; 'I' for Inactive)
REMARK    1  A    between atoms: C2_2  and  C3_3 
REMARK    2  A    between atoms: C3_3  and  C11_11 
REMARK    3  A    between atoms: C11_11  and  C12_12 
ROOT
HETATM    1  C3  UNL     1     -34.597  14.282  -3.807  1.00 20.00     0.159 C 
HETATM    2  O13 UNL     1     -34.010  13.268  -3.436  1.00 20.00    -0.292 OA
ENDROOT
BRANCH   1   3
HETATM    3  C2  UNL     1     -34.364  15.548  -3.106  1.00 20.00    -0.016 C 
HETATM    4  C1  UNL     1     -34.882  15.685  -1.878  1.00 20.00    -0.016 C 
HETATM    5  C4  UNL     1     -34.702  16.932  -1.060  1.00 20.00     0.028 C 
HETATM    6  C6  UNL     1     -33.634  17.876  -1.621  1.00 20.00     0.004 C 
HETATM    7  C7  UNL     1     -33.733  17.990  -3.140  1.00 20.00     0.005 C 
HETATM    8  C5  UNL     1     -33.584  16.619  -3.808  1.00 20.00     0.042 C 
ENDBRANCH   1   3
BRANCH   1   9
HETATM    9  C11 UNL     1     -35.568  14.306  -4.986  1.00 20.00     0.059 C 
HETATM   10  C8  UNL     1     -34.800  14.482  -6.298  1.00 20.00     0.018 C 
BRANCH   9  11
HETATM   11  C12 UNL     1     -36.684  15.353  -4.750  1.00 20.00    -0.012 C 
HETATM   12  C9  UNL     1     -37.152  16.052  -6.030  1.00 20.00     0.010 C 
HETATM   13  C10 UNL     1     -37.888  14.736  -4.030  1.00 20.00     0.010 C 
ENDBRANCH   9  11
ENDBRANCH   1   9
TORSDOF 3
ENDMDL
MODEL 6
REMARK VINA RESULT:      -4.7      0.936      1.675
REMARK  3 active torsions:
REMARK  status: ('A' for Active; 'I' for Inactive)
REMARK    1  A    between atoms: C2_2  and  C3_3 
REMARK    2  A    between atoms: C3_3  and  C11_11 
REMARK    3  A    between atoms: C11_11  and  C12_12 
ROOT
HETATM    1  C3  UNL     1     -33.805  15.370  -3.338  1.00 20.00     0.159 C 
HETATM    2  O13 UNL     1     -32.669  15.146  -3.751  1.00 20.00    -0.292 OA
ENDROOT
BRANCH   1   3
HETATM    3  C2  UNL     1     -34.052  16.555  -2.513  1.00 20.00    -0.016 C 
HETATM    4  C1  UNL     1     -33.733  17.751  -3.027  1.00 20.00    -0.016 C 
HETATM    5  C4  UNL     1     -33.950  19.035  -2.280  1.00 20.00     0.028 C 
HETATM    6  C6  UNL     1     -34.836  18.874  -1.041  1.00 20.00     0.004 C 
HETATM    7  C7  UNL     1     -34.481  17.610  -0.263  1.00 20.00     0.005 C 
HETATM    8  C5  UNL     1     -34.623  16.362  -1.140  1.00 20.00     0.042 C 
ENDBRANCH   1   3
BRANCH   1   9
HETATM    9  C11 UNL     1     -35.002  14.474  -3.650  1.00 20.00     0.059 C 
HETATM   10  C8  UNL     1     -34.547  13.238  -4.430  1.00 20.00     0.018 C 
BRANCH   9  11
HETATM   11  C12 UNL     1     -36.126  15.289  -4.336  1.00 20.00    -0.012 C 
HETATM   12  C9  UNL     1     -36.173  15.111  -5.857  1.00 20.00     0.010 C 
HETATM   13  C10 UNL     1     -37.499  14.965  -3.736  1.00 20.00     0.010 C 
ENDBRANCH   9  11
ENDBRANCH   1   9
TORSDOF 3
ENDMDL
MODEL 7
REMARK VINA RESULT:      -4.7      1.506      2.055
REMARK  3 active torsions:
REMARK  status: ('A' for Active; 'I' for Inactive)
REMARK    1  A    between atoms: C2_2  and  C3_3 
REMARK    2  A    between atoms: C3_3  and  C11_11 
REMARK    3  A    between atoms: C11_11  and  C12_12 
ROOT
HETATM    1  C3  UNL     1     -35.153  16.151  -4.443  1.00 20.00     0.159 C 
HETATM    2  O13 UNL     1     -36.330  16.297  -4.765  1.00 20.00    -0.292 OA
ENDROOT
BRANCH   1   3
HETATM    3  C2  UNL     1     -34.663  16.763  -3.205  1.00 20.00    -0.016 C 
HETATM    4  C1  UNL     1     -35.079  16.241  -2.043  1.00 20.00    -0.016 C 
HETATM    5  C4  UNL     1     -34.637  16.777  -0.712  1.00 20.00     0.028 C 
HETATM    6  C6  UNL     1     -33.453  17.744  -0.810  1.00 20.00     0.004 C 
HETATM    7  C7  UNL     1     -33.616  18.706  -1.984  1.00 20.00     0.005 C 
HETATM    8  C5  UNL     1     -33.747  17.946  -3.308  1.00 20.00     0.042 C 
ENDBRANCH   1   3
BRANCH   1   9
HETATM    9  C11 UNL     1     -34.151  15.344  -5.266  1.00 20.00     0.059 C 
HETATM   10  C8  UNL     1     -34.465  15.479  -6.758  1.00 20.00     0.018 C 
BRANCH   9  11
HETATM   11  C12 UNL     1     -34.079  13.884  -4.754  1.00 20.00    -0.012 C 
HETATM   12  C9  UNL     1     -33.077  13.683  -3.613  1.00 20.00     0.010 C 
HETATM   13  C10 UNL     1     -35.459  13.372  -4.326  1.00 20.00     0.010 C 
ENDBRANCH   9  11
ENDBRANCH   1   9
TORSDOF 3
ENDMDL
MODEL 8
REMARK VINA RESULT:      -4.6      1.427      2.402
REMARK  3 active torsions:
REMARK  status: ('A' for Active; 'I' for Inactive)
REMARK    1  A    between atoms: C2_2  and  C3_3 
REMARK    2  A    between atoms: C3_3  and  C11_11 
REMARK    3  A    between atoms: C11_11  and  C12_12 
ROOT
HETATM    1  C3  UNL     1     -34.330  17.468  -2.991  1.00 20.00     0.159 C 
HETATM    2  O13 UNL     1     -35.053  18.171  -3.693  1.00 20.00    -0.292 OA
ENDROOT
BRANCH   1   3
HETATM    3  C2  UNL     1     -34.215  17.755  -1.558  1.00 20.00    -0.016 C 
HETATM    4  C1  UNL     1     -33.064  18.282  -1.118  1.00 20.00    -0.016 C 
HETATM    5  C4  UNL     1     -32.834  18.627   0.325  1.00 20.00     0.028 C 
HETATM    6  C6  UNL     1     -34.116  18.613   1.165  1.00 20.00     0.004 C 
HETATM    7  C7  UNL     1     -34.997  17.417   0.816  1.00 20.00     0.005 C 
HETATM    8  C5  UNL     1     -35.376  17.423  -0.668  1.00 20.00     0.042 C 
ENDBRANCH   1   3
BRANCH   1   9
HETATM    9  C11 UNL     1     -33.533  16.281  -3.530  1.00 20.00     0.059 C 
HETATM   10  C8  UNL     1     -33.275  16.457  -5.028  1.00 20.00     0.018 C 
BRANCH   9  11
HETATM   11  C12 UNL     1     -34.222  14.947  -3.150  1.00 20.00    -0.012 C 
HETATM   12  C9  UNL     1     -35.707  14.894  -3.523  1.00 20.00     0.010 C 
HETATM   13  C10 UNL     1     -33.493  13.746  -3.762  1.00 20.00     0.010 C 
ENDBRANCH   9  11
ENDBRANCH   1   9
TORSDOF 3
ENDMDL
MODEL 9
REMARK VINA RESULT:      -4.6      2.086      2.662
REMARK  3 active torsions:
REMARK  status: ('A' for Active; 'I' for Inactive)
REMARK    1  A    between atoms: C2_2  and  C3_3 
REMARK    2  A    between atoms: C3_3  and  C11_11 
REMARK    3  A    between atoms: C11_11  and  C12_12 
ROOT
HETATM    1  C3  UNL     1     -36.015  14.692  -3.825  1.00 20.00     0.159 C 
HETATM    2  O13 UNL     1     -37.060  14.051  -3.743  1.00 20.00    -0.292 OA
ENDROOT
BRANCH   1   3
HETATM    3  C2  UNL     1     -35.811  15.854  -2.956  1.00 20.00    -0.016 C 
HETATM    4  C1  UNL     1     -34.901  15.748  -1.978  1.00 20.00    -0.016 C 
HETATM    5  C4  UNL     1     -34.598  16.874  -1.031  1.00 20.00     0.028 C 
HETATM    6  C6  UNL     1     -35.183  18.217  -1.479  1.00 20.00     0.004 C 
HETATM    7  C7  UNL     1     -36.604  18.055  -2.014  1.00 20.00     0.005 C 
HETATM    8  C5  UNL     1     -36.642  17.079  -3.193  1.00 20.00     0.042 C 
ENDBRANCH   1   3
BRANCH   1   9
HETATM    9  C11 UNL     1     -34.887  14.337  -4.792  1.00 20.00     0.059 C 
HETATM   10  C8  UNL     1     -33.719  13.707  -4.031  1.00 20.00     0.018 C 
BRANCH   9  11
HETATM   11  C12 UNL     1     -34.504  15.566  -5.654  1.00 20.00    -0.012 C 
HETATM   12  C9  UNL     1     -33.214  16.256  -5.201  1.00 20.00     0.010 C 
HETATM   13  C10 UNL     1     -34.399  15.198  -7.138  1.00 20.00     0.010 C 
ENDBRANCH   9  11
ENDBRANCH   1   9
TORSDOF 3
ENDMDL
