MODEL 1
REMARK VINA RESULT:      -5.0      0.000      0.000
REMARK  3 active torsions:
REMARK  status: ('A' for Active; 'I' for Inactive)
REMARK    1  A    between atoms: C4_4  and  C8_8 
REMARK    2  A    between atoms: C8_8  and  N10_10 
REMARK    3  A    between atoms: C9_9  and  N10_10 
ROOT
HETATM    1  C1  UNL     1     -33.824   6.825   6.455  1.00 20.00     0.015 C 
HETATM    2  C2  UNL     1     -34.168   6.156   5.519  1.00 20.00    -0.076 C 
HETATM    3  C6  UNL     1     -34.783   3.880   4.820  1.00 20.00     0.063 C 
HETATM    4  C7  UNL     1     -35.901   5.877   3.792  1.00 20.00     0.063 C 
HETATM    5  C9  UNL     1     -34.589   5.331   4.368  1.00 20.00     0.212 C 
ENDROOT
BRANCH   5   6
HETATM    6  N10 UNL     1     -33.561   5.386   3.347  1.00 20.00     0.115 N 
HETATM    7  H23 UNL     1     -33.167   4.453   3.209  1.00 20.00     0.319 HD
BRANCH   6   8
HETATM    8  C8  UNL     1     -32.490   6.301   3.724  1.00 20.00     0.365 C 
BRANCH   8   9
HETATM    9  C4  UNL     1     -32.360   7.387   2.748  1.00 20.00    -0.077 C 
HETATM   10  C3  UNL     1     -32.258   8.279   1.951  1.00 20.00    -0.109 C 
HETATM   11  C5  UNL     1     -32.133   9.366   0.981  1.00 20.00     0.112 C 
ENDBRANCH   8   9
ENDBRANCH   6   8
ENDBRANCH   5   6
TORSDOF 3
ENDMDL
MODEL 2
REMARK VINA RESULT:      -4.7     11.121     12.343
REMARK  3 active torsions:
REMARK  status: ('A' for Active; 'I' for Inactive)
REMARK    1  A    between atoms: C4_4  and  C8_8 
REMARK    2  A    between atoms: C8_8  and  N10_10 
REMARK    3  A    between atoms: C9_9  and  N10_10 
ROOT
HETATM    1  C1  UNL     1     -34.844  14.743  -7.337  1.00 20.00     0.015 C 
HETATM    2  C2  UNL     1     -34.864  14.706  -6.137  1.00 20.00    -0.076 C 
HETATM    3  C6  UNL     1     -36.294  14.273  -4.184  1.00 20.00     0.063 C 
HETATM    4  C7  UNL     1     -33.868  13.635  -4.156  1.00 20.00     0.063 C 
HETATM    5  C9  UNL     1     -34.890  14.660  -4.660  1.00 20.00     0.212 C 
ENDROOT
BRANCH   5   6
HETATM    6  N10 UNL     1     -34.548  15.970  -4.142  1.00 20.00     0.115 N 
HETATM    7  H23 UNL     1     -34.166  16.547  -4.894  1.00 20.00     0.319 HD
BRANCH   6   8
HETATM    8  C8  UNL     1     -33.561  15.873  -3.072  1.00 20.00     0.365 C 
BRANCH   8   9
HETATM    9  C4  UNL     1     -34.093  16.412  -1.817  1.00 20.00    -0.077 C 
HETATM   10  C3  UNL     1     -34.531  16.849  -0.788  1.00 20.00    -0.109 C 
HETATM   11  C5  UNL     1     -35.065  17.381   0.465  1.00 20.00     0.112 C 
ENDBRANCH   8   9
ENDBRANCH   6   8
ENDBRANCH   5   6
TORSDOF 3
ENDMDL
MODEL 3
REMARK VINA RESULT:      -4.6     11.120     11.863
REMARK  3 active torsions:
REMARK  status: ('A' for Active; 'I' for Inactive)
REMARK    1  A    between atoms: C4_4  and  C8_8 
REMARK    2  A    between atoms: C8_8  and  N10_10 
REMARK    3  A    between atoms: C9_9  and  N10_10 
ROOT
HETATM    1  C1  UNL     1     -37.641  14.792  -3.816  1.00 20.00     0.015 C 
HETATM    2  C2  UNL     1     -36.463  14.683  -4.023  1.00 20.00    -0.076 C 
HETATM    3  C6  UNL     1     -34.726  13.166  -4.877  1.00 20.00     0.063 C 
HETATM    4  C7  UNL     1     -34.553  15.641  -5.246  1.00 20.00     0.063 C 
HETATM    5  C9  UNL     1     -35.014  14.547  -4.277  1.00 20.00     0.212 C 
ENDROOT
BRANCH   5   6
HETATM    6  N10 UNL     1     -34.300  14.688  -3.023  1.00 20.00     0.115 N 
HETATM    7  H23 UNL     1     -34.906  14.404  -2.251  1.00 20.00     0.319 HD
BRANCH   6   8
HETATM    8  C8  UNL     1     -33.875  16.067  -2.809  1.00 20.00     0.365 C 
BRANCH   8   9
HETATM    9  C4  UNL     1     -34.332  16.560  -1.507  1.00 20.00    -0.077 C 
HETATM   10  C3  UNL     1     -34.711  16.967  -0.443  1.00 20.00    -0.109 C 
HETATM   11  C5  UNL     1     -35.173  17.460   0.854  1.00 20.00     0.112 C 
ENDBRANCH   8   9
ENDBRANCH   6   8
ENDBRANCH   5   6
TORSDOF 3
ENDMDL
MODEL 4
REMARK VINA RESULT:      -4.6     11.264     12.114
REMARK  3 active torsions:
REMARK  status: ('A' for Active; 'I' for Inactive)
REMARK    1  A    between atoms: C4_4  and  C8_8 
REMARK    2  A    between atoms: C8_8  and  N10_10 
REMARK    3  A    between atoms: C9_9  and  N10_10 
ROOT
HETATM    1  C1  UNL     1     -37.538  14.706  -3.975  1.00 20.00     0.015 C 
HETATM    2  C2  UNL     1     -36.457  14.631  -4.493  1.00 20.00    -0.076 C 
HETATM    3  C6  UNL     1     -34.409  13.278  -4.635  1.00 20.00     0.063 C 
HETATM    4  C7  UNL     1     -35.284  14.484  -6.653  1.00 20.00     0.063 C 
HETATM    5  C9  UNL     1     -35.127  14.538  -5.129  1.00 20.00     0.212 C 
ENDROOT
BRANCH   5   6
HETATM    6  N10 UNL     1     -34.350  15.709  -4.771  1.00 20.00     0.115 N 
HETATM    7  H23 UNL     1     -33.793  16.008  -5.574  1.00 20.00     0.319 HD
BRANCH   6   8
HETATM    8  C8  UNL     1     -33.456  15.427  -3.653  1.00 20.00     0.365 C 
BRANCH   8   9
HETATM    9  C4  UNL     1     -33.952  16.040  -2.418  1.00 20.00    -0.077 C 
HETATM   10  C3  UNL     1     -34.356  16.538  -1.403  1.00 20.00    -0.109 C 
HETATM   11  C5  UNL     1     -34.847  17.145  -0.166  1.00 20.00     0.112 C 
ENDBRANCH   8   9
ENDBRANCH   6   8
ENDBRANCH   5   6
TORSDOF 3
ENDMDL
MODEL 5
REMARK VINA RESULT:      -4.4     11.095     12.045
REMARK  3 active torsions:
REMARK  status: ('A' for Active; 'I' for Inactive)
REMARK    1  A    between atoms: C4_4  and  C8_8 
REMARK    2  A    between atoms: C8_8  and  N10_10 
REMARK    3  A    between atoms: C9_9  and  N10_10 
ROOT
HETATM    1  C1  UNL     1     -34.686  13.212  -4.561  1.00 20.00     0.015 C 
HETATM    2  C2  UNL     1     -35.450  14.100  -4.298  1.00 20.00    -0.076 C 
HETATM    3  C6  UNL     1     -36.106  16.397  -4.884  1.00 20.00     0.063 C 
HETATM    4  C7  UNL     1     -37.830  14.717  -4.180  1.00 20.00     0.063 C 
HETATM    5  C9  UNL     1     -36.389  15.194  -3.976  1.00 20.00     0.212 C 
ENDROOT
BRANCH   5   6
HETATM    6  N10 UNL     1     -36.205  15.581  -2.591  1.00 20.00     0.115 N 
HETATM    7  H23 UNL     1     -36.790  16.393  -2.382  1.00 20.00     0.319 HD
BRANCH   6   8
HETATM    8  C8  UNL     1     -34.813  15.917  -2.316  1.00 20.00     0.365 C 
BRANCH   8   9
HETATM    9  C4  UNL     1     -34.694  16.678  -1.069  1.00 20.00    -0.077 C 
HETATM   10  C3  UNL     1     -34.599  17.298  -0.045  1.00 20.00    -0.109 C 
HETATM   11  C5  UNL     1     -34.482  18.052   1.203  1.00 20.00     0.112 C 
ENDBRANCH   8   9
ENDBRANCH   6   8
ENDBRANCH   5   6
TORSDOF 3
ENDMDL
MODEL 6
REMARK VINA RESULT:      -4.3     10.903     11.807
REMARK  3 active torsions:
REMARK  status: ('A' for Active; 'I' for Inactive)
REMARK    1  A    between atoms: C4_4  and  C8_8 
REMARK    2  A    between atoms: C8_8  and  N10_10 
REMARK    3  A    between atoms: C9_9  and  N10_10 
ROOT
HETATM    1  C1  UNL     1     -35.526  17.505   2.436  1.00 20.00     0.015 C 
HETATM    2  C2  UNL     1     -35.184  17.627   1.292  1.00 20.00    -0.076 C 
HETATM    3  C6  UNL     1     -35.703  18.757  -0.830  1.00 20.00     0.063 C 
HETATM    4  C7  UNL     1     -33.324  18.302  -0.174  1.00 20.00     0.063 C 
HETATM    5  C9  UNL     1     -34.763  17.778  -0.116  1.00 20.00     0.212 C 
ENDROOT
BRANCH   5   6
HETATM    6  N10 UNL     1     -34.826  16.485  -0.769  1.00 20.00     0.115 N 
HETATM    7  H23 UNL     1     -34.475  15.765  -0.135  1.00 20.00     0.319 HD
BRANCH   6   8
HETATM    8  C8  UNL     1     -34.029  16.470  -1.990  1.00 20.00     0.365 C 
BRANCH   8   9
HETATM    9  C4  UNL     1     -34.390  15.331  -2.838  1.00 20.00    -0.077 C 
HETATM   10  C3  UNL     1     -34.687  14.400  -3.537  1.00 20.00    -0.109 C 
HETATM   11  C5  UNL     1     -35.047  13.267  -4.388  1.00 20.00     0.112 C 
ENDBRANCH   8   9
ENDBRANCH   6   8
ENDBRANCH   5   6
TORSDOF 3
ENDMDL
MODEL 7
REMARK VINA RESULT:      -4.3     10.917     12.160
REMARK  3 active torsions:
REMARK  status: ('A' for Active; 'I' for Inactive)
REMARK    1  A    between atoms: C4_4  and  C8_8 
REMARK    2  A    between atoms: C8_8  and  N10_10 
REMARK    3  A    between atoms: C9_9  and  N10_10 
ROOT
HETATM    1  C1  UNL     1     -35.147  16.700  -5.592  1.00 20.00     0.015 C 
HETATM    2  C2  UNL     1     -34.772  15.917  -4.763  1.00 20.00    -0.076 C 
HETATM    3  C6  UNL     1     -34.861  13.559  -4.070  1.00 20.00     0.063 C 
HETATM    4  C7  UNL     1     -32.780  14.915  -3.719  1.00 20.00     0.063 C 
HETATM    5  C9  UNL     1     -34.312  14.952  -3.743  1.00 20.00     0.212 C 
ENDROOT
BRANCH   5   6
HETATM    6  N10 UNL     1     -34.799  15.370  -2.443  1.00 20.00     0.115 N 
HETATM    7  H23 UNL     1     -35.777  15.656  -2.521  1.00 20.00     0.319 HD
BRANCH   6   8
HETATM    8  C8  UNL     1     -34.020  16.488  -1.922  1.00 20.00     0.365 C 
BRANCH   8   9
HETATM    9  C4  UNL     1     -34.548  16.938  -0.631  1.00 20.00    -0.077 C 
HETATM   10  C3  UNL     1     -34.979  17.311   0.426  1.00 20.00    -0.109 C 
HETATM   11  C5  UNL     1     -35.503  17.767   1.713  1.00 20.00     0.112 C 
ENDBRANCH   8   9
ENDBRANCH   6   8
ENDBRANCH   5   6
TORSDOF 3
ENDMDL
MODEL 8
REMARK VINA RESULT:      -4.3     11.026     12.332
REMARK  3 active torsions:
REMARK  status: ('A' for Active; 'I' for Inactive)
REMARK    1  A    between atoms: C4_4  and  C8_8 
REMARK    2  A    between atoms: C8_8  and  N10_10 
REMARK    3  A    between atoms: C9_9  and  N10_10 
ROOT
HETATM    1  C1  UNL     1     -34.495  16.410  -1.376  1.00 20.00     0.015 C 
HETATM    2  C2  UNL     1     -34.349  15.941  -2.472  1.00 20.00    -0.076 C 
HETATM    3  C6  UNL     1     -33.128  16.185  -4.593  1.00 20.00     0.063 C 
HETATM    4  C7  UNL     1     -33.704  13.910  -3.705  1.00 20.00     0.063 C 
HETATM    5  C9  UNL     1     -34.168  15.366  -3.821  1.00 20.00     0.212 C 
ENDROOT
BRANCH   5   6
HETATM    6  N10 UNL     1     -35.435  15.408  -4.525  1.00 20.00     0.115 N 
HETATM    7  H23 UNL     1     -35.910  16.290  -4.323  1.00 20.00     0.319 HD
BRANCH   6   8
HETATM    8  C8  UNL     1     -36.299  14.303  -4.123  1.00 20.00     0.365 C 
BRANCH   8   9
HETATM    9  C4  UNL     1     -37.643  14.784  -3.787  1.00 20.00    -0.077 C 
HETATM   10  C3  UNL     1     -38.743  15.181  -3.516  1.00 20.00    -0.109 C 
HETATM   11  C5  UNL     1     -40.083  15.664  -3.187  1.00 20.00     0.112 C 
ENDBRANCH   8   9
ENDBRANCH   6   8
ENDBRANCH   5   6
TORSDOF 3
ENDMDL
MODEL 9
REMARK VINA RESULT:      -4.3      8.766     10.788
REMARK  3 active torsions:
REMARK  status: ('A' for Active; 'I' for Inactive)
REMARK    1  A    between atoms: C4_4  and  C8_8 
REMARK    2  A    between atoms: C8_8  and  N10_10 
REMARK    3  A    between atoms: C9_9  and  N10_10 
ROOT
HETATM    1  C1  UNL     1     -43.417   4.988   1.328  1.00 20.00     0.015 C 
HETATM    2  C2  UNL     1     -42.632   5.200   0.445  1.00 20.00    -0.076 C 
HETATM    3  C6  UNL     1     -42.297   6.406  -1.672  1.00 20.00     0.063 C 
HETATM    4  C7  UNL     1     -40.396   6.096  -0.065  1.00 20.00     0.063 C 
HETATM    5  C9  UNL     1     -41.666   5.462  -0.642  1.00 20.00     0.212 C 
ENDROOT
BRANCH   5   6
HETATM    6  N10 UNL     1     -41.325   4.207  -1.282  1.00 20.00     0.115 N 
HETATM    7  H23 UNL     1     -40.321   4.181  -1.471  1.00 20.00     0.319 HD
BRANCH   6   8
HETATM    8  C8  UNL     1     -42.046   4.043  -2.540  1.00 20.00     0.365 C 
BRANCH   8   9
HETATM    9  C4  UNL     1     -41.883   2.683  -3.064  1.00 20.00    -0.077 C 
HETATM   10  C3  UNL     1     -41.755   1.570  -3.494  1.00 20.00    -0.109 C 
HETATM   11  C5  UNL     1     -41.598   0.214  -4.019  1.00 20.00     0.112 C 
ENDBRANCH   8   9
ENDBRANCH   6   8
ENDBRANCH   5   6
TORSDOF 3
ENDMDL
