MODEL 1
REMARK VINA RESULT:      -4.6      0.000      0.000
REMARK  3 active torsions:
REMARK  status: ('A' for Active; 'I' for Inactive)
REMARK    1  A    between atoms: C2_2  and  C6_6 
REMARK    2  A    between atoms: C2_2  and  C7_7 
REMARK    3  A    between atoms: C7_7  and  C8_8 
ROOT
HETATM    1  C1  UNL     1     -31.976   8.345   2.112  1.00 20.00     0.066 C 
HETATM    2  C6  UNL     1     -31.794   7.734   3.433  1.00 20.00     0.202 C 
HETATM    3  N9  UNL     1     -32.118   8.832   1.068  1.00 20.00    -0.197 NA
ENDROOT
BRANCH   2   4
HETATM    4  C2  UNL     1     -32.586   6.449   3.590  1.00 20.00     0.143 C 
HETATM    5  O10 UNL     1     -32.259   5.396   3.040  1.00 20.00    -0.297 OA
BRANCH   4   6
HETATM    6  C7  UNL     1     -33.809   6.519   4.508  1.00 20.00     0.055 C 
HETATM    7  C3  UNL     1     -33.301   6.815   5.920  1.00 20.00     0.018 C 
BRANCH   6   8
HETATM    8  C8  UNL     1     -34.650   5.223   4.413  1.00 20.00    -0.012 C 
HETATM    9  C4  UNL     1     -35.981   5.485   3.694  1.00 20.00     0.010 C 
HETATM   10  C5  UNL     1     -34.943   4.616   5.789  1.00 20.00     0.010 C 
ENDBRANCH   6   8
ENDBRANCH   4   6
ENDBRANCH   2   4
TORSDOF 3
ENDMDL
MODEL 2
REMARK VINA RESULT:      -4.5     11.116     12.351
REMARK  3 active torsions:
REMARK  status: ('A' for Active; 'I' for Inactive)
REMARK    1  A    between atoms: C2_2  and  C6_6 
REMARK    2  A    between atoms: C2_2  and  C7_7 
REMARK    3  A    between atoms: C7_7  and  C8_8 
ROOT
HETATM    1  C1  UNL     1     -34.011  13.593  -4.063  1.00 20.00     0.066 C 
HETATM    2  C6  UNL     1     -32.999  14.559  -3.622  1.00 20.00     0.202 C 
HETATM    3  N9  UNL     1     -34.809  12.826  -4.410  1.00 20.00    -0.197 NA
ENDROOT
BRANCH   2   4
HETATM    4  C2  UNL     1     -33.321  15.976  -4.059  1.00 20.00     0.143 C 
HETATM    5  O10 UNL     1     -32.827  16.489  -5.064  1.00 20.00    -0.297 OA
BRANCH   4   6
HETATM    6  C7  UNL     1     -34.333  16.734  -3.195  1.00 20.00     0.055 C 
HETATM    7  C3  UNL     1     -34.767  17.970  -3.983  1.00 20.00     0.018 C 
BRANCH   6   8
HETATM    8  C8  UNL     1     -33.738  17.064  -1.804  1.00 20.00    -0.012 C 
HETATM    9  C4  UNL     1     -34.702  16.651  -0.683  1.00 20.00     0.010 C 
HETATM   10  C5  UNL     1     -33.409  18.553  -1.650  1.00 20.00     0.010 C 
ENDBRANCH   6   8
ENDBRANCH   4   6
ENDBRANCH   2   4
TORSDOF 3
ENDMDL
MODEL 3
REMARK VINA RESULT:      -4.3     11.323     12.619
REMARK  3 active torsions:
REMARK  status: ('A' for Active; 'I' for Inactive)
REMARK    1  A    between atoms: C2_2  and  C6_6 
REMARK    2  A    between atoms: C2_2  and  C7_7 
REMARK    3  A    between atoms: C7_7  and  C8_8 
ROOT
HETATM    1  C1  UNL     1     -37.455  14.598  -3.740  1.00 20.00     0.066 C 
HETATM    2  C6  UNL     1     -36.060  14.923  -3.423  1.00 20.00     0.202 C 
HETATM    3  N9  UNL     1     -38.559  14.345  -3.989  1.00 20.00    -0.197 NA
ENDROOT
BRANCH   2   4
HETATM    4  C2  UNL     1     -35.078  14.004  -4.125  1.00 20.00     0.143 C 
HETATM    5  O10 UNL     1     -35.236  12.784  -4.183  1.00 20.00    -0.297 OA
BRANCH   4   6
HETATM    6  C7  UNL     1     -33.880  14.683  -4.795  1.00 20.00     0.055 C 
HETATM    7  C3  UNL     1     -32.932  15.132  -3.683  1.00 20.00     0.018 C 
BRANCH   6   8
HETATM    8  C8  UNL     1     -34.342  15.837  -5.719  1.00 20.00    -0.012 C 
HETATM    9  C4  UNL     1     -34.298  15.410  -7.192  1.00 20.00     0.010 C 
HETATM   10  C5  UNL     1     -33.489  17.099  -5.544  1.00 20.00     0.010 C 
ENDBRANCH   6   8
ENDBRANCH   4   6
ENDBRANCH   2   4
TORSDOF 3
ENDMDL
MODEL 4
REMARK VINA RESULT:      -4.3     10.837     12.185
REMARK  3 active torsions:
REMARK  status: ('A' for Active; 'I' for Inactive)
REMARK    1  A    between atoms: C2_2  and  C6_6 
REMARK    2  A    between atoms: C2_2  and  C7_7 
REMARK    3  A    between atoms: C7_7  and  C8_8 
ROOT
HETATM    1  C1  UNL     1     -37.481  14.576  -4.218  1.00 20.00     0.066 C 
HETATM    2  C6  UNL     1     -36.330  14.687  -5.121  1.00 20.00     0.202 C 
HETATM    3  N9  UNL     1     -38.393  14.490  -3.507  1.00 20.00    -0.197 NA
ENDROOT
BRANCH   2   4
HETATM    4  C2  UNL     1     -35.122  13.920  -4.616  1.00 20.00     0.143 C 
HETATM    5  O10 UNL     1     -35.145  12.705  -4.413  1.00 20.00    -0.297 OA
BRANCH   4   6
HETATM    6  C7  UNL     1     -33.845  14.738  -4.403  1.00 20.00     0.055 C 
HETATM    7  C3  UNL     1     -32.937  13.928  -3.477  1.00 20.00     0.018 C 
BRANCH   6   8
HETATM    8  C8  UNL     1     -34.175  16.152  -3.865  1.00 20.00    -0.012 C 
HETATM    9  C4  UNL     1     -33.474  17.233  -4.698  1.00 20.00     0.010 C 
HETATM   10  C5  UNL     1     -33.775  16.323  -2.395  1.00 20.00     0.010 C 
ENDBRANCH   6   8
ENDBRANCH   4   6
ENDBRANCH   2   4
TORSDOF 3
ENDMDL
MODEL 5
REMARK VINA RESULT:      -4.3     11.076     11.980
REMARK  3 active torsions:
REMARK  status: ('A' for Active; 'I' for Inactive)
REMARK    1  A    between atoms: C2_2  and  C6_6 
REMARK    2  A    between atoms: C2_2  and  C7_7 
REMARK    3  A    between atoms: C7_7  and  C8_8 
ROOT
HETATM    1  C1  UNL     1     -34.666  14.376  -6.271  1.00 20.00     0.066 C 
HETATM    2  C6  UNL     1     -35.114  13.640  -5.083  1.00 20.00     0.202 C 
HETATM    3  N9  UNL     1     -34.314  14.956  -7.212  1.00 20.00    -0.197 NA
ENDROOT
BRANCH   2   4
HETATM    4  C2  UNL     1     -34.220  13.881  -3.881  1.00 20.00     0.143 C 
HETATM    5  O10 UNL     1     -33.132  13.320  -3.741  1.00 20.00    -0.297 OA
BRANCH   4   6
HETATM    6  C7  UNL     1     -34.729  14.895  -2.854  1.00 20.00     0.055 C 
HETATM    7  C3  UNL     1     -36.121  15.339  -3.305  1.00 20.00     0.018 C 
BRANCH   6   8
HETATM    8  C8  UNL     1     -33.729  16.066  -2.688  1.00 20.00    -0.012 C 
HETATM    9  C4  UNL     1     -34.058  16.894  -1.437  1.00 20.00     0.010 C 
HETATM   10  C5  UNL     1     -33.714  16.996  -3.906  1.00 20.00     0.010 C 
ENDBRANCH   6   8
ENDBRANCH   4   6
ENDBRANCH   2   4
TORSDOF 3
ENDMDL
MODEL 6
REMARK VINA RESULT:      -4.2      0.872      1.725
REMARK  3 active torsions:
REMARK  status: ('A' for Active; 'I' for Inactive)
REMARK    1  A    between atoms: C2_2  and  C6_6 
REMARK    2  A    between atoms: C2_2  and  C7_7 
REMARK    3  A    between atoms: C7_7  and  C8_8 
ROOT
HETATM    1  C1  UNL     1     -32.350   8.137   2.043  1.00 20.00     0.066 C 
HETATM    2  C6  UNL     1     -33.266   7.602   3.057  1.00 20.00     0.202 C 
HETATM    3  N9  UNL     1     -31.628   8.563   1.241  1.00 20.00    -0.197 NA
ENDROOT
BRANCH   2   4
HETATM    4  C2  UNL     1     -32.938   6.170   3.435  1.00 20.00     0.143 C 
HETATM    5  O10 UNL     1     -31.799   5.709   3.363  1.00 20.00    -0.297 OA
BRANCH   4   6
HETATM    6  C7  UNL     1     -34.106   5.325   3.953  1.00 20.00     0.055 C 
HETATM    7  C3  UNL     1     -35.397   6.008   3.498  1.00 20.00     0.018 C 
BRANCH   6   8
HETATM    8  C8  UNL     1     -34.015   5.132   5.487  1.00 20.00    -0.012 C 
HETATM    9  C4  UNL     1     -35.127   4.201   5.989  1.00 20.00     0.010 C 
HETATM   10  C5  UNL     1     -34.102   6.461   6.246  1.00 20.00     0.010 C 
ENDBRANCH   6   8
ENDBRANCH   4   6
ENDBRANCH   2   4
TORSDOF 3
ENDMDL
MODEL 7
REMARK VINA RESULT:      -4.2     11.309     12.037
REMARK  3 active torsions:
REMARK  status: ('A' for Active; 'I' for Inactive)
REMARK    1  A    between atoms: C2_2  and  C6_6 
REMARK    2  A    between atoms: C2_2  and  C7_7 
REMARK    3  A    between atoms: C7_7  and  C8_8 
ROOT
HETATM    1  C1  UNL     1     -34.605  15.476  -6.650  1.00 20.00     0.066 C 
HETATM    2  C6  UNL     1     -34.987  14.101  -6.310  1.00 20.00     0.202 C 
HETATM    3  N9  UNL     1     -34.304  16.563  -6.922  1.00 20.00    -0.197 NA
ENDROOT
BRANCH   2   4
HETATM    4  C2  UNL     1     -34.737  13.774  -4.849  1.00 20.00     0.143 C 
HETATM    5  O10 UNL     1     -34.991  12.671  -4.363  1.00 20.00    -0.297 OA
BRANCH   4   6
HETATM    6  C7  UNL     1     -34.112  14.890  -4.007  1.00 20.00     0.055 C 
HETATM    7  C3  UNL     1     -32.722  14.414  -3.583  1.00 20.00     0.018 C 
BRANCH   6   8
HETATM    8  C8  UNL     1     -35.027  15.265  -2.816  1.00 20.00    -0.012 C 
HETATM    9  C4  UNL     1     -36.355  15.855  -3.310  1.00 20.00     0.010 C 
HETATM   10  C5  UNL     1     -34.363  16.267  -1.865  1.00 20.00     0.010 C 
ENDBRANCH   6   8
ENDBRANCH   4   6
ENDBRANCH   2   4
TORSDOF 3
ENDMDL
MODEL 8
REMARK VINA RESULT:      -4.2     11.066     12.459
REMARK  3 active torsions:
REMARK  status: ('A' for Active; 'I' for Inactive)
REMARK    1  A    between atoms: C2_2  and  C6_6 
REMARK    2  A    between atoms: C2_2  and  C7_7 
REMARK    3  A    between atoms: C7_7  and  C8_8 
ROOT
HETATM    1  C1  UNL     1     -34.952  13.810  -3.877  1.00 20.00     0.066 C 
HETATM    2  C6  UNL     1     -35.146  15.106  -3.217  1.00 20.00     0.202 C 
HETATM    3  N9  UNL     1     -34.804  12.785  -4.399  1.00 20.00    -0.197 NA
ENDROOT
BRANCH   2   4
HETATM    4  C2  UNL     1     -33.894  15.963  -3.247  1.00 20.00     0.143 C 
HETATM    5  O10 UNL     1     -33.116  15.968  -4.201  1.00 20.00    -0.297 OA
BRANCH   4   6
HETATM    6  C7  UNL     1     -33.663  16.861  -2.028  1.00 20.00     0.055 C 
HETATM    7  C3  UNL     1     -34.718  16.491  -0.985  1.00 20.00     0.018 C 
BRANCH   6   8
HETATM    8  C8  UNL     1     -33.687  18.357  -2.428  1.00 20.00    -0.012 C 
HETATM    9  C4  UNL     1     -33.092  19.231  -1.315  1.00 20.00     0.010 C 
HETATM   10  C5  UNL     1     -35.102  18.853  -2.744  1.00 20.00     0.010 C 
ENDBRANCH   6   8
ENDBRANCH   4   6
ENDBRANCH   2   4
TORSDOF 3
ENDMDL
MODEL 9
REMARK VINA RESULT:      -4.1     11.075     12.435
REMARK  3 active torsions:
REMARK  status: ('A' for Active; 'I' for Inactive)
REMARK    1  A    between atoms: C2_2  and  C6_6 
REMARK    2  A    between atoms: C2_2  and  C7_7 
REMARK    3  A    between atoms: C7_7  and  C8_8 
ROOT
HETATM    1  C1  UNL     1     -33.564  15.612  -3.216  1.00 20.00     0.066 C 
HETATM    2  C6  UNL     1     -33.411  14.263  -3.771  1.00 20.00     0.202 C 
HETATM    3  N9  UNL     1     -33.681  16.679  -2.777  1.00 20.00    -0.197 NA
ENDROOT
BRANCH   2   4
HETATM    4  C2  UNL     1     -34.697  13.739  -4.383  1.00 20.00     0.143 C 
HETATM    5  O10 UNL     1     -35.017  12.550  -4.337  1.00 20.00    -0.297 OA
BRANCH   4   6
HETATM    6  C7  UNL     1     -35.606  14.783  -5.038  1.00 20.00     0.055 C 
HETATM    7  C3  UNL     1     -36.960  14.712  -4.333  1.00 20.00     0.018 C 
BRANCH   6   8
HETATM    8  C8  UNL     1     -35.692  14.562  -6.568  1.00 20.00    -0.012 C 
HETATM    9  C4  UNL     1     -34.422  15.066  -7.267  1.00 20.00     0.010 C 
HETATM   10  C5  UNL     1     -36.909  15.257  -7.188  1.00 20.00     0.010 C 
ENDBRANCH   6   8
ENDBRANCH   4   6
ENDBRANCH   2   4
TORSDOF 3
ENDMDL
