MODEL 1
REMARK VINA RESULT:      -4.0      0.000      0.000
REMARK  2 active torsions:
REMARK  status: ('A' for Active; 'I' for Inactive)
REMARK    1  A    between atoms: C7_7  and  N9_9 
REMARK    2  A    between atoms: C8_8  and  N9_9 
ROOT
HETATM    1  C1  UNL     1     -32.112   8.777   1.098  1.00 20.00     0.015 C 
HETATM    2  C2  UNL     1     -32.176   8.068   2.065  1.00 20.00    -0.076 C 
HETATM    3  C5  UNL     1     -31.900   5.758   2.861  1.00 20.00     0.063 C 
HETATM    4  C6  UNL     1     -31.281   7.695   4.329  1.00 20.00     0.063 C 
HETATM    5  C8  UNL     1     -32.253   7.196   3.255  1.00 20.00     0.212 C 
ENDROOT
BRANCH   5   6
HETATM    6  N9  UNL     1     -33.604   7.234   3.781  1.00 20.00     0.108 N 
HETATM    7  H24 UNL     1     -34.264   7.399   3.018  1.00 20.00     0.318 HD
BRANCH   6   8
HETATM    8  C7  UNL     1     -33.948   5.978   4.440  1.00 20.00     0.214 C 
HETATM    9  C3  UNL     1     -35.234   5.433   3.834  1.00 20.00     0.042 C 
HETATM   10  C4  UNL     1     -34.092   6.228   5.934  1.00 20.00     0.042 C 
ENDBRANCH   6   8
ENDBRANCH   5   6
TORSDOF 2
ENDMDL
MODEL 2
REMARK VINA RESULT:      -3.9     10.191     12.073
REMARK  2 active torsions:
REMARK  status: ('A' for Active; 'I' for Inactive)
REMARK    1  A    between atoms: C7_7  and  N9_9 
REMARK    2  A    between atoms: C8_8  and  N9_9 
ROOT
HETATM    1  C1  UNL     1     -34.589  16.195  -1.870  1.00 20.00     0.015 C 
HETATM    2  C2  UNL     1     -34.394  15.446  -2.789  1.00 20.00    -0.076 C 
HETATM    3  C5  UNL     1     -33.023  13.556  -3.560  1.00 20.00     0.063 C 
HETATM    4  C6  UNL     1     -35.434  13.740  -4.228  1.00 20.00     0.063 C 
HETATM    5  C8  UNL     1     -34.155  14.525  -3.919  1.00 20.00     0.212 C 
ENDROOT
BRANCH   5   6
HETATM    6  N9  UNL     1     -33.777  15.298  -5.086  1.00 20.00     0.108 N 
HETATM    7  H24 UNL     1     -33.030  14.814  -5.590  1.00 20.00     0.318 HD
BRANCH   6   8
HETATM    8  C7  UNL     1     -34.911  15.482  -5.985  1.00 20.00     0.214 C 
HETATM    9  C3  UNL     1     -34.541  14.965  -7.368  1.00 20.00     0.042 C 
HETATM   10  C4  UNL     1     -35.279  16.959  -6.017  1.00 20.00     0.042 C 
ENDBRANCH   6   8
ENDBRANCH   5   6
TORSDOF 2
ENDMDL
MODEL 3
REMARK VINA RESULT:      -3.9     10.682     11.791
REMARK  2 active torsions:
REMARK  status: ('A' for Active; 'I' for Inactive)
REMARK    1  A    between atoms: C7_7  and  N9_9 
REMARK    2  A    between atoms: C8_8  and  N9_9 
ROOT
HETATM    1  C1  UNL     1     -34.594  16.541  -0.999  1.00 20.00     0.015 C 
HETATM    2  C2  UNL     1     -34.278  16.385  -2.148  1.00 20.00    -0.076 C 
HETATM    3  C5  UNL     1     -33.588  17.553  -4.198  1.00 20.00     0.063 C 
HETATM    4  C6  UNL     1     -32.648  15.297  -3.638  1.00 20.00     0.063 C 
HETATM    5  C8  UNL     1     -33.888  16.193  -3.559  1.00 20.00     0.212 C 
ENDROOT
BRANCH   5   6
HETATM    6  N9  UNL     1     -34.981  15.557  -4.269  1.00 20.00     0.108 N 
HETATM    7  H24 UNL     1     -35.401  16.224  -4.919  1.00 20.00     0.318 HD
BRANCH   6   8
HETATM    8  C7  UNL     1     -34.516  14.394  -5.019  1.00 20.00     0.214 C 
HETATM    9  C3  UNL     1     -34.849  14.586  -6.492  1.00 20.00     0.042 C 
HETATM   10  C4  UNL     1     -35.176  13.146  -4.451  1.00 20.00     0.042 C 
ENDBRANCH   6   8
ENDBRANCH   5   6
TORSDOF 2
ENDMDL
MODEL 4
REMARK VINA RESULT:      -3.9     10.573     11.686
REMARK  2 active torsions:
REMARK  status: ('A' for Active; 'I' for Inactive)
REMARK    1  A    between atoms: C7_7  and  N9_9 
REMARK    2  A    between atoms: C8_8  and  N9_9 
ROOT
HETATM    1  C1  UNL     1     -34.237  15.428  -6.871  1.00 20.00     0.015 C 
HETATM    2  C2  UNL     1     -34.295  15.088  -5.720  1.00 20.00    -0.076 C 
HETATM    3  C5  UNL     1     -35.160  13.364  -4.196  1.00 20.00     0.063 C 
HETATM    4  C6  UNL     1     -32.950  14.464  -3.754  1.00 20.00     0.063 C 
HETATM    5  C8  UNL     1     -34.365  14.669  -4.306  1.00 20.00     0.212 C 
ENDROOT
BRANCH   5   6
HETATM    6  N9  UNL     1     -35.029  15.705  -3.539  1.00 20.00     0.108 N 
HETATM    7  H24 UNL     1     -35.754  15.285  -2.953  1.00 20.00     0.318 HD
BRANCH   6   8
HETATM    8  C7  UNL     1     -34.083  16.416  -2.684  1.00 20.00     0.214 C 
HETATM    9  C3  UNL     1     -34.612  16.427  -1.257  1.00 20.00     0.042 C 
HETATM   10  C4  UNL     1     -33.895  17.826  -3.226  1.00 20.00     0.042 C 
ENDBRANCH   6   8
ENDBRANCH   5   6
TORSDOF 2
ENDMDL
MODEL 5
REMARK VINA RESULT:      -3.9     10.553     12.002
REMARK  2 active torsions:
REMARK  status: ('A' for Active; 'I' for Inactive)
REMARK    1  A    between atoms: C7_7  and  N9_9 
REMARK    2  A    between atoms: C8_8  and  N9_9 
ROOT
HETATM    1  C1  UNL     1     -34.746  16.340  -1.421  1.00 20.00     0.015 C 
HETATM    2  C2  UNL     1     -34.439  15.781  -2.439  1.00 20.00    -0.076 C 
HETATM    3  C5  UNL     1     -32.538  14.960  -3.764  1.00 20.00     0.063 C 
HETATM    4  C6  UNL     1     -34.707  13.702  -3.731  1.00 20.00     0.063 C 
HETATM    5  C8  UNL     1     -34.063  15.091  -3.690  1.00 20.00     0.212 C 
ENDROOT
BRANCH   5   6
HETATM    6  N9  UNL     1     -34.536  15.869  -4.818  1.00 20.00     0.108 N 
HETATM    7  H24 UNL     1     -33.743  16.330  -5.273  1.00 20.00     0.318 HD
BRANCH   6   8
HETATM    8  C7  UNL     1     -35.213  15.022  -5.795  1.00 20.00     0.214 C 
HETATM    9  C3  UNL     1     -34.406  15.004  -7.085  1.00 20.00     0.042 C 
HETATM   10  C4  UNL     1     -36.620  15.558  -6.019  1.00 20.00     0.042 C 
ENDBRANCH   6   8
ENDBRANCH   5   6
TORSDOF 2
ENDMDL
MODEL 6
REMARK VINA RESULT:      -3.7     10.415     12.214
REMARK  2 active torsions:
REMARK  status: ('A' for Active; 'I' for Inactive)
REMARK    1  A    between atoms: C7_7  and  N9_9 
REMARK    2  A    between atoms: C8_8  and  N9_9 
ROOT
HETATM    1  C1  UNL     1     -34.596  16.305  -1.469  1.00 20.00     0.015 C 
HETATM    2  C2  UNL     1     -34.367  15.823  -2.545  1.00 20.00    -0.076 C 
HETATM    3  C5  UNL     1     -33.177  16.170  -4.669  1.00 20.00     0.063 C 
HETATM    4  C6  UNL     1     -33.399  13.871  -3.692  1.00 20.00     0.063 C 
HETATM    5  C8  UNL     1     -34.084  15.230  -3.868  1.00 20.00     0.212 C 
ENDROOT
BRANCH   5   6
HETATM    6  N9  UNL     1     -35.334  15.044  -4.579  1.00 20.00     0.108 N 
HETATM    7  H24 UNL     1     -36.088  15.515  -4.074  1.00 20.00     0.318 HD
BRANCH   6   8
HETATM    8  C7  UNL     1     -35.258  15.589  -5.931  1.00 20.00     0.214 C 
HETATM    9  C3  UNL     1     -36.412  16.559  -6.143  1.00 20.00     0.042 C 
HETATM   10  C4  UNL     1     -35.296  14.441  -6.928  1.00 20.00     0.042 C 
ENDBRANCH   6   8
ENDBRANCH   5   6
TORSDOF 2
ENDMDL
MODEL 7
REMARK VINA RESULT:      -3.7     10.589     11.792
REMARK  2 active torsions:
REMARK  status: ('A' for Active; 'I' for Inactive)
REMARK    1  A    between atoms: C7_7  and  N9_9 
REMARK    2  A    between atoms: C8_8  and  N9_9 
ROOT
HETATM    1  C1  UNL     1     -34.512  16.595  -0.938  1.00 20.00     0.015 C 
HETATM    2  C2  UNL     1     -34.500  16.189  -2.068  1.00 20.00    -0.076 C 
HETATM    3  C5  UNL     1     -33.308  16.314  -4.215  1.00 20.00     0.063 C 
HETATM    4  C6  UNL     1     -34.350  14.162  -3.459  1.00 20.00     0.063 C 
HETATM    5  C8  UNL     1     -34.484  15.688  -3.458  1.00 20.00     0.212 C 
ENDROOT
BRANCH   5   6
HETATM    6  N9  UNL     1     -35.726  16.057  -4.107  1.00 20.00     0.108 N 
HETATM    7  H24 UNL     1     -35.538  16.738  -4.847  1.00 20.00     0.318 HD
BRANCH   6   8
HETATM    8  C7  UNL     1     -36.381  14.892  -4.693  1.00 20.00     0.214 C 
HETATM    9  C3  UNL     1     -36.460  15.071  -6.203  1.00 20.00     0.042 C 
HETATM   10  C4  UNL     1     -37.762  14.739  -4.071  1.00 20.00     0.042 C 
ENDBRANCH   6   8
ENDBRANCH   5   6
TORSDOF 2
ENDMDL
MODEL 8
REMARK VINA RESULT:      -3.6     10.439     11.738
REMARK  2 active torsions:
REMARK  status: ('A' for Active; 'I' for Inactive)
REMARK    1  A    between atoms: C7_7  and  N9_9 
REMARK    2  A    between atoms: C8_8  and  N9_9 
ROOT
HETATM    1  C1  UNL     1     -34.475  15.137  -6.968  1.00 20.00     0.015 C 
HETATM    2  C2  UNL     1     -34.532  14.972  -5.780  1.00 20.00    -0.076 C 
HETATM    3  C5  UNL     1     -36.021  14.342  -3.927  1.00 20.00     0.063 C 
HETATM    4  C6  UNL     1     -33.600  13.686  -3.898  1.00 20.00     0.063 C 
HETATM    5  C8  UNL     1     -34.601  14.767  -4.319  1.00 20.00     0.212 C 
ENDROOT
BRANCH   5   6
HETATM    6  N9  UNL     1     -34.268  16.010  -3.651  1.00 20.00     0.108 N 
HETATM    7  H24 UNL     1     -34.191  16.759  -4.343  1.00 20.00     0.318 HD
BRANCH   6   8
HETATM    8  C7  UNL     1     -35.289  16.372  -2.673  1.00 20.00     0.214 C 
HETATM    9  C3  UNL     1     -35.894  17.715  -3.058  1.00 20.00     0.042 C 
HETATM   10  C4  UNL     1     -34.652  16.418  -1.292  1.00 20.00     0.042 C 
ENDBRANCH   6   8
ENDBRANCH   5   6
TORSDOF 2
ENDMDL
MODEL 9
REMARK VINA RESULT:      -3.5     10.859     12.035
REMARK  2 active torsions:
REMARK  status: ('A' for Active; 'I' for Inactive)
REMARK    1  A    between atoms: C7_7  and  N9_9 
REMARK    2  A    between atoms: C8_8  and  N9_9 
ROOT
HETATM    1  C1  UNL     1     -33.592  18.490  -4.675  1.00 20.00     0.015 C 
HETATM    2  C2  UNL     1     -33.758  17.409  -4.179  1.00 20.00    -0.076 C 
HETATM    3  C5  UNL     1     -32.648  15.291  -3.606  1.00 20.00     0.063 C 
HETATM    4  C6  UNL     1     -34.428  16.241  -2.117  1.00 20.00     0.063 C 
HETATM    5  C8  UNL     1     -33.961  16.080  -3.567  1.00 20.00     0.212 C 
ENDROOT
BRANCH   5   6
HETATM    6  N9  UNL     1     -34.975  15.365  -4.317  1.00 20.00     0.108 N 
HETATM    7  H24 UNL     1     -35.520  16.028  -4.873  1.00 20.00     0.318 HD
BRANCH   6   8
HETATM    8  C7  UNL     1     -34.374  14.381  -5.211  1.00 20.00     0.214 C 
HETATM    9  C3  UNL     1     -34.660  14.776  -6.653  1.00 20.00     0.042 C 
HETATM   10  C4  UNL     1     -34.940  13.007  -4.882  1.00 20.00     0.042 C 
ENDBRANCH   6   8
ENDBRANCH   5   6
TORSDOF 2
ENDMDL
