MODEL 1
REMARK VINA RESULT:      -4.1      0.000      0.000
REMARK  4 active torsions:
REMARK  status: ('A' for Active; 'I' for Inactive)
REMARK    1  A    between atoms: C4_4  and  C6_6 
REMARK    2  A    between atoms: C6_6  and  C8_8 
REMARK    3  A    between atoms: C7_7  and  C8_8 
REMARK    4  A    between atoms: C8_8  and  N9_9 
ROOT
HETATM    1  C1  UNL     1     -33.394  17.255  -5.298  1.00 20.00     0.158 C 
HETATM    2  N9  UNL     1     -33.005  16.250  -4.838  1.00 20.00    -0.270 NA
HETATM    3  S10 UNL     1     -33.893  18.624  -5.942  1.00 20.00    -0.055 SA
ENDROOT
BRANCH   2   4
HETATM    4  C8  UNL     1     -33.888  15.656  -3.826  1.00 20.00     0.109 C 
BRANCH   4   5
HETATM    5  C6  UNL     1     -33.568  16.287  -2.466  1.00 20.00     0.032 C 
BRANCH   5   6
HETATM    6  C4  UNL     1     -34.778  16.325  -1.541  1.00 20.00    -0.013 A 
HETATM    7  C2  UNL     1     -34.700  17.042  -0.221  1.00 20.00     0.005 A 
HETATM    8  C3  UNL     1     -35.533  17.610  -1.336  1.00 20.00     0.005 A 
ENDBRANCH   5   6
ENDBRANCH   4   5
BRANCH   4   9
HETATM    9  C7  UNL     1     -33.649  14.141  -3.796  1.00 20.00     0.023 C 
HETATM   10  C5  UNL     1     -34.825  13.362  -4.308  1.00 20.00     0.007 C 
ENDBRANCH   4   9
ENDBRANCH   2   4
TORSDOF 4
ENDMDL
MODEL 2
REMARK VINA RESULT:      -4.0      0.855      1.147
REMARK  4 active torsions:
REMARK  status: ('A' for Active; 'I' for Inactive)
REMARK    1  A    between atoms: C4_4  and  C6_6 
REMARK    2  A    between atoms: C6_6  and  C8_8 
REMARK    3  A    between atoms: C7_7  and  C8_8 
REMARK    4  A    between atoms: C8_8  and  N9_9 
ROOT
HETATM    1  C1  UNL     1     -33.662  17.164  -5.044  1.00 20.00     0.158 C 
HETATM    2  N9  UNL     1     -33.600  16.156  -4.449  1.00 20.00    -0.270 NA
HETATM    3  S10 UNL     1     -33.712  18.533  -5.855  1.00 20.00    -0.055 SA
ENDROOT
BRANCH   2   4
HETATM    4  C8  UNL     1     -34.892  15.644  -3.971  1.00 20.00     0.109 C 
BRANCH   4   5
HETATM    5  C6  UNL     1     -35.348  16.498  -2.782  1.00 20.00     0.032 C 
BRANCH   5   6
HETATM    6  C4  UNL     1     -34.449  16.329  -1.564  1.00 20.00    -0.013 A 
HETATM    7  C2  UNL     1     -33.636  17.489  -1.057  1.00 20.00     0.005 A 
HETATM    8  C3  UNL     1     -34.810  16.989  -0.261  1.00 20.00     0.005 A 
ENDBRANCH   5   6
ENDBRANCH   4   5
BRANCH   4   9
HETATM    9  C7  UNL     1     -34.717  14.178  -3.558  1.00 20.00     0.023 C 
HETATM   10  C5  UNL     1     -33.312  13.687  -3.757  1.00 20.00     0.007 C 
ENDBRANCH   4   9
ENDBRANCH   2   4
TORSDOF 4
ENDMDL
MODEL 3
REMARK VINA RESULT:      -4.0      1.235      3.650
REMARK  4 active torsions:
REMARK  status: ('A' for Active; 'I' for Inactive)
REMARK    1  A    between atoms: C4_4  and  C6_6 
REMARK    2  A    between atoms: C6_6  and  C8_8 
REMARK    3  A    between atoms: C7_7  and  C8_8 
REMARK    4  A    between atoms: C8_8  and  N9_9 
ROOT
HETATM    1  C1  UNL     1     -33.876  17.407  -4.278  1.00 20.00     0.158 C 
HETATM    2  N9  UNL     1     -33.930  17.487  -3.110  1.00 20.00    -0.270 NA
HETATM    3  S10 UNL     1     -33.800  17.333  -5.867  1.00 20.00    -0.055 SA
ENDROOT
BRANCH   2   4
HETATM    4  C8  UNL     1     -34.136  16.208  -2.416  1.00 20.00     0.109 C 
BRANCH   4   5
HETATM    5  C6  UNL     1     -35.194  15.402  -3.177  1.00 20.00     0.032 C 
BRANCH   5   6
HETATM    6  C4  UNL     1     -34.750  13.972  -3.457  1.00 20.00    -0.013 A 
HETATM    7  C2  UNL     1     -34.357  13.561  -4.850  1.00 20.00     0.005 A 
HETATM    8  C3  UNL     1     -33.311  13.676  -3.776  1.00 20.00     0.005 A 
ENDBRANCH   5   6
ENDBRANCH   4   5
BRANCH   4   9
HETATM    9  C7  UNL     1     -34.594  16.497  -0.981  1.00 20.00     0.023 C 
HETATM   10  C5  UNL     1     -33.903  17.688  -0.384  1.00 20.00     0.007 C 
ENDBRANCH   4   9
ENDBRANCH   2   4
TORSDOF 4
ENDMDL
MODEL 4
REMARK VINA RESULT:      -3.9      2.618      2.930
REMARK  4 active torsions:
REMARK  status: ('A' for Active; 'I' for Inactive)
REMARK    1  A    between atoms: C4_4  and  C6_6 
REMARK    2  A    between atoms: C6_6  and  C8_8 
REMARK    3  A    between atoms: C7_7  and  C8_8 
REMARK    4  A    between atoms: C8_8  and  N9_9 
ROOT
HETATM    1  C1  UNL     1     -37.173  15.111  -4.205  1.00 20.00     0.158 C 
HETATM    2  N9  UNL     1     -36.031  15.325  -4.358  1.00 20.00    -0.270 NA
HETATM    3  S10 UNL     1     -38.731  14.829  -4.031  1.00 20.00    -0.055 SA
ENDROOT
BRANCH   2   4
HETATM    4  C8  UNL     1     -35.215  15.204  -3.142  1.00 20.00     0.109 C 
BRANCH   4   5
HETATM    5  C6  UNL     1     -35.432  16.453  -2.280  1.00 20.00     0.032 C 
BRANCH   5   6
HETATM    6  C4  UNL     1     -34.543  16.471  -1.043  1.00 20.00    -0.013 A 
HETATM    7  C2  UNL     1     -33.717  17.686  -0.722  1.00 20.00     0.005 A 
HETATM    8  C3  UNL     1     -34.902  17.335   0.134  1.00 20.00     0.005 A 
ENDBRANCH   5   6
ENDBRANCH   4   5
BRANCH   4   9
HETATM    9  C7  UNL     1     -33.743  15.070  -3.550  1.00 20.00     0.023 C 
HETATM   10  C5  UNL     1     -33.335  13.644  -3.779  1.00 20.00     0.007 C 
ENDBRANCH   4   9
ENDBRANCH   2   4
TORSDOF 4
ENDMDL
MODEL 5
REMARK VINA RESULT:      -3.9      3.149      3.594
REMARK  4 active torsions:
REMARK  status: ('A' for Active; 'I' for Inactive)
REMARK    1  A    between atoms: C4_4  and  C6_6 
REMARK    2  A    between atoms: C6_6  and  C8_8 
REMARK    3  A    between atoms: C7_7  and  C8_8 
REMARK    4  A    between atoms: C8_8  and  N9_9 
ROOT
HETATM    1  C1  UNL     1     -38.369  14.972  -4.012  1.00 20.00     0.158 C 
HETATM    2  N9  UNL     1     -37.562  14.196  -3.665  1.00 20.00    -0.270 NA
HETATM    3  S10 UNL     1     -39.491  16.003  -4.476  1.00 20.00    -0.055 SA
ENDROOT
BRANCH   2   4
HETATM    4  C8  UNL     1     -36.172  14.632  -3.850  1.00 20.00     0.109 C 
BRANCH   4   5
HETATM    5  C6  UNL     1     -35.941  15.900  -3.021  1.00 20.00     0.032 C 
BRANCH   5   6
HETATM    6  C4  UNL     1     -34.733  15.784  -2.099  1.00 20.00    -0.013 A 
HETATM    7  C2  UNL     1     -33.719  16.893  -2.037  1.00 20.00     0.005 A 
HETATM    8  C3  UNL     1     -34.634  16.646  -0.870  1.00 20.00     0.005 A 
ENDBRANCH   5   6
ENDBRANCH   4   5
BRANCH   4   9
HETATM    9  C7  UNL     1     -35.937  14.903  -5.341  1.00 20.00     0.023 C 
HETATM   10  C5  UNL     1     -34.595  14.422  -5.811  1.00 20.00     0.007 C 
ENDBRANCH   4   9
ENDBRANCH   2   4
TORSDOF 4
ENDMDL
MODEL 6
REMARK VINA RESULT:      -3.9      1.996      2.909
REMARK  4 active torsions:
REMARK  status: ('A' for Active; 'I' for Inactive)
REMARK    1  A    between atoms: C4_4  and  C6_6 
REMARK    2  A    between atoms: C6_6  and  C8_8 
REMARK    3  A    between atoms: C7_7  and  C8_8 
REMARK    4  A    between atoms: C8_8  and  N9_9 
ROOT
HETATM    1  C1  UNL     1     -33.814  14.376  -4.027  1.00 20.00     0.158 C 
HETATM    2  N9  UNL     1     -33.038  15.135  -3.585  1.00 20.00    -0.270 NA
HETATM    3  S10 UNL     1     -34.841  13.323  -4.637  1.00 20.00    -0.055 SA
ENDROOT
BRANCH   2   4
HETATM    4  C8  UNL     1     -33.619  16.394  -3.099  1.00 20.00     0.109 C 
BRANCH   4   5
HETATM    5  C6  UNL     1     -34.542  16.083  -1.916  1.00 20.00     0.032 C 
BRANCH   5   6
HETATM    6  C4  UNL     1     -34.882  17.323  -1.098  1.00 20.00    -0.013 A 
HETATM    7  C2  UNL     1     -34.912  17.254   0.404  1.00 20.00     0.005 A 
HETATM    8  C3  UNL     1     -33.816  18.012  -0.292  1.00 20.00     0.005 A 
ENDBRANCH   5   6
ENDBRANCH   4   5
BRANCH   4   9
HETATM    9  C7  UNL     1     -34.400  17.048  -4.246  1.00 20.00     0.023 C 
HETATM   10  C5  UNL     1     -33.550  17.971  -5.069  1.00 20.00     0.007 C 
ENDBRANCH   4   9
ENDBRANCH   2   4
TORSDOF 4
ENDMDL
MODEL 7
REMARK VINA RESULT:      -3.8      1.830      1.927
REMARK  4 active torsions:
REMARK  status: ('A' for Active; 'I' for Inactive)
REMARK    1  A    between atoms: C4_4  and  C6_6 
REMARK    2  A    between atoms: C6_6  and  C8_8 
REMARK    3  A    between atoms: C7_7  and  C8_8 
REMARK    4  A    between atoms: C8_8  and  N9_9 
ROOT
HETATM    1  C1  UNL     1     -34.747  15.659  -6.310  1.00 20.00     0.158 C 
HETATM    2  N9  UNL     1     -34.367  16.316  -5.418  1.00 20.00    -0.270 NA
HETATM    3  S10 UNL     1     -35.257  14.791  -7.545  1.00 20.00    -0.055 SA
ENDROOT
BRANCH   2   4
HETATM    4  C8  UNL     1     -34.511  15.697  -4.093  1.00 20.00     0.109 C 
BRANCH   4   5
HETATM    5  C6  UNL     1     -34.788  16.799  -3.065  1.00 20.00     0.032 C 
BRANCH   5   6
HETATM    6  C4  UNL     1     -34.088  16.547  -1.735  1.00 20.00    -0.013 A 
HETATM    7  C2  UNL     1     -33.569  17.701  -0.922  1.00 20.00     0.005 A 
HETATM    8  C3  UNL     1     -34.761  16.921  -0.443  1.00 20.00     0.005 A 
ENDBRANCH   5   6
ENDBRANCH   4   5
BRANCH   4   9
HETATM    9  C7  UNL     1     -33.215  14.948  -3.758  1.00 20.00     0.023 C 
HETATM   10  C5  UNL     1     -33.393  13.458  -3.764  1.00 20.00     0.007 C 
ENDBRANCH   4   9
ENDBRANCH   2   4
TORSDOF 4
ENDMDL
MODEL 8
REMARK VINA RESULT:      -3.7      2.536      4.246
REMARK  4 active torsions:
REMARK  status: ('A' for Active; 'I' for Inactive)
REMARK    1  A    between atoms: C4_4  and  C6_6 
REMARK    2  A    between atoms: C6_6  and  C8_8 
REMARK    3  A    between atoms: C7_7  and  C8_8 
REMARK    4  A    between atoms: C8_8  and  N9_9 
ROOT
HETATM    1  C1  UNL     1     -34.677  16.396  -1.395  1.00 20.00     0.158 C 
HETATM    2  N9  UNL     1     -34.684  15.677  -2.321  1.00 20.00    -0.270 NA
HETATM    3  S10 UNL     1     -34.692  17.353  -0.122  1.00 20.00    -0.055 SA
ENDROOT
BRANCH   2   4
HETATM    4  C8  UNL     1     -33.835  16.108  -3.440  1.00 20.00     0.109 C 
BRANCH   4   5
HETATM    5  C6  UNL     1     -34.725  16.348  -4.665  1.00 20.00     0.032 C 
BRANCH   5   6
HETATM    6  C4  UNL     1     -33.943  16.307  -5.972  1.00 20.00    -0.013 A 
HETATM    7  C2  UNL     1     -34.335  15.343  -7.058  1.00 20.00     0.005 A 
HETATM    8  C3  UNL     1     -34.566  16.817  -7.242  1.00 20.00     0.005 A 
ENDBRANCH   5   6
ENDBRANCH   4   5
BRANCH   4   9
HETATM    9  C7  UNL     1     -32.800  15.012  -3.721  1.00 20.00     0.023 C 
HETATM   10  C5  UNL     1     -33.399  13.636  -3.709  1.00 20.00     0.007 C 
ENDBRANCH   4   9
ENDBRANCH   2   4
TORSDOF 4
ENDMDL
MODEL 9
REMARK VINA RESULT:      -3.7      2.648      4.391
REMARK  4 active torsions:
REMARK  status: ('A' for Active; 'I' for Inactive)
REMARK    1  A    between atoms: C4_4  and  C6_6 
REMARK    2  A    between atoms: C6_6  and  C8_8 
REMARK    3  A    between atoms: C7_7  and  C8_8 
REMARK    4  A    between atoms: C8_8  and  N9_9 
ROOT
HETATM    1  C1  UNL     1     -34.745  16.827  -0.574  1.00 20.00     0.158 C 
HETATM    2  N9  UNL     1     -34.536  16.222  -1.556  1.00 20.00    -0.270 NA
HETATM    3  S10 UNL     1     -35.015  17.623   0.779  1.00 20.00    -0.055 SA
ENDROOT
BRANCH   2   4
HETATM    4  C8  UNL     1     -34.988  16.879  -2.790  1.00 20.00     0.109 C 
BRANCH   4   5
HETATM    5  C6  UNL     1     -35.205  15.808  -3.864  1.00 20.00     0.032 C 
BRANCH   5   6
HETATM    6  C4  UNL     1     -34.815  14.414  -3.387  1.00 20.00    -0.013 A 
HETATM    7  C2  UNL     1     -34.918  13.239  -4.319  1.00 20.00     0.005 A 
HETATM    8  C3  UNL     1     -33.567  13.757  -3.910  1.00 20.00     0.005 A 
ENDBRANCH   5   6
ENDBRANCH   4   5
BRANCH   4   9
HETATM    9  C7  UNL     1     -33.918  17.887  -3.229  1.00 20.00     0.023 C 
HETATM   10  C5  UNL     1     -33.583  17.772  -4.688  1.00 20.00     0.007 C 
ENDBRANCH   4   9
ENDBRANCH   2   4
TORSDOF 4
ENDMDL
