MODEL 1
REMARK VINA RESULT:      -4.2      0.000      0.000
REMARK  3 active torsions:
REMARK  status: ('A' for Active; 'I' for Inactive)
REMARK    1  A    between atoms: C1_1  and  C7_7 
REMARK       I    between atoms: C1_1  and  N9_9 
REMARK    2  A    between atoms: C7_7  and  C8_8 
REMARK    3  A    between atoms: N9_9  and  O11_11 
ROOT
HETATM    1  C1  UNL     1     -36.058  14.327  -4.207  1.00 20.00     0.247 C 
HETATM    2  C5  UNL     1     -37.547  16.285  -3.809  1.00 20.00     0.189 C 
HETATM    3  N9  UNL     1     -37.296  14.861  -3.938  1.00 20.00    -0.231 N 
HETATM    4  O10 UNL     1     -35.867  13.112  -4.312  1.00 20.00    -0.271 OA
ENDROOT
BRANCH   1   5
HETATM    5  C7  UNL     1     -34.890  15.318  -4.353  1.00 20.00     0.079 C 
HETATM    6  C2  UNL     1     -34.246  15.174  -5.735  1.00 20.00     0.020 C 
BRANCH   5   7
HETATM    7  C8  UNL     1     -33.893  15.156  -3.173  1.00 20.00    -0.010 C 
HETATM    8  C3  UNL     1     -33.861  16.411  -2.296  1.00 20.00     0.010 C 
HETATM    9  C4  UNL     1     -32.472  14.798  -3.615  1.00 20.00     0.010 C 
ENDBRANCH   5   7
ENDBRANCH   1   5
BRANCH   3  10
HETATM   10  O11 UNL     1     -38.456  14.087  -3.760  1.00 20.00    -0.281 OA
HETATM   11  C6  UNL     1     -39.509  14.634  -4.549  1.00 20.00     0.238 C 
ENDBRANCH   3  10
TORSDOF 3
ENDMDL
MODEL 2
REMARK VINA RESULT:      -4.2      2.148      3.353
REMARK  3 active torsions:
REMARK  status: ('A' for Active; 'I' for Inactive)
REMARK    1  A    between atoms: C1_1  and  C7_7 
REMARK       I    between atoms: C1_1  and  N9_9 
REMARK    2  A    between atoms: C7_7  and  C8_8 
REMARK    3  A    between atoms: N9_9  and  O11_11 
ROOT
HETATM    1  C1  UNL     1     -33.801  15.500  -3.273  1.00 20.00     0.247 C 
HETATM    2  C5  UNL     1     -36.237  14.985  -3.369  1.00 20.00     0.189 C 
HETATM    3  N9  UNL     1     -34.835  14.617  -3.469  1.00 20.00    -0.231 N 
HETATM    4  O10 UNL     1     -32.616  15.167  -3.362  1.00 20.00    -0.271 OA
ENDROOT
BRANCH   1   5
HETATM    5  C7  UNL     1     -34.180  16.947  -2.910  1.00 20.00     0.079 C 
HETATM    6  C2  UNL     1     -33.687  17.909  -3.996  1.00 20.00     0.020 C 
BRANCH   5   7
HETATM    7  C8  UNL     1     -33.678  17.296  -1.483  1.00 20.00    -0.010 C 
HETATM    8  C3  UNL     1     -34.700  16.887  -0.418  1.00 20.00     0.010 C 
HETATM    9  C4  UNL     1     -33.309  18.771  -1.306  1.00 20.00     0.010 C 
ENDBRANCH   5   7
ENDBRANCH   1   5
BRANCH   3  10
HETATM   10  O11 UNL     1     -34.651  13.259  -3.787  1.00 20.00    -0.281 OA
HETATM   11  C6  UNL     1     -34.723  13.097  -5.201  1.00 20.00     0.238 C 
ENDBRANCH   3  10
TORSDOF 3
ENDMDL
MODEL 3
REMARK VINA RESULT:      -4.1      2.364      3.663
REMARK  3 active torsions:
REMARK  status: ('A' for Active; 'I' for Inactive)
REMARK    1  A    between atoms: C1_1  and  C7_7 
REMARK       I    between atoms: C1_1  and  N9_9 
REMARK    2  A    between atoms: C7_7  and  C8_8 
REMARK    3  A    between atoms: N9_9  and  O11_11 
ROOT
HETATM    1  C1  UNL     1     -34.970  15.182  -3.016  1.00 20.00     0.247 C 
HETATM    2  C5  UNL     1     -32.829  13.979  -3.441  1.00 20.00     0.189 C 
HETATM    3  N9  UNL     1     -34.276  14.097  -3.495  1.00 20.00    -0.231 N 
HETATM    4  O10 UNL     1     -36.200  15.262  -3.072  1.00 20.00    -0.271 OA
ENDROOT
BRANCH   1   5
HETATM    5  C7  UNL     1     -34.139  16.328  -2.413  1.00 20.00     0.079 C 
HETATM    6  C2  UNL     1     -34.546  16.566  -0.956  1.00 20.00     0.020 C 
BRANCH   5   7
HETATM    7  C8  UNL     1     -34.233  17.593  -3.308  1.00 20.00    -0.010 C 
HETATM    8  C3  UNL     1     -33.557  17.368  -4.664  1.00 20.00     0.010 C 
HETATM    9  C4  UNL     1     -33.666  18.854  -2.651  1.00 20.00     0.010 C 
ENDBRANCH   5   7
ENDBRANCH   1   5
BRANCH   3  10
HETATM   10  O11 UNL     1     -34.890  12.980  -4.090  1.00 20.00    -0.281 OA
HETATM   11  C6  UNL     1     -34.880  13.141  -5.506  1.00 20.00     0.238 C 
ENDBRANCH   3  10
TORSDOF 3
ENDMDL
MODEL 4
REMARK VINA RESULT:      -4.1      2.902      3.883
REMARK  3 active torsions:
REMARK  status: ('A' for Active; 'I' for Inactive)
REMARK    1  A    between atoms: C1_1  and  C7_7 
REMARK       I    between atoms: C1_1  and  N9_9 
REMARK    2  A    between atoms: C7_7  and  C8_8 
REMARK    3  A    between atoms: N9_9  and  O11_11 
ROOT
HETATM    1  C1  UNL     1     -33.762  15.275  -3.739  1.00 20.00     0.247 C 
HETATM    2  C5  UNL     1     -35.795  16.371  -2.801  1.00 20.00     0.189 C 
HETATM    3  N9  UNL     1     -34.378  16.050  -2.785  1.00 20.00    -0.231 N 
HETATM    4  O10 UNL     1     -32.557  15.014  -3.707  1.00 20.00    -0.271 OA
ENDROOT
BRANCH   1   5
HETATM    5  C7  UNL     1     -34.645  14.750  -4.885  1.00 20.00     0.079 C 
HETATM    6  C2  UNL     1     -34.726  13.221  -4.830  1.00 20.00     0.020 C 
BRANCH   5   7
HETATM    7  C8  UNL     1     -34.150  15.306  -6.247  1.00 20.00    -0.010 C 
HETATM    8  C3  UNL     1     -34.233  16.835  -6.287  1.00 20.00     0.010 C 
HETATM    9  C4  UNL     1     -34.883  14.716  -7.455  1.00 20.00     0.010 C 
ENDBRANCH   5   7
ENDBRANCH   1   5
BRANCH   3  10
HETATM   10  O11 UNL     1     -33.705  16.617  -1.689  1.00 20.00    -0.281 OA
HETATM   11  C6  UNL     1     -34.623  16.784  -0.612  1.00 20.00     0.238 C 
ENDBRANCH   3  10
TORSDOF 3
ENDMDL
MODEL 5
REMARK VINA RESULT:      -3.9      2.942      4.498
REMARK  3 active torsions:
REMARK  status: ('A' for Active; 'I' for Inactive)
REMARK    1  A    between atoms: C1_1  and  C7_7 
REMARK       I    between atoms: C1_1  and  N9_9 
REMARK    2  A    between atoms: C7_7  and  C8_8 
REMARK    3  A    between atoms: N9_9  and  O11_11 
ROOT
HETATM    1  C1  UNL     1     -33.670  16.263  -3.432  1.00 20.00     0.247 C 
HETATM    2  C5  UNL     1     -34.650  16.487  -1.152  1.00 20.00     0.189 C 
HETATM    3  N9  UNL     1     -33.871  16.978  -2.276  1.00 20.00    -0.231 N 
HETATM    4  O10 UNL     1     -33.004  16.699  -4.376  1.00 20.00    -0.271 OA
ENDROOT
BRANCH   1   5
HETATM    5  C7  UNL     1     -34.337  14.880  -3.521  1.00 20.00     0.079 C 
HETATM    6  C2  UNL     1     -33.274  13.793  -3.707  1.00 20.00     0.020 C 
BRANCH   5   7
HETATM    7  C8  UNL     1     -35.438  14.879  -4.615  1.00 20.00    -0.010 C 
HETATM    8  C3  UNL     1     -36.796  14.470  -4.038  1.00 20.00     0.010 C 
HETATM    9  C4  UNL     1     -35.104  13.999  -5.823  1.00 20.00     0.010 C 
ENDBRANCH   5   7
ENDBRANCH   1   5
BRANCH   3  10
HETATM   10  O11 UNL     1     -33.344  18.262  -2.051  1.00 20.00    -0.281 OA
HETATM   11  C6  UNL     1     -33.176  18.460  -0.650  1.00 20.00     0.238 C 
ENDBRANCH   3  10
TORSDOF 3
ENDMDL
MODEL 6
REMARK VINA RESULT:      -3.8      2.376      3.491
REMARK  3 active torsions:
REMARK  status: ('A' for Active; 'I' for Inactive)
REMARK    1  A    between atoms: C1_1  and  C7_7 
REMARK       I    between atoms: C1_1  and  N9_9 
REMARK    2  A    between atoms: C7_7  and  C8_8 
REMARK    3  A    between atoms: N9_9  and  O11_11 
ROOT
HETATM    1  C1  UNL     1     -33.774  16.311  -4.318  1.00 20.00     0.247 C 
HETATM    2  C5  UNL     1     -36.195  15.771  -4.561  1.00 20.00     0.189 C 
HETATM    3  N9  UNL     1     -34.787  15.531  -4.823  1.00 20.00    -0.231 N 
HETATM    4  O10 UNL     1     -32.583  16.089  -4.552  1.00 20.00    -0.271 OA
ENDROOT
BRANCH   1   5
HETATM    5  C7  UNL     1     -34.187  17.484  -3.412  1.00 20.00     0.079 C 
HETATM    6  C2  UNL     1     -33.728  18.811  -4.026  1.00 20.00     0.020 C 
BRANCH   5   7
HETATM    7  C8  UNL     1     -33.681  17.252  -1.962  1.00 20.00    -0.010 C 
HETATM    8  C3  UNL     1     -34.691  16.443  -1.143  1.00 20.00     0.010 C 
HETATM    9  C4  UNL     1     -33.330  18.544  -1.220  1.00 20.00     0.010 C 
ENDBRANCH   5   7
ENDBRANCH   1   5
BRANCH   3  10
HETATM   10  O11 UNL     1     -34.571  14.413  -5.649  1.00 20.00    -0.281 OA
HETATM   11  C6  UNL     1     -34.692  13.226  -4.871  1.00 20.00     0.238 C 
ENDBRANCH   3  10
TORSDOF 3
ENDMDL
MODEL 7
REMARK VINA RESULT:      -3.6      2.027      2.549
REMARK  3 active torsions:
REMARK  status: ('A' for Active; 'I' for Inactive)
REMARK    1  A    between atoms: C1_1  and  C7_7 
REMARK       I    between atoms: C1_1  and  N9_9 
REMARK    2  A    between atoms: C7_7  and  C8_8 
REMARK    3  A    between atoms: N9_9  and  O11_11 
ROOT
HETATM    1  C1  UNL     1     -35.672  15.897  -4.285  1.00 20.00     0.247 C 
HETATM    2  C5  UNL     1     -37.868  14.767  -3.955  1.00 20.00     0.189 C 
HETATM    3  N9  UNL     1     -36.974  15.668  -4.661  1.00 20.00    -0.231 N 
HETATM    4  O10 UNL     1     -34.928  16.667  -4.899  1.00 20.00    -0.271 OA
ENDROOT
BRANCH   1   5
HETATM    5  C7  UNL     1     -35.156  15.126  -3.058  1.00 20.00     0.079 C 
HETATM    6  C2  UNL     1     -34.612  16.103  -2.012  1.00 20.00     0.020 C 
BRANCH   5   7
HETATM    7  C8  UNL     1     -34.138  14.036  -3.492  1.00 20.00    -0.010 C 
HETATM    8  C3  UNL     1     -32.728  14.617  -3.633  1.00 20.00     0.010 C 
HETATM    9  C4  UNL     1     -34.530  13.310  -4.782  1.00 20.00     0.010 C 
ENDBRANCH   5   7
ENDBRANCH   1   5
BRANCH   3  10
HETATM   10  O11 UNL     1     -37.585  16.281  -5.769  1.00 20.00    -0.281 OA
HETATM   11  C6  UNL     1     -37.602  15.365  -6.860  1.00 20.00     0.238 C 
ENDBRANCH   3  10
TORSDOF 3
ENDMDL
MODEL 8
REMARK VINA RESULT:      -3.6      1.888      2.395
REMARK  3 active torsions:
REMARK  status: ('A' for Active; 'I' for Inactive)
REMARK    1  A    between atoms: C1_1  and  C7_7 
REMARK       I    between atoms: C1_1  and  N9_9 
REMARK    2  A    between atoms: C7_7  and  C8_8 
REMARK    3  A    between atoms: N9_9  and  O11_11 
ROOT
HETATM    1  C1  UNL     1     -36.608  14.810  -4.410  1.00 20.00     0.247 C 
HETATM    2  C5  UNL     1     -35.915  16.112  -6.419  1.00 20.00     0.189 C 
HETATM    3  N9  UNL     1     -36.868  15.323  -5.658  1.00 20.00    -0.231 N 
HETATM    4  O10 UNL     1     -37.432  14.142  -3.780  1.00 20.00    -0.271 OA
ENDROOT
BRANCH   1   5
HETATM    5  C7  UNL     1     -35.229  15.124  -3.803  1.00 20.00     0.079 C 
HETATM    6  C2  UNL     1     -34.431  13.830  -3.611  1.00 20.00     0.020 C 
BRANCH   5   7
HETATM    7  C8  UNL     1     -35.386  15.965  -2.508  1.00 20.00    -0.010 C 
HETATM    8  C3  UNL     1     -36.275  17.190  -2.745  1.00 20.00     0.010 C 
HETATM    9  C4  UNL     1     -34.054  16.405  -1.895  1.00 20.00     0.010 C 
ENDBRANCH   5   7
ENDBRANCH   1   5
BRANCH   3  10
HETATM   10  O11 UNL     1     -38.086  15.140  -6.337  1.00 20.00    -0.281 OA
HETATM   11  C6  UNL     1     -37.836  15.077  -7.738  1.00 20.00     0.238 C 
ENDBRANCH   3  10
TORSDOF 3
ENDMDL
MODEL 9
REMARK VINA RESULT:      -3.6      1.434      1.624
REMARK  3 active torsions:
REMARK  status: ('A' for Active; 'I' for Inactive)
REMARK    1  A    between atoms: C1_1  and  C7_7 
REMARK       I    between atoms: C1_1  and  N9_9 
REMARK    2  A    between atoms: C7_7  and  C8_8 
REMARK    3  A    between atoms: N9_9  and  O11_11 
ROOT
HETATM    1  C1  UNL     1     -36.824  15.016  -4.302  1.00 20.00     0.247 C 
HETATM    2  C5  UNL     1     -36.908  17.350  -5.173  1.00 20.00     0.189 C 
HETATM    3  N9  UNL     1     -37.514  16.173  -4.574  1.00 20.00    -0.231 N 
HETATM    4  O10 UNL     1     -37.357  14.027  -3.793  1.00 20.00    -0.271 OA
ENDROOT
BRANCH   1   5
HETATM    5  C7  UNL     1     -35.323  15.005  -4.644  1.00 20.00     0.079 C 
HETATM    6  C2  UNL     1     -35.064  14.092  -5.847  1.00 20.00     0.020 C 
BRANCH   5   7
HETATM    7  C8  UNL     1     -34.485  14.646  -3.388  1.00 20.00    -0.010 C 
HETATM    8  C3  UNL     1     -34.021  15.905  -2.650  1.00 20.00     0.010 C 
HETATM    9  C4  UNL     1     -33.280  13.750  -3.688  1.00 20.00     0.010 C 
ENDBRANCH   5   7
ENDBRANCH   1   5
BRANCH   3  10
HETATM   10  O11 UNL     1     -38.883  16.346  -4.302  1.00 20.00    -0.281 OA
HETATM   11  C6  UNL     1     -39.030  17.106  -3.106  1.00 20.00     0.238 C 
ENDBRANCH   3  10
TORSDOF 3
ENDMDL
