MODEL 1
REMARK VINA RESULT:      -4.7      0.000      0.000
REMARK  1 active torsions:
REMARK  status: ('A' for Active; 'I' for Inactive)
REMARK    1  A    between atoms: C10_10  and  N11_11 
ROOT
HETATM    1  C1  UNL     1     -33.273  18.061  -0.546  1.00 20.00     0.015 C 
HETATM    2  C2  UNL     1     -33.820  17.799  -1.582  1.00 20.00    -0.076 C 
HETATM    3  C8  UNL     1     -35.886  18.118  -2.877  1.00 20.00     0.063 C 
HETATM    4  C9  UNL     1     -33.661  18.008  -4.030  1.00 20.00     0.063 C 
HETATM    5  C10 UNL     1     -34.493  17.479  -2.858  1.00 20.00     0.214 C 
ENDROOT
BRANCH   5   6
HETATM    6  N11 UNL     1     -34.622  16.026  -2.976  1.00 20.00     0.110 N 
HETATM    7  C6  UNL     1     -33.376  15.444  -3.499  1.00 20.00     0.282 C 
HETATM    8  C4  UNL     1     -33.451  13.921  -3.545  1.00 20.00     0.108 C 
HETATM    9  C3  UNL     1     -34.687  13.474  -4.288  1.00 20.00     0.130 C 
HETATM   10  C5  UNL     1     -35.971  14.174  -3.914  1.00 20.00     0.108 C 
HETATM   11  O12 UNL     1     -34.669  12.522  -5.066  1.00 20.00    -0.298 OA
HETATM   12  C7  UNL     1     -35.757  15.684  -3.847  1.00 20.00     0.282 C 
ENDBRANCH   5   6
TORSDOF 1
ENDMDL
MODEL 2
REMARK VINA RESULT:      -4.6      0.984      1.730
REMARK  1 active torsions:
REMARK  status: ('A' for Active; 'I' for Inactive)
REMARK    1  A    between atoms: C10_10  and  N11_11 
ROOT
HETATM    1  C1  UNL     1     -34.776  16.996  -0.128  1.00 20.00     0.015 C 
HETATM    2  C2  UNL     1     -34.888  17.350  -1.270  1.00 20.00    -0.076 C 
HETATM    3  C8  UNL     1     -36.342  18.557  -2.844  1.00 20.00     0.063 C 
HETATM    4  C9  UNL     1     -33.846  18.682  -3.058  1.00 20.00     0.063 C 
HETATM    5  C10 UNL     1     -35.028  17.786  -2.674  1.00 20.00     0.214 C 
ENDROOT
BRANCH   5   6
HETATM    6  N11 UNL     1     -35.039  16.607  -3.541  1.00 20.00     0.110 N 
HETATM    7  C6  UNL     1     -36.235  15.792  -3.280  1.00 20.00     0.282 C 
HETATM    8  C4  UNL     1     -36.318  14.605  -4.235  1.00 20.00     0.108 C 
HETATM    9  C3  UNL     1     -35.031  13.816  -4.212  1.00 20.00     0.130 C 
HETATM   10  C5  UNL     1     -33.759  14.626  -4.295  1.00 20.00     0.108 C 
HETATM   11  O12 UNL     1     -35.021  12.587  -4.239  1.00 20.00    -0.298 OA
HETATM   12  C7  UNL     1     -33.818  15.813  -3.337  1.00 20.00     0.282 C 
ENDBRANCH   5   6
TORSDOF 1
ENDMDL
MODEL 3
REMARK VINA RESULT:      -4.6      1.053      2.142
REMARK  1 active torsions:
REMARK  status: ('A' for Active; 'I' for Inactive)
REMARK    1  A    between atoms: C10_10  and  N11_11 
ROOT
HETATM    1  C1  UNL     1     -33.297  19.263  -2.791  1.00 20.00     0.015 C 
HETATM    2  C2  UNL     1     -34.104  18.416  -2.519  1.00 20.00    -0.076 C 
HETATM    3  C8  UNL     1     -34.724  16.727  -0.843  1.00 20.00     0.063 C 
HETATM    4  C9  UNL     1     -36.491  17.998  -2.089  1.00 20.00     0.063 C 
HETATM    5  C10 UNL     1     -35.095  17.374  -2.182  1.00 20.00     0.214 C 
ENDROOT
BRANCH   5   6
HETATM    6  N11 UNL     1     -35.092  16.356  -3.233  1.00 20.00     0.110 N 
HETATM    7  C6  UNL     1     -36.206  15.415  -3.036  1.00 20.00     0.282 C 
HETATM    8  C4  UNL     1     -36.281  14.398  -4.171  1.00 20.00     0.108 C 
HETATM    9  C3  UNL     1     -34.945  13.723  -4.366  1.00 20.00     0.130 C 
HETATM   10  C5  UNL     1     -33.742  14.636  -4.394  1.00 20.00     0.108 C 
HETATM   11  O12 UNL     1     -34.853  12.520  -4.602  1.00 20.00    -0.298 OA
HETATM   12  C7  UNL     1     -33.807  15.641  -3.247  1.00 20.00     0.282 C 
ENDBRANCH   5   6
TORSDOF 1
ENDMDL
MODEL 4
REMARK VINA RESULT:      -4.5      1.964      2.786
REMARK  1 active torsions:
REMARK  status: ('A' for Active; 'I' for Inactive)
REMARK    1  A    between atoms: C10_10  and  N11_11 
ROOT
HETATM    1  C1  UNL     1     -32.132  18.980   0.165  1.00 20.00     0.015 C 
HETATM    2  C2  UNL     1     -33.019  18.518  -0.500  1.00 20.00    -0.076 C 
HETATM    3  C8  UNL     1     -34.744  16.768  -0.573  1.00 20.00     0.063 C 
HETATM    4  C9  UNL     1     -35.169  19.023  -1.586  1.00 20.00     0.063 C 
HETATM    5  C10 UNL     1     -34.111  17.949  -1.316  1.00 20.00     0.214 C 
ENDROOT
BRANCH   5   6
HETATM    6  N11 UNL     1     -33.561  17.485  -2.590  1.00 20.00     0.110 N 
HETATM    7  C6  UNL     1     -34.157  18.234  -3.707  1.00 20.00     0.282 C 
HETATM    8  C4  UNL     1     -33.533  17.834  -5.041  1.00 20.00     0.108 C 
HETATM    9  C3  UNL     1     -33.583  16.336  -5.220  1.00 20.00     0.130 C 
HETATM   10  C5  UNL     1     -33.150  15.513  -4.030  1.00 20.00     0.108 C 
HETATM   11  O12 UNL     1     -33.851  15.819  -6.304  1.00 20.00    -0.298 OA
HETATM   12  C7  UNL     1     -33.795  16.042  -2.752  1.00 20.00     0.282 C 
ENDBRANCH   5   6
TORSDOF 1
ENDMDL
MODEL 5
REMARK VINA RESULT:      -4.4      2.585      4.575
REMARK  1 active torsions:
REMARK  status: ('A' for Active; 'I' for Inactive)
REMARK    1  A    between atoms: C10_10  and  N11_11 
ROOT
HETATM    1  C1  UNL     1     -34.367  15.102  -7.040  1.00 20.00     0.015 C 
HETATM    2  C2  UNL     1     -34.488  14.905  -5.862  1.00 20.00    -0.076 C 
HETATM    3  C8  UNL     1     -35.937  13.893  -4.152  1.00 20.00     0.063 C 
HETATM    4  C9  UNL     1     -33.442  13.855  -3.897  1.00 20.00     0.063 C 
HETATM    5  C10 UNL     1     -34.637  14.662  -4.412  1.00 20.00     0.214 C 
ENDROOT
BRANCH   5   6
HETATM    6  N11 UNL     1     -34.685  15.948  -3.716  1.00 20.00     0.110 N 
HETATM    7  C6  UNL     1     -33.601  16.824  -4.186  1.00 20.00     0.282 C 
HETATM    8  C4  UNL     1     -33.683  18.205  -3.544  1.00 20.00     0.108 C 
HETATM    9  C3  UNL     1     -33.756  18.086  -2.040  1.00 20.00     0.130 C 
HETATM   10  C5  UNL     1     -34.731  17.064  -1.506  1.00 20.00     0.108 C 
HETATM   11  O12 UNL     1     -33.145  18.851  -1.297  1.00 20.00    -0.298 OA
HETATM   12  C7  UNL     1     -34.591  15.745  -2.262  1.00 20.00     0.282 C 
ENDBRANCH   5   6
TORSDOF 1
ENDMDL
MODEL 6
REMARK VINA RESULT:      -4.4      2.214      2.842
REMARK  1 active torsions:
REMARK  status: ('A' for Active; 'I' for Inactive)
REMARK    1  A    between atoms: C10_10  and  N11_11 
ROOT
HETATM    1  C1  UNL     1     -34.739  16.393  -1.266  1.00 20.00     0.015 C 
HETATM    2  C2  UNL     1     -34.332  16.211  -2.380  1.00 20.00    -0.076 C 
HETATM    3  C8  UNL     1     -33.427  17.329  -4.375  1.00 20.00     0.063 C 
HETATM    4  C9  UNL     1     -32.621  15.047  -3.714  1.00 20.00     0.063 C 
HETATM    5  C10 UNL     1     -33.830  15.988  -3.752  1.00 20.00     0.214 C 
ENDROOT
BRANCH   5   6
HETATM    6  N11 UNL     1     -34.890  15.377  -4.554  1.00 20.00     0.110 N 
HETATM    7  C6  UNL     1     -34.379  15.012  -5.884  1.00 20.00     0.282 C 
HETATM    8  C4  UNL     1     -35.440  14.289  -6.708  1.00 20.00     0.108 C 
HETATM    9  C3  UNL     1     -36.717  15.092  -6.749  1.00 20.00     0.130 C 
HETATM   10  C5  UNL     1     -37.191  15.647  -5.427  1.00 20.00     0.108 C 
HETATM   11  O12 UNL     1     -37.390  15.193  -7.774  1.00 20.00    -0.298 OA
HETATM   12  C7  UNL     1     -36.033  16.295  -4.673  1.00 20.00     0.282 C 
ENDBRANCH   5   6
TORSDOF 1
ENDMDL
MODEL 7
REMARK VINA RESULT:      -4.3      2.277      3.344
REMARK  1 active torsions:
REMARK  status: ('A' for Active; 'I' for Inactive)
REMARK    1  A    between atoms: C10_10  and  N11_11 
ROOT
HETATM    1  C1  UNL     1     -34.469  16.593  -1.048  1.00 20.00     0.015 C 
HETATM    2  C2  UNL     1     -34.461  16.140  -2.160  1.00 20.00    -0.076 C 
HETATM    3  C8  UNL     1     -33.350  16.263  -4.350  1.00 20.00     0.063 C 
HETATM    4  C9  UNL     1     -34.199  14.072  -3.471  1.00 20.00     0.063 C 
HETATM    5  C10 UNL     1     -34.450  15.583  -3.528  1.00 20.00     0.214 C 
ENDROOT
BRANCH   5   6
HETATM    6  N11 UNL     1     -35.750  15.830  -4.154  1.00 20.00     0.110 N 
HETATM    7  C6  UNL     1     -36.664  14.707  -3.895  1.00 20.00     0.282 C 
HETATM    8  C4  UNL     1     -38.055  14.982  -4.458  1.00 20.00     0.108 C 
HETATM    9  C3  UNL     1     -37.970  15.370  -5.915  1.00 20.00     0.130 C 
HETATM   10  C5  UNL     1     -36.916  16.394  -6.264  1.00 20.00     0.108 C 
HETATM   11  O12 UNL     1     -38.781  14.964  -6.745  1.00 20.00    -0.298 OA
HETATM   12  C7  UNL     1     -35.587  16.042  -5.601  1.00 20.00     0.282 C 
ENDBRANCH   5   6
TORSDOF 1
ENDMDL
MODEL 8
REMARK VINA RESULT:      -4.3      1.595      2.921
REMARK  1 active torsions:
REMARK  status: ('A' for Active; 'I' for Inactive)
REMARK    1  A    between atoms: C10_10  and  N11_11 
ROOT
HETATM    1  C1  UNL     1     -33.698  19.192  -6.860  1.00 20.00     0.015 C 
HETATM    2  C2  UNL     1     -34.051  18.607  -5.873  1.00 20.00    -0.076 C 
HETATM    3  C8  UNL     1     -33.751  18.453  -3.438  1.00 20.00     0.063 C 
HETATM    4  C9  UNL     1     -35.998  18.046  -4.475  1.00 20.00     0.063 C 
HETATM    5  C10 UNL     1     -34.485  17.887  -4.658  1.00 20.00     0.214 C 
ENDROOT
BRANCH   5   6
HETATM    6  N11 UNL     1     -34.165  16.467  -4.805  1.00 20.00     0.110 N 
HETATM    7  C6  UNL     1     -35.115  15.822  -5.725  1.00 20.00     0.282 C 
HETATM    8  C4  UNL     1     -34.748  14.361  -5.968  1.00 20.00     0.108 C 
HETATM    9  C3  UNL     1     -34.583  13.631  -4.657  1.00 20.00     0.130 C 
HETATM   10  C5  UNL     1     -33.761  14.339  -3.607  1.00 20.00     0.108 C 
HETATM   11  O12 UNL     1     -34.996  12.484  -4.495  1.00 20.00    -0.298 OA
HETATM   12  C7  UNL     1     -34.182  15.801  -3.494  1.00 20.00     0.282 C 
ENDBRANCH   5   6
TORSDOF 1
ENDMDL
MODEL 9
REMARK VINA RESULT:      -4.3      2.629      4.642
REMARK  1 active torsions:
REMARK  status: ('A' for Active; 'I' for Inactive)
REMARK    1  A    between atoms: C10_10  and  N11_11 
ROOT
HETATM    1  C1  UNL     1     -34.780  14.772  -7.435  1.00 20.00     0.015 C 
HETATM    2  C2  UNL     1     -35.036  14.750  -6.262  1.00 20.00    -0.076 C 
HETATM    3  C8  UNL     1     -36.837  15.049  -4.614  1.00 20.00     0.063 C 
HETATM    4  C9  UNL     1     -35.042  13.336  -4.247  1.00 20.00     0.063 C 
HETATM    5  C10 UNL     1     -35.354  14.722  -4.820  1.00 20.00     0.214 C 
ENDROOT
BRANCH   5   6
HETATM    6  N11 UNL     1     -34.534  15.721  -4.133  1.00 20.00     0.110 N 
HETATM    7  C6  UNL     1     -34.808  15.701  -2.688  1.00 20.00     0.282 C 
HETATM    8  C4  UNL     1     -33.900  16.669  -1.936  1.00 20.00     0.108 C 
HETATM    9  C3  UNL     1     -33.974  18.047  -2.547  1.00 20.00     0.130 C 
HETATM   10  C5  UNL     1     -33.880  18.108  -4.053  1.00 20.00     0.108 C 
HETATM   11  O12 UNL     1     -33.996  19.065  -1.857  1.00 20.00    -0.298 OA
HETATM   12  C7  UNL     1     -34.789  17.059  -4.688  1.00 20.00     0.282 C 
ENDBRANCH   5   6
TORSDOF 1
ENDMDL
