MODEL 1
REMARK VINA RESULT:      -4.4      0.000      0.000
REMARK  3 active torsions:
REMARK  status: ('A' for Active; 'I' for Inactive)
REMARK    1  A    between atoms: C7_7  and  C8_8 
REMARK    2  A    between atoms: C8_8  and  N11_11 
REMARK    3  A    between atoms: C9_9  and  N11_11 
ROOT
HETATM    1  C1  UNL     1     -34.418  16.653  -0.934  1.00 20.00     0.015 C 
HETATM    2  C2  UNL     1     -34.432  16.228  -2.058  1.00 20.00    -0.076 C 
HETATM    3  C5  UNL     1     -33.292  16.319  -4.235  1.00 20.00     0.063 C 
HETATM    4  C6  UNL     1     -34.314  14.179  -3.418  1.00 20.00     0.063 C 
HETATM    5  C9  UNL     1     -34.449  15.706  -3.440  1.00 20.00     0.213 C 
ENDROOT
BRANCH   5   6
HETATM    6  N11 UNL     1     -35.707  16.064  -4.065  1.00 20.00     0.122 N 
HETATM    7  H25 UNL     1     -36.361  16.393  -3.353  1.00 20.00     0.319 HD
BRANCH   6   8
HETATM    8  C8  UNL     1     -36.296  14.922  -4.757  1.00 20.00     0.327 C 
HETATM    9  C3  UNL     1     -37.632  14.626  -4.220  1.00 20.00     0.095 C 
HETATM   10  N10 UNL     1     -38.685  14.388  -3.793  1.00 20.00    -0.195 NA
BRANCH   8  11
HETATM   11  C7  UNL     1     -36.312  15.138  -6.276  1.00 20.00     0.046 C 
HETATM   12  C4  UNL     1     -35.216  14.395  -7.035  1.00 20.00     0.008 C 
ENDBRANCH   8  11
ENDBRANCH   6   8
ENDBRANCH   5   6
TORSDOF 3
ENDMDL
MODEL 2
REMARK VINA RESULT:      -4.3      1.652      2.463
REMARK  3 active torsions:
REMARK  status: ('A' for Active; 'I' for Inactive)
REMARK    1  A    between atoms: C7_7  and  C8_8 
REMARK    2  A    between atoms: C8_8  and  N11_11 
REMARK    3  A    between atoms: C9_9  and  N11_11 
ROOT
HETATM    1  C1  UNL     1     -34.799  17.111  -0.020  1.00 20.00     0.015 C 
HETATM    2  C2  UNL     1     -34.844  16.809  -1.182  1.00 20.00    -0.076 C 
HETATM    3  C5  UNL     1     -35.291  17.667  -3.444  1.00 20.00     0.063 C 
HETATM    4  C6  UNL     1     -33.533  15.918  -3.065  1.00 20.00     0.063 C 
HETATM    5  C9  UNL     1     -34.901  16.441  -2.611  1.00 20.00     0.213 C 
ENDROOT
BRANCH   5   6
HETATM    6  N11 UNL     1     -35.893  15.399  -2.792  1.00 20.00     0.122 N 
HETATM    7  H25 UNL     1     -35.634  14.581  -2.237  1.00 20.00     0.319 HD
BRANCH   6   8
HETATM    8  C8  UNL     1     -35.997  15.007  -4.194  1.00 20.00     0.327 C 
HETATM    9  C3  UNL     1     -35.418  13.672  -4.400  1.00 20.00     0.095 C 
HETATM   10  N10 UNL     1     -34.956  12.620  -4.566  1.00 20.00    -0.195 NA
BRANCH   8  11
HETATM   11  C7  UNL     1     -37.445  15.099  -4.692  1.00 20.00     0.046 C 
HETATM   12  C4  UNL     1     -38.503  14.943  -3.604  1.00 20.00     0.008 C 
ENDBRANCH   8  11
ENDBRANCH   6   8
ENDBRANCH   5   6
TORSDOF 3
ENDMDL
MODEL 3
REMARK VINA RESULT:      -4.2      2.278      4.454
REMARK  3 active torsions:
REMARK  status: ('A' for Active; 'I' for Inactive)
REMARK    1  A    between atoms: C7_7  and  C8_8 
REMARK    2  A    between atoms: C8_8  and  N11_11 
REMARK    3  A    between atoms: C9_9  and  N11_11 
ROOT
HETATM    1  C1  UNL     1     -34.706  14.842  -7.544  1.00 20.00     0.015 C 
HETATM    2  C2  UNL     1     -34.591  15.737  -6.752  1.00 20.00    -0.076 C 
HETATM    3  C5  UNL     1     -34.024  18.118  -6.509  1.00 20.00     0.063 C 
HETATM    4  C6  UNL     1     -35.782  17.070  -5.059  1.00 20.00     0.063 C 
HETATM    5  C9  UNL     1     -34.449  16.840  -5.779  1.00 20.00     0.213 C 
ENDROOT
BRANCH   5   6
HETATM    6  N11 UNL     1     -33.437  16.482  -4.804  1.00 20.00     0.122 N 
HETATM    7  H25 UNL     1     -32.742  15.874  -5.240  1.00 20.00     0.319 HD
BRANCH   6   8
HETATM    8  C8  UNL     1     -34.026  15.785  -3.664  1.00 20.00     0.327 C 
HETATM    9  C3  UNL     1     -33.689  14.355  -3.704  1.00 20.00     0.095 C 
HETATM   10  N10 UNL     1     -33.427  13.225  -3.736  1.00 20.00    -0.195 NA
BRANCH   8  11
HETATM   11  C7  UNL     1     -33.624  16.444  -2.339  1.00 20.00     0.046 C 
HETATM   12  C4  UNL     1     -34.699  16.404  -1.257  1.00 20.00     0.008 C 
ENDBRANCH   8  11
ENDBRANCH   6   8
ENDBRANCH   5   6
TORSDOF 3
ENDMDL
MODEL 4
REMARK VINA RESULT:      -4.2      1.871      4.622
REMARK  3 active torsions:
REMARK  status: ('A' for Active; 'I' for Inactive)
REMARK    1  A    between atoms: C7_7  and  C8_8 
REMARK    2  A    between atoms: C8_8  and  N11_11 
REMARK    3  A    between atoms: C9_9  and  N11_11 
ROOT
HETATM    1  C1  UNL     1     -34.332  15.292  -6.944  1.00 20.00     0.015 C 
HETATM    2  C2  UNL     1     -34.368  15.002  -5.778  1.00 20.00    -0.076 C 
HETATM    3  C5  UNL     1     -35.183  13.332  -4.168  1.00 20.00     0.063 C 
HETATM    4  C6  UNL     1     -32.987  14.488  -3.806  1.00 20.00     0.063 C 
HETATM    5  C9  UNL     1     -34.413  14.644  -4.346  1.00 20.00     0.213 C 
ENDROOT
BRANCH   5   6
HETATM    6  N11 UNL     1     -35.086  15.701  -3.616  1.00 20.00     0.122 N 
HETATM    7  H25 UNL     1     -35.495  16.365  -4.275  1.00 20.00     0.319 HD
BRANCH   6   8
HETATM    8  C8  UNL     1     -34.157  16.413  -2.743  1.00 20.00     0.327 C 
HETATM    9  C3  UNL     1     -33.889  17.760  -3.264  1.00 20.00     0.095 C 
HETATM   10  N10 UNL     1     -33.673  18.823  -3.678  1.00 20.00    -0.195 NA
BRANCH   8  11
HETATM   11  C7  UNL     1     -34.661  16.436  -1.294  1.00 20.00     0.046 C 
HETATM   12  C4  UNL     1     -34.041  17.525  -0.423  1.00 20.00     0.008 C 
ENDBRANCH   8  11
ENDBRANCH   6   8
ENDBRANCH   5   6
TORSDOF 3
ENDMDL
MODEL 5
REMARK VINA RESULT:      -4.1      1.906      2.429
REMARK  3 active torsions:
REMARK  status: ('A' for Active; 'I' for Inactive)
REMARK    1  A    between atoms: C7_7  and  C8_8 
REMARK    2  A    between atoms: C8_8  and  N11_11 
REMARK    3  A    between atoms: C9_9  and  N11_11 
ROOT
HETATM    1  C1  UNL     1     -34.683  16.162  -1.879  1.00 20.00     0.015 C 
HETATM    2  C2  UNL     1     -34.724  16.516  -3.027  1.00 20.00    -0.076 C 
HETATM    3  C5  UNL     1     -35.543  18.275  -4.537  1.00 20.00     0.063 C 
HETATM    4  C6  UNL     1     -33.353  17.134  -4.975  1.00 20.00     0.063 C 
HETATM    5  C9  UNL     1     -34.776  16.952  -4.437  1.00 20.00     0.213 C 
ENDROOT
BRANCH   5   6
HETATM    6  N11 UNL     1     -35.456  15.940  -5.220  1.00 20.00     0.122 N 
HETATM    7  H25 UNL     1     -36.163  15.480  -4.644  1.00 20.00     0.319 HD
BRANCH   6   8
HETATM    8  C8  UNL     1     -34.519  14.935  -5.711  1.00 20.00     0.327 C 
HETATM    9  C3  UNL     1     -34.736  13.650  -5.031  1.00 20.00     0.095 C 
HETATM   10  N10 UNL     1     -34.904  12.636  -4.491  1.00 20.00    -0.195 NA
BRANCH   8  11
HETATM   11  C7  UNL     1     -34.587  14.806  -7.238  1.00 20.00     0.046 C 
HETATM   12  C4  UNL     1     -35.984  14.977  -7.828  1.00 20.00     0.008 C 
ENDBRANCH   8  11
ENDBRANCH   6   8
ENDBRANCH   5   6
TORSDOF 3
ENDMDL
MODEL 6
REMARK VINA RESULT:      -4.1      1.961      3.070
REMARK  3 active torsions:
REMARK  status: ('A' for Active; 'I' for Inactive)
REMARK    1  A    between atoms: C7_7  and  C8_8 
REMARK    2  A    between atoms: C8_8  and  N11_11 
REMARK    3  A    between atoms: C9_9  and  N11_11 
ROOT
HETATM    1  C1  UNL     1     -34.658  16.470  -1.141  1.00 20.00     0.015 C 
HETATM    2  C2  UNL     1     -34.455  15.962  -2.210  1.00 20.00    -0.076 C 
HETATM    3  C5  UNL     1     -32.694  15.249  -3.773  1.00 20.00     0.063 C 
HETATM    4  C6  UNL     1     -34.819  13.933  -3.556  1.00 20.00     0.063 C 
HETATM    5  C9  UNL     1     -34.204  15.337  -3.525  1.00 20.00     0.213 C 
ENDROOT
BRANCH   5   6
HETATM    6  N11 UNL     1     -34.817  16.149  -4.558  1.00 20.00     0.122 N 
HETATM    7  H25 UNL     1     -35.660  15.686  -4.901  1.00 20.00     0.319 HD
BRANCH   6   8
HETATM    8  C8  UNL     1     -33.902  16.356  -5.677  1.00 20.00     0.327 C 
HETATM    9  C3  UNL     1     -34.292  15.522  -6.823  1.00 20.00     0.095 C 
HETATM   10  N10 UNL     1     -34.596  14.861  -7.727  1.00 20.00    -0.195 NA
BRANCH   8  11
HETATM   11  C7  UNL     1     -33.799  17.842  -6.044  1.00 20.00     0.046 C 
HETATM   12  C4  UNL     1     -33.538  18.772  -4.863  1.00 20.00     0.008 C 
ENDBRANCH   8  11
ENDBRANCH   6   8
ENDBRANCH   5   6
TORSDOF 3
ENDMDL
MODEL 7
REMARK VINA RESULT:      -4.1      2.172      2.596
REMARK  3 active torsions:
REMARK  status: ('A' for Active; 'I' for Inactive)
REMARK    1  A    between atoms: C7_7  and  C8_8 
REMARK    2  A    between atoms: C8_8  and  N11_11 
REMARK    3  A    between atoms: C9_9  and  N11_11 
ROOT
HETATM    1  C1  UNL     1     -34.511  16.254  -1.814  1.00 20.00     0.015 C 
HETATM    2  C2  UNL     1     -34.301  15.510  -2.734  1.00 20.00    -0.076 C 
HETATM    3  C5  UNL     1     -32.936  13.605  -3.480  1.00 20.00     0.063 C 
HETATM    4  C6  UNL     1     -35.323  13.832  -4.217  1.00 20.00     0.063 C 
HETATM    5  C9  UNL     1     -34.041  14.595  -3.864  1.00 20.00     0.213 C 
ENDROOT
BRANCH   5   6
HETATM    6  N11 UNL     1     -33.617  15.371  -5.012  1.00 20.00     0.122 N 
HETATM    7  H25 UNL     1     -33.162  16.229  -4.696  1.00 20.00     0.319 HD
BRANCH   6   8
HETATM    8  C8  UNL     1     -34.752  15.723  -5.860  1.00 20.00     0.327 C 
HETATM    9  C3  UNL     1     -35.056  17.156  -5.746  1.00 20.00     0.095 C 
HETATM   10  N10 UNL     1     -35.299  18.288  -5.654  1.00 20.00    -0.195 NA
BRANCH   8  11
HETATM   11  C7  UNL     1     -34.520  15.287  -7.312  1.00 20.00     0.046 C 
HETATM   12  C4  UNL     1     -35.652  14.461  -7.916  1.00 20.00     0.008 C 
ENDBRANCH   8  11
ENDBRANCH   6   8
ENDBRANCH   5   6
TORSDOF 3
ENDMDL
MODEL 8
REMARK VINA RESULT:      -4.0      2.284      4.095
REMARK  3 active torsions:
REMARK  status: ('A' for Active; 'I' for Inactive)
REMARK    1  A    between atoms: C7_7  and  C8_8 
REMARK    2  A    between atoms: C8_8  and  N11_11 
REMARK    3  A    between atoms: C9_9  and  N11_11 
ROOT
HETATM    1  C1  UNL     1     -33.547  19.178  -5.934  1.00 20.00     0.015 C 
HETATM    2  C2  UNL     1     -34.034  18.094  -6.107  1.00 20.00    -0.076 C 
HETATM    3  C5  UNL     1     -35.976  16.678  -5.583  1.00 20.00     0.063 C 
HETATM    4  C6  UNL     1     -34.847  16.521  -7.817  1.00 20.00     0.063 C 
HETATM    5  C9  UNL     1     -34.634  16.760  -6.318  1.00 20.00     0.213 C 
ENDROOT
BRANCH   5   6
HETATM    6  N11 UNL     1     -33.735  15.750  -5.797  1.00 20.00     0.122 N 
HETATM    7  H25 UNL     1     -33.647  14.989  -6.473  1.00 20.00     0.319 HD
BRANCH   6   8
HETATM    8  C8  UNL     1     -34.226  15.207  -4.535  1.00 20.00     0.327 C 
HETATM    9  C3  UNL     1     -34.472  13.762  -4.655  1.00 20.00     0.095 C 
HETATM   10  N10 UNL     1     -34.671  12.623  -4.751  1.00 20.00    -0.195 NA
BRANCH   8  11
HETATM   11  C7  UNL     1     -33.279  15.544  -3.376  1.00 20.00     0.046 C 
HETATM   12  C4  UNL     1     -33.880  16.454  -2.309  1.00 20.00     0.008 C 
ENDBRANCH   8  11
ENDBRANCH   6   8
ENDBRANCH   5   6
TORSDOF 3
ENDMDL
MODEL 9
REMARK VINA RESULT:      -4.0      1.593      2.405
REMARK  3 active torsions:
REMARK  status: ('A' for Active; 'I' for Inactive)
REMARK    1  A    between atoms: C7_7  and  C8_8 
REMARK    2  A    between atoms: C8_8  and  N11_11 
REMARK    3  A    between atoms: C9_9  and  N11_11 
ROOT
HETATM    1  C1  UNL     1     -34.537  16.390  -1.382  1.00 20.00     0.015 C 
HETATM    2  C2  UNL     1     -34.149  16.002  -2.451  1.00 20.00    -0.076 C 
HETATM    3  C5  UNL     1     -33.346  16.728  -4.660  1.00 20.00     0.063 C 
HETATM    4  C6  UNL     1     -32.424  14.659  -3.582  1.00 20.00     0.063 C 
HETATM    5  C9  UNL     1     -33.674  15.527  -3.767  1.00 20.00     0.213 C 
ENDROOT
BRANCH   5   6
HETATM    6  N11 UNL     1     -34.717  14.734  -4.388  1.00 20.00     0.122 N 
HETATM    7  H25 UNL     1     -34.299  13.930  -4.860  1.00 20.00     0.319 HD
BRANCH   6   8
HETATM    8  C8  UNL     1     -35.467  15.520  -5.363  1.00 20.00     0.327 C 
HETATM    9  C3  UNL     1     -35.499  14.834  -6.663  1.00 20.00     0.095 C 
HETATM   10  N10 UNL     1     -35.521  14.296  -7.691  1.00 20.00    -0.195 NA
BRANCH   8  11
HETATM   11  C7  UNL     1     -36.871  15.858  -4.846  1.00 20.00     0.046 C 
HETATM   12  C4  UNL     1     -37.447  14.844  -3.862  1.00 20.00     0.008 C 
ENDBRANCH   8  11
ENDBRANCH   6   8
ENDBRANCH   5   6
TORSDOF 3
ENDMDL
