MODEL 1
REMARK VINA RESULT:      -4.2      0.000      0.000
REMARK  2 active torsions:
REMARK  status: ('A' for Active; 'I' for Inactive)
REMARK    1  A    between atoms: C4_4  and  C5_5 
REMARK    2  A    between atoms: C5_5  and  N6_6 
ROOT
HETATM    1  C1  UNL     1     -34.874   4.364   5.860  1.00 20.00     0.012 C 
HETATM    2  C2  UNL     1     -34.657   5.210   5.036  1.00 20.00    -0.116 C 
HETATM    3  C4  UNL     1     -34.397   6.248   4.028  1.00 20.00     0.115 C 
ENDROOT
BRANCH   3   4
HETATM    4  C5  UNL     1     -33.181   5.916   3.172  1.00 20.00     0.162 C 
BRANCH   4   5
HETATM    5  N6  UNL     1     -32.160   6.953   3.339  1.00 20.00    -0.275 NA
HETATM    6  C3  UNL     1     -32.126   7.755   2.481  1.00 20.00     0.157 C 
HETATM    7  S7  UNL     1     -32.059   8.856   1.332  1.00 20.00    -0.055 SA
ENDBRANCH   4   5
ENDBRANCH   3   4
TORSDOF 2
ENDMDL
MODEL 2
REMARK VINA RESULT:      -4.1      2.818      4.614
REMARK  2 active torsions:
REMARK  status: ('A' for Active; 'I' for Inactive)
REMARK    1  A    between atoms: C4_4  and  C5_5 
REMARK    2  A    between atoms: C5_5  and  N6_6 
ROOT
HETATM    1  C1  UNL     1     -32.160   8.951   1.133  1.00 20.00     0.012 C 
HETATM    2  C2  UNL     1     -32.038   8.211   2.070  1.00 20.00    -0.116 C 
HETATM    3  C4  UNL     1     -31.885   7.307   3.220  1.00 20.00     0.115 C 
ENDROOT
BRANCH   3   4
HETATM    4  C5  UNL     1     -32.875   6.150   3.168  1.00 20.00     0.162 C 
BRANCH   4   5
HETATM    5  N6  UNL     1     -34.037   6.454   4.006  1.00 20.00    -0.275 NA
HETATM    6  C3  UNL     1     -34.344   5.601   4.754  1.00 20.00     0.157 C 
HETATM    7  S7  UNL     1     -34.781   4.462   5.777  1.00 20.00    -0.055 SA
ENDBRANCH   4   5
ENDBRANCH   3   4
TORSDOF 2
ENDMDL
MODEL 3
REMARK VINA RESULT:      -4.0      1.178      1.288
REMARK  2 active torsions:
REMARK  status: ('A' for Active; 'I' for Inactive)
REMARK    1  A    between atoms: C4_4  and  C5_5 
REMARK    2  A    between atoms: C5_5  and  N6_6 
ROOT
HETATM    1  C1  UNL     1     -34.388   5.902   6.629  1.00 20.00     0.012 C 
HETATM    2  C2  UNL     1     -34.690   5.427   5.568  1.00 20.00    -0.116 C 
HETATM    3  C4  UNL     1     -35.062   4.843   4.272  1.00 20.00     0.115 C 
ENDROOT
BRANCH   3   4
HETATM    4  C5  UNL     1     -34.363   5.540   3.112  1.00 20.00     0.162 C 
BRANCH   4   5
HETATM    5  N6  UNL     1     -33.030   5.983   3.530  1.00 20.00    -0.275 NA
HETATM    6  C3  UNL     1     -32.610   6.908   2.940  1.00 20.00     0.157 C 
HETATM    7  S7  UNL     1     -32.015   8.160   2.157  1.00 20.00    -0.055 SA
ENDBRANCH   4   5
ENDBRANCH   3   4
TORSDOF 2
ENDMDL
MODEL 4
REMARK VINA RESULT:      -3.5      2.968      3.980
REMARK  2 active torsions:
REMARK  status: ('A' for Active; 'I' for Inactive)
REMARK    1  A    between atoms: C4_4  and  C5_5 
REMARK    2  A    between atoms: C5_5  and  N6_6 
ROOT
HETATM    1  C1  UNL     1     -32.544   6.164   2.896  1.00 20.00     0.012 C 
HETATM    2  C2  UNL     1     -33.634   5.817   3.261  1.00 20.00    -0.116 C 
HETATM    3  C4  UNL     1     -34.971   5.396   3.704  1.00 20.00     0.115 C 
ENDROOT
BRANCH   3   4
HETATM    4  C5  UNL     1     -34.900   4.334   4.794  1.00 20.00     0.162 C 
BRANCH   4   5
HETATM    5  N6  UNL     1     -35.168   4.944   6.099  1.00 20.00    -0.275 NA
HETATM    6  C3  UNL     1     -34.485   5.862   6.364  1.00 20.00     0.157 C 
HETATM    7  S7  UNL     1     -33.572   7.109   6.749  1.00 20.00    -0.055 SA
ENDBRANCH   4   5
ENDBRANCH   3   4
TORSDOF 2
ENDMDL
MODEL 5
REMARK VINA RESULT:      -3.5     11.229     11.428
REMARK  2 active torsions:
REMARK  status: ('A' for Active; 'I' for Inactive)
REMARK    1  A    between atoms: C4_4  and  C5_5 
REMARK    2  A    between atoms: C5_5  and  N6_6 
ROOT
HETATM    1  C1  UNL     1     -34.700  17.395   0.202  1.00 20.00     0.012 C 
HETATM    2  C2  UNL     1     -34.707  16.722  -0.792  1.00 20.00    -0.116 C 
HETATM    3  C4  UNL     1     -34.719  15.893  -2.007  1.00 20.00     0.115 C 
ENDROOT
BRANCH   3   4
HETATM    4  C5  UNL     1     -33.645  16.324  -2.998  1.00 20.00     0.162 C 
BRANCH   4   5
HETATM    5  N6  UNL     1     -33.002  15.141  -3.576  1.00 20.00    -0.275 NA
HETATM    6  C3  UNL     1     -33.736  14.380  -4.088  1.00 20.00     0.157 C 
HETATM    7  S7  UNL     1     -34.708  13.332  -4.789  1.00 20.00    -0.055 SA
ENDBRANCH   4   5
ENDBRANCH   3   4
TORSDOF 2
ENDMDL
MODEL 6
REMARK VINA RESULT:      -3.5     11.025     11.496
REMARK  2 active torsions:
REMARK  status: ('A' for Active; 'I' for Inactive)
REMARK    1  A    between atoms: C4_4  and  C5_5 
REMARK    2  A    between atoms: C5_5  and  N6_6 
ROOT
HETATM    1  C1  UNL     1     -34.468  16.678  -1.031  1.00 20.00     0.012 C 
HETATM    2  C2  UNL     1     -34.769  15.989  -1.966  1.00 20.00    -0.116 C 
HETATM    3  C4  UNL     1     -35.143  15.146  -3.112  1.00 20.00     0.115 C 
ENDROOT
BRANCH   3   4
HETATM    4  C5  UNL     1     -34.088  14.088  -3.406  1.00 20.00     0.162 C 
BRANCH   4   5
HETATM    5  N6  UNL     1     -34.572  13.183  -4.452  1.00 20.00    -0.275 NA
HETATM    6  C3  UNL     1     -34.854  13.706  -5.465  1.00 20.00     0.157 C 
HETATM    7  S7  UNL     1     -35.244  14.389  -6.850  1.00 20.00    -0.055 SA
ENDBRANCH   4   5
ENDBRANCH   3   4
TORSDOF 2
ENDMDL
MODEL 7
REMARK VINA RESULT:      -3.4     11.891     12.228
REMARK  2 active torsions:
REMARK  status: ('A' for Active; 'I' for Inactive)
REMARK    1  A    between atoms: C4_4  and  C5_5 
REMARK    2  A    between atoms: C5_5  and  N6_6 
ROOT
HETATM    1  C1  UNL     1     -34.556  16.775  -0.878  1.00 20.00     0.012 C 
HETATM    2  C2  UNL     1     -34.511  16.073  -1.851  1.00 20.00    -0.116 C 
HETATM    3  C4  UNL     1     -34.461  15.212  -3.042  1.00 20.00     0.115 C 
ENDROOT
BRANCH   3   4
HETATM    4  C5  UNL     1     -33.073  15.192  -3.670  1.00 20.00     0.162 C 
BRANCH   4   5
HETATM    5  N6  UNL     1     -32.923  16.334  -4.576  1.00 20.00    -0.275 NA
HETATM    6  C3  UNL     1     -33.608  16.300  -5.530  1.00 20.00     0.157 C 
HETATM    7  S7  UNL     1     -34.525  16.281  -6.831  1.00 20.00    -0.055 SA
ENDBRANCH   4   5
ENDBRANCH   3   4
TORSDOF 2
ENDMDL
MODEL 8
REMARK VINA RESULT:      -3.2     10.795     11.523
REMARK  2 active torsions:
REMARK  status: ('A' for Active; 'I' for Inactive)
REMARK    1  A    between atoms: C4_4  and  C5_5 
REMARK    2  A    between atoms: C5_5  and  N6_6 
ROOT
HETATM    1  C1  UNL     1     -33.951  16.727  -1.734  1.00 20.00     0.012 C 
HETATM    2  C2  UNL     1     -33.679  16.039  -2.680  1.00 20.00    -0.116 C 
HETATM    3  C4  UNL     1     -33.346  15.200  -3.840  1.00 20.00     0.115 C 
ENDROOT
BRANCH   3   4
HETATM    4  C5  UNL     1     -33.604  13.724  -3.568  1.00 20.00     0.162 C 
BRANCH   4   5
HETATM    5  N6  UNL     1     -34.707  13.250  -4.407  1.00 20.00    -0.275 NA
HETATM    6  C3  UNL     1     -35.711  13.847  -4.285  1.00 20.00     0.157 C 
HETATM    7  S7  UNL     1     -37.086  14.638  -4.140  1.00 20.00    -0.055 SA
ENDBRANCH   4   5
ENDBRANCH   3   4
TORSDOF 2
ENDMDL
MODEL 9
REMARK VINA RESULT:      -3.2     10.954     11.860
REMARK  2 active torsions:
REMARK  status: ('A' for Active; 'I' for Inactive)
REMARK    1  A    between atoms: C4_4  and  C5_5 
REMARK    2  A    between atoms: C5_5  and  N6_6 
ROOT
HETATM    1  C1  UNL     1     -34.946  14.472  -6.912  1.00 20.00     0.012 C 
HETATM    2  C2  UNL     1     -34.885  14.062  -5.785  1.00 20.00    -0.116 C 
HETATM    3  C4  UNL     1     -34.816  13.559  -4.405  1.00 20.00     0.115 C 
ENDROOT
BRANCH   3   4
HETATM    4  C5  UNL     1     -33.473  13.865  -3.755  1.00 20.00     0.162 C 
BRANCH   4   5
HETATM    5  N6  UNL     1     -33.297  15.315  -3.640  1.00 20.00    -0.275 NA
HETATM    6  C3  UNL     1     -33.853  15.808  -2.730  1.00 20.00     0.157 C 
HETATM    7  S7  UNL     1     -34.596  16.504  -1.505  1.00 20.00    -0.055 SA
ENDBRANCH   4   5
ENDBRANCH   3   4
TORSDOF 2
ENDMDL
