MODEL 1
REMARK VINA RESULT:      -4.3      0.000      0.000
REMARK  1 active torsions:
REMARK  status: ('A' for Active; 'I' for Inactive)
REMARK    1  A    between atoms: C7_7  and  N9_9 
ROOT
HETATM    1  C1  UNL     1     -34.258  13.574  -4.121  1.00 20.00     0.089 C 
HETATM    2  C7  UNL     1     -33.433  14.615  -3.510  1.00 20.00     0.396 C 
HETATM    3  N8  UNL     1     -34.912  12.745  -4.604  1.00 20.00    -0.195 NA
ENDROOT
BRANCH   2   4
HETATM    4  N9  UNL     1     -33.934  15.950  -3.857  1.00 20.00     0.107 N 
HETATM    5  C2  UNL     1     -33.194  16.442  -5.034  1.00 20.00     0.284 C 
HETATM    6  C3  UNL     1     -33.777  17.721  -5.626  1.00 20.00     0.104 C 
HETATM    7  S10 UNL     1     -33.681  19.086  -4.446  1.00 20.00    -0.165 SA
HETATM    8  C4  UNL     1     -34.499  18.252  -3.061  1.00 20.00     0.109 C 
HETATM    9  C5  UNL     1     -33.847  16.899  -2.719  1.00 20.00     0.229 C 
HETATM   10  C6  UNL     1     -34.545  16.367  -1.455  1.00 20.00     0.043 C 
ENDBRANCH   2   4
TORSDOF 1
ENDMDL
MODEL 2
REMARK VINA RESULT:      -4.0      1.499      1.586
REMARK  1 active torsions:
REMARK  status: ('A' for Active; 'I' for Inactive)
REMARK    1  A    between atoms: C7_7  and  N9_9 
ROOT
HETATM    1  C1  UNL     1     -35.485  13.661  -4.181  1.00 20.00     0.089 C 
HETATM    2  C7  UNL     1     -36.323  14.742  -3.665  1.00 20.00     0.396 C 
HETATM    3  N8  UNL     1     -34.822  12.801  -4.589  1.00 20.00    -0.195 NA
ENDROOT
BRANCH   2   4
HETATM    4  N9  UNL     1     -35.757  16.053  -4.010  1.00 20.00     0.107 N 
HETATM    5  C2  UNL     1     -35.567  16.117  -5.471  1.00 20.00     0.284 C 
HETATM    6  C3  UNL     1     -35.197  17.508  -5.974  1.00 20.00     0.104 C 
HETATM    7  S10 UNL     1     -33.607  18.040  -5.303  1.00 20.00    -0.165 SA
HETATM    8  C4  UNL     1     -33.989  17.761  -3.554  1.00 20.00     0.109 C 
HETATM    9  C5  UNL     1     -34.494  16.332  -3.281  1.00 20.00     0.229 C 
HETATM   10  C6  UNL     1     -34.652  16.190  -1.757  1.00 20.00     0.043 C 
ENDBRANCH   2   4
TORSDOF 1
ENDMDL
MODEL 3
REMARK VINA RESULT:      -3.8      1.711      2.855
REMARK  1 active torsions:
REMARK  status: ('A' for Active; 'I' for Inactive)
REMARK    1  A    between atoms: C7_7  and  N9_9 
ROOT
HETATM    1  C1  UNL     1     -36.559  14.187  -4.005  1.00 20.00     0.089 C 
HETATM    2  C7  UNL     1     -35.136  13.942  -4.227  1.00 20.00     0.396 C 
HETATM    3  N8  UNL     1     -37.690  14.379  -3.829  1.00 20.00    -0.195 NA
ENDROOT
BRANCH   2   4
HETATM    4  N9  UNL     1     -34.346  15.147  -3.943  1.00 20.00     0.107 N 
HETATM    5  C2  UNL     1     -34.725  15.657  -2.612  1.00 20.00     0.284 C 
HETATM    6  C3  UNL     1     -33.815  16.772  -2.109  1.00 20.00     0.104 C 
HETATM    7  S10 UNL     1     -33.915  18.225  -3.179  1.00 20.00    -0.165 SA
HETATM    8  C4  UNL     1     -33.566  17.383  -4.745  1.00 20.00     0.109 C 
HETATM    9  C5  UNL     1     -34.503  16.185  -4.993  1.00 20.00     0.229 C 
HETATM   10  C6  UNL     1     -34.190  15.649  -6.401  1.00 20.00     0.043 C 
ENDBRANCH   2   4
TORSDOF 1
ENDMDL
MODEL 4
REMARK VINA RESULT:      -3.8      1.461      1.461
REMARK  1 active torsions:
REMARK  status: ('A' for Active; 'I' for Inactive)
REMARK    1  A    between atoms: C7_7  and  N9_9 
ROOT
HETATM    1  C1  UNL     1     -34.510  13.653  -4.066  1.00 20.00     0.089 C 
HETATM    2  C7  UNL     1     -34.068  14.827  -3.315  1.00 20.00     0.396 C 
HETATM    3  N8  UNL     1     -34.858  12.720  -4.661  1.00 20.00    -0.195 NA
ENDROOT
BRANCH   2   4
HETATM    4  N9  UNL     1     -35.052  15.913  -3.415  1.00 20.00     0.107 N 
HETATM    5  C2  UNL     1     -35.095  16.384  -4.812  1.00 20.00     0.284 C 
HETATM    6  C3  UNL     1     -36.238  17.354  -5.090  1.00 20.00     0.104 C 
HETATM    7  S10 UNL     1     -36.054  18.869  -4.123  1.00 20.00    -0.165 SA
HETATM    8  C4  UNL     1     -35.880  18.086  -2.498  1.00 20.00     0.109 C 
HETATM    9  C5  UNL     1     -34.766  17.023  -2.472  1.00 20.00     0.229 C 
HETATM   10  C6  UNL     1     -34.637  16.538  -1.016  1.00 20.00     0.043 C 
ENDBRANCH   2   4
TORSDOF 1
ENDMDL
MODEL 5
REMARK VINA RESULT:      -3.7      1.339      2.562
REMARK  1 active torsions:
REMARK  status: ('A' for Active; 'I' for Inactive)
REMARK    1  A    between atoms: C7_7  and  N9_9 
ROOT
HETATM    1  C1  UNL     1     -34.038  13.744  -3.991  1.00 20.00     0.089 C 
HETATM    2  C7  UNL     1     -33.065  14.800  -3.717  1.00 20.00     0.396 C 
HETATM    3  N8  UNL     1     -34.809  12.905  -4.210  1.00 20.00    -0.195 NA
ENDROOT
BRANCH   2   4
HETATM    4  N9  UNL     1     -33.739  16.052  -3.354  1.00 20.00     0.107 N 
HETATM    5  C2  UNL     1     -34.603  15.803  -2.185  1.00 20.00     0.284 C 
HETATM    6  C3  UNL     1     -35.182  17.075  -1.576  1.00 20.00     0.104 C 
HETATM    7  S10 UNL     1     -36.265  17.922  -2.747  1.00 20.00    -0.165 SA
HETATM    8  C4  UNL     1     -35.092  18.008  -4.126  1.00 20.00     0.109 C 
HETATM    9  C5  UNL     1     -34.504  16.631  -4.487  1.00 20.00     0.229 C 
HETATM   10  C6  UNL     1     -33.637  16.823  -5.744  1.00 20.00     0.043 C 
ENDBRANCH   2   4
TORSDOF 1
ENDMDL
MODEL 6
REMARK VINA RESULT:      -3.6      2.179      2.881
REMARK  1 active torsions:
REMARK  status: ('A' for Active; 'I' for Inactive)
REMARK    1  A    between atoms: C7_7  and  N9_9 
ROOT
HETATM    1  C1  UNL     1     -34.555  13.602  -4.080  1.00 20.00     0.089 C 
HETATM    2  C7  UNL     1     -34.224  14.775  -3.272  1.00 20.00     0.396 C 
HETATM    3  N8  UNL     1     -34.815  12.669  -4.720  1.00 20.00    -0.195 NA
ENDROOT
BRANCH   2   4
HETATM    4  N9  UNL     1     -35.106  15.902  -3.600  1.00 20.00     0.107 N 
HETATM    5  C2  UNL     1     -36.505  15.478  -3.406  1.00 20.00     0.284 C 
HETATM    6  C3  UNL     1     -37.505  16.627  -3.497  1.00 20.00     0.104 C 
HETATM    7  S10 UNL     1     -37.495  17.368  -5.144  1.00 20.00    -0.165 SA
HETATM    8  C4  UNL     1     -35.714  17.682  -5.246  1.00 20.00     0.109 C 
HETATM    9  C5  UNL     1     -34.875  16.420  -4.971  1.00 20.00     0.229 C 
HETATM   10  C6  UNL     1     -33.402  16.792  -5.219  1.00 20.00     0.043 C 
ENDBRANCH   2   4
TORSDOF 1
ENDMDL
MODEL 7
REMARK VINA RESULT:      -3.5      2.219      2.660
REMARK  1 active torsions:
REMARK  status: ('A' for Active; 'I' for Inactive)
REMARK    1  A    between atoms: C7_7  and  N9_9 
ROOT
HETATM    1  C1  UNL     1     -34.861  13.498  -5.220  1.00 20.00     0.089 C 
HETATM    2  C7  UNL     1     -34.904  14.348  -6.408  1.00 20.00     0.396 C 
HETATM    3  N8  UNL     1     -34.827  12.821  -4.278  1.00 20.00    -0.195 NA
ENDROOT
BRANCH   2   4
HETATM    4  N9  UNL     1     -34.933  15.768  -6.035  1.00 20.00     0.107 N 
HETATM    5  C2  UNL     1     -33.712  16.081  -5.269  1.00 20.00     0.284 C 
HETATM    6  C3  UNL     1     -33.519  17.573  -5.020  1.00 20.00     0.104 C 
HETATM    7  S10 UNL     1     -34.856  18.241  -4.005  1.00 20.00    -0.165 SA
HETATM    8  C4  UNL     1     -36.234  17.645  -5.017  1.00 20.00     0.109 C 
HETATM    9  C5  UNL     1     -36.160  16.129  -5.282  1.00 20.00     0.229 C 
HETATM   10  C6  UNL     1     -37.446  15.736  -6.031  1.00 20.00     0.043 C 
ENDBRANCH   2   4
TORSDOF 1
ENDMDL
MODEL 8
REMARK VINA RESULT:      -3.5      2.276      3.937
REMARK  1 active torsions:
REMARK  status: ('A' for Active; 'I' for Inactive)
REMARK    1  A    between atoms: C7_7  and  N9_9 
ROOT
HETATM    1  C1  UNL     1     -34.311  16.918  -1.197  1.00 20.00     0.089 C 
HETATM    2  C7  UNL     1     -33.652  17.051  -2.495  1.00 20.00     0.396 C 
HETATM    3  N8  UNL     1     -34.831  16.815  -0.165  1.00 20.00    -0.195 NA
ENDROOT
BRANCH   2   4
HETATM    4  N9  UNL     1     -34.405  16.343  -3.538  1.00 20.00     0.107 N 
HETATM    5  C2  UNL     1     -34.538  14.927  -3.147  1.00 20.00     0.284 C 
HETATM    6  C3  UNL     1     -35.493  14.139  -4.038  1.00 20.00     0.104 C 
HETATM    7  S10 UNL     1     -34.885  14.067  -5.737  1.00 20.00    -0.165 SA
HETATM    8  C4  UNL     1     -34.656  15.848  -5.976  1.00 20.00     0.109 C 
HETATM    9  C5  UNL     1     -33.782  16.484  -4.879  1.00 20.00     0.229 C 
HETATM   10  C6  UNL     1     -33.560  17.955  -5.271  1.00 20.00     0.043 C 
ENDBRANCH   2   4
TORSDOF 1
ENDMDL
MODEL 9
REMARK VINA RESULT:      -3.5      1.818      3.512
REMARK  1 active torsions:
REMARK  status: ('A' for Active; 'I' for Inactive)
REMARK    1  A    between atoms: C7_7  and  N9_9 
ROOT
HETATM    1  C1  UNL     1     -34.507  17.077  -0.418  1.00 20.00     0.089 C 
HETATM    2  C7  UNL     1     -34.692  16.232  -1.596  1.00 20.00     0.396 C 
HETATM    3  N8  UNL     1     -34.362  17.747   0.519  1.00 20.00    -0.195 NA
ENDROOT
BRANCH   2   4
HETATM    4  N9  UNL     1     -33.982  16.787  -2.755  1.00 20.00     0.107 N 
HETATM    5  C2  UNL     1     -34.500  18.142  -3.022  1.00 20.00     0.284 C 
HETATM    6  C3  UNL     1     -33.686  18.909  -4.059  1.00 20.00     0.104 C 
HETATM    7  S10 UNL     1     -33.751  18.092  -5.669  1.00 20.00    -0.165 SA
HETATM    8  C4  UNL     1     -33.228  16.448  -5.115  1.00 20.00     0.109 C 
HETATM    9  C5  UNL     1     -34.087  15.916  -3.953  1.00 20.00     0.229 C 
HETATM   10  C6  UNL     1     -33.627  14.474  -3.672  1.00 20.00     0.043 C 
ENDBRANCH   2   4
TORSDOF 1
ENDMDL
