MODEL 1
REMARK VINA RESULT:      -4.4      0.000      0.000
REMARK  1 active torsions:
REMARK  status: ('A' for Active; 'I' for Inactive)
REMARK    1  A    between atoms: C6_6  and  C8_8 
ROOT
HETATM    1  C3  UNL     1     -33.835  17.697  -2.991  1.00 20.00     0.046 C 
HETATM    2  C4  UNL     1     -34.425  15.226  -2.938  1.00 20.00     0.058 C 
HETATM    3  C5  UNL     1     -33.870  17.365  -4.475  1.00 20.00     0.170 C 
HETATM    4  C7  UNL     1     -33.843  16.412  -2.163  1.00 20.00     0.087 C 
HETATM    5  C8  UNL     1     -35.484  15.611  -3.999  1.00 20.00     0.062 C 
HETATM    6  C9  UNL     1     -36.820  15.991  -3.343  1.00 20.00     0.046 C 
HETATM    7  O10 UNL     1     -35.096  16.727  -4.817  1.00 20.00    -0.380 OA
HETATM    8 CL11 UNL     1     -34.703  16.674  -0.618  1.00 20.00    -0.125 Cl
ENDROOT
BRANCH   5   9
HETATM    9  C6  UNL     1     -35.710  14.434  -4.928  1.00 20.00     0.020 A 
HETATM   10  C1  UNL     1     -34.815  14.224  -6.117  1.00 20.00     0.008 A 
HETATM   11  C2  UNL     1     -34.739  13.286  -4.945  1.00 20.00     0.008 A 
ENDBRANCH   5   9
TORSDOF 1
ENDMDL
MODEL 2
REMARK VINA RESULT:      -4.3      2.201      3.882
REMARK  1 active torsions:
REMARK  status: ('A' for Active; 'I' for Inactive)
REMARK    1  A    between atoms: C6_6  and  C8_8 
ROOT
HETATM    1  C3  UNL     1     -34.423  15.443  -6.244  1.00 20.00     0.046 C 
HETATM    2  C4  UNL     1     -34.950  15.183  -3.773  1.00 20.00     0.058 C 
HETATM    3  C5  UNL     1     -34.091  16.831  -5.721  1.00 20.00     0.170 C 
HETATM    4  C7  UNL     1     -35.190  14.649  -5.188  1.00 20.00     0.087 C 
HETATM    5  C8  UNL     1     -33.565  15.843  -3.563  1.00 20.00     0.062 C 
HETATM    6  C9  UNL     1     -32.451  14.789  -3.482  1.00 20.00     0.046 C 
HETATM    7  O10 UNL     1     -33.198  16.750  -4.615  1.00 20.00    -0.380 OA
HETATM    8 CL11 UNL     1     -34.797  12.910  -5.309  1.00 20.00    -0.125 Cl
ENDROOT
BRANCH   5   9
HETATM    9  C6  UNL     1     -33.583  16.640  -2.273  1.00 20.00     0.020 A 
HETATM   10  C1  UNL     1     -34.620  17.706  -2.054  1.00 20.00     0.008 A 
HETATM   11  C2  UNL     1     -34.679  16.427  -1.267  1.00 20.00     0.008 A 
ENDBRANCH   5   9
TORSDOF 1
ENDMDL
MODEL 3
REMARK VINA RESULT:      -4.3      2.137      3.988
REMARK  1 active torsions:
REMARK  status: ('A' for Active; 'I' for Inactive)
REMARK    1  A    between atoms: C6_6  and  C8_8 
ROOT
HETATM    1  C3  UNL     1     -36.568  15.173  -4.778  1.00 20.00     0.046 C 
HETATM    2  C4  UNL     1     -34.773  14.679  -3.048  1.00 20.00     0.058 C 
HETATM    3  C5  UNL     1     -36.718  16.362  -3.842  1.00 20.00     0.170 C 
HETATM    4  C7  UNL     1     -35.688  14.102  -4.133  1.00 20.00     0.087 C 
HETATM    5  C8  UNL     1     -34.364  16.155  -3.273  1.00 20.00     0.062 C 
HETATM    6  C9  UNL     1     -33.318  16.281  -4.390  1.00 20.00     0.046 C 
HETATM    7  O10 UNL     1     -35.463  17.005  -3.642  1.00 20.00    -0.380 OA
HETATM    8 CL11 UNL     1     -34.755  13.228  -5.383  1.00 20.00    -0.125 Cl
ENDROOT
BRANCH   5   9
HETATM    9  C6  UNL     1     -33.782  16.712  -1.988  1.00 20.00     0.020 A 
HETATM   10  C1  UNL     1     -34.303  18.001  -1.416  1.00 20.00     0.008 A 
HETATM   11  C2  UNL     1     -34.592  16.700  -0.722  1.00 20.00     0.008 A 
ENDBRANCH   5   9
TORSDOF 1
ENDMDL
MODEL 4
REMARK VINA RESULT:      -4.3      2.401      4.021
REMARK  1 active torsions:
REMARK  status: ('A' for Active; 'I' for Inactive)
REMARK    1  A    between atoms: C6_6  and  C8_8 
ROOT
HETATM    1  C3  UNL     1     -34.448  13.517  -5.117  1.00 20.00     0.046 C 
HETATM    2  C4  UNL     1     -34.796  16.020  -4.851  1.00 20.00     0.058 C 
HETATM    3  C5  UNL     1     -33.849  13.758  -3.740  1.00 20.00     0.170 C 
HETATM    4  C7  UNL     1     -34.682  14.848  -5.831  1.00 20.00     0.087 C 
HETATM    5  C8  UNL     1     -35.360  15.641  -3.461  1.00 20.00     0.062 C 
HETATM    6  C9  UNL     1     -36.875  15.391  -3.522  1.00 20.00     0.046 C 
HETATM    7  O10 UNL     1     -34.770  14.454  -2.907  1.00 20.00    -0.380 OA
HETATM    8 CL11 UNL     1     -36.115  14.740  -6.894  1.00 20.00    -0.125 Cl
ENDROOT
BRANCH   5   9
HETATM    9  C6  UNL     1     -35.088  16.771  -2.487  1.00 20.00     0.020 A 
HETATM   10  C1  UNL     1     -34.699  16.470  -1.066  1.00 20.00     0.008 A 
HETATM   11  C2  UNL     1     -33.686  17.044  -2.017  1.00 20.00     0.008 A 
ENDBRANCH   5   9
TORSDOF 1
ENDMDL
MODEL 5
REMARK VINA RESULT:      -4.2      1.772      2.961
REMARK  1 active torsions:
REMARK  status: ('A' for Active; 'I' for Inactive)
REMARK    1  A    between atoms: C6_6  and  C8_8 
ROOT
HETATM    1  C3  UNL     1     -34.215  13.828  -3.485  1.00 20.00     0.046 C 
HETATM    2  C4  UNL     1     -35.709  15.664  -4.407  1.00 20.00     0.058 C 
HETATM    3  C5  UNL     1     -34.619  13.239  -4.828  1.00 20.00     0.170 C 
HETATM    4  C7  UNL     1     -35.089  15.038  -3.155  1.00 20.00     0.087 C 
HETATM    5  C8  UNL     1     -34.864  15.497  -5.693  1.00 20.00     0.062 C 
HETATM    6  C9  UNL     1     -33.645  16.430  -5.686  1.00 20.00     0.046 C 
HETATM    7  O10 UNL     1     -34.361  14.164  -5.879  1.00 20.00    -0.380 OA
HETATM    8 CL11 UNL     1     -34.158  16.238  -2.212  1.00 20.00    -0.125 Cl
ENDROOT
BRANCH   5   9
HETATM    9  C6  UNL     1     -35.724  15.821  -6.900  1.00 20.00     0.020 A 
HETATM   10  C1  UNL     1     -36.033  14.758  -7.918  1.00 20.00     0.008 A 
HETATM   11  C2  UNL     1     -37.117  15.265  -7.008  1.00 20.00     0.008 A 
ENDBRANCH   5   9
TORSDOF 1
ENDMDL
MODEL 6
REMARK VINA RESULT:      -4.2      2.324      4.057
REMARK  1 active torsions:
REMARK  status: ('A' for Active; 'I' for Inactive)
REMARK    1  A    between atoms: C6_6  and  C8_8 
ROOT
HETATM    1  C3  UNL     1     -36.436  15.593  -5.711  1.00 20.00     0.046 C 
HETATM    2  C4  UNL     1     -34.341  14.856  -4.476  1.00 20.00     0.058 C 
HETATM    3  C5  UNL     1     -36.761  16.020  -4.288  1.00 20.00     0.170 C 
HETATM    4  C7  UNL     1     -35.217  14.671  -5.719  1.00 20.00     0.087 C 
HETATM    5  C8  UNL     1     -34.381  16.279  -3.870  1.00 20.00     0.062 C 
HETATM    6  C9  UNL     1     -33.581  17.273  -4.725  1.00 20.00     0.046 C 
HETATM    7  O10 UNL     1     -35.709  16.815  -3.750  1.00 20.00    -0.380 OA
HETATM    8 CL11 UNL     1     -34.278  14.897  -7.224  1.00 20.00    -0.125 Cl
ENDROOT
BRANCH   5   9
HETATM    9  C6  UNL     1     -33.787  16.243  -2.475  1.00 20.00     0.020 A 
HETATM   10  C1  UNL     1     -33.741  17.492  -1.638  1.00 20.00     0.008 A 
HETATM   11  C2  UNL     1     -34.676  16.375  -1.270  1.00 20.00     0.008 A 
ENDBRANCH   5   9
TORSDOF 1
ENDMDL
MODEL 7
REMARK VINA RESULT:      -4.1      1.327      2.303
REMARK  1 active torsions:
REMARK  status: ('A' for Active; 'I' for Inactive)
REMARK    1  A    between atoms: C6_6  and  C8_8 
ROOT
HETATM    1  C3  UNL     1     -36.660  16.557  -3.113  1.00 20.00     0.046 C 
HETATM    2  C4  UNL     1     -34.420  16.149  -4.240  1.00 20.00     0.058 C 
HETATM    3  C5  UNL     1     -37.093  16.260  -4.540  1.00 20.00     0.170 C 
HETATM    4  C7  UNL     1     -35.151  16.791  -3.057  1.00 20.00     0.087 C 
HETATM    5  C8  UNL     1     -35.107  14.884  -4.808  1.00 20.00     0.062 C 
HETATM    6  C9  UNL     1     -34.911  13.676  -3.879  1.00 20.00     0.046 C 
HETATM    7  O10 UNL     1     -36.524  15.035  -4.992  1.00 20.00    -0.380 OA
HETATM    8 CL11 UNL     1     -34.492  16.227  -1.493  1.00 20.00    -0.125 Cl
ENDROOT
BRANCH   5   9
HETATM    9  C6  UNL     1     -34.513  14.560  -6.165  1.00 20.00     0.020 A 
HETATM   10  C1  UNL     1     -35.401  14.439  -7.372  1.00 20.00     0.008 A 
HETATM   11  C2  UNL     1     -34.468  15.610  -7.241  1.00 20.00     0.008 A 
ENDBRANCH   5   9
TORSDOF 1
ENDMDL
MODEL 8
REMARK VINA RESULT:      -4.0      1.936      2.529
REMARK  1 active torsions:
REMARK  status: ('A' for Active; 'I' for Inactive)
REMARK    1  A    between atoms: C6_6  and  C8_8 
ROOT
HETATM    1  C3  UNL     1     -35.047  17.779  -5.938  1.00 20.00     0.046 C 
HETATM    2  C4  UNL     1     -33.492  16.344  -4.532  1.00 20.00     0.058 C 
HETATM    3  C5  UNL     1     -35.682  16.406  -6.096  1.00 20.00     0.170 C 
HETATM    4  C7  UNL     1     -33.657  17.649  -5.317  1.00 20.00     0.087 C 
HETATM    5  C8  UNL     1     -34.801  15.798  -3.914  1.00 20.00     0.062 C 
HETATM    6  C9  UNL     1     -35.225  16.620  -2.687  1.00 20.00     0.046 C 
HETATM    7  O10 UNL     1     -35.914  15.812  -4.822  1.00 20.00    -0.380 OA
HETATM    8 CL11 UNL     1     -33.292  19.075  -4.303  1.00 20.00    -0.125 Cl
ENDROOT
BRANCH   5   9
HETATM    9  C6  UNL     1     -34.590  14.357  -3.490  1.00 20.00     0.020 A 
HETATM   10  C1  UNL     1     -34.546  13.263  -4.520  1.00 20.00     0.008 A 
HETATM   11  C2  UNL     1     -33.292  13.662  -3.793  1.00 20.00     0.008 A 
ENDBRANCH   5   9
TORSDOF 1
ENDMDL
MODEL 9
REMARK VINA RESULT:      -4.0      2.396      3.974
REMARK  1 active torsions:
REMARK  status: ('A' for Active; 'I' for Inactive)
REMARK    1  A    between atoms: C6_6  and  C8_8 
ROOT
HETATM    1  C3  UNL     1     -33.372  16.048  -5.034  1.00 20.00     0.046 C 
HETATM    2  C4  UNL     1     -33.954  17.659  -3.158  1.00 20.00     0.058 C 
HETATM    3  C5  UNL     1     -32.983  15.235  -3.809  1.00 20.00     0.170 C 
HETATM    4  C7  UNL     1     -33.616  17.506  -4.644  1.00 20.00     0.087 C 
HETATM    5  C8  UNL     1     -34.666  16.436  -2.533  1.00 20.00     0.062 C 
HETATM    6  C9  UNL     1     -36.133  16.355  -2.979  1.00 20.00     0.046 C 
HETATM    7  O10 UNL     1     -34.061  15.180  -2.881  1.00 20.00    -0.380 OA
HETATM    8 CL11 UNL     1     -34.881  18.224  -5.683  1.00 20.00    -0.125 Cl
ENDROOT
BRANCH   5   9
HETATM    9  C6  UNL     1     -34.619  16.550  -1.021  1.00 20.00     0.020 A 
HETATM   10  C1  UNL     1     -33.800  17.629  -0.368  1.00 20.00     0.008 A 
HETATM   11  C2  UNL     1     -35.301  17.695  -0.326  1.00 20.00     0.008 A 
ENDBRANCH   5   9
TORSDOF 1
ENDMDL
