MODEL 1
REMARK VINA RESULT:      -5.0      0.000      0.000
REMARK  2 active torsions:
REMARK  status: ('A' for Active; 'I' for Inactive)
REMARK    1  A    between atoms: C6_6  and  C8_8 
REMARK    2  A    between atoms: C7_7  and  O11_11 
ROOT
HETATM    1  C3  UNL     1     -33.312  13.578  -3.783  1.00 20.00     0.058 C 
HETATM    2  C4  UNL     1     -35.389  14.865  -3.266  1.00 20.00     0.069 C 
HETATM    3  C5  UNL     1     -32.551  14.892  -3.741  1.00 20.00     0.171 C 
HETATM    4  C7  UNL     1     -34.765  13.809  -4.175  1.00 20.00     0.123 C 
HETATM    5  C8  UNL     1     -34.544  16.152  -3.183  1.00 20.00     0.063 C 
HETATM    6  C9  UNL     1     -34.621  16.969  -4.484  1.00 20.00     0.046 C 
HETATM    7  O10 UNL     1     -33.179  15.832  -2.871  1.00 20.00    -0.380 OA
ENDROOT
BRANCH   5   8
HETATM    8  C6  UNL     1     -35.058  17.011  -2.044  1.00 20.00     0.020 A 
HETATM    9  C1  UNL     1     -34.698  16.678  -0.622  1.00 20.00     0.008 A 
HETATM   10  C2  UNL     1     -34.114  17.898  -1.279  1.00 20.00     0.008 A 
ENDBRANCH   5   8
BRANCH   4  11
HETATM   11  O11 UNL     1     -35.501  12.598  -4.048  1.00 20.00    -0.395 OA
HETATM   12  H27 UNL     1     -34.949  11.896  -4.428  1.00 20.00     0.210 HD
ENDBRANCH   4  11
TORSDOF 2
ENDMDL
MODEL 2
REMARK VINA RESULT:      -4.8      1.270      1.545
REMARK  2 active torsions:
REMARK  status: ('A' for Active; 'I' for Inactive)
REMARK    1  A    between atoms: C6_6  and  C8_8 
REMARK    2  A    between atoms: C7_7  and  O11_11 
ROOT
HETATM    1  C3  UNL     1     -34.480  14.381  -5.563  1.00 20.00     0.058 C 
HETATM    2  C4  UNL     1     -34.870  14.576  -3.104  1.00 20.00     0.069 C 
HETATM    3  C5  UNL     1     -34.330  15.892  -5.605  1.00 20.00     0.171 C 
HETATM    4  C7  UNL     1     -35.377  13.961  -4.406  1.00 20.00     0.123 C 
HETATM    5  C8  UNL     1     -34.649  16.098  -3.212  1.00 20.00     0.063 C 
HETATM    6  C9  UNL     1     -35.981  16.865  -3.266  1.00 20.00     0.046 C 
HETATM    7  O10 UNL     1     -33.847  16.404  -4.364  1.00 20.00    -0.380 OA
ENDROOT
BRANCH   5   8
HETATM    8  C6  UNL     1     -33.867  16.574  -2.003  1.00 20.00     0.020 A 
HETATM    9  C1  UNL     1     -34.095  17.953  -1.448  1.00 20.00     0.008 A 
HETATM   10  C2  UNL     1     -34.555  16.748  -0.677  1.00 20.00     0.008 A 
ENDBRANCH   5   8
BRANCH   4  11
HETATM   11  O11 UNL     1     -35.373  12.544  -4.279  1.00 20.00    -0.395 OA
HETATM   12  H27 UNL     1     -34.445  12.275  -4.187  1.00 20.00     0.210 HD
ENDBRANCH   4  11
TORSDOF 2
ENDMDL
MODEL 3
REMARK VINA RESULT:      -4.5      1.507      2.695
REMARK  2 active torsions:
REMARK  status: ('A' for Active; 'I' for Inactive)
REMARK    1  A    between atoms: C6_6  and  C8_8 
REMARK    2  A    between atoms: C7_7  and  O11_11 
ROOT
HETATM    1  C3  UNL     1     -35.328  13.851  -4.194  1.00 20.00     0.058 C 
HETATM    2  C4  UNL     1     -33.413  15.310  -3.530  1.00 20.00     0.069 C 
HETATM    3  C5  UNL     1     -36.261  14.914  -3.639  1.00 20.00     0.171 C 
HETATM    4  C7  UNL     1     -33.981  13.894  -3.486  1.00 20.00     0.123 C 
HETATM    5  C8  UNL     1     -34.420  16.370  -3.039  1.00 20.00     0.063 C 
HETATM    6  C9  UNL     1     -34.618  16.304  -1.515  1.00 20.00     0.046 C 
HETATM    7  O10 UNL     1     -35.678  16.213  -3.715  1.00 20.00    -0.380 OA
ENDROOT
BRANCH   5   8
HETATM    8  C6  UNL     1     -33.904  17.750  -3.399  1.00 20.00     0.020 A 
HETATM    9  C1  UNL     1     -33.597  18.093  -4.831  1.00 20.00     0.008 A 
HETATM   10  C2  UNL     1     -34.783  18.715  -4.146  1.00 20.00     0.008 A 
ENDBRANCH   5   8
BRANCH   4  11
HETATM   11  O11 UNL     1     -33.068  13.010  -4.126  1.00 20.00    -0.395 OA
HETATM   12  H27 UNL     1     -32.791  13.444  -4.949  1.00 20.00     0.210 HD
ENDBRANCH   4  11
TORSDOF 2
ENDMDL
MODEL 4
REMARK VINA RESULT:      -4.4      2.279      3.959
REMARK  2 active torsions:
REMARK  status: ('A' for Active; 'I' for Inactive)
REMARK    1  A    between atoms: C6_6  and  C8_8 
REMARK    2  A    between atoms: C7_7  and  O11_11 
ROOT
HETATM    1  C3  UNL     1     -36.257  14.637  -3.720  1.00 20.00     0.058 C 
HETATM    2  C4  UNL     1     -34.593  14.304  -5.553  1.00 20.00     0.069 C 
HETATM    3  C5  UNL     1     -36.049  16.134  -3.876  1.00 20.00     0.171 C 
HETATM    4  C7  UNL     1     -35.011  13.873  -4.150  1.00 20.00     0.123 C 
HETATM    5  C8  UNL     1     -34.475  15.835  -5.693  1.00 20.00     0.063 C 
HETATM    6  C9  UNL     1     -33.237  16.381  -4.961  1.00 20.00     0.046 C 
HETATM    7  O10 UNL     1     -35.667  16.473  -5.208  1.00 20.00    -0.380 OA
ENDROOT
BRANCH   5   8
HETATM    8  C6  UNL     1     -34.362  16.192  -7.163  1.00 20.00     0.020 A 
HETATM    9  C1  UNL     1     -35.566  16.684  -7.918  1.00 20.00     0.008 A 
HETATM   10  C2  UNL     1     -34.440  17.628  -7.602  1.00 20.00     0.008 A 
ENDBRANCH   5   8
BRANCH   4  11
HETATM   11  O11 UNL     1     -35.278  12.475  -4.157  1.00 20.00    -0.395 OA
HETATM   12  H27 UNL     1     -34.522  12.045  -3.726  1.00 20.00     0.210 HD
ENDBRANCH   4  11
TORSDOF 2
ENDMDL
MODEL 5
REMARK VINA RESULT:      -4.3      1.446      1.942
REMARK  2 active torsions:
REMARK  status: ('A' for Active; 'I' for Inactive)
REMARK    1  A    between atoms: C6_6  and  C8_8 
REMARK    2  A    between atoms: C7_7  and  O11_11 
ROOT
HETATM    1  C3  UNL     1     -33.327  16.210  -5.008  1.00 20.00     0.058 C 
HETATM    2  C4  UNL     1     -34.415  15.177  -3.010  1.00 20.00     0.069 C 
HETATM    3  C5  UNL     1     -33.720  17.568  -4.452  1.00 20.00     0.171 C 
HETATM    4  C7  UNL     1     -34.294  15.134  -4.531  1.00 20.00     0.123 C 
HETATM    5  C8  UNL     1     -34.730  16.590  -2.479  1.00 20.00     0.063 C 
HETATM    6  C9  UNL     1     -36.180  17.004  -2.786  1.00 20.00     0.046 C 
HETATM    7  O10 UNL     1     -33.809  17.546  -3.029  1.00 20.00    -0.380 OA
ENDROOT
BRANCH   5   8
HETATM    8  C6  UNL     1     -34.530  16.612  -0.976  1.00 20.00     0.020 A 
HETATM    9  C1  UNL     1     -33.738  17.717  -0.334  1.00 20.00     0.008 A 
HETATM   10  C2  UNL     1     -35.226  17.646  -0.134  1.00 20.00     0.008 A 
ENDBRANCH   5   8
BRANCH   4  11
HETATM   11  O11 UNL     1     -33.821  13.850  -4.920  1.00 20.00    -0.395 OA
HETATM   12  H27 UNL     1     -32.861  13.931  -5.040  1.00 20.00     0.210 HD
ENDBRANCH   4  11
TORSDOF 2
ENDMDL
MODEL 6
REMARK VINA RESULT:      -4.3      2.221      2.716
REMARK  2 active torsions:
REMARK  status: ('A' for Active; 'I' for Inactive)
REMARK    1  A    between atoms: C6_6  and  C8_8 
REMARK    2  A    between atoms: C7_7  and  O11_11 
ROOT
HETATM    1  C3  UNL     1     -33.697  14.173  -3.598  1.00 20.00     0.058 C 
HETATM    2  C4  UNL     1     -35.622  14.658  -5.115  1.00 20.00     0.069 C 
HETATM    3  C5  UNL     1     -33.050  15.454  -4.097  1.00 20.00     0.171 C 
HETATM    4  C7  UNL     1     -34.629  13.594  -4.654  1.00 20.00     0.123 C 
HETATM    5  C8  UNL     1     -34.932  15.972  -5.534  1.00 20.00     0.063 C 
HETATM    6  C9  UNL     1     -34.191  15.825  -6.874  1.00 20.00     0.046 C 
HETATM    7  O10 UNL     1     -34.028  16.409  -4.506  1.00 20.00    -0.380 OA
ENDROOT
BRANCH   5   8
HETATM    8  C6  UNL     1     -35.980  17.059  -5.678  1.00 20.00     0.020 A 
HETATM    9  C1  UNL     1     -37.409  16.789  -5.295  1.00 20.00     0.008 A 
HETATM   10  C2  UNL     1     -36.567  17.711  -4.457  1.00 20.00     0.008 A 
ENDBRANCH   5   8
BRANCH   4  11
HETATM   11  O11 UNL     1     -35.351  12.493  -4.113  1.00 20.00    -0.395 OA
HETATM   12  H27 UNL     1     -34.978  11.691  -4.513  1.00 20.00     0.210 HD
ENDBRANCH   4  11
TORSDOF 2
ENDMDL
MODEL 7
REMARK VINA RESULT:      -4.3      2.195      4.088
REMARK  2 active torsions:
REMARK  status: ('A' for Active; 'I' for Inactive)
REMARK    1  A    between atoms: C6_6  and  C8_8 
REMARK    2  A    between atoms: C7_7  and  O11_11 
ROOT
HETATM    1  C3  UNL     1     -33.761  13.596  -4.038  1.00 20.00     0.058 C 
HETATM    2  C4  UNL     1     -33.772  15.844  -5.127  1.00 20.00     0.069 C 
HETATM    3  C5  UNL     1     -35.272  13.572  -4.196  1.00 20.00     0.171 C 
HETATM    4  C7  UNL     1     -33.253  15.029  -3.945  1.00 20.00     0.123 C 
HETATM    5  C8  UNL     1     -35.299  15.726  -5.305  1.00 20.00     0.063 C 
HETATM    6  C9  UNL     1     -36.062  16.491  -4.210  1.00 20.00     0.046 C 
HETATM    7  O10 UNL     1     -35.693  14.344  -5.319  1.00 20.00    -0.380 OA
ENDROOT
BRANCH   5   8
HETATM    8  C6  UNL     1     -35.688  16.299  -6.654  1.00 20.00     0.020 A 
HETATM    9  C1  UNL     1     -34.632  16.834  -7.582  1.00 20.00     0.008 A 
HETATM   10  C2  UNL     1     -35.350  15.556  -7.918  1.00 20.00     0.008 A 
ENDBRANCH   5   8
BRANCH   4  11
HETATM   11  O11 UNL     1     -31.830  15.042  -3.966  1.00 20.00    -0.395 OA
HETATM   12  H27 UNL     1     -31.548  15.725  -3.337  1.00 20.00     0.210 HD
ENDBRANCH   4  11
TORSDOF 2
ENDMDL
MODEL 8
REMARK VINA RESULT:      -4.2      2.131      2.970
REMARK  2 active torsions:
REMARK  status: ('A' for Active; 'I' for Inactive)
REMARK    1  A    between atoms: C6_6  and  C8_8 
REMARK    2  A    between atoms: C7_7  and  O11_11 
ROOT
HETATM    1  C3  UNL     1     -36.145  15.142  -5.864  1.00 20.00     0.058 C 
HETATM    2  C4  UNL     1     -33.912  15.905  -5.046  1.00 20.00     0.069 C 
HETATM    3  C5  UNL     1     -36.314  14.401  -4.549  1.00 20.00     0.171 C 
HETATM    4  C7  UNL     1     -34.670  15.283  -6.216  1.00 20.00     0.123 C 
HETATM    5  C8  UNL     1     -34.176  15.176  -3.713  1.00 20.00     0.063 C 
HETATM    6  C9  UNL     1     -33.484  13.803  -3.667  1.00 20.00     0.046 C 
HETATM    7  O10 UNL     1     -35.589  15.033  -3.495  1.00 20.00    -0.380 OA
ENDROOT
BRANCH   5   8
HETATM    8  C6  UNL     1     -33.646  16.022  -2.571  1.00 20.00     0.020 A 
HETATM    9  C1  UNL     1     -34.101  17.446  -2.410  1.00 20.00     0.008 A 
HETATM   10  C2  UNL     1     -34.547  16.399  -1.428  1.00 20.00     0.008 A 
ENDBRANCH   5   8
BRANCH   4  11
HETATM   11  O11 UNL     1     -34.522  16.120  -7.358  1.00 20.00    -0.395 OA
HETATM   12  H27 UNL     1     -35.203  15.847  -7.994  1.00 20.00     0.210 HD
ENDBRANCH   4  11
TORSDOF 2
ENDMDL
MODEL 9
REMARK VINA RESULT:      -4.2      1.991      3.982
REMARK  2 active torsions:
REMARK  status: ('A' for Active; 'I' for Inactive)
REMARK    1  A    between atoms: C6_6  and  C8_8 
REMARK    2  A    between atoms: C7_7  and  O11_11 
ROOT
HETATM    1  C3  UNL     1     -33.680  16.231  -2.679  1.00 20.00     0.058 C 
HETATM    2  C4  UNL     1     -35.862  15.581  -3.707  1.00 20.00     0.069 C 
HETATM    3  C5  UNL     1     -32.995  15.333  -3.694  1.00 20.00     0.171 C 
HETATM    4  C7  UNL     1     -35.095  15.743  -2.397  1.00 20.00     0.123 C 
HETATM    5  C8  UNL     1     -35.095  14.733  -4.742  1.00 20.00     0.063 C 
HETATM    6  C9  UNL     1     -35.078  13.243  -4.358  1.00 20.00     0.046 C 
HETATM    7  O10 UNL     1     -33.755  15.227  -4.896  1.00 20.00    -0.380 OA
ENDROOT
BRANCH   5   8
HETATM    8  C6  UNL     1     -35.767  14.875  -6.095  1.00 20.00     0.020 A 
HETATM    9  C1  UNL     1     -35.432  16.037  -6.988  1.00 20.00     0.008 A 
HETATM   10  C2  UNL     1     -34.981  14.651  -7.357  1.00 20.00     0.008 A 
ENDBRANCH   5   8
BRANCH   4  11
HETATM   11  O11 UNL     1     -35.778  16.684  -1.576  1.00 20.00    -0.395 OA
HETATM   12  H27 UNL     1     -36.695  16.715  -1.892  1.00 20.00     0.210 HD
ENDBRANCH   4  11
TORSDOF 2
ENDMDL
