MODEL 1
REMARK VINA RESULT:      -3.9      0.000      0.000
REMARK  0 active torsions:
REMARK  status: ('A' for Active; 'I' for Inactive)
ROOT
HETATM    1  C1  UNL     1     -40.807   4.405  -1.230  1.00 20.00     0.046 C 
HETATM    2  C2  UNL     1     -42.520   5.332  -2.803  1.00 20.00     0.057 C 
HETATM    3  C3  UNL     1     -40.674   5.801  -0.640  1.00 20.00     0.170 C 
HETATM    4  C4  UNL     1     -42.200   4.208  -1.818  1.00 20.00     0.087 C 
HETATM    5  C5  UNL     1     -42.293   6.725  -2.181  1.00 20.00     0.055 C 
HETATM    6  C6  UNL     1     -42.330   7.784  -3.293  1.00 20.00     0.045 C 
HETATM    7  C7  UNL     1     -43.369   7.079  -1.143  1.00 20.00     0.045 C 
HETATM    8  O8  UNL     1     -40.981   6.807  -1.603  1.00 20.00    -0.381 OA
HETATM    9 CL9  UNL     1     -42.305   2.624  -2.635  1.00 20.00    -0.125 Cl
ENDROOT
TORSDOF 0
ENDMDL
MODEL 2
REMARK VINA RESULT:      -3.9     11.797     12.915
REMARK  0 active torsions:
REMARK  status: ('A' for Active; 'I' for Inactive)
ROOT
HETATM    1  C1  UNL     1     -33.706  17.107  -3.314  1.00 20.00     0.046 C 
HETATM    2  C2  UNL     1     -34.816  14.884  -3.002  1.00 20.00     0.057 C 
HETATM    3  C3  UNL     1     -33.800  16.881  -4.816  1.00 20.00     0.170 C 
HETATM    4  C4  UNL     1     -34.822  16.357  -2.594  1.00 20.00     0.087 C 
HETATM    5  C5  UNL     1     -34.832  14.711  -4.534  1.00 20.00     0.055 C 
HETATM    6  C6  UNL     1     -34.515  13.248  -4.878  1.00 20.00     0.045 C 
HETATM    7  C7  UNL     1     -36.196  15.064  -5.144  1.00 20.00     0.045 C 
HETATM    8  O8  UNL     1     -33.787  15.491  -5.137  1.00 20.00    -0.381 OA
HETATM    9 CL9  UNL     1     -34.623  16.508  -0.825  1.00 20.00    -0.125 Cl
ENDROOT
TORSDOF 0
ENDMDL
MODEL 3
REMARK VINA RESULT:      -3.8     10.724     11.700
REMARK  0 active torsions:
REMARK  status: ('A' for Active; 'I' for Inactive)
ROOT
HETATM    1  C1  UNL     1     -34.109  14.169  -3.385  1.00 20.00     0.046 C 
HETATM    2  C2  UNL     1     -36.064  15.725  -3.210  1.00 20.00     0.057 C 
HETATM    3  C3  UNL     1     -34.893  13.391  -4.432  1.00 20.00     0.170 C 
HETATM    4  C4  UNL     1     -34.547  15.630  -3.373  1.00 20.00     0.087 C 
HETATM    5  C5  UNL     1     -36.809  14.856  -4.244  1.00 20.00     0.055 C 
HETATM    6  C6  UNL     1     -38.286  14.749  -3.839  1.00 20.00     0.045 C 
HETATM    7  C7  UNL     1     -36.739  15.449  -5.659  1.00 20.00     0.045 C 
HETATM    8  O8  UNL     1     -36.299  13.513  -4.229  1.00 20.00    -0.381 OA
HETATM    9 CL9  UNL     1     -33.729  16.506  -2.048  1.00 20.00    -0.125 Cl
ENDROOT
TORSDOF 0
ENDMDL
MODEL 4
REMARK VINA RESULT:      -3.8     11.436     12.423
REMARK  0 active torsions:
REMARK  status: ('A' for Active; 'I' for Inactive)
ROOT
HETATM    1  C1  UNL     1     -36.053  15.820  -2.834  1.00 20.00     0.046 C 
HETATM    2  C2  UNL     1     -33.995  15.569  -4.240  1.00 20.00     0.057 C 
HETATM    3  C3  UNL     1     -36.755  14.865  -3.790  1.00 20.00     0.170 C 
HETATM    4  C4  UNL     1     -34.552  15.544  -2.817  1.00 20.00     0.087 C 
HETATM    5  C5  UNL     1     -34.791  14.647  -5.186  1.00 20.00     0.055 C 
HETATM    6  C6  UNL     1     -34.388  14.947  -6.637  1.00 20.00     0.045 C 
HETATM    7  C7  UNL     1     -34.521  13.160  -4.909  1.00 20.00     0.045 C 
HETATM    8  O8  UNL     1     -36.195  14.934  -5.100  1.00 20.00    -0.381 OA
HETATM    9 CL9  UNL     1     -33.716  16.756  -1.806  1.00 20.00    -0.125 Cl
ENDROOT
TORSDOF 0
ENDMDL
MODEL 5
REMARK VINA RESULT:      -3.8     11.665     12.466
REMARK  0 active torsions:
REMARK  status: ('A' for Active; 'I' for Inactive)
ROOT
HETATM    1  C1  UNL     1     -34.294  13.962  -3.457  1.00 20.00     0.046 C 
HETATM    2  C2  UNL     1     -35.221  16.051  -4.482  1.00 20.00     0.057 C 
HETATM    3  C3  UNL     1     -34.393  13.311  -4.829  1.00 20.00     0.170 C 
HETATM    4  C4  UNL     1     -34.117  15.471  -3.597  1.00 20.00     0.087 C 
HETATM    5  C5  UNL     1     -35.332  15.305  -5.827  1.00 20.00     0.055 C 
HETATM    6  C6  UNL     1     -36.634  15.721  -6.526  1.00 20.00     0.045 C 
HETATM    7  C7  UNL     1     -34.159  15.623  -6.766  1.00 20.00     0.045 C 
HETATM    8  O8  UNL     1     -35.439  13.890  -5.607  1.00 20.00    -0.381 OA
HETATM    9 CL9  UNL     1     -34.145  16.246  -1.989  1.00 20.00    -0.125 Cl
ENDROOT
TORSDOF 0
ENDMDL
MODEL 6
REMARK VINA RESULT:      -3.8     11.264     12.307
REMARK  0 active torsions:
REMARK  status: ('A' for Active; 'I' for Inactive)
ROOT
HETATM    1  C1  UNL     1     -35.476  13.617  -4.175  1.00 20.00     0.046 C 
HETATM    2  C2  UNL     1     -35.666  16.113  -4.121  1.00 20.00     0.057 C 
HETATM    3  C3  UNL     1     -33.991  13.779  -3.883  1.00 20.00     0.170 C 
HETATM    4  C4  UNL     1     -36.259  14.799  -3.613  1.00 20.00     0.087 C 
HETATM    5  C5  UNL     1     -34.146  16.193  -3.873  1.00 20.00     0.055 C 
HETATM    6  C6  UNL     1     -33.569  17.373  -4.668  1.00 20.00     0.045 C 
HETATM    7  C7  UNL     1     -33.811  16.403  -2.388  1.00 20.00     0.045 C 
HETATM    8  O8  UNL     1     -33.493  15.020  -4.381  1.00 20.00    -0.381 OA
HETATM    9 CL9  UNL     1     -37.978  14.677  -4.081  1.00 20.00    -0.125 Cl
ENDROOT
TORSDOF 0
ENDMDL
MODEL 7
REMARK VINA RESULT:      -3.6     11.330     12.425
REMARK  0 active torsions:
REMARK  status: ('A' for Active; 'I' for Inactive)
ROOT
HETATM    1  C1  UNL     1     -34.752  13.731  -5.612  1.00 20.00     0.046 C 
HETATM    2  C2  UNL     1     -34.399  16.079  -4.815  1.00 20.00     0.057 C 
HETATM    3  C3  UNL     1     -35.099  13.356  -4.178  1.00 20.00     0.170 C 
HETATM    4  C4  UNL     1     -35.074  15.199  -5.868  1.00 20.00     0.087 C 
HETATM    5  C5  UNL     1     -34.719  15.608  -3.382  1.00 20.00     0.055 C 
HETATM    6  C6  UNL     1     -33.782  16.323  -2.398  1.00 20.00     0.045 C 
HETATM    7  C7  UNL     1     -36.168  15.919  -2.979  1.00 20.00     0.045 C 
HETATM    8  O8  UNL     1     -34.441  14.206  -3.241  1.00 20.00    -0.381 OA
HETATM    9 CL9  UNL     1     -34.533  15.671  -7.504  1.00 20.00    -0.125 Cl
ENDROOT
TORSDOF 0
ENDMDL
MODEL 8
REMARK VINA RESULT:      -3.6     11.467     12.529
REMARK  0 active torsions:
REMARK  status: ('A' for Active; 'I' for Inactive)
ROOT
HETATM    1  C1  UNL     1     -36.396  15.114  -4.529  1.00 20.00     0.046 C 
HETATM    2  C2  UNL     1     -34.428  15.074  -2.981  1.00 20.00     0.057 C 
HETATM    3  C3  UNL     1     -36.688  16.523  -4.032  1.00 20.00     0.170 C 
HETATM    4  C4  UNL     1     -34.907  14.807  -4.408  1.00 20.00     0.087 C 
HETATM    5  C5  UNL     1     -34.818  16.485  -2.498  1.00 20.00     0.055 C 
HETATM    6  C6  UNL     1     -34.589  16.578  -0.982  1.00 20.00     0.045 C 
HETATM    7  C7  UNL     1     -33.987  17.583  -3.179  1.00 20.00     0.045 C 
HETATM    8  O8  UNL     1     -36.222  16.713  -2.698  1.00 20.00    -0.381 OA
HETATM    9 CL9  UNL     1     -34.591  13.108  -4.857  1.00 20.00    -0.125 Cl
ENDROOT
TORSDOF 0
ENDMDL
MODEL 9
REMARK VINA RESULT:      -3.6     12.290     13.283
REMARK  0 active torsions:
REMARK  status: ('A' for Active; 'I' for Inactive)
ROOT
HETATM    1  C1  UNL     1     -34.331  16.607  -6.652  1.00 20.00     0.046 C 
HETATM    2  C2  UNL     1     -34.990  14.838  -5.006  1.00 20.00     0.057 C 
HETATM    3  C3  UNL     1     -33.551  17.280  -5.531  1.00 20.00     0.170 C 
HETATM    4  C4  UNL     1     -34.427  15.105  -6.402  1.00 20.00     0.087 C 
HETATM    5  C5  UNL     1     -34.216  15.606  -3.916  1.00 20.00     0.055 C 
HETATM    6  C6  UNL     1     -35.006  15.545  -2.601  1.00 20.00     0.045 C 
HETATM    7  C7  UNL     1     -32.821  15.011  -3.668  1.00 20.00     0.045 C 
HETATM    8  O8  UNL     1     -34.123  16.998  -4.255  1.00 20.00    -0.381 OA
HETATM    9 CL9  UNL     1     -35.462  14.341  -7.641  1.00 20.00    -0.125 Cl
ENDROOT
TORSDOF 0
ENDMDL
