MODEL 1
REMARK VINA RESULT:      -4.0      0.000      0.000
REMARK  0 active torsions:
REMARK  status: ('A' for Active; 'I' for Inactive)
ROOT
HETATM    1  C1  UNL     1     -33.906  17.264  -3.373  1.00 20.00     0.046 C 
HETATM    2  C2  UNL     1     -34.982  15.032  -3.020  1.00 20.00     0.057 C 
HETATM    3  C3  UNL     1     -33.441  16.829  -4.760  1.00 20.00     0.170 C 
HETATM    4  C4  UNL     1     -34.017  16.068  -2.442  1.00 20.00     0.087 C 
HETATM    5  C5  UNL     1     -34.793  14.832  -4.544  1.00 20.00     0.055 C 
HETATM    6  C6  UNL     1     -35.983  15.394  -5.338  1.00 20.00     0.045 C 
HETATM    7  C7  UNL     1     -34.670  13.335  -4.858  1.00 20.00     0.045 C 
HETATM    8  O8  UNL     1     -33.568  15.427  -4.989  1.00 20.00    -0.381 OA
HETATM    9 CL9  UNL     1     -34.554  16.582  -0.821  1.00 20.00    -0.125 Cl
ENDROOT
TORSDOF 0
ENDMDL
MODEL 2
REMARK VINA RESULT:      -3.9      1.519      2.443
REMARK  0 active torsions:
REMARK  status: ('A' for Active; 'I' for Inactive)
ROOT
HETATM    1  C1  UNL     1     -33.953  14.169  -3.508  1.00 20.00     0.046 C 
HETATM    2  C2  UNL     1     -35.339  16.076  -4.347  1.00 20.00     0.057 C 
HETATM    3  C3  UNL     1     -34.332  13.343  -4.734  1.00 20.00     0.170 C 
HETATM    4  C4  UNL     1     -35.055  15.155  -3.159  1.00 20.00     0.087 C 
HETATM    5  C5  UNL     1     -35.356  15.316  -5.696  1.00 20.00     0.055 C 
HETATM    6  C6  UNL     1     -34.143  15.681  -6.565  1.00 20.00     0.045 C 
HETATM    7  C7  UNL     1     -36.630  15.671  -6.474  1.00 20.00     0.045 C 
HETATM    8  O8  UNL     1     -35.411  13.900  -5.482  1.00 20.00    -0.381 OA
HETATM    9 CL9  UNL     1     -34.610  16.113  -1.722  1.00 20.00    -0.125 Cl
ENDROOT
TORSDOF 0
ENDMDL
MODEL 3
REMARK VINA RESULT:      -3.8     11.877     12.995
REMARK  0 active torsions:
REMARK  status: ('A' for Active; 'I' for Inactive)
ROOT
HETATM    1  C1  UNL     1     -41.442   4.540  -0.891  1.00 20.00     0.046 C 
HETATM    2  C2  UNL     1     -42.795   5.409  -2.808  1.00 20.00     0.057 C 
HETATM    3  C3  UNL     1     -40.771   5.902  -0.737  1.00 20.00     0.170 C 
HETATM    4  C4  UNL     1     -41.854   4.301  -2.334  1.00 20.00     0.087 C 
HETATM    5  C5  UNL     1     -42.343   6.813  -2.338  1.00 20.00     0.055 C 
HETATM    6  C6  UNL     1     -43.294   7.385  -1.275  1.00 20.00     0.045 C 
HETATM    7  C7  UNL     1     -42.321   7.777  -3.532  1.00 20.00     0.045 C 
HETATM    8  O8  UNL     1     -40.999   6.776  -1.841  1.00 20.00    -0.381 OA
HETATM    9 CL9  UNL     1     -42.631   2.706  -2.509  1.00 20.00    -0.125 Cl
ENDROOT
TORSDOF 0
ENDMDL
MODEL 4
REMARK VINA RESULT:      -3.8      2.564      3.762
REMARK  0 active torsions:
REMARK  status: ('A' for Active; 'I' for Inactive)
ROOT
HETATM    1  C1  UNL     1     -34.463  13.441  -4.978  1.00 20.00     0.046 C 
HETATM    2  C2  UNL     1     -34.955  15.887  -5.181  1.00 20.00     0.057 C 
HETATM    3  C3  UNL     1     -33.536  13.718  -3.797  1.00 20.00     0.170 C 
HETATM    4  C4  UNL     1     -34.500  14.630  -5.924  1.00 20.00     0.087 C 
HETATM    5  C5  UNL     1     -34.310  16.013  -3.779  1.00 20.00     0.055 C 
HETATM    6  C6  UNL     1     -35.341  15.794  -2.661  1.00 20.00     0.045 C 
HETATM    7  C7  UNL     1     -33.708  17.414  -3.610  1.00 20.00     0.045 C 
HETATM    8  O8  UNL     1     -33.215  15.098  -3.638  1.00 20.00    -0.381 OA
HETATM    9 CL9  UNL     1     -35.578  14.299  -7.305  1.00 20.00    -0.125 Cl
ENDROOT
TORSDOF 0
ENDMDL
MODEL 5
REMARK VINA RESULT:      -3.7      2.373      3.588
REMARK  0 active torsions:
REMARK  status: ('A' for Active; 'I' for Inactive)
ROOT
HETATM    1  C1  UNL     1     -36.010  15.416  -4.853  1.00 20.00     0.046 C 
HETATM    2  C2  UNL     1     -34.346  15.100  -3.010  1.00 20.00     0.057 C 
HETATM    3  C3  UNL     1     -36.657  16.564  -4.083  1.00 20.00     0.170 C 
HETATM    4  C4  UNL     1     -35.383  14.412  -3.900  1.00 20.00     0.087 C 
HETATM    5  C5  UNL     1     -34.826  16.482  -2.501  1.00 20.00     0.055 C 
HETATM    6  C6  UNL     1     -34.038  17.628  -3.153  1.00 20.00     0.045 C 
HETATM    7  C7  UNL     1     -34.631  16.569  -0.981  1.00 20.00     0.045 C 
HETATM    8  O8  UNL     1     -36.231  16.648  -2.724  1.00 20.00    -0.381 OA
HETATM    9 CL9  UNL     1     -34.634  13.070  -4.804  1.00 20.00    -0.125 Cl
ENDROOT
TORSDOF 0
ENDMDL
MODEL 6
REMARK VINA RESULT:      -3.6      1.543      2.349
REMARK  0 active torsions:
REMARK  status: ('A' for Active; 'I' for Inactive)
ROOT
HETATM    1  C1  UNL     1     -35.767  15.527  -2.781  1.00 20.00     0.046 C 
HETATM    2  C2  UNL     1     -33.857  15.609  -4.396  1.00 20.00     0.057 C 
HETATM    3  C3  UNL     1     -36.680  14.981  -3.876  1.00 20.00     0.170 C 
HETATM    4  C4  UNL     1     -34.675  16.401  -3.375  1.00 20.00     0.087 C 
HETATM    5  C5  UNL     1     -34.742  14.723  -5.306  1.00 20.00     0.055 C 
HETATM    6  C6  UNL     1     -34.552  13.230  -4.998  1.00 20.00     0.045 C 
HETATM    7  C7  UNL     1     -34.374  14.961  -6.776  1.00 20.00     0.045 C 
HETATM    8  O8  UNL     1     -36.123  15.087  -5.185  1.00 20.00    -0.381 OA
HETATM    9 CL9  UNL     1     -33.616  17.042  -2.092  1.00 20.00    -0.125 Cl
ENDROOT
TORSDOF 0
ENDMDL
MODEL 7
REMARK VINA RESULT:      -3.5     12.151     13.069
REMARK  0 active torsions:
REMARK  status: ('A' for Active; 'I' for Inactive)
ROOT
HETATM    1  C1  UNL     1     -43.045   5.151  -3.050  1.00 20.00     0.046 C 
HETATM    2  C2  UNL     1     -42.166   6.942  -1.539  1.00 20.00     0.057 C 
HETATM    3  C3  UNL     1     -42.180   4.114  -2.338  1.00 20.00     0.170 C 
HETATM    4  C4  UNL     1     -42.399   6.525  -2.992  1.00 20.00     0.087 C 
HETATM    5  C5  UNL     1     -41.632   5.779  -0.667  1.00 20.00     0.055 C 
HETATM    6  C6  UNL     1     -42.685   5.301   0.344  1.00 20.00     0.045 C 
HETATM    7  C7  UNL     1     -40.394   6.244   0.112  1.00 20.00     0.045 C 
HETATM    8  O8  UNL     1     -41.191   4.689  -1.485  1.00 20.00    -0.381 OA
HETATM    9 CL9  UNL     1     -43.409   7.730  -3.831  1.00 20.00    -0.125 Cl
ENDROOT
TORSDOF 0
ENDMDL
MODEL 8
REMARK VINA RESULT:      -3.5      2.303      3.020
REMARK  0 active torsions:
REMARK  status: ('A' for Active; 'I' for Inactive)
ROOT
HETATM    1  C1  UNL     1     -35.050  16.250  -6.665  1.00 20.00     0.046 C 
HETATM    2  C2  UNL     1     -33.764  16.036  -4.528  1.00 20.00     0.057 C 
HETATM    3  C3  UNL     1     -35.237  14.736  -6.713  1.00 20.00     0.170 C 
HETATM    4  C4  UNL     1     -33.761  16.611  -5.945  1.00 20.00     0.087 C 
HETATM    5  C5  UNL     1     -34.320  14.591  -4.476  1.00 20.00     0.055 C 
HETATM    6  C6  UNL     1     -35.688  14.538  -3.778  1.00 20.00     0.045 C 
HETATM    7  C7  UNL     1     -33.349  13.691  -3.701  1.00 20.00     0.045 C 
HETATM    8  O8  UNL     1     -34.407  14.031  -5.792  1.00 20.00    -0.381 OA
HETATM    9 CL9  UNL     1     -33.543  18.380  -5.898  1.00 20.00    -0.125 Cl
ENDROOT
TORSDOF 0
ENDMDL
MODEL 9
REMARK VINA RESULT:      -3.5      2.416      3.174
REMARK  0 active torsions:
REMARK  status: ('A' for Active; 'I' for Inactive)
ROOT
HETATM    1  C1  UNL     1     -33.355  16.625  -5.130  1.00 20.00     0.046 C 
HETATM    2  C2  UNL     1     -34.679  17.716  -3.308  1.00 20.00     0.057 C 
HETATM    3  C3  UNL     1     -33.019  15.463  -4.200  1.00 20.00     0.170 C 
HETATM    4  C4  UNL     1     -33.565  17.906  -4.339  1.00 20.00     0.087 C 
HETATM    5  C5  UNL     1     -34.596  16.348  -2.589  1.00 20.00     0.055 C 
HETATM    6  C6  UNL     1     -35.745  15.418  -3.008  1.00 20.00     0.045 C 
HETATM    7  C7  UNL     1     -34.675  16.555  -1.070  1.00 20.00     0.045 C 
HETATM    8  O8  UNL     1     -33.330  15.721  -2.832  1.00 20.00    -0.381 OA
HETATM    9 CL9  UNL     1     -33.951  19.262  -5.430  1.00 20.00    -0.125 Cl
ENDROOT
TORSDOF 0
ENDMDL
