MODEL 1
REMARK VINA RESULT:      -4.6      0.000      0.000
REMARK  0 active torsions:
REMARK  status: ('A' for Active; 'I' for Inactive)
ROOT
HETATM    1  C1  UNL     1     -33.730  16.390  -4.360  1.00 20.00     0.085 C 
HETATM    2  C2  UNL     1     -33.986  14.197  -3.224  1.00 20.00     0.067 C 
HETATM    3  C3  UNL     1     -35.928  15.791  -3.341  1.00 20.00     0.078 C 
HETATM    4  C4  UNL     1     -34.665  13.395  -4.330  1.00 20.00     0.171 C 
HETATM    5  C5  UNL     1     -34.399  15.671  -3.264  1.00 20.00     0.130 C 
HETATM    6  C6  UNL     1     -36.589  14.856  -4.383  1.00 20.00     0.056 C 
HETATM    7  C7  UNL     1     -36.447  15.359  -5.827  1.00 20.00     0.045 C 
HETATM    8  C8  UNL     1     -38.093  14.759  -4.072  1.00 20.00     0.045 C 
HETATM    9  N9  UNL     1     -33.203  16.957  -5.224  1.00 20.00    -0.195 NA
HETATM   10  O10 UNL     1     -36.082  13.519  -4.261  1.00 20.00    -0.381 OA
HETATM   11 CL11 UNL     1     -33.821  16.479  -1.761  1.00 20.00    -0.103 Cl
ENDROOT
TORSDOF 0
ENDMDL
MODEL 2
REMARK VINA RESULT:      -4.6      2.588      3.789
REMARK  0 active torsions:
REMARK  status: ('A' for Active; 'I' for Inactive)
ROOT
HETATM    1  C1  UNL     1     -35.363  13.670  -4.565  1.00 20.00     0.085 C 
HETATM    2  C2  UNL     1     -35.941  15.957  -5.341  1.00 20.00     0.067 C 
HETATM    3  C3  UNL     1     -35.374  15.551  -2.925  1.00 20.00     0.078 C 
HETATM    4  C4  UNL     1     -34.545  16.552  -5.498  1.00 20.00     0.171 C 
HETATM    5  C5  UNL     1     -35.995  14.946  -4.192  1.00 20.00     0.130 C 
HETATM    6  C6  UNL     1     -34.022  16.268  -3.156  1.00 20.00     0.056 C 
HETATM    7  C7  UNL     1     -32.840  15.300  -3.309  1.00 20.00     0.045 C 
HETATM    8  C8  UNL     1     -33.730  17.169  -1.944  1.00 20.00     0.045 C 
HETATM    9  N9  UNL     1     -34.864  12.665  -4.859  1.00 20.00    -0.195 NA
HETATM   10  O10 UNL     1     -34.101  17.151  -4.285  1.00 20.00    -0.381 OA
HETATM   11 CL11 UNL     1     -37.716  14.529  -3.863  1.00 20.00    -0.103 Cl
ENDROOT
TORSDOF 0
ENDMDL
MODEL 3
REMARK VINA RESULT:      -4.5      2.905      3.725
REMARK  0 active torsions:
REMARK  status: ('A' for Active; 'I' for Inactive)
ROOT
HETATM    1  C1  UNL     1     -35.102  13.848  -4.904  1.00 20.00     0.085 C 
HETATM    2  C2  UNL     1     -34.043  15.795  -6.024  1.00 20.00     0.067 C 
HETATM    3  C3  UNL     1     -36.029  16.133  -4.518  1.00 20.00     0.078 C 
HETATM    4  C4  UNL     1     -33.176  16.324  -4.887  1.00 20.00     0.171 C 
HETATM    5  C5  UNL     1     -35.340  15.173  -5.499  1.00 20.00     0.130 C 
HETATM    6  C6  UNL     1     -35.081  16.756  -3.465  1.00 20.00     0.056 C 
HETATM    7  C7  UNL     1     -34.727  15.794  -2.322  1.00 20.00     0.045 C 
HETATM    8  C8  UNL     1     -35.775  17.981  -2.843  1.00 20.00     0.045 C 
HETATM    9  N9  UNL     1     -34.915  12.804  -4.435  1.00 20.00    -0.195 NA
HETATM   10  O10 UNL     1     -33.891  17.261  -4.088  1.00 20.00    -0.381 OA
HETATM   11 CL11 UNL     1     -36.443  14.862  -6.890  1.00 20.00    -0.103 Cl
ENDROOT
TORSDOF 0
ENDMDL
MODEL 4
REMARK VINA RESULT:      -4.5      2.301      3.059
REMARK  0 active torsions:
REMARK  status: ('A' for Active; 'I' for Inactive)
ROOT
HETATM    1  C1  UNL     1     -34.528  13.670  -4.267  1.00 20.00     0.085 C 
HETATM    2  C2  UNL     1     -34.608  15.584  -2.688  1.00 20.00     0.067 C 
HETATM    3  C3  UNL     1     -33.969  15.959  -5.091  1.00 20.00     0.078 C 
HETATM    4  C4  UNL     1     -35.977  16.164  -3.032  1.00 20.00     0.171 C 
HETATM    5  C5  UNL     1     -33.933  14.970  -3.917  1.00 20.00     0.130 C 
HETATM    6  C6  UNL     1     -35.345  16.630  -5.317  1.00 20.00     0.056 C 
HETATM    7  C7  UNL     1     -36.359  15.714  -6.019  1.00 20.00     0.045 C 
HETATM    8  C8  UNL     1     -35.147  17.870  -6.206  1.00 20.00     0.045 C 
HETATM    9  N9  UNL     1     -34.997  12.646  -4.544  1.00 20.00    -0.195 NA
HETATM   10  O10 UNL     1     -35.880  17.123  -4.080  1.00 20.00    -0.381 OA
HETATM   11 CL11 UNL     1     -32.217  14.597  -3.514  1.00 20.00    -0.103 Cl
ENDROOT
TORSDOF 0
ENDMDL
MODEL 5
REMARK VINA RESULT:      -4.4      2.377      3.576
REMARK  0 active torsions:
REMARK  status: ('A' for Active; 'I' for Inactive)
ROOT
HETATM    1  C1  UNL     1     -37.309  15.114  -3.683  1.00 20.00     0.085 C 
HETATM    2  C2  UNL     1     -35.986  16.755  -4.996  1.00 20.00     0.067 C 
HETATM    3  C3  UNL     1     -34.923  15.524  -3.078  1.00 20.00     0.078 C 
HETATM    4  C4  UNL     1     -35.234  15.812  -5.929  1.00 20.00     0.171 C 
HETATM    5  C5  UNL     1     -36.230  16.113  -3.627  1.00 20.00     0.130 C 
HETATM    6  C6  UNL     1     -34.120  14.688  -4.104  1.00 20.00     0.056 C 
HETATM    7  C7  UNL     1     -34.696  13.282  -4.325  1.00 20.00     0.045 C 
HETATM    8  C8  UNL     1     -32.681  14.523  -3.585  1.00 20.00     0.045 C 
HETATM    9  N9  UNL     1     -38.159  14.326  -3.727  1.00 20.00    -0.195 NA
HETATM   10  O10 UNL     1     -34.003  15.388  -5.351  1.00 20.00    -0.381 OA
HETATM   11 CL11 UNL     1     -36.829  17.375  -2.490  1.00 20.00    -0.103 Cl
ENDROOT
TORSDOF 0
ENDMDL
MODEL 6
REMARK VINA RESULT:      -4.4      1.960      2.781
REMARK  0 active torsions:
REMARK  status: ('A' for Active; 'I' for Inactive)
ROOT
HETATM    1  C1  UNL     1     -34.066  14.141  -3.634  1.00 20.00     0.085 C 
HETATM    2  C2  UNL     1     -36.324  15.166  -3.506  1.00 20.00     0.067 C 
HETATM    3  C3  UNL     1     -34.436  16.409  -4.607  1.00 20.00     0.078 C 
HETATM    4  C4  UNL     1     -36.845  14.852  -4.905  1.00 20.00     0.171 C 
HETATM    5  C5  UNL     1     -34.812  15.404  -3.509  1.00 20.00     0.130 C 
HETATM    6  C6  UNL     1     -35.099  16.132  -5.979  1.00 20.00     0.056 C 
HETATM    7  C7  UNL     1     -34.431  14.988  -6.755  1.00 20.00     0.045 C 
HETATM    8  C8  UNL     1     -34.993  17.402  -6.841  1.00 20.00     0.045 C 
HETATM    9  N9  UNL     1     -33.478  13.146  -3.732  1.00 20.00    -0.195 NA
HETATM   10  O10 UNL     1     -36.504  15.885  -5.824  1.00 20.00    -0.381 OA
HETATM   11 CL11 UNL     1     -34.323  16.072  -1.909  1.00 20.00    -0.103 Cl
ENDROOT
TORSDOF 0
ENDMDL
MODEL 7
REMARK VINA RESULT:      -4.4      2.813      3.783
REMARK  0 active torsions:
REMARK  status: ('A' for Active; 'I' for Inactive)
ROOT
HETATM    1  C1  UNL     1     -37.082  14.551  -4.311  1.00 20.00     0.085 C 
HETATM    2  C2  UNL     1     -34.829  13.784  -5.016  1.00 20.00     0.067 C 
HETATM    3  C3  UNL     1     -35.301  16.241  -4.759  1.00 20.00     0.078 C 
HETATM    4  C4  UNL     1     -34.088  13.856  -3.685  1.00 20.00     0.171 C 
HETATM    5  C5  UNL     1     -35.899  14.874  -5.124  1.00 20.00     0.130 C 
HETATM    6  C6  UNL     1     -34.440  16.237  -3.473  1.00 20.00     0.056 C 
HETATM    7  C7  UNL     1     -35.274  16.225  -2.184  1.00 20.00     0.045 C 
HETATM    8  C8  UNL     1     -33.578  17.512  -3.455  1.00 20.00     0.045 C 
HETATM    9  N9  UNL     1     -38.015  14.297  -3.670  1.00 20.00    -0.195 NA
HETATM   10  O10 UNL     1     -33.511  15.143  -3.486  1.00 20.00    -0.381 OA
HETATM   11 CL11 UNL     1     -36.505  14.931  -6.819  1.00 20.00    -0.103 Cl
ENDROOT
TORSDOF 0
ENDMDL
MODEL 8
REMARK VINA RESULT:      -4.3      2.781      3.660
REMARK  0 active torsions:
REMARK  status: ('A' for Active; 'I' for Inactive)
ROOT
HETATM    1  C1  UNL     1     -36.292  14.447  -4.020  1.00 20.00     0.085 C 
HETATM    2  C2  UNL     1     -34.038  14.804  -3.043  1.00 20.00     0.067 C 
HETATM    3  C3  UNL     1     -34.530  15.568  -5.387  1.00 20.00     0.078 C 
HETATM    4  C4  UNL     1     -34.155  16.263  -2.614  1.00 20.00     0.171 C 
HETATM    5  C5  UNL     1     -34.851  14.523  -4.309  1.00 20.00     0.130 C 
HETATM    6  C6  UNL     1     -34.523  17.030  -4.876  1.00 20.00     0.056 C 
HETATM    7  C7  UNL     1     -35.931  17.613  -4.686  1.00 20.00     0.045 C 
HETATM    8  C8  UNL     1     -33.792  17.907  -5.907  1.00 20.00     0.045 C 
HETATM    9  N9  UNL     1     -37.428  14.388  -3.793  1.00 20.00    -0.195 NA
HETATM   10  O10 UNL     1     -33.762  17.141  -3.665  1.00 20.00    -0.381 OA
HETATM   11 CL11 UNL     1     -34.418  12.888  -4.929  1.00 20.00    -0.103 Cl
ENDROOT
TORSDOF 0
ENDMDL
MODEL 9
REMARK VINA RESULT:      -4.3      2.288      3.080
REMARK  0 active torsions:
REMARK  status: ('A' for Active; 'I' for Inactive)
ROOT
HETATM    1  C1  UNL     1     -35.374  15.673  -2.732  1.00 20.00     0.085 C 
HETATM    2  C2  UNL     1     -35.696  13.699  -4.203  1.00 20.00     0.067 C 
HETATM    3  C3  UNL     1     -35.859  16.021  -5.155  1.00 20.00     0.078 C 
HETATM    4  C4  UNL     1     -34.314  13.607  -4.841  1.00 20.00     0.171 C 
HETATM    5  C5  UNL     1     -36.085  15.151  -3.910  1.00 20.00     0.130 C 
HETATM    6  C6  UNL     1     -34.497  15.793  -5.854  1.00 20.00     0.056 C 
HETATM    7  C7  UNL     1     -33.324  16.471  -5.131  1.00 20.00     0.045 C 
HETATM    8  C8  UNL     1     -34.569  16.381  -7.274  1.00 20.00     0.045 C 
HETATM    9  N9  UNL     1     -34.814  16.086  -1.804  1.00 20.00    -0.195 NA
HETATM   10  O10 UNL     1     -34.242  14.392  -6.027  1.00 20.00    -0.381 OA
HETATM   11 CL11 UNL     1     -37.828  15.209  -3.460  1.00 20.00    -0.103 Cl
ENDROOT
TORSDOF 0
ENDMDL
