MODEL 1
REMARK VINA RESULT:      -5.2      0.000      0.000
REMARK  0 active torsions:
REMARK  status: ('A' for Active; 'I' for Inactive)
ROOT
HETATM    1  C1  UNL     1     -35.015  13.438  -4.721  1.00 20.00     0.000 C 
HETATM    2  C2  UNL     1     -35.263  14.107  -6.078  1.00 20.00     0.000 C 
HETATM    3  C3  UNL     1     -33.684  13.762  -4.055  1.00 20.00     0.003 C 
HETATM    4  C4  UNL     1     -34.152  15.020  -6.581  1.00 20.00     0.003 C 
HETATM    5  C5  UNL     1     -33.515  15.194  -3.531  1.00 20.00     0.038 C 
HETATM    6  C6  UNL     1     -33.921  16.318  -5.798  1.00 20.00     0.038 C 
HETATM    7  C7  UNL     1     -35.857  17.948  -2.407  1.00 20.00     0.046 C 
HETATM    8  C8  UNL     1     -33.747  17.742  -3.758  1.00 20.00     0.058 C 
HETATM    9  C9  UNL     1     -36.191  16.535  -2.857  1.00 20.00     0.170 C 
HETATM   10  C10 UNL     1     -34.356  18.213  -2.434  1.00 20.00     0.087 C 
HETATM   11  C11 UNL     1     -34.226  16.350  -4.277  1.00 20.00     0.062 C 
HETATM   12  O12 UNL     1     -35.654  16.272  -4.150  1.00 20.00    -0.380 OA
HETATM   13 CL13 UNL     1     -33.549  17.464  -1.027  1.00 20.00    -0.125 Cl
ENDROOT
TORSDOF 0
ENDMDL
MODEL 2
REMARK VINA RESULT:      -5.0      2.098      2.913
REMARK  0 active torsions:
REMARK  status: ('A' for Active; 'I' for Inactive)
ROOT
HETATM    1  C1  UNL     1     -36.782  15.225  -7.539  1.00 20.00     0.000 C 
HETATM    2  C2  UNL     1     -36.731  16.752  -7.664  1.00 20.00     0.000 C 
HETATM    3  C3  UNL     1     -35.443  14.505  -7.656  1.00 20.00     0.003 C 
HETATM    4  C4  UNL     1     -35.348  17.356  -7.878  1.00 20.00     0.003 C 
HETATM    5  C5  UNL     1     -34.460  14.702  -6.496  1.00 20.00     0.038 C 
HETATM    6  C6  UNL     1     -34.366  17.254  -6.705  1.00 20.00     0.038 C 
HETATM    7  C7  UNL     1     -34.759  15.601  -2.830  1.00 20.00     0.046 C 
HETATM    8  C8  UNL     1     -33.251  16.160  -4.761  1.00 20.00     0.058 C 
HETATM    9  C9  UNL     1     -35.863  15.388  -3.854  1.00 20.00     0.170 C 
HETATM   10  C10 UNL     1     -33.375  15.402  -3.437  1.00 20.00     0.087 C 
HETATM   11  C11 UNL     1     -34.467  16.049  -5.733  1.00 20.00     0.062 C 
HETATM   12  O12 UNL     1     -35.679  16.236  -4.985  1.00 20.00    -0.380 OA
HETATM   13 CL13 UNL     1     -33.004  13.664  -3.628  1.00 20.00    -0.125 Cl
ENDROOT
TORSDOF 0
ENDMDL
MODEL 3
REMARK VINA RESULT:      -4.9      1.455      2.394
REMARK  0 active torsions:
REMARK  status: ('A' for Active; 'I' for Inactive)
ROOT
HETATM    1  C1  UNL     1     -36.193  14.990  -5.974  1.00 20.00     0.000 C 
HETATM    2  C2  UNL     1     -34.930  14.122  -5.975  1.00 20.00     0.000 C 
HETATM    3  C3  UNL     1     -37.036  14.932  -4.705  1.00 20.00     0.003 C 
HETATM    4  C4  UNL     1     -34.671  13.322  -4.705  1.00 20.00     0.003 C 
HETATM    5  C5  UNL     1     -36.428  15.579  -3.454  1.00 20.00     0.038 C 
HETATM    6  C6  UNL     1     -34.317  14.126  -3.448  1.00 20.00     0.038 C 
HETATM    7  C7  UNL     1     -33.860  18.281  -2.792  1.00 20.00     0.046 C 
HETATM    8  C8  UNL     1     -34.475  16.034  -1.849  1.00 20.00     0.058 C 
HETATM    9  C9  UNL     1     -34.402  17.785  -4.123  1.00 20.00     0.170 C 
HETATM   10  C10 UNL     1     -34.488  17.547  -1.613  1.00 20.00     0.087 C 
HETATM   11  C11 UNL     1     -34.890  15.558  -3.277  1.00 20.00     0.062 C 
HETATM   12  O12 UNL     1     -34.226  16.377  -4.252  1.00 20.00    -0.380 OA
HETATM   13 CL13 UNL     1     -36.136  18.155  -1.285  1.00 20.00    -0.125 Cl
ENDROOT
TORSDOF 0
ENDMDL
MODEL 4
REMARK VINA RESULT:      -4.9      1.559      2.148
REMARK  0 active torsions:
REMARK  status: ('A' for Active; 'I' for Inactive)
ROOT
HETATM    1  C1  UNL     1     -37.476  15.596  -5.568  1.00 20.00     0.000 C 
HETATM    2  C2  UNL     1     -36.427  15.384  -6.666  1.00 20.00     0.000 C 
HETATM    3  C3  UNL     1     -37.310  14.740  -4.318  1.00 20.00     0.003 C 
HETATM    4  C4  UNL     1     -35.346  14.355  -6.362  1.00 20.00     0.003 C 
HETATM    5  C5  UNL     1     -36.110  15.070  -3.422  1.00 20.00     0.038 C 
HETATM    6  C6  UNL     1     -34.351  14.711  -5.250  1.00 20.00     0.038 C 
HETATM    7  C7  UNL     1     -33.977  18.133  -2.790  1.00 20.00     0.046 C 
HETATM    8  C8  UNL     1     -33.637  15.657  -3.056  1.00 20.00     0.058 C 
HETATM    9  C9  UNL     1     -35.191  17.985  -3.693  1.00 20.00     0.170 C 
HETATM   10  C10 UNL     1     -33.639  16.830  -2.073  1.00 20.00     0.087 C 
HETATM   11  C11 UNL     1     -34.817  15.613  -4.076  1.00 20.00     0.062 C 
HETATM   12  O12 UNL     1     -35.005  16.926  -4.628  1.00 20.00    -0.380 OA
HETATM   13 CL13 UNL     1     -34.751  16.548  -0.703  1.00 20.00    -0.125 Cl
ENDROOT
TORSDOF 0
ENDMDL
MODEL 5
REMARK VINA RESULT:      -4.8      2.032      4.380
REMARK  0 active torsions:
REMARK  status: ('A' for Active; 'I' for Inactive)
ROOT
HETATM    1  C1  UNL     1     -33.668  17.920  -1.456  1.00 20.00     0.000 C 
HETATM    2  C2  UNL     1     -34.520  19.060  -2.025  1.00 20.00     0.000 C 
HETATM    3  C3  UNL     1     -34.418  16.638  -1.114  1.00 20.00     0.003 C 
HETATM    4  C4  UNL     1     -36.005  18.762  -2.188  1.00 20.00     0.003 C 
HETATM    5  C5  UNL     1     -34.954  15.825  -2.298  1.00 20.00     0.038 C 
HETATM    6  C6  UNL     1     -36.386  17.725  -3.251  1.00 20.00     0.038 C 
HETATM    7  C7  UNL     1     -34.042  15.467  -5.956  1.00 20.00     0.046 C 
HETATM    8  C8  UNL     1     -36.134  15.624  -4.571  1.00 20.00     0.058 C 
HETATM    9  C9  UNL     1     -33.360  16.295  -4.878  1.00 20.00     0.170 C 
HETATM   10  C10 UNL     1     -35.244  14.703  -5.410  1.00 20.00     0.087 C 
HETATM   11  C11 UNL     1     -35.396  16.576  -3.579  1.00 20.00     0.062 C 
HETATM   12  O12 UNL     1     -34.284  17.183  -4.256  1.00 20.00    -0.380 OA
HETATM   13 CL13 UNL     1     -34.722  13.263  -4.491  1.00 20.00    -0.125 Cl
ENDROOT
TORSDOF 0
ENDMDL
MODEL 6
REMARK VINA RESULT:      -4.8      2.297      3.086
REMARK  0 active torsions:
REMARK  status: ('A' for Active; 'I' for Inactive)
ROOT
HETATM    1  C1  UNL     1     -34.272  14.911  -3.106  1.00 20.00     0.000 C 
HETATM    2  C2  UNL     1     -35.111  13.850  -3.827  1.00 20.00     0.000 C 
HETATM    3  C3  UNL     1     -33.041  15.405  -3.857  1.00 20.00     0.003 C 
HETATM    4  C4  UNL     1     -34.616  13.435  -5.207  1.00 20.00     0.003 C 
HETATM    5  C5  UNL     1     -33.302  16.264  -5.101  1.00 20.00     0.038 C 
HETATM    6  C6  UNL     1     -34.701  14.492  -6.314  1.00 20.00     0.038 C 
HETATM    7  C7  UNL     1     -36.128  18.475  -6.308  1.00 20.00     0.046 C 
HETATM    8  C8  UNL     1     -34.548  16.783  -7.286  1.00 20.00     0.058 C 
HETATM    9  C9  UNL     1     -36.001  17.719  -4.994  1.00 20.00     0.170 C 
HETATM   10  C10 UNL     1     -34.912  18.268  -7.203  1.00 20.00     0.087 C 
HETATM   11  C11 UNL     1     -34.574  15.993  -5.941  1.00 20.00     0.062 C 
HETATM   12  O12 UNL     1     -35.772  16.332  -5.225  1.00 20.00    -0.380 OA
HETATM   13 CL13 UNL     1     -33.533  19.261  -6.647  1.00 20.00    -0.125 Cl
ENDROOT
TORSDOF 0
ENDMDL
MODEL 7
REMARK VINA RESULT:      -4.8      2.728      4.073
REMARK  0 active torsions:
REMARK  status: ('A' for Active; 'I' for Inactive)
ROOT
HETATM    1  C1  UNL     1     -33.449  13.664  -3.986  1.00 20.00     0.000 C 
HETATM    2  C2  UNL     1     -32.842  14.951  -3.415  1.00 20.00     0.000 C 
HETATM    3  C3  UNL     1     -34.959  13.519  -3.834  1.00 20.00     0.003 C 
HETATM    4  C4  UNL     1     -33.826  15.926  -2.781  1.00 20.00     0.003 C 
HETATM    5  C5  UNL     1     -35.822  14.462  -4.682  1.00 20.00     0.038 C 
HETATM    6  C6  UNL     1     -34.815  16.617  -3.727  1.00 20.00     0.038 C 
HETATM    7  C7  UNL     1     -35.350  16.372  -7.917  1.00 20.00     0.046 C 
HETATM    8  C8  UNL     1     -36.383  16.770  -5.661  1.00 20.00     0.058 C 
HETATM    9  C9  UNL     1     -34.392  15.416  -7.224  1.00 20.00     0.170 C 
HETATM   10  C10 UNL     1     -36.657  16.524  -7.147  1.00 20.00     0.087 C 
HETATM   11  C11 UNL     1     -35.282  15.876  -5.008  1.00 20.00     0.062 C 
HETATM   12  O12 UNL     1     -34.144  15.828  -5.883  1.00 20.00    -0.380 OA
HETATM   13 CL13 UNL     1     -37.719  15.110  -7.403  1.00 20.00    -0.125 Cl
ENDROOT
TORSDOF 0
ENDMDL
MODEL 8
REMARK VINA RESULT:      -4.7      2.146      4.414
REMARK  0 active torsions:
REMARK  status: ('A' for Active; 'I' for Inactive)
ROOT
HETATM    1  C1  UNL     1     -36.410  18.385  -2.529  1.00 20.00     0.000 C 
HETATM    2  C2  UNL     1     -35.877  17.959  -1.156  1.00 20.00     0.000 C 
HETATM    3  C3  UNL     1     -35.360  18.577  -3.617  1.00 20.00     0.003 C 
HETATM    4  C4  UNL     1     -34.369  17.771  -1.057  1.00 20.00     0.003 C 
HETATM    5  C5  UNL     1     -34.669  17.307  -4.129  1.00 20.00     0.038 C 
HETATM    6  C6  UNL     1     -33.771  16.594  -1.838  1.00 20.00     0.038 C 
HETATM    7  C7  UNL     1     -35.552  13.629  -4.274  1.00 20.00     0.046 C 
HETATM    8  C8  UNL     1     -33.530  15.034  -3.768  1.00 20.00     0.058 C 
HETATM    9  C9  UNL     1     -36.391  14.793  -3.771  1.00 20.00     0.170 C 
HETATM   10  C10 UNL     1     -34.187  14.086  -4.776  1.00 20.00     0.087 C 
HETATM   11  C11 UNL     1     -34.456  16.127  -3.150  1.00 20.00     0.062 C 
HETATM   12  O12 UNL     1     -35.698  15.521  -2.761  1.00 20.00    -0.380 OA
HETATM   13 CL13 UNL     1     -34.318  14.826  -6.397  1.00 20.00    -0.125 Cl
ENDROOT
TORSDOF 0
ENDMDL
MODEL 9
REMARK VINA RESULT:      -4.7      2.324      3.358
REMARK  0 active torsions:
REMARK  status: ('A' for Active; 'I' for Inactive)
ROOT
HETATM    1  C1  UNL     1     -35.508  13.672  -4.252  1.00 20.00     0.000 C 
HETATM    2  C2  UNL     1     -34.023  13.293  -4.268  1.00 20.00     0.000 C 
HETATM    3  C3  UNL     1     -35.853  14.973  -3.536  1.00 20.00     0.003 C 
HETATM    4  C4  UNL     1     -33.080  14.270  -3.579  1.00 20.00     0.003 C 
HETATM    5  C5  UNL     1     -35.391  16.268  -4.218  1.00 20.00     0.038 C 
HETATM    6  C6  UNL     1     -32.907  15.642  -4.243  1.00 20.00     0.038 C 
HETATM    7  C7  UNL     1     -34.564  17.301  -7.765  1.00 20.00     0.046 C 
HETATM    8  C8  UNL     1     -33.648  17.690  -5.457  1.00 20.00     0.058 C 
HETATM    9  C9  UNL     1     -35.070  15.961  -7.254  1.00 20.00     0.170 C 
HETATM   10  C10 UNL     1     -34.398  18.314  -6.637  1.00 20.00     0.087 C 
HETATM   11  C11 UNL     1     -34.085  16.249  -5.049  1.00 20.00     0.062 C 
HETATM   12  O12 UNL     1     -34.216  15.449  -6.235  1.00 20.00    -0.380 OA
HETATM   13 CL13 UNL     1     -35.979  18.983  -6.142  1.00 20.00    -0.125 Cl
ENDROOT
TORSDOF 0
ENDMDL
