MODEL 1
REMARK VINA RESULT:      -3.8      0.000      0.000
REMARK  1 active torsions:
REMARK  status: ('A' for Active; 'I' for Inactive)
REMARK    1  A    between atoms: C4_4  and  S9_9 
ROOT
HETATM    1  C1  UNL     1     -41.633   7.121  -1.122  1.00 20.00     0.041 C 
HETATM    2  C2  UNL     1     -42.593   5.488  -2.765  1.00 20.00     0.052 C 
HETATM    3  C3  UNL     1     -40.727   6.031  -0.555  1.00 20.00     0.170 C 
HETATM    4  C4  UNL     1     -41.935   6.861  -2.592  1.00 20.00     0.049 C 
HETATM    5  C5  UNL     1     -41.952   4.404  -1.864  1.00 20.00     0.054 C 
HETATM    6  C6  UNL     1     -41.647   3.151  -2.699  1.00 20.00     0.045 C 
HETATM    7  C7  UNL     1     -42.888   3.995  -0.714  1.00 20.00     0.045 C 
HETATM    8  O8  UNL     1     -40.690   4.848  -1.352  1.00 20.00    -0.381 OA
ENDROOT
BRANCH   4   9
HETATM    9  S9  UNL     1     -43.005   8.171  -3.273  1.00 20.00    -0.177 SA
HETATM   10  H23 UNL     1     -43.561   7.407  -4.222  1.00 20.00     0.102 HD
ENDBRANCH   4   9
TORSDOF 1
ENDMDL
MODEL 2
REMARK VINA RESULT:      -3.7     12.431     13.156
REMARK  1 active torsions:
REMARK  status: ('A' for Active; 'I' for Inactive)
REMARK    1  A    between atoms: C4_4  and  S9_9 
ROOT
HETATM    1  C1  UNL     1     -34.439  16.677  -6.237  1.00 20.00     0.041 C 
HETATM    2  C2  UNL     1     -34.429  14.324  -5.373  1.00 20.00     0.052 C 
HETATM    3  C3  UNL     1     -33.391  17.071  -5.200  1.00 20.00     0.170 C 
HETATM    4  C4  UNL     1     -34.297  15.210  -6.617  1.00 20.00     0.049 C 
HETATM    5  C5  UNL     1     -33.705  14.918  -4.140  1.00 20.00     0.054 C 
HETATM    6  C6  UNL     1     -32.838  13.837  -3.479  1.00 20.00     0.045 C 
HETATM    7  C7  UNL     1     -34.702  15.437  -3.090  1.00 20.00     0.045 C 
HETATM    8  O8  UNL     1     -32.800  15.957  -4.533  1.00 20.00    -0.381 OA
ENDROOT
BRANCH   4   9
HETATM    9  S9  UNL     1     -35.538  14.742  -7.867  1.00 20.00    -0.177 SA
HETATM   10  H23 UNL     1     -34.667  14.607  -8.875  1.00 20.00     0.102 HD
ENDBRANCH   4   9
TORSDOF 1
ENDMDL
MODEL 3
REMARK VINA RESULT:      -3.6     11.492     12.750
REMARK  1 active torsions:
REMARK  status: ('A' for Active; 'I' for Inactive)
REMARK    1  A    between atoms: C4_4  and  S9_9 
ROOT
HETATM    1  C1  UNL     1     -34.878  14.040  -5.900  1.00 20.00     0.041 C 
HETATM    2  C2  UNL     1     -34.099  16.171  -4.834  1.00 20.00     0.052 C 
HETATM    3  C3  UNL     1     -35.019  13.394  -4.524  1.00 20.00     0.170 C 
HETATM    4  C4  UNL     1     -35.096  15.544  -5.815  1.00 20.00     0.049 C 
HETATM    5  C5  UNL     1     -33.889  15.308  -3.566  1.00 20.00     0.054 C 
HETATM    6  C6  UNL     1     -34.005  16.191  -2.315  1.00 20.00     0.045 C 
HETATM    7  C7  UNL     1     -32.502  14.644  -3.554  1.00 20.00     0.045 C 
HETATM    8  O8  UNL     1     -34.921  14.322  -3.445  1.00 20.00    -0.381 OA
ENDROOT
BRANCH   4   9
HETATM    9  S9  UNL     1     -34.941  16.314  -7.461  1.00 20.00    -0.177 SA
HETATM   10  H23 UNL     1     -36.003  15.697  -7.996  1.00 20.00     0.102 HD
ENDBRANCH   4   9
TORSDOF 1
ENDMDL
MODEL 4
REMARK VINA RESULT:      -3.6     12.306     13.344
REMARK  1 active torsions:
REMARK  status: ('A' for Active; 'I' for Inactive)
REMARK    1  A    between atoms: C4_4  and  S9_9 
ROOT
HETATM    1  C1  UNL     1     -34.125  15.995  -5.102  1.00 20.00     0.041 C 
HETATM    2  C2  UNL     1     -34.911  15.176  -2.866  1.00 20.00     0.052 C 
HETATM    3  C3  UNL     1     -33.634  17.292  -4.463  1.00 20.00     0.170 C 
HETATM    4  C4  UNL     1     -34.068  14.847  -4.104  1.00 20.00     0.049 C 
HETATM    5  C5  UNL     1     -34.758  16.650  -2.418  1.00 20.00     0.054 C 
HETATM    6  C6  UNL     1     -34.493  16.706  -0.906  1.00 20.00     0.045 C 
HETATM    7  C7  UNL     1     -36.028  17.467  -2.709  1.00 20.00     0.045 C 
HETATM    8  O8  UNL     1     -33.617  17.255  -3.037  1.00 20.00    -0.381 OA
ENDROOT
BRANCH   4   9
HETATM    9  S9  UNL     1     -34.641  13.295  -4.871  1.00 20.00    -0.177 SA
HETATM   10  H23 UNL     1     -33.965  12.484  -4.047  1.00 20.00     0.102 HD
ENDBRANCH   4   9
TORSDOF 1
ENDMDL
MODEL 5
REMARK VINA RESULT:      -3.5     11.815     12.901
REMARK  1 active torsions:
REMARK  status: ('A' for Active; 'I' for Inactive)
REMARK    1  A    between atoms: C4_4  and  S9_9 
ROOT
HETATM    1  C1  UNL     1     -33.691  17.262  -3.769  1.00 20.00     0.041 C 
HETATM    2  C2  UNL     1     -34.972  15.298  -2.881  1.00 20.00     0.052 C 
HETATM    3  C3  UNL     1     -33.374  16.489  -5.046  1.00 20.00     0.170 C 
HETATM    4  C4  UNL     1     -35.015  16.802  -3.174  1.00 20.00     0.049 C 
HETATM    5  C5  UNL     1     -34.260  14.495  -3.998  1.00 20.00     0.054 C 
HETATM    6  C6  UNL     1     -35.121  13.287  -4.393  1.00 20.00     0.045 C 
HETATM    7  C7  UNL     1     -32.889  13.974  -3.537  1.00 20.00     0.045 C 
HETATM    8  O8  UNL     1     -34.126  15.284  -5.186  1.00 20.00    -0.381 OA
ENDROOT
BRANCH   4   9
HETATM    9  S9  UNL     1     -35.400  17.736  -1.657  1.00 20.00    -0.177 SA
HETATM   10  H23 UNL     1     -36.645  17.261  -1.521  1.00 20.00     0.102 HD
ENDBRANCH   4   9
TORSDOF 1
ENDMDL
MODEL 6
REMARK VINA RESULT:      -3.5     11.280     12.561
REMARK  1 active torsions:
REMARK  status: ('A' for Active; 'I' for Inactive)
REMARK    1  A    between atoms: C4_4  and  S9_9 
ROOT
HETATM    1  C1  UNL     1     -35.575  13.626  -4.257  1.00 20.00     0.041 C 
HETATM    2  C2  UNL     1     -35.746  16.014  -5.004  1.00 20.00     0.052 C 
HETATM    3  C3  UNL     1     -34.053  13.696  -4.356  1.00 20.00     0.170 C 
HETATM    4  C4  UNL     1     -36.157  14.995  -3.934  1.00 20.00     0.049 C 
HETATM    5  C5  UNL     1     -34.273  15.842  -5.452  1.00 20.00     0.054 C 
HETATM    6  C6  UNL     1     -33.567  17.206  -5.439  1.00 20.00     0.045 C 
HETATM    7  C7  UNL     1     -34.176  15.269  -6.875  1.00 20.00     0.045 C 
HETATM    8  O8  UNL     1     -33.552  15.020  -4.527  1.00 20.00    -0.381 OA
ENDROOT
BRANCH   4   9
HETATM    9  S9  UNL     1     -37.973  14.910  -3.801  1.00 20.00    -0.177 SA
HETATM   10  H23 UNL     1     -38.111  16.060  -3.127  1.00 20.00     0.102 HD
ENDBRANCH   4   9
TORSDOF 1
ENDMDL
MODEL 7
REMARK VINA RESULT:      -3.5     11.409     12.554
REMARK  1 active torsions:
REMARK  status: ('A' for Active; 'I' for Inactive)
REMARK    1  A    between atoms: C4_4  and  S9_9 
ROOT
HETATM    1  C1  UNL     1     -33.334  15.996  -3.051  1.00 20.00     0.041 C 
HETATM    2  C2  UNL     1     -35.798  15.545  -2.946  1.00 20.00     0.052 C 
HETATM    3  C3  UNL     1     -33.350  15.774  -4.562  1.00 20.00     0.170 C 
HETATM    4  C4  UNL     1     -34.679  16.522  -2.570  1.00 20.00     0.049 C 
HETATM    5  C5  UNL     1     -35.618  14.954  -4.366  1.00 20.00     0.054 C 
HETATM    6  C6  UNL     1     -36.939  15.062  -5.142  1.00 20.00     0.045 C 
HETATM    7  C7  UNL     1     -35.213  13.471  -4.318  1.00 20.00     0.045 C 
HETATM    8  O8  UNL     1     -34.662  15.713  -5.116  1.00 20.00    -0.381 OA
ENDROOT
BRANCH   4   9
HETATM    9  S9  UNL     1     -34.656  16.802  -0.768  1.00 20.00    -0.177 SA
HETATM   10  H23 UNL     1     -34.370  18.108  -0.841  1.00 20.00     0.102 HD
ENDBRANCH   4   9
TORSDOF 1
ENDMDL
MODEL 8
REMARK VINA RESULT:      -3.5     11.953     12.680
REMARK  1 active torsions:
REMARK  status: ('A' for Active; 'I' for Inactive)
REMARK    1  A    between atoms: C4_4  and  S9_9 
ROOT
HETATM    1  C1  UNL     1     -35.950  16.839  -2.577  1.00 20.00     0.041 C 
HETATM    2  C2  UNL     1     -33.724  15.697  -2.746  1.00 20.00     0.052 C 
HETATM    3  C3  UNL     1     -36.590  15.729  -3.407  1.00 20.00     0.170 C 
HETATM    4  C4  UNL     1     -34.759  16.306  -1.792  1.00 20.00     0.049 C 
HETATM    5  C5  UNL     1     -34.376  14.880  -3.888  1.00 20.00     0.054 C 
HETATM    6  C6  UNL     1     -33.681  13.516  -4.009  1.00 20.00     0.045 C 
HETATM    7  C7  UNL     1     -34.255  15.599  -5.242  1.00 20.00     0.045 C 
HETATM    8  O8  UNL     1     -35.748  14.593  -3.590  1.00 20.00    -0.381 OA
ENDROOT
BRANCH   4   9
HETATM    9  S9  UNL     1     -34.002  17.626  -0.789  1.00 20.00    -0.177 SA
HETATM   10  H23 UNL     1     -33.314  16.805   0.015  1.00 20.00     0.102 HD
ENDBRANCH   4   9
TORSDOF 1
ENDMDL
MODEL 9
REMARK VINA RESULT:      -3.5     10.963     12.351
REMARK  1 active torsions:
REMARK  status: ('A' for Active; 'I' for Inactive)
REMARK    1  A    between atoms: C4_4  and  S9_9 
ROOT
HETATM    1  C1  UNL     1     -35.612  13.914  -4.641  1.00 20.00     0.041 C 
HETATM    2  C2  UNL     1     -35.809  16.045  -3.335  1.00 20.00     0.052 C 
HETATM    3  C3  UNL     1     -34.192  13.714  -4.117  1.00 20.00     0.170 C 
HETATM    4  C4  UNL     1     -36.454  14.687  -3.636  1.00 20.00     0.049 C 
HETATM    5  C5  UNL     1     -34.269  15.955  -3.205  1.00 20.00     0.054 C 
HETATM    6  C6  UNL     1     -33.814  16.683  -1.931  1.00 20.00     0.045 C 
HETATM    7  C7  UNL     1     -33.559  16.605  -4.404  1.00 20.00     0.045 C 
HETATM    8  O8  UNL     1     -33.849  14.594  -3.048  1.00 20.00    -0.381 OA
ENDROOT
BRANCH   4   9
HETATM    9  S9  UNL     1     -38.154  14.912  -4.256  1.00 20.00    -0.177 SA
HETATM   10  H23 UNL     1     -38.211  16.228  -4.009  1.00 20.00     0.102 HD
ENDBRANCH   4   9
TORSDOF 1
ENDMDL
