MODEL 1
REMARK VINA RESULT:      -4.4      0.000      0.000
REMARK  1 active torsions:
REMARK  status: ('A' for Active; 'I' for Inactive)
REMARK    1  A    between atoms: C6_6  and  C7_7 
ROOT
HETATM    1  C3  UNL     1     -34.213  15.388  -5.374  1.00 20.00     0.046 C 
HETATM    2  C4  UNL     1     -34.927  15.425  -2.967  1.00 20.00     0.052 C 
HETATM    3  C5  UNL     1     -33.259  16.529  -5.037  1.00 20.00     0.169 C 
HETATM    4  C7  UNL     1     -33.925  16.569  -2.755  1.00 20.00     0.126 C 
HETATM    5  C8  UNL     1     -34.542  14.535  -4.150  1.00 20.00     0.086 C 
HETATM    6  O9  UNL     1     -33.775  17.318  -3.966  1.00 20.00    -0.385 OA
HETATM    7 CL10 UNL     1     -33.143  13.500  -3.719  1.00 20.00    -0.125 Cl
ENDROOT
BRANCH   4   8
HETATM    8  C6  UNL     1     -34.389  17.504  -1.676  1.00 20.00     0.015 A 
HETATM    9  C1  UNL     1     -34.698  16.980  -0.301  1.00 20.00     0.007 A 
HETATM   10  C2  UNL     1     -33.483  17.838  -0.523  1.00 20.00     0.007 A 
ENDBRANCH   4   8
TORSDOF 1
ENDMDL
MODEL 2
REMARK VINA RESULT:      -4.2      2.077      2.634
REMARK  1 active torsions:
REMARK  status: ('A' for Active; 'I' for Inactive)
REMARK    1  A    between atoms: C6_6  and  C7_7 
ROOT
HETATM    1  C3  UNL     1     -34.907  13.923  -5.706  1.00 20.00     0.046 C 
HETATM    2  C4  UNL     1     -34.547  16.158  -4.619  1.00 20.00     0.052 C 
HETATM    3  C5  UNL     1     -35.088  13.349  -4.304  1.00 20.00     0.169 C 
HETATM    4  C7  UNL     1     -34.752  15.461  -3.266  1.00 20.00     0.126 C 
HETATM    5  C8  UNL     1     -35.240  15.413  -5.761  1.00 20.00     0.086 C 
HETATM    6  O9  UNL     1     -34.332  14.095  -3.351  1.00 20.00    -0.385 OA
HETATM    7 CL10 UNL     1     -37.014  15.658  -5.676  1.00 20.00    -0.125 Cl
ENDROOT
BRANCH   4   8
HETATM    8  C6  UNL     1     -33.958  16.132  -2.184  1.00 20.00     0.015 A 
HETATM    9  C1  UNL     1     -34.132  17.602  -1.916  1.00 20.00     0.007 A 
HETATM   10  C2  UNL     1     -34.636  16.591  -0.922  1.00 20.00     0.007 A 
ENDBRANCH   4   8
TORSDOF 1
ENDMDL
MODEL 3
REMARK VINA RESULT:      -4.1     11.920     12.662
REMARK  1 active torsions:
REMARK  status: ('A' for Active; 'I' for Inactive)
REMARK    1  A    between atoms: C6_6  and  C7_7 
ROOT
HETATM    1  C3  UNL     1     -35.019   4.849   5.612  1.00 20.00     0.046 C 
HETATM    2  C4  UNL     1     -34.018   5.196   3.335  1.00 20.00     0.052 C 
HETATM    3  C5  UNL     1     -34.363   6.163   6.024  1.00 20.00     0.169 C 
HETATM    4  C7  UNL     1     -33.414   6.502   3.871  1.00 20.00     0.126 C 
HETATM    5  C8  UNL     1     -35.273   4.783   4.106  1.00 20.00     0.086 C 
HETATM    6  O9  UNL     1     -33.168   6.387   5.276  1.00 20.00    -0.385 OA
HETATM    7 CL10 UNL     1     -36.651   5.840   3.661  1.00 20.00    -0.125 Cl
ENDROOT
BRANCH   4   8
HETATM    8  C6  UNL     1     -32.115   6.819   3.189  1.00 20.00     0.015 A 
HETATM    9  C1  UNL     1     -32.027   7.969   2.224  1.00 20.00     0.007 A 
HETATM   10  C2  UNL     1     -31.347   8.057   3.562  1.00 20.00     0.007 A 
ENDBRANCH   4   8
TORSDOF 1
ENDMDL
MODEL 4
REMARK VINA RESULT:      -4.1      1.854      2.240
REMARK  1 active torsions:
REMARK  status: ('A' for Active; 'I' for Inactive)
REMARK    1  A    between atoms: C6_6  and  C7_7 
ROOT
HETATM    1  C3  UNL     1     -35.277  14.014  -4.974  1.00 20.00     0.046 C 
HETATM    2  C4  UNL     1     -33.684  15.203  -3.438  1.00 20.00     0.052 C 
HETATM    3  C5  UNL     1     -36.395  14.829  -4.332  1.00 20.00     0.169 C 
HETATM    4  C7  UNL     1     -34.895  15.962  -2.877  1.00 20.00     0.126 C 
HETATM    5  C8  UNL     1     -33.923  14.716  -4.869  1.00 20.00     0.086 C 
HETATM    6  O9  UNL     1     -36.071  15.153  -2.980  1.00 20.00    -0.385 OA
HETATM    7 CL10 UNL     1     -33.846  16.093  -6.015  1.00 20.00    -0.125 Cl
ENDROOT
BRANCH   4   8
HETATM    8  C6  UNL     1     -34.691  16.316  -1.432  1.00 20.00     0.015 A 
HETATM    9  C1  UNL     1     -33.697  17.375  -1.044  1.00 20.00     0.007 A 
HETATM   10  C2  UNL     1     -35.171  17.639  -0.903  1.00 20.00     0.007 A 
ENDBRANCH   4   8
TORSDOF 1
ENDMDL
MODEL 5
REMARK VINA RESULT:      -3.9      2.730      3.957
REMARK  1 active torsions:
REMARK  status: ('A' for Active; 'I' for Inactive)
REMARK    1  A    between atoms: C6_6  and  C7_7 
ROOT
HETATM    1  C3  UNL     1     -33.458  13.757  -3.767  1.00 20.00     0.046 C 
HETATM    2  C4  UNL     1     -35.235  15.395  -3.084  1.00 20.00     0.052 C 
HETATM    3  C5  UNL     1     -34.468  13.180  -4.754  1.00 20.00     0.169 C 
HETATM    4  C7  UNL     1     -36.155  14.729  -4.117  1.00 20.00     0.126 C 
HETATM    5  C8  UNL     1     -33.756  15.217  -3.431  1.00 20.00     0.086 C 
HETATM    6  O9  UNL     1     -35.800  13.351  -4.271  1.00 20.00    -0.385 OA
HETATM    7 CL10 UNL     1     -33.310  16.275  -4.809  1.00 20.00    -0.125 Cl
ENDROOT
BRANCH   4   8
HETATM    8  C6  UNL     1     -37.592  14.802  -3.689  1.00 20.00     0.015 A 
HETATM    9  C1  UNL     1     -38.288  16.131  -3.590  1.00 20.00     0.007 A 
HETATM   10  C2  UNL     1     -38.660  15.168  -4.683  1.00 20.00     0.007 A 
ENDBRANCH   4   8
TORSDOF 1
ENDMDL
MODEL 6
REMARK VINA RESULT:      -3.9      2.231      2.851
REMARK  1 active torsions:
REMARK  status: ('A' for Active; 'I' for Inactive)
REMARK    1  A    between atoms: C6_6  and  C7_7 
ROOT
HETATM    1  C3  UNL     1     -34.466  14.914  -6.722  1.00 20.00     0.046 C 
HETATM    2  C4  UNL     1     -33.577  16.590  -5.077  1.00 20.00     0.052 C 
HETATM    3  C5  UNL     1     -35.282  14.326  -5.576  1.00 20.00     0.169 C 
HETATM    4  C7  UNL     1     -34.449  15.910  -4.012  1.00 20.00     0.126 C 
HETATM    5  C8  UNL     1     -34.129  16.386  -6.489  1.00 20.00     0.086 C 
HETATM    6  O9  UNL     1     -34.617  14.524  -4.329  1.00 20.00    -0.385 OA
HETATM    7 CL10 UNL     1     -35.584  17.404  -6.739  1.00 20.00    -0.125 Cl
ENDROOT
BRANCH   4   8
HETATM    8  C6  UNL     1     -33.820  16.010  -2.652  1.00 20.00     0.015 A 
HETATM    9  C1  UNL     1     -33.702  17.344  -1.968  1.00 20.00     0.007 A 
HETATM   10  C2  UNL     1     -34.668  16.315  -1.448  1.00 20.00     0.007 A 
ENDBRANCH   4   8
TORSDOF 1
ENDMDL
MODEL 7
REMARK VINA RESULT:      -3.9      1.322      1.406
REMARK  1 active torsions:
REMARK  status: ('A' for Active; 'I' for Inactive)
REMARK    1  A    between atoms: C6_6  and  C7_7 
ROOT
HETATM    1  C3  UNL     1     -36.173  15.127  -5.657  1.00 20.00     0.046 C 
HETATM    2  C4  UNL     1     -35.859  15.106  -3.165  1.00 20.00     0.052 C 
HETATM    3  C5  UNL     1     -35.178  16.282  -5.703  1.00 20.00     0.169 C 
HETATM    4  C7  UNL     1     -34.871  16.268  -3.346  1.00 20.00     0.126 C 
HETATM    5  C8  UNL     1     -35.971  14.246  -4.425  1.00 20.00     0.086 C 
HETATM    6  O9  UNL     1     -35.229  17.041  -4.496  1.00 20.00    -0.385 OA
HETATM    7 CL10 UNL     1     -34.503  13.234  -4.619  1.00 20.00    -0.125 Cl
ENDROOT
BRANCH   4   8
HETATM    8  C6  UNL     1     -34.874  17.173  -2.148  1.00 20.00     0.015 A 
HETATM    9  C1  UNL     1     -34.693  16.605  -0.768  1.00 20.00     0.007 A 
HETATM   10  C2  UNL     1     -33.600  17.429  -1.390  1.00 20.00     0.007 A 
ENDBRANCH   4   8
TORSDOF 1
ENDMDL
MODEL 8
REMARK VINA RESULT:      -3.9      2.097      4.046
REMARK  1 active torsions:
REMARK  status: ('A' for Active; 'I' for Inactive)
REMARK    1  A    between atoms: C6_6  and  C7_7 
ROOT
HETATM    1  C3  UNL     1     -35.363  18.409  -2.316  1.00 20.00     0.046 C 
HETATM    2  C4  UNL     1     -33.766  16.493  -2.613  1.00 20.00     0.052 C 
HETATM    3  C5  UNL     1     -36.437  17.517  -2.929  1.00 20.00     0.169 C 
HETATM    4  C7  UNL     1     -34.934  15.697  -3.211  1.00 20.00     0.126 C 
HETATM    5  C8  UNL     1     -34.245  17.594  -1.666  1.00 20.00     0.086 C 
HETATM    6  O9  UNL     1     -35.860  16.586  -3.844  1.00 20.00    -0.385 OA
HETATM    7 CL10 UNL     1     -34.813  16.881  -0.121  1.00 20.00    -0.125 Cl
ENDROOT
BRANCH   4   8
HETATM    8  C6  UNL     1     -34.451  14.711  -4.235  1.00 20.00     0.015 A 
HETATM    9  C1  UNL     1     -33.523  13.597  -3.836  1.00 20.00     0.007 A 
HETATM   10  C2  UNL     1     -34.947  13.291  -4.211  1.00 20.00     0.007 A 
ENDBRANCH   4   8
TORSDOF 1
ENDMDL
MODEL 9
REMARK VINA RESULT:      -3.8     13.085     14.612
REMARK  1 active torsions:
REMARK  status: ('A' for Active; 'I' for Inactive)
REMARK    1  A    between atoms: C6_6  and  C7_7 
ROOT
HETATM    1  C3  UNL     1     -41.315   6.831  -1.530  1.00 20.00     0.046 C 
HETATM    2  C4  UNL     1     -41.143   4.330  -1.684  1.00 20.00     0.052 C 
HETATM    3  C5  UNL     1     -42.647   6.715  -2.262  1.00 20.00     0.169 C 
HETATM    4  C7  UNL     1     -42.496   4.348  -2.409  1.00 20.00     0.126 C 
HETATM    5  C8  UNL     1     -40.961   5.549  -0.777  1.00 20.00     0.086 C 
HETATM    6  O9  UNL     1     -42.653   5.578  -3.124  1.00 20.00    -0.385 OA
HETATM    7 CL10 UNL     1     -41.979   5.389   0.690  1.00 20.00    -0.125 Cl
ENDROOT
BRANCH   4   8
HETATM    8  C6  UNL     1     -42.600   3.216  -3.390  1.00 20.00     0.015 A 
HETATM    9  C1  UNL     1     -41.578   2.112  -3.385  1.00 20.00     0.007 A 
HETATM   10  C2  UNL     1     -42.982   1.839  -2.919  1.00 20.00     0.007 A 
ENDBRANCH   4   8
TORSDOF 1
ENDMDL
