MODEL 1
REMARK VINA RESULT:      -4.3      0.000      0.000
REMARK  1 active torsions:
REMARK  status: ('A' for Active; 'I' for Inactive)
REMARK    1  A    between atoms: C5_5  and  C9_9 
ROOT
HETATM    1  C1  UNL     1     -33.852  17.621  -3.030  1.00 20.00     0.046 C 
HETATM    2  C2  UNL     1     -35.605  15.836  -3.073  1.00 20.00     0.058 C 
HETATM    3  C3  UNL     1     -33.721  17.454  -4.537  1.00 20.00     0.170 C 
HETATM    4  C4  UNL     1     -34.322  16.318  -2.397  1.00 20.00     0.087 C 
HETATM    5  C5  UNL     1     -35.467  15.776  -4.608  1.00 20.00     0.061 C 
HETATM    6  C6  UNL     1     -36.868  15.631  -5.228  1.00 20.00     0.046 C 
HETATM    7  O10 UNL     1     -34.943  17.012  -5.124  1.00 20.00    -0.380 OA
HETATM    8 CL11 UNL     1     -34.596  16.547  -0.647  1.00 20.00    -0.125 Cl
ENDROOT
BRANCH   5   9
HETATM    9  C9  UNL     1     -34.618  14.606  -5.061  1.00 20.00     0.012 C 
HETATM   10  C7  UNL     1     -35.054  13.332  -4.348  1.00 20.00     0.012 C 
HETATM   11  C8  UNL     1     -34.709  14.442  -6.573  1.00 20.00     0.012 C 
ENDBRANCH   5   9
TORSDOF 1
ENDMDL
MODEL 2
REMARK VINA RESULT:      -4.2      2.693      3.880
REMARK  1 active torsions:
REMARK  status: ('A' for Active; 'I' for Inactive)
REMARK    1  A    between atoms: C5_5  and  C9_9 
ROOT
HETATM    1  C1  UNL     1     -34.266  16.639  -7.034  1.00 20.00     0.046 C 
HETATM    2  C2  UNL     1     -34.353  14.677  -5.483  1.00 20.00     0.058 C 
HETATM    3  C3  UNL     1     -33.720  17.462  -5.877  1.00 20.00     0.170 C 
HETATM    4  C4  UNL     1     -35.133  15.502  -6.506  1.00 20.00     0.087 C 
HETATM    5  C5  UNL     1     -33.729  15.557  -4.380  1.00 20.00     0.061 C 
HETATM    6  C6  UNL     1     -32.691  14.724  -3.608  1.00 20.00     0.046 C 
HETATM    7  O10 UNL     1     -32.994  16.653  -4.954  1.00 20.00    -0.380 OA
HETATM    8 CL11 UNL     1     -35.672  14.462  -7.854  1.00 20.00    -0.125 Cl
ENDROOT
BRANCH   5   9
HETATM    9  C9  UNL     1     -34.764  16.064  -3.397  1.00 20.00     0.012 C 
HETATM   10  C7  UNL     1     -35.869  15.031  -3.216  1.00 20.00     0.012 C 
HETATM   11  C8  UNL     1     -34.107  16.398  -2.064  1.00 20.00     0.012 C 
ENDBRANCH   5   9
TORSDOF 1
ENDMDL
MODEL 3
REMARK VINA RESULT:      -4.2      1.100      1.113
REMARK  1 active torsions:
REMARK  status: ('A' for Active; 'I' for Inactive)
REMARK    1  A    between atoms: C5_5  and  C9_9 
ROOT
HETATM    1  C1  UNL     1     -34.473  18.237  -3.145  1.00 20.00     0.046 C 
HETATM    2  C2  UNL     1     -34.862  15.868  -2.439  1.00 20.00     0.058 C 
HETATM    3  C3  UNL     1     -34.816  17.813  -4.566  1.00 20.00     0.170 C 
HETATM    4  C4  UNL     1     -33.903  17.056  -2.369  1.00 20.00     0.087 C 
HETATM    5  C5  UNL     1     -35.266  15.531  -3.889  1.00 20.00     0.061 C 
HETATM    6  C6  UNL     1     -36.476  14.581  -3.860  1.00 20.00     0.046 C 
HETATM    7  O10 UNL     1     -35.718  16.709  -4.581  1.00 20.00    -0.380 OA
HETATM    8 CL11 UNL     1     -33.618  17.518  -0.667  1.00 20.00    -0.125 Cl
ENDROOT
BRANCH   5   9
HETATM    9  C9  UNL     1     -34.146  14.858  -4.655  1.00 20.00     0.012 C 
HETATM   10  C7  UNL     1     -33.604  13.674  -3.864  1.00 20.00     0.012 C 
HETATM   11  C8  UNL     1     -34.636  14.416  -6.029  1.00 20.00     0.012 C 
ENDBRANCH   5   9
TORSDOF 1
ENDMDL
MODEL 4
REMARK VINA RESULT:      -4.2      1.554      2.813
REMARK  1 active torsions:
REMARK  status: ('A' for Active; 'I' for Inactive)
REMARK    1  A    between atoms: C5_5  and  C9_9 
ROOT
HETATM    1  C1  UNL     1     -34.348  13.924  -3.448  1.00 20.00     0.046 C 
HETATM    2  C2  UNL     1     -34.801  16.172  -4.451  1.00 20.00     0.058 C 
HETATM    3  C3  UNL     1     -34.653  13.316  -4.809  1.00 20.00     0.170 C 
HETATM    4  C4  UNL     1     -35.104  15.237  -3.281  1.00 20.00     0.087 C 
HETATM    5  C5  UNL     1     -35.024  15.488  -5.815  1.00 20.00     0.061 C 
HETATM    6  C6  UNL     1     -34.376  16.347  -6.915  1.00 20.00     0.046 C 
HETATM    7  O10 UNL     1     -34.347  14.220  -5.869  1.00 20.00    -0.380 OA
HETATM    8 CL11 UNL     1     -34.651  16.016  -1.738  1.00 20.00    -0.125 Cl
ENDROOT
BRANCH   5   9
HETATM    9  C9  UNL     1     -36.495  15.322  -6.140  1.00 20.00     0.012 C 
HETATM   10  C7  UNL     1     -37.246  16.617  -5.855  1.00 20.00     0.012 C 
HETATM   11  C8  UNL     1     -36.670  14.899  -7.593  1.00 20.00     0.012 C 
ENDBRANCH   5   9
TORSDOF 1
ENDMDL
MODEL 5
REMARK VINA RESULT:      -4.1      2.523      4.111
REMARK  1 active torsions:
REMARK  status: ('A' for Active; 'I' for Inactive)
REMARK    1  A    between atoms: C5_5  and  C9_9 
ROOT
HETATM    1  C1  UNL     1     -34.790  13.532  -5.316  1.00 20.00     0.046 C 
HETATM    2  C2  UNL     1     -35.375  15.966  -5.333  1.00 20.00     0.058 C 
HETATM    3  C3  UNL     1     -34.682  13.624  -3.801  1.00 20.00     0.170 C 
HETATM    4  C4  UNL     1     -34.484  14.886  -5.946  1.00 20.00     0.087 C 
HETATM    5  C5  UNL     1     -35.317  15.962  -3.792  1.00 20.00     0.061 C 
HETATM    6  C6  UNL     1     -36.478  16.814  -3.248  1.00 20.00     0.046 C 
HETATM    7  O10 UNL     1     -35.536  14.638  -3.274  1.00 20.00    -0.380 OA
HETATM    8 CL11 UNL     1     -34.733  14.812  -7.713  1.00 20.00    -0.125 Cl
ENDROOT
BRANCH   5   9
HETATM    9  C9  UNL     1     -34.016  16.533  -3.266  1.00 20.00     0.012 C 
HETATM   10  C7  UNL     1     -33.733  17.883  -3.914  1.00 20.00     0.012 C 
HETATM   11  C8  UNL     1     -34.070  16.658  -1.748  1.00 20.00     0.012 C 
ENDBRANCH   5   9
TORSDOF 1
ENDMDL
MODEL 6
REMARK VINA RESULT:      -4.0      1.294      2.286
REMARK  1 active torsions:
REMARK  status: ('A' for Active; 'I' for Inactive)
REMARK    1  A    between atoms: C5_5  and  C9_9 
ROOT
HETATM    1  C1  UNL     1     -36.673  16.409  -2.740  1.00 20.00     0.046 C 
HETATM    2  C2  UNL     1     -34.588  15.099  -3.188  1.00 20.00     0.058 C 
HETATM    3  C3  UNL     1     -37.072  16.168  -4.188  1.00 20.00     0.170 C 
HETATM    4  C4  UNL     1     -35.155  16.393  -2.604  1.00 20.00     0.087 C 
HETATM    5  C5  UNL     1     -35.095  14.837  -4.622  1.00 20.00     0.061 C 
HETATM    6  C6  UNL     1     -34.777  13.381  -5.003  1.00 20.00     0.046 C 
HETATM    7  O10 UNL     1     -36.528  14.948  -4.686  1.00 20.00    -0.380 OA
HETATM    8 CL11 UNL     1     -34.688  16.550  -0.888  1.00 20.00    -0.125 Cl
ENDROOT
BRANCH   5   9
HETATM    9  C9  UNL     1     -34.442  15.752  -5.637  1.00 20.00     0.012 C 
HETATM   10  C7  UNL     1     -33.064  16.183  -5.149  1.00 20.00     0.012 C 
HETATM   11  C8  UNL     1     -34.347  15.057  -6.990  1.00 20.00     0.012 C 
ENDBRANCH   5   9
TORSDOF 1
ENDMDL
MODEL 7
REMARK VINA RESULT:      -3.9      2.606      3.975
REMARK  1 active torsions:
REMARK  status: ('A' for Active; 'I' for Inactive)
REMARK    1  A    between atoms: C5_5  and  C9_9 
ROOT
HETATM    1  C1  UNL     1     -36.960  15.532  -5.912  1.00 20.00     0.046 C 
HETATM    2  C2  UNL     1     -34.481  15.866  -5.863  1.00 20.00     0.058 C 
HETATM    3  C3  UNL     1     -37.011  16.106  -4.504  1.00 20.00     0.170 C 
HETATM    4  C4  UNL     1     -35.607  14.877  -6.163  1.00 20.00     0.087 C 
HETATM    5  C5  UNL     1     -34.622  16.503  -4.465  1.00 20.00     0.061 C 
HETATM    6  C6  UNL     1     -33.682  17.717  -4.375  1.00 20.00     0.046 C 
HETATM    7  O10 UNL     1     -35.948  17.027  -4.273  1.00 20.00    -0.380 OA
HETATM    8 CL11 UNL     1     -35.499  14.315  -7.855  1.00 20.00    -0.125 Cl
ENDROOT
BRANCH   5   9
HETATM    9  C9  UNL     1     -34.264  15.535  -3.356  1.00 20.00     0.012 C 
HETATM   10  C7  UNL     1     -32.897  14.916  -3.617  1.00 20.00     0.012 C 
HETATM   11  C8  UNL     1     -34.291  16.245  -2.008  1.00 20.00     0.012 C 
ENDBRANCH   5   9
TORSDOF 1
ENDMDL
MODEL 8
REMARK VINA RESULT:      -3.9      2.071      2.937
REMARK  1 active torsions:
REMARK  status: ('A' for Active; 'I' for Inactive)
REMARK    1  A    between atoms: C5_5  and  C9_9 
ROOT
HETATM    1  C1  UNL     1     -34.785  17.881  -2.964  1.00 20.00     0.046 C 
HETATM    2  C2  UNL     1     -33.281  16.528  -4.438  1.00 20.00     0.058 C 
HETATM    3  C3  UNL     1     -35.410  16.576  -2.494  1.00 20.00     0.170 C 
HETATM    4  C4  UNL     1     -34.235  17.721  -4.376  1.00 20.00     0.087 C 
HETATM    5  C5  UNL     1     -33.915  15.246  -3.860  1.00 20.00     0.061 C 
HETATM    6  C6  UNL     1     -32.807  14.203  -3.632  1.00 20.00     0.046 C 
HETATM    7  O10 UNL     1     -34.482  15.496  -2.561  1.00 20.00    -0.380 OA
HETATM    8 CL11 UNL     1     -33.391  19.211  -4.882  1.00 20.00    -0.125 Cl
ENDROOT
BRANCH   5   9
HETATM    9  C9  UNL     1     -34.951  14.649  -4.790  1.00 20.00     0.012 C 
HETATM   10  C7  UNL     1     -34.461  14.707  -6.231  1.00 20.00     0.012 C 
HETATM   11  C8  UNL     1     -35.267  13.216  -4.379  1.00 20.00     0.012 C 
ENDBRANCH   5   9
TORSDOF 1
ENDMDL
MODEL 9
REMARK VINA RESULT:      -3.9      2.493      3.476
REMARK  1 active torsions:
REMARK  status: ('A' for Active; 'I' for Inactive)
REMARK    1  A    between atoms: C5_5  and  C9_9 
ROOT
HETATM    1  C1  UNL     1     -34.860  16.352  -7.484  1.00 20.00     0.046 C 
HETATM    2  C2  UNL     1     -35.515  16.672  -5.090  1.00 20.00     0.058 C 
HETATM    3  C3  UNL     1     -34.434  14.937  -7.122  1.00 20.00     0.170 C 
HETATM    4  C4  UNL     1     -34.741  17.262  -6.268  1.00 20.00     0.087 C 
HETATM    5  C5  UNL     1     -35.129  15.204  -4.817  1.00 20.00     0.061 C 
HETATM    6  C6  UNL     1     -36.174  14.582  -3.875  1.00 20.00     0.046 C 
HETATM    7  O10 UNL     1     -35.188  14.426  -6.025  1.00 20.00    -0.380 OA
HETATM    8 CL11 UNL     1     -35.359  18.892  -6.657  1.00 20.00    -0.125 Cl
ENDROOT
BRANCH   5   9
HETATM    9  C9  UNL     1     -33.765  15.081  -4.169  1.00 20.00     0.012 C 
HETATM   10  C7  UNL     1     -33.684  15.976  -2.938  1.00 20.00     0.012 C 
HETATM   11  C8  UNL     1     -33.483  13.629  -3.805  1.00 20.00     0.012 C 
ENDBRANCH   5   9
TORSDOF 1
ENDMDL
