MODEL 1
REMARK VINA RESULT:      -4.5      0.000      0.000
REMARK  2 active torsions:
REMARK  status: ('A' for Active; 'I' for Inactive)
REMARK    1  A    between atoms: C5_5  and  C8_8 
REMARK    2  A    between atoms: C5_5  and  O10_10 
ROOT
HETATM    1  C1  UNL     1     -34.849  14.439  -3.329  1.00 20.00     0.064 C 
HETATM    2  C2  UNL     1     -33.967  15.897  -5.183  1.00 20.00     0.069 C 
HETATM    3  C3  UNL     1     -34.994  13.273  -4.311  1.00 20.00     0.171 C 
HETATM    4  C4  UNL     1     -34.819  14.921  -6.013  1.00 20.00     0.120 C 
HETATM    5  C5  UNL     1     -33.725  15.389  -3.750  1.00 20.00     0.062 C 
HETATM    6  C6  UNL     1     -34.542  15.067  -7.502  1.00 20.00     0.039 C 
HETATM    7  O9  UNL     1     -34.536  13.578  -5.629  1.00 20.00    -0.386 OA
ENDROOT
BRANCH   5   8
HETATM    8  C8  UNL     1     -33.577  16.554  -2.773  1.00 20.00     0.033 C 
HETATM    9  C7  UNL     1     -34.451  16.379  -1.577  1.00 20.00     0.008 C 
ENDBRANCH   5   8
BRANCH   5  10
HETATM   10  O10 UNL     1     -32.492  14.659  -3.746  1.00 20.00    -0.390 OA
HETATM   11  H26 UNL     1     -31.793  15.307  -3.923  1.00 20.00     0.210 HD
ENDBRANCH   5  10
TORSDOF 2
ENDMDL
MODEL 2
REMARK VINA RESULT:      -4.5      1.965      2.473
REMARK  2 active torsions:
REMARK  status: ('A' for Active; 'I' for Inactive)
REMARK    1  A    between atoms: C5_5  and  C8_8 
REMARK    2  A    between atoms: C5_5  and  O10_10 
ROOT
HETATM    1  C1  UNL     1     -35.568  14.860  -3.407  1.00 20.00     0.064 C 
HETATM    2  C2  UNL     1     -34.850  14.236  -5.739  1.00 20.00     0.069 C 
HETATM    3  C3  UNL     1     -37.014  15.010  -3.889  1.00 20.00     0.171 C 
HETATM    4  C4  UNL     1     -36.086  15.090  -6.074  1.00 20.00     0.120 C 
HETATM    5  C5  UNL     1     -34.800  13.842  -4.251  1.00 20.00     0.062 C 
HETATM    6  C6  UNL     1     -36.478  14.949  -7.539  1.00 20.00     0.039 C 
HETATM    7  O9  UNL     1     -37.191  14.686  -5.269  1.00 20.00    -0.386 OA
ENDROOT
BRANCH   5   8
HETATM    8  C8  UNL     1     -33.357  13.689  -3.774  1.00 20.00     0.033 C 
HETATM    9  C7  UNL     1     -32.681  15.013  -3.644  1.00 20.00     0.008 C 
ENDBRANCH   5   8
BRANCH   5  10
HETATM   10  O10 UNL     1     -35.439  12.567  -4.115  1.00 20.00    -0.390 OA
HETATM   11  H26 UNL     1     -35.745  12.514  -3.198  1.00 20.00     0.210 HD
ENDBRANCH   5  10
TORSDOF 2
ENDMDL
MODEL 3
REMARK VINA RESULT:      -4.4      1.577      3.706
REMARK  2 active torsions:
REMARK  status: ('A' for Active; 'I' for Inactive)
REMARK    1  A    between atoms: C5_5  and  C8_8 
REMARK    2  A    between atoms: C5_5  and  O10_10 
ROOT
HETATM    1  C1  UNL     1     -34.011  15.698  -5.222  1.00 20.00     0.064 C 
HETATM    2  C2  UNL     1     -33.679  16.028  -2.747  1.00 20.00     0.069 C 
HETATM    3  C3  UNL     1     -33.625  17.159  -5.471  1.00 20.00     0.171 C 
HETATM    4  C4  UNL     1     -34.025  17.472  -3.151  1.00 20.00     0.120 C 
HETATM    5  C5  UNL     1     -33.336  15.148  -3.964  1.00 20.00     0.062 C 
HETATM    6  C6  UNL     1     -33.746  18.448  -2.017  1.00 20.00     0.039 C 
HETATM    7  O9  UNL     1     -33.252  17.861  -4.284  1.00 20.00    -0.386 OA
ENDROOT
BRANCH   5   8
HETATM    8  C8  UNL     1     -33.718  13.691  -3.711  1.00 20.00     0.033 C 
HETATM    9  C7  UNL     1     -34.977  13.325  -4.423  1.00 20.00     0.008 C 
ENDBRANCH   5   8
BRANCH   5  10
HETATM   10  O10 UNL     1     -31.917  15.198  -4.153  1.00 20.00    -0.390 OA
HETATM   11  H26 UNL     1     -31.635  16.078  -3.863  1.00 20.00     0.210 HD
ENDBRANCH   5  10
TORSDOF 2
ENDMDL
MODEL 4
REMARK VINA RESULT:      -4.3      1.496      4.009
REMARK  2 active torsions:
REMARK  status: ('A' for Active; 'I' for Inactive)
REMARK    1  A    between atoms: C5_5  and  C8_8 
REMARK    2  A    between atoms: C5_5  and  O10_10 
ROOT
HETATM    1  C1  UNL     1     -34.288  16.909  -5.057  1.00 20.00     0.064 C 
HETATM    2  C2  UNL     1     -34.382  15.432  -3.019  1.00 20.00     0.069 C 
HETATM    3  C3  UNL     1     -33.816  18.080  -4.191  1.00 20.00     0.171 C 
HETATM    4  C4  UNL     1     -34.604  16.800  -2.351  1.00 20.00     0.120 C 
HETATM    5  C5  UNL     1     -33.862  15.565  -4.463  1.00 20.00     0.062 C 
HETATM    6  C6  UNL     1     -34.494  16.703  -0.836  1.00 20.00     0.039 C 
HETATM    7  O9  UNL     1     -33.633  17.734  -2.817  1.00 20.00    -0.386 OA
ENDROOT
BRANCH   5   8
HETATM    8  C8  UNL     1     -34.331  14.394  -5.324  1.00 20.00     0.033 C 
HETATM    9  C7  UNL     1     -34.929  13.309  -4.493  1.00 20.00     0.008 C 
ENDBRANCH   5   8
BRANCH   5  10
HETATM   10  O10 UNL     1     -32.431  15.524  -4.418  1.00 20.00    -0.390 OA
HETATM   11  H26 UNL     1     -32.126  15.691  -5.322  1.00 20.00     0.210 HD
ENDBRANCH   5  10
TORSDOF 2
ENDMDL
MODEL 5
REMARK VINA RESULT:      -4.1     11.687     12.533
REMARK  2 active torsions:
REMARK  status: ('A' for Active; 'I' for Inactive)
REMARK    1  A    between atoms: C5_5  and  C8_8 
REMARK    2  A    between atoms: C5_5  and  O10_10 
ROOT
HETATM    1  C1  UNL     1     -41.868   6.244  -0.304  1.00 20.00     0.064 C 
HETATM    2  C2  UNL     1     -42.434   5.340  -2.586  1.00 20.00     0.069 C 
HETATM    3  C3  UNL     1     -40.777   5.181  -0.150  1.00 20.00     0.171 C 
HETATM    4  C4  UNL     1     -41.866   4.064  -1.941  1.00 20.00     0.120 C 
HETATM    5  C5  UNL     1     -42.095   6.604  -1.774  1.00 20.00     0.062 C 
HETATM    6  C6  UNL     1     -41.636   2.973  -2.978  1.00 20.00     0.039 C 
HETATM    7  O9  UNL     1     -40.624   4.350  -1.302  1.00 20.00    -0.386 OA
ENDROOT
BRANCH   5   8
HETATM    8  C8  UNL     1     -43.183   7.665  -1.932  1.00 20.00     0.033 C 
HETATM    9  C7  UNL     1     -43.416   8.403  -0.657  1.00 20.00     0.008 C 
ENDBRANCH   5   8
BRANCH   5  10
HETATM   10  O10 UNL     1     -40.879   7.149  -2.299  1.00 20.00    -0.390 OA
HETATM   11  H26 UNL     1     -40.960   8.112  -2.231  1.00 20.00     0.210 HD
ENDBRANCH   5  10
TORSDOF 2
ENDMDL
MODEL 6
REMARK VINA RESULT:      -4.1     11.121     12.482
REMARK  2 active torsions:
REMARK  status: ('A' for Active; 'I' for Inactive)
REMARK    1  A    between atoms: C5_5  and  C8_8 
REMARK    2  A    between atoms: C5_5  and  O10_10 
ROOT
HETATM    1  C1  UNL     1     -42.162   6.485  -0.415  1.00 20.00     0.064 C 
HETATM    2  C2  UNL     1     -42.379   5.451  -2.701  1.00 20.00     0.069 C 
HETATM    3  C3  UNL     1     -41.147   5.408  -0.021  1.00 20.00     0.171 C 
HETATM    4  C4  UNL     1     -41.968   4.205  -1.897  1.00 20.00     0.120 C 
HETATM    5  C5  UNL     1     -42.135   6.756  -1.921  1.00 20.00     0.062 C 
HETATM    6  C6  UNL     1     -41.609   3.044  -2.815  1.00 20.00     0.039 C 
HETATM    7  O9  UNL     1     -40.837   4.502  -1.080  1.00 20.00    -0.386 OA
ENDROOT
BRANCH   5   8
HETATM    8  C8  UNL     1     -43.146   7.830  -2.319  1.00 20.00     0.033 C 
HETATM    9  C7  UNL     1     -42.960   8.257  -3.736  1.00 20.00     0.008 C 
ENDBRANCH   5   8
BRANCH   5  10
HETATM   10  O10 UNL     1     -40.831   7.236  -2.270  1.00 20.00    -0.390 OA
HETATM   11  H26 UNL     1     -40.913   8.197  -2.367  1.00 20.00     0.210 HD
ENDBRANCH   5  10
TORSDOF 2
ENDMDL
MODEL 7
REMARK VINA RESULT:      -4.1      1.900      2.633
REMARK  2 active torsions:
REMARK  status: ('A' for Active; 'I' for Inactive)
REMARK    1  A    between atoms: C5_5  and  C8_8 
REMARK    2  A    between atoms: C5_5  and  O10_10 
ROOT
HETATM    1  C1  UNL     1     -34.731  17.302  -3.874  1.00 20.00     0.064 C 
HETATM    2  C2  UNL     1     -34.294  14.944  -3.104  1.00 20.00     0.069 C 
HETATM    3  C3  UNL     1     -35.566  16.769  -5.041  1.00 20.00     0.171 C 
HETATM    4  C4  UNL     1     -34.517  14.684  -4.604  1.00 20.00     0.120 C 
HETATM    5  C5  UNL     1     -34.766  16.347  -2.678  1.00 20.00     0.062 C 
HETATM    6  C6  UNL     1     -34.660  13.196  -4.894  1.00 20.00     0.039 C 
HETATM    7  O9  UNL     1     -35.699  15.347  -5.044  1.00 20.00    -0.386 OA
ENDROOT
BRANCH   5   8
HETATM    8  C8  UNL     1     -33.934  16.875  -1.511  1.00 20.00     0.033 C 
HETATM    9  C7  UNL     1     -34.753  17.003  -0.271  1.00 20.00     0.008 C 
ENDBRANCH   5   8
BRANCH   5  10
HETATM   10  O10 UNL     1     -36.122  16.235  -2.229  1.00 20.00    -0.390 OA
HETATM   11  H26 UNL     1     -36.094  16.297  -1.263  1.00 20.00     0.210 HD
ENDBRANCH   5  10
TORSDOF 2
ENDMDL
MODEL 8
REMARK VINA RESULT:      -4.0     12.226     13.620
REMARK  2 active torsions:
REMARK  status: ('A' for Active; 'I' for Inactive)
REMARK    1  A    between atoms: C5_5  and  C8_8 
REMARK    2  A    between atoms: C5_5  and  O10_10 
ROOT
HETATM    1  C1  UNL     1     -34.524   4.080   4.703  1.00 20.00     0.064 C 
HETATM    2  C2  UNL     1     -33.839   6.502   4.777  1.00 20.00     0.069 C 
HETATM    3  C3  UNL     1     -35.155   4.213   6.092  1.00 20.00     0.171 C 
HETATM    4  C4  UNL     1     -33.872   6.202   6.286  1.00 20.00     0.120 C 
HETATM    5  C5  UNL     1     -34.544   5.411   3.950  1.00 20.00     0.062 C 
HETATM    6  C6  UNL     1     -33.774   7.479   7.109  1.00 20.00     0.039 C 
HETATM    7  O9  UNL     1     -35.086   5.536   6.625  1.00 20.00    -0.386 OA
ENDROOT
BRANCH   5   8
HETATM    8  C8  UNL     1     -33.915   5.283   2.563  1.00 20.00     0.033 C 
HETATM    9  C7  UNL     1     -32.586   5.959   2.502  1.00 20.00     0.008 C 
ENDBRANCH   5   8
BRANCH   5  10
HETATM   10  O10 UNL     1     -35.908   5.810   3.772  1.00 20.00    -0.390 OA
HETATM   11  H26 UNL     1     -35.886   6.737   3.493  1.00 20.00     0.210 HD
ENDBRANCH   5  10
TORSDOF 2
ENDMDL
MODEL 9
REMARK VINA RESULT:      -3.9     11.941     13.943
REMARK  2 active torsions:
REMARK  status: ('A' for Active; 'I' for Inactive)
REMARK    1  A    between atoms: C5_5  and  C8_8 
REMARK    2  A    between atoms: C5_5  and  O10_10 
ROOT
HETATM    1  C1  UNL     1     -41.918   5.760  -2.322  1.00 20.00     0.064 C 
HETATM    2  C2  UNL     1     -43.008   4.198  -0.675  1.00 20.00     0.069 C 
HETATM    3  C3  UNL     1     -41.427   6.639  -1.168  1.00 20.00     0.171 C 
HETATM    4  C4  UNL     1     -43.041   5.497   0.148  1.00 20.00     0.120 C 
HETATM    5  C5  UNL     1     -42.067   4.300  -1.889  1.00 20.00     0.062 C 
HETATM    6  C6  UNL     1     -43.417   5.227   1.599  1.00 20.00     0.039 C 
HETATM    7  O9  UNL     1     -41.761   6.125   0.122  1.00 20.00    -0.386 OA
ENDROOT
BRANCH   5   8
HETATM    8  C8  UNL     1     -42.556   3.420  -3.038  1.00 20.00     0.033 C 
HETATM    9  C7  UNL     1     -41.540   2.392  -3.409  1.00 20.00     0.008 C 
ENDBRANCH   5   8
BRANCH   5  10
HETATM   10  O10 UNL     1     -40.780   3.814  -1.487  1.00 20.00    -0.390 OA
HETATM   11  H26 UNL     1     -40.533   3.135  -2.133  1.00 20.00     0.210 HD
ENDBRANCH   5  10
TORSDOF 2
ENDMDL
