MODEL 1
REMARK VINA RESULT:      -3.9      0.000      0.000
REMARK  1 active torsions:
REMARK  status: ('A' for Active; 'I' for Inactive)
REMARK    1  A    between atoms: C5_5  and  C7_7 
ROOT
HETATM    1  C1  UNL     1     -33.538  15.910  -4.974  1.00 20.00     0.046 C 
HETATM    2  C2  UNL     1     -34.628  15.079  -2.873  1.00 20.00     0.052 C 
HETATM    3  C3  UNL     1     -33.672  17.319  -4.406  1.00 20.00     0.169 C 
HETATM    4  C4  UNL     1     -34.623  15.004  -4.398  1.00 20.00     0.086 C 
HETATM    5  C5  UNL     1     -34.713  16.540  -2.417  1.00 20.00     0.122 C 
HETATM    6  O8  UNL     1     -33.634  17.296  -2.979  1.00 20.00    -0.386 OA
HETATM    7 CL9  UNL     1     -34.373  13.322  -4.935  1.00 20.00    -0.125 Cl
ENDROOT
BRANCH   5   8
HETATM    8  C7  UNL     1     -34.615  16.647  -0.902  1.00 20.00     0.027 C 
HETATM    9  C6  UNL     1     -33.728  17.775  -0.480  1.00 20.00     0.007 C 
ENDBRANCH   5   8
TORSDOF 1
ENDMDL
MODEL 2
REMARK VINA RESULT:      -3.9      2.007      2.457
REMARK  1 active torsions:
REMARK  status: ('A' for Active; 'I' for Inactive)
REMARK    1  A    between atoms: C5_5  and  C7_7 
ROOT
HETATM    1  C1  UNL     1     -35.509  13.592  -4.261  1.00 20.00     0.046 C 
HETATM    2  C2  UNL     1     -35.797  15.771  -3.051  1.00 20.00     0.052 C 
HETATM    3  C3  UNL     1     -34.013  13.887  -4.296  1.00 20.00     0.169 C 
HETATM    4  C4  UNL     1     -36.302  14.895  -4.196  1.00 20.00     0.086 C 
HETATM    5  C5  UNL     1     -34.280  15.955  -3.158  1.00 20.00     0.122 C 
HETATM    6  O8  UNL     1     -33.627  14.681  -3.175  1.00 20.00    -0.386 OA
HETATM    7 CL9  UNL     1     -38.040  14.552  -3.993  1.00 20.00    -0.125 Cl
ENDROOT
BRANCH   5   8
HETATM    8  C7  UNL     1     -33.738  16.739  -1.970  1.00 20.00     0.027 C 
HETATM    9  C6  UNL     1     -34.642  16.644  -0.782  1.00 20.00     0.007 C 
ENDBRANCH   5   8
TORSDOF 1
ENDMDL
MODEL 3
REMARK VINA RESULT:      -3.9      2.267      3.848
REMARK  1 active torsions:
REMARK  status: ('A' for Active; 'I' for Inactive)
REMARK    1  A    between atoms: C5_5  and  C7_7 
ROOT
HETATM    1  C1  UNL     1     -33.976  17.496  -3.295  1.00 20.00     0.046 C 
HETATM    2  C2  UNL     1     -34.534  15.056  -3.121  1.00 20.00     0.052 C 
HETATM    3  C3  UNL     1     -33.469  17.209  -4.705  1.00 20.00     0.169 C 
HETATM    4  C4  UNL     1     -33.865  16.243  -2.431  1.00 20.00     0.086 C 
HETATM    5  C5  UNL     1     -33.987  14.896  -4.543  1.00 20.00     0.122 C 
HETATM    6  O8  UNL     1     -34.171  16.109  -5.282  1.00 20.00    -0.386 OA
HETATM    7 CL9  UNL     1     -34.604  16.526  -0.832  1.00 20.00    -0.125 Cl
ENDROOT
BRANCH   5   8
HETATM    8  C7  UNL     1     -34.713  13.784  -5.288  1.00 20.00     0.027 C 
HETATM    9  C6  UNL     1     -35.249  14.252  -6.602  1.00 20.00     0.007 C 
ENDBRANCH   5   8
TORSDOF 1
ENDMDL
MODEL 4
REMARK VINA RESULT:      -3.9     12.702     13.758
REMARK  1 active torsions:
REMARK  status: ('A' for Active; 'I' for Inactive)
REMARK    1  A    between atoms: C5_5  and  C7_7 
ROOT
HETATM    1  C1  UNL     1     -34.472   5.067   6.676  1.00 20.00     0.046 C 
HETATM    2  C2  UNL     1     -33.724   6.458   4.726  1.00 20.00     0.052 C 
HETATM    3  C3  UNL     1     -35.253   4.215   5.682  1.00 20.00     0.169 C 
HETATM    4  C4  UNL     1     -34.307   6.486   6.138  1.00 20.00     0.086 C 
HETATM    5  C5  UNL     1     -34.556   5.533   3.832  1.00 20.00     0.122 C 
HETATM    6  O8  UNL     1     -34.620   4.221   4.402  1.00 20.00    -0.386 OA
HETATM    7 CL9  UNL     1     -33.259   7.440   7.221  1.00 20.00    -0.125 Cl
ENDROOT
BRANCH   5   8
HETATM    8  C7  UNL     1     -33.935   5.407   2.447  1.00 20.00     0.027 C 
HETATM    9  C6  UNL     1     -32.558   5.987   2.400  1.00 20.00     0.007 C 
ENDBRANCH   5   8
TORSDOF 1
ENDMDL
MODEL 5
REMARK VINA RESULT:      -3.9     11.679     12.593
REMARK  1 active torsions:
REMARK  status: ('A' for Active; 'I' for Inactive)
REMARK    1  A    between atoms: C5_5  and  C7_7 
ROOT
HETATM    1  C1  UNL     1     -34.875   4.686   4.221  1.00 20.00     0.046 C 
HETATM    2  C2  UNL     1     -33.314   6.531   4.895  1.00 20.00     0.052 C 
HETATM    3  C3  UNL     1     -34.689   5.147   2.780  1.00 20.00     0.169 C 
HETATM    4  C4  UNL     1     -34.652   5.852   5.181  1.00 20.00     0.086 C 
HETATM    5  C5  UNL     1     -33.217   6.902   3.412  1.00 20.00     0.122 C 
HETATM    6  O8  UNL     1     -33.402   5.738   2.598  1.00 20.00    -0.386 OA
HETATM    7 CL9  UNL     1     -34.710   5.284   6.870  1.00 20.00    -0.125 Cl
ENDROOT
BRANCH   5   8
HETATM    8  C7  UNL     1     -31.850   7.486   3.081  1.00 20.00     0.027 C 
HETATM    9  C6  UNL     1     -31.887   8.322   1.843  1.00 20.00     0.007 C 
ENDBRANCH   5   8
TORSDOF 1
ENDMDL
MODEL 6
REMARK VINA RESULT:      -3.8      1.937      2.611
REMARK  1 active torsions:
REMARK  status: ('A' for Active; 'I' for Inactive)
REMARK    1  A    between atoms: C5_5  and  C7_7 
ROOT
HETATM    1  C1  UNL     1     -34.908  14.130  -5.558  1.00 20.00     0.046 C 
HETATM    2  C2  UNL     1     -34.051  16.357  -4.783  1.00 20.00     0.052 C 
HETATM    3  C3  UNL     1     -34.393  13.552  -4.245  1.00 20.00     0.169 C 
HETATM    4  C4  UNL     1     -34.097  15.365  -5.943  1.00 20.00     0.086 C 
HETATM    5  C5  UNL     1     -33.571  15.656  -3.508  1.00 20.00     0.122 C 
HETATM    6  O8  UNL     1     -34.416  14.538  -3.213  1.00 20.00    -0.386 OA
HETATM    7 CL9  UNL     1     -34.796  16.137  -7.391  1.00 20.00    -0.125 Cl
ENDROOT
BRANCH   5   8
HETATM    8  C7  UNL     1     -33.616  16.600  -2.314  1.00 20.00     0.027 C 
HETATM    9  C6  UNL     1     -34.775  16.308  -1.417  1.00 20.00     0.007 C 
ENDBRANCH   5   8
TORSDOF 1
ENDMDL
MODEL 7
REMARK VINA RESULT:      -3.7     12.586     13.797
REMARK  1 active torsions:
REMARK  status: ('A' for Active; 'I' for Inactive)
REMARK    1  A    between atoms: C5_5  and  C7_7 
ROOT
HETATM    1  C1  UNL     1     -41.215   7.068  -1.073  1.00 20.00     0.046 C 
HETATM    2  C2  UNL     1     -42.375   5.499  -2.651  1.00 20.00     0.052 C 
HETATM    3  C3  UNL     1     -40.674   5.838  -0.354  1.00 20.00     0.169 C 
HETATM    4  C4  UNL     1     -42.533   6.736  -1.769  1.00 20.00     0.086 C 
HETATM    5  C5  UNL     1     -41.776   4.346  -1.839  1.00 20.00     0.122 C 
HETATM    6  O8  UNL     1     -40.529   4.744  -1.260  1.00 20.00    -0.386 OA
HETATM    7 CL9  UNL     1     -43.087   8.124  -2.742  1.00 20.00    -0.125 Cl
ENDROOT
BRANCH   5   8
HETATM    8  C7  UNL     1     -41.512   3.134  -2.722  1.00 20.00     0.027 C 
HETATM    9  C6  UNL     1     -42.762   2.358  -2.991  1.00 20.00     0.007 C 
ENDBRANCH   5   8
TORSDOF 1
ENDMDL
MODEL 8
REMARK VINA RESULT:      -3.6      2.744      4.133
REMARK  1 active torsions:
REMARK  status: ('A' for Active; 'I' for Inactive)
REMARK    1  A    between atoms: C5_5  and  C7_7 
ROOT
HETATM    1  C1  UNL     1     -34.384  13.922  -3.459  1.00 20.00     0.046 C 
HETATM    2  C2  UNL     1     -34.696  16.184  -4.498  1.00 20.00     0.052 C 
HETATM    3  C3  UNL     1     -34.719  13.325  -4.822  1.00 20.00     0.169 C 
HETATM    4  C4  UNL     1     -35.041  15.291  -3.308  1.00 20.00     0.086 C 
HETATM    5  C5  UNL     1     -35.025  15.464  -5.810  1.00 20.00     0.122 C 
HETATM    6  O8  UNL     1     -34.333  14.211  -5.872  1.00 20.00    -0.386 OA
HETATM    7 CL9  UNL     1     -34.523  16.061  -1.785  1.00 20.00    -0.125 Cl
ENDROOT
BRANCH   5   8
HETATM    8  C7  UNL     1     -34.593  16.292  -7.012  1.00 20.00     0.027 C 
HETATM    9  C6  UNL     1     -34.297  17.708  -6.635  1.00 20.00     0.007 C 
ENDBRANCH   5   8
TORSDOF 1
ENDMDL
MODEL 9
REMARK VINA RESULT:      -3.6      2.316      3.638
REMARK  1 active torsions:
REMARK  status: ('A' for Active; 'I' for Inactive)
REMARK    1  A    between atoms: C5_5  and  C7_7 
ROOT
HETATM    1  C1  UNL     1     -34.363  18.183  -2.422  1.00 20.00     0.046 C 
HETATM    2  C2  UNL     1     -34.371  15.677  -2.530  1.00 20.00     0.052 C 
HETATM    3  C3  UNL     1     -33.805  18.175  -3.841  1.00 20.00     0.169 C 
HETATM    4  C4  UNL     1     -33.979  16.896  -1.697  1.00 20.00     0.086 C 
HETATM    5  C5  UNL     1     -33.802  15.801  -3.947  1.00 20.00     0.122 C 
HETATM    6  O8  UNL     1     -34.248  17.020  -4.553  1.00 20.00    -0.386 OA
HETATM    7 CL9  UNL     1     -34.763  16.830  -0.096  1.00 20.00    -0.125 Cl
ENDROOT
BRANCH   5   8
HETATM    8  C7  UNL     1     -34.266  14.648  -4.827  1.00 20.00     0.027 C 
HETATM    9  C6  UNL     1     -34.823  13.521  -4.018  1.00 20.00     0.007 C 
ENDBRANCH   5   8
TORSDOF 1
ENDMDL
