MODEL 1
REMARK VINA RESULT:      -3.9      0.000      0.000
REMARK  2 active torsions:
REMARK  status: ('A' for Active; 'I' for Inactive)
REMARK    1  A    between atoms: C4_4  and  S10_10 
REMARK    2  A    between atoms: C5_5  and  C8_8 
ROOT
HETATM    1  C1  UNL     1     -36.541  15.375  -5.694  1.00 20.00     0.041 C 
HETATM    2  C2  UNL     1     -36.034  15.257  -3.243  1.00 20.00     0.052 C 
HETATM    3  C3  UNL     1     -35.040  15.330  -5.948  1.00 20.00     0.170 C 
HETATM    4  C4  UNL     1     -36.878  14.673  -4.380  1.00 20.00     0.049 C 
HETATM    5  C5  UNL     1     -34.530  15.264  -3.586  1.00 20.00     0.058 C 
HETATM    6  C6  UNL     1     -33.922  13.853  -3.557  1.00 20.00     0.046 C 
HETATM    7  O9  UNL     1     -34.309  15.889  -4.859  1.00 20.00    -0.381 OA
ENDROOT
BRANCH   5   8
HETATM    8  C8  UNL     1     -33.784  16.129  -2.559  1.00 20.00     0.033 C 
HETATM    9  C7  UNL     1     -34.629  16.403  -1.362  1.00 20.00     0.008 C 
ENDBRANCH   5   8
BRANCH   4  10
HETATM   10  S10 UNL     1     -38.654  14.852  -4.003  1.00 20.00    -0.177 SA
HETATM   11  H26 UNL     1     -38.957  13.558  -4.172  1.00 20.00     0.102 HD
ENDBRANCH   4  10
TORSDOF 2
ENDMDL
MODEL 2
REMARK VINA RESULT:      -3.9      2.033      2.438
REMARK  2 active torsions:
REMARK  status: ('A' for Active; 'I' for Inactive)
REMARK    1  A    between atoms: C4_4  and  S10_10 
REMARK    2  A    between atoms: C5_5  and  C8_8 
ROOT
HETATM    1  C1  UNL     1     -34.294  16.793  -6.497  1.00 20.00     0.041 C 
HETATM    2  C2  UNL     1     -34.945  14.916  -4.971  1.00 20.00     0.052 C 
HETATM    3  C3  UNL     1     -33.485  17.373  -5.345  1.00 20.00     0.170 C 
HETATM    4  C4  UNL     1     -34.403  15.276  -6.357  1.00 20.00     0.049 C 
HETATM    5  C5  UNL     1     -34.141  15.596  -3.844  1.00 20.00     0.058 C 
HETATM    6  C6  UNL     1     -32.750  14.970  -3.664  1.00 20.00     0.046 C 
HETATM    7  O9  UNL     1     -34.038  17.008  -4.083  1.00 20.00    -0.381 OA
ENDROOT
BRANCH   5   8
HETATM    8  C8  UNL     1     -34.907  15.450  -2.520  1.00 20.00     0.033 C 
HETATM    9  C7  UNL     1     -34.468  16.469  -1.524  1.00 20.00     0.008 C 
ENDBRANCH   5   8
BRANCH   4  10
HETATM   10  S10 UNL     1     -35.491  14.596  -7.655  1.00 20.00    -0.177 SA
HETATM   11  H26 UNL     1     -35.453  15.679  -8.442  1.00 20.00     0.102 HD
ENDBRANCH   4  10
TORSDOF 2
ENDMDL
MODEL 3
REMARK VINA RESULT:      -3.9      2.061      2.582
REMARK  2 active torsions:
REMARK  status: ('A' for Active; 'I' for Inactive)
REMARK    1  A    between atoms: C4_4  and  S10_10 
REMARK    2  A    between atoms: C5_5  and  C8_8 
ROOT
HETATM    1  C1  UNL     1     -34.811  13.803  -5.663  1.00 20.00     0.041 C 
HETATM    2  C2  UNL     1     -34.563  16.130  -4.768  1.00 20.00     0.052 C 
HETATM    3  C3  UNL     1     -35.090  13.346  -4.238  1.00 20.00     0.170 C 
HETATM    4  C4  UNL     1     -35.224  15.263  -5.843  1.00 20.00     0.049 C 
HETATM    5  C5  UNL     1     -34.807  15.577  -3.349  1.00 20.00     0.058 C 
HETATM    6  C6  UNL     1     -36.257  15.787  -2.886  1.00 20.00     0.046 C 
HETATM    7  O9  UNL     1     -34.448  14.188  -3.284  1.00 20.00    -0.381 OA
ENDROOT
BRANCH   5   8
HETATM    8  C8  UNL     1     -33.879  16.298  -2.360  1.00 20.00     0.033 C 
HETATM    9  C7  UNL     1     -34.563  16.551  -1.060  1.00 20.00     0.008 C 
ENDBRANCH   5   8
BRANCH   4  10
HETATM   10  S10 UNL     1     -34.758  15.853  -7.505  1.00 20.00    -0.177 SA
HETATM   11  H26 UNL     1     -36.001  16.177  -7.885  1.00 20.00     0.102 HD
ENDBRANCH   4  10
TORSDOF 2
ENDMDL
MODEL 4
REMARK VINA RESULT:      -3.8      2.194      3.637
REMARK  2 active torsions:
REMARK  status: ('A' for Active; 'I' for Inactive)
REMARK    1  A    between atoms: C4_4  and  S10_10 
REMARK    2  A    between atoms: C5_5  and  C8_8 
ROOT
HETATM    1  C1  UNL     1     -36.311  15.657  -3.008  1.00 20.00     0.041 C 
HETATM    2  C2  UNL     1     -34.179  15.543  -4.317  1.00 20.00     0.052 C 
HETATM    3  C3  UNL     1     -36.905  14.664  -3.998  1.00 20.00     0.170 C 
HETATM    4  C4  UNL     1     -34.797  15.476  -2.918  1.00 20.00     0.049 C 
HETATM    5  C5  UNL     1     -34.871  14.578  -5.301  1.00 20.00     0.058 C 
HETATM    6  C6  UNL     1     -34.521  13.109  -5.018  1.00 20.00     0.046 C 
HETATM    7  O9  UNL     1     -36.293  14.776  -5.280  1.00 20.00    -0.381 OA
ENDROOT
BRANCH   5   8
HETATM    8  C8  UNL     1     -34.423  14.910  -6.733  1.00 20.00     0.033 C 
HETATM    9  C7  UNL     1     -35.454  14.510  -7.731  1.00 20.00     0.008 C 
ENDBRANCH   5   8
BRANCH   4  10
HETATM   10  S10 UNL     1     -34.068  16.756  -1.844  1.00 20.00    -0.177 SA
HETATM   11  H26 UNL     1     -32.886  16.145  -1.691  1.00 20.00     0.102 HD
ENDBRANCH   4  10
TORSDOF 2
ENDMDL
MODEL 5
REMARK VINA RESULT:      -3.7      2.072      3.073
REMARK  2 active torsions:
REMARK  status: ('A' for Active; 'I' for Inactive)
REMARK    1  A    between atoms: C4_4  and  S10_10 
REMARK    2  A    between atoms: C5_5  and  C8_8 
ROOT
HETATM    1  C1  UNL     1     -38.507  15.534  -5.255  1.00 20.00     0.041 C 
HETATM    2  C2  UNL     1     -36.042  15.201  -5.551  1.00 20.00     0.052 C 
HETATM    3  C3  UNL     1     -38.370  14.902  -3.877  1.00 20.00     0.170 C 
HETATM    4  C4  UNL     1     -37.196  16.200  -5.667  1.00 20.00     0.049 C 
HETATM    5  C5  UNL     1     -35.999  14.528  -4.163  1.00 20.00     0.058 C 
HETATM    6  C6  UNL     1     -35.516  15.491  -3.067  1.00 20.00     0.046 C 
HETATM    7  O9  UNL     1     -37.283  13.981  -3.831  1.00 20.00    -0.381 OA
ENDROOT
BRANCH   5   8
HETATM    8  C8  UNL     1     -35.033  13.335  -4.211  1.00 20.00     0.033 C 
HETATM    9  C7  UNL     1     -33.650  13.739  -3.829  1.00 20.00     0.008 C 
ENDBRANCH   5   8
BRANCH   4  10
HETATM   10  S10 UNL     1     -37.314  16.832  -7.374  1.00 20.00    -0.177 SA
HETATM   11  H26 UNL     1     -37.903  17.990  -7.048  1.00 20.00     0.102 HD
ENDBRANCH   4  10
TORSDOF 2
ENDMDL
MODEL 6
REMARK VINA RESULT:      -3.7      1.407      2.323
REMARK  2 active torsions:
REMARK  status: ('A' for Active; 'I' for Inactive)
REMARK    1  A    between atoms: C4_4  and  S10_10 
REMARK    2  A    between atoms: C5_5  and  C8_8 
ROOT
HETATM    1  C1  UNL     1     -35.529  13.831  -4.101  1.00 20.00     0.041 C 
HETATM    2  C2  UNL     1     -35.765  16.311  -3.838  1.00 20.00     0.052 C 
HETATM    3  C3  UNL     1     -34.077  13.981  -3.665  1.00 20.00     0.170 C 
HETATM    4  C4  UNL     1     -36.380  14.950  -3.503  1.00 20.00     0.049 C 
HETATM    5  C5  UNL     1     -34.273  16.381  -3.453  1.00 20.00     0.058 C 
HETATM    6  C6  UNL     1     -34.070  16.459  -1.932  1.00 20.00     0.046 C 
HETATM    7  O9  UNL     1     -33.560  15.265  -4.006  1.00 20.00    -0.381 OA
ENDROOT
BRANCH   5   8
HETATM    8  C8  UNL     1     -33.647  17.633  -4.085  1.00 20.00     0.033 C 
HETATM    9  C7  UNL     1     -33.635  17.543  -5.572  1.00 20.00     0.008 C 
ENDBRANCH   5   8
BRANCH   4  10
HETATM   10  S10 UNL     1     -38.087  14.855  -4.139  1.00 20.00    -0.177 SA
HETATM   11  H26 UNL     1     -38.614  15.688  -3.232  1.00 20.00     0.102 HD
ENDBRANCH   4  10
TORSDOF 2
ENDMDL
MODEL 7
REMARK VINA RESULT:      -3.7      2.078      2.802
REMARK  2 active torsions:
REMARK  status: ('A' for Active; 'I' for Inactive)
REMARK    1  A    between atoms: C4_4  and  S10_10 
REMARK    2  A    between atoms: C5_5  and  C8_8 
ROOT
HETATM    1  C1  UNL     1     -36.456  15.187  -3.854  1.00 20.00     0.041 C 
HETATM    2  C2  UNL     1     -34.106  15.524  -3.053  1.00 20.00     0.052 C 
HETATM    3  C3  UNL     1     -36.762  16.597  -3.370  1.00 20.00     0.170 C 
HETATM    4  C4  UNL     1     -34.979  15.062  -4.224  1.00 20.00     0.049 C 
HETATM    5  C5  UNL     1     -34.513  16.923  -2.547  1.00 20.00     0.058 C 
HETATM    6  C6  UNL     1     -34.107  18.035  -3.527  1.00 20.00     0.046 C 
HETATM    7  O9  UNL     1     -35.923  16.969  -2.280  1.00 20.00    -0.381 OA
ENDROOT
BRANCH   5   8
HETATM    8  C8  UNL     1     -33.822  17.193  -1.202  1.00 20.00     0.033 C 
HETATM    9  C7  UNL     1     -34.788  17.116  -0.070  1.00 20.00     0.008 C 
ENDBRANCH   5   8
BRANCH   4  10
HETATM   10  S10 UNL     1     -34.579  13.339  -4.667  1.00 20.00    -0.177 SA
HETATM   11  H26 UNL     1     -34.086  13.003  -3.468  1.00 20.00     0.102 HD
ENDBRANCH   4  10
TORSDOF 2
ENDMDL
MODEL 8
REMARK VINA RESULT:      -3.7      2.415      3.637
REMARK  2 active torsions:
REMARK  status: ('A' for Active; 'I' for Inactive)
REMARK    1  A    between atoms: C4_4  and  S10_10 
REMARK    2  A    between atoms: C5_5  and  C8_8 
ROOT
HETATM    1  C1  UNL     1     -33.957  17.576  -3.085  1.00 20.00     0.041 C 
HETATM    2  C2  UNL     1     -34.530  15.934  -4.889  1.00 20.00     0.052 C 
HETATM    3  C3  UNL     1     -34.000  16.418  -2.097  1.00 20.00     0.170 C 
HETATM    4  C4  UNL     1     -33.589  17.070  -4.478  1.00 20.00     0.049 C 
HETATM    5  C5  UNL     1     -34.601  14.828  -3.817  1.00 20.00     0.058 C 
HETATM    6  C6  UNL     1     -33.315  13.989  -3.763  1.00 20.00     0.046 C 
HETATM    7  O9  UNL     1     -34.894  15.395  -2.530  1.00 20.00    -0.381 OA
ENDROOT
BRANCH   5   8
HETATM    8  C8  UNL     1     -35.773  13.889  -4.138  1.00 20.00     0.033 C 
HETATM    9  C7  UNL     1     -37.082  14.588  -4.002  1.00 20.00     0.008 C 
ENDBRANCH   5   8
BRANCH   4  10
HETATM   10  S10 UNL     1     -33.677  18.431  -5.690  1.00 20.00    -0.177 SA
HETATM   11  H26 UNL     1     -32.363  18.464  -5.950  1.00 20.00     0.102 HD
ENDBRANCH   4  10
TORSDOF 2
ENDMDL
MODEL 9
REMARK VINA RESULT:      -3.7     11.259     12.451
REMARK  2 active torsions:
REMARK  status: ('A' for Active; 'I' for Inactive)
REMARK    1  A    between atoms: C4_4  and  S10_10 
REMARK    2  A    between atoms: C5_5  and  C8_8 
ROOT
HETATM    1  C1  UNL     1     -41.333   3.607  -2.241  1.00 20.00     0.041 C 
HETATM    2  C2  UNL     1     -42.972   5.366  -2.943  1.00 20.00     0.052 C 
HETATM    3  C3  UNL     1     -40.810   4.589  -1.201  1.00 20.00     0.170 C 
HETATM    4  C4  UNL     1     -42.800   3.896  -2.553  1.00 20.00     0.049 C 
HETATM    5  C5  UNL     1     -42.352   6.316  -1.898  1.00 20.00     0.058 C 
HETATM    6  C6  UNL     1     -43.178   6.373  -0.603  1.00 20.00     0.046 C 
HETATM    7  O9  UNL     1     -40.995   5.939  -1.620  1.00 20.00    -0.381 OA
ENDROOT
BRANCH   5   8
HETATM    8  C8  UNL     1     -42.282   7.734  -2.484  1.00 20.00     0.033 C 
HETATM    9  C7  UNL     1     -42.688   7.750  -3.918  1.00 20.00     0.008 C 
ENDBRANCH   5   8
BRANCH   4  10
HETATM   10  S10 UNL     1     -43.386   2.814  -3.900  1.00 20.00    -0.177 SA
HETATM   11  H26 UNL     1     -44.685   2.906  -3.590  1.00 20.00     0.102 HD
ENDBRANCH   4  10
TORSDOF 2
ENDMDL
