MODEL 1
REMARK VINA RESULT:      -4.5      0.000      0.000
REMARK  0 active torsions:
REMARK  status: ('A' for Active; 'I' for Inactive)
ROOT
HETATM    1  C1  UNL     1     -34.585  13.537  -4.056  1.00 20.00     0.088 C 
HETATM    2  C2  UNL     1     -33.971  15.687  -3.161  1.00 20.00    -0.065 C 
HETATM    3  C3  UNL     1     -34.444  14.446  -2.979  1.00 20.00     0.096 C 
HETATM    4  C4  UNL     1     -33.807  16.679  -2.045  1.00 20.00     0.061 C 
HETATM    5  C5  UNL     1     -33.576  16.231  -4.507  1.00 20.00     0.072 C 
HETATM    6  C6  UNL     1     -34.518  17.977  -2.410  1.00 20.00     0.173 C 
HETATM    7  C7  UNL     1     -34.280  17.577  -4.782  1.00 20.00     0.057 C 
HETATM    8  C8  UNL     1     -35.777  17.400  -5.082  1.00 20.00     0.046 C 
HETATM    9  C9  UNL     1     -33.622  18.250  -5.995  1.00 20.00     0.046 C 
HETATM   10  N10 UNL     1     -34.704  12.787  -4.934  1.00 20.00    -0.192 NA
HETATM   11  O11 UNL     1     -34.080  18.478  -3.676  1.00 20.00    -0.380 OA
ENDROOT
TORSDOF 0
ENDMDL
MODEL 2
REMARK VINA RESULT:      -4.5      3.007      4.178
REMARK  0 active torsions:
REMARK  status: ('A' for Active; 'I' for Inactive)
ROOT
HETATM    1  C1  UNL     1     -33.797  17.516  -2.902  1.00 20.00     0.088 C 
HETATM    2  C2  UNL     1     -34.372  15.195  -3.197  1.00 20.00    -0.065 C 
HETATM    3  C3  UNL     1     -33.448  16.164  -3.147  1.00 20.00     0.096 C 
HETATM    4  C4  UNL     1     -34.042  13.752  -3.453  1.00 20.00     0.061 C 
HETATM    5  C5  UNL     1     -35.845  15.449  -3.025  1.00 20.00     0.072 C 
HETATM    6  C6  UNL     1     -34.888  13.234  -4.610  1.00 20.00     0.173 C 
HETATM    7  C7  UNL     1     -36.646  14.841  -4.197  1.00 20.00     0.057 C 
HETATM    8  C8  UNL     1     -36.467  15.638  -5.499  1.00 20.00     0.046 C 
HETATM    9  C9  UNL     1     -38.138  14.835  -3.836  1.00 20.00     0.046 C 
HETATM   10  N10 UNL     1     -34.077  18.624  -2.704  1.00 20.00    -0.192 NA
HETATM   11  O11 UNL     1     -36.282  13.460  -4.384  1.00 20.00    -0.380 OA
ENDROOT
TORSDOF 0
ENDMDL
MODEL 3
REMARK VINA RESULT:      -4.5      2.483      3.793
REMARK  0 active torsions:
REMARK  status: ('A' for Active; 'I' for Inactive)
ROOT
HETATM    1  C1  UNL     1     -34.336  17.062  -1.453  1.00 20.00     0.088 C 
HETATM    2  C2  UNL     1     -33.719  16.614  -3.737  1.00 20.00    -0.065 C 
HETATM    3  C3  UNL     1     -33.940  17.487  -2.745  1.00 20.00     0.096 C 
HETATM    4  C4  UNL     1     -33.297  17.025  -5.119  1.00 20.00     0.061 C 
HETATM    5  C5  UNL     1     -33.891  15.127  -3.583  1.00 20.00     0.072 C 
HETATM    6  C6  UNL     1     -34.245  16.413  -6.144  1.00 20.00     0.173 C 
HETATM    7  C7  UNL     1     -34.807  14.564  -4.690  1.00 20.00     0.057 C 
HETATM    8  C8  UNL     1     -36.280  14.948  -4.477  1.00 20.00     0.046 C 
HETATM    9  C9  UNL     1     -34.704  13.033  -4.697  1.00 20.00     0.046 C 
HETATM   10  N10 UNL     1     -34.662  16.721  -0.393  1.00 20.00    -0.192 NA
HETATM   11  O11 UNL     1     -34.345  14.995  -5.985  1.00 20.00    -0.380 OA
ENDROOT
TORSDOF 0
ENDMDL
MODEL 4
REMARK VINA RESULT:      -4.4      2.768      3.806
REMARK  0 active torsions:
REMARK  status: ('A' for Active; 'I' for Inactive)
ROOT
HETATM    1  C1  UNL     1     -34.470  17.123  -0.487  1.00 20.00     0.088 C 
HETATM    2  C2  UNL     1     -34.045  16.127  -2.638  1.00 20.00    -0.065 C 
HETATM    3  C3  UNL     1     -33.664  16.932  -1.637  1.00 20.00     0.096 C 
HETATM    4  C4  UNL     1     -33.219  15.898  -3.872  1.00 20.00     0.061 C 
HETATM    5  C5  UNL     1     -35.353  15.383  -2.648  1.00 20.00     0.072 C 
HETATM    6  C6  UNL     1     -34.066  16.172  -5.110  1.00 20.00     0.173 C 
HETATM    7  C7  UNL     1     -36.127  15.653  -3.956  1.00 20.00     0.057 C 
HETATM    8  C8  UNL     1     -36.716  17.072  -4.001  1.00 20.00     0.046 C 
HETATM    9  C9  UNL     1     -37.281  14.648  -4.074  1.00 20.00     0.046 C 
HETATM   10  N10 UNL     1     -35.125  17.286   0.456  1.00 20.00    -0.192 NA
HETATM   11  O11 UNL     1     -35.278  15.413  -5.095  1.00 20.00    -0.380 OA
ENDROOT
TORSDOF 0
ENDMDL
MODEL 5
REMARK VINA RESULT:      -4.4      1.646      2.649
REMARK  0 active torsions:
REMARK  status: ('A' for Active; 'I' for Inactive)
ROOT
HETATM    1  C1  UNL     1     -35.335  13.545  -4.392  1.00 20.00     0.088 C 
HETATM    2  C2  UNL     1     -36.289  15.522  -3.399  1.00 20.00    -0.065 C 
HETATM    3  C3  UNL     1     -36.346  14.535  -4.304  1.00 20.00     0.096 C 
HETATM    4  C4  UNL     1     -37.340  16.589  -3.275  1.00 20.00     0.061 C 
HETATM    5  C5  UNL     1     -35.155  15.684  -2.424  1.00 20.00     0.072 C 
HETATM    6  C6  UNL     1     -36.679  17.961  -3.330  1.00 20.00     0.173 C 
HETATM    7  C7  UNL     1     -34.578  17.114  -2.486  1.00 20.00     0.057 C 
HETATM    8  C8  UNL     1     -33.763  17.357  -3.766  1.00 20.00     0.046 C 
HETATM    9  C9  UNL     1     -33.658  17.338  -1.279  1.00 20.00     0.046 C 
HETATM   10  N10 UNL     1     -34.511  12.732  -4.470  1.00 20.00    -0.192 NA
HETATM   11  O11 UNL     1     -35.637  18.083  -2.359  1.00 20.00    -0.380 OA
ENDROOT
TORSDOF 0
ENDMDL
MODEL 6
REMARK VINA RESULT:      -4.3      2.283      3.278
REMARK  0 active torsions:
REMARK  status: ('A' for Active; 'I' for Inactive)
ROOT
HETATM    1  C1  UNL     1     -38.038  15.307  -3.783  1.00 20.00     0.088 C 
HETATM    2  C2  UNL     1     -35.879  16.347  -3.537  1.00 20.00    -0.065 C 
HETATM    3  C3  UNL     1     -37.193  16.445  -3.782  1.00 20.00     0.096 C 
HETATM    4  C4  UNL     1     -34.951  17.528  -3.527  1.00 20.00     0.061 C 
HETATM    5  C5  UNL     1     -35.184  15.039  -3.271  1.00 20.00     0.072 C 
HETATM    6  C6  UNL     1     -33.777  17.261  -4.460  1.00 20.00     0.173 C 
HETATM    7  C7  UNL     1     -33.967  14.864  -4.204  1.00 20.00     0.057 C 
HETATM    8  C8  UNL     1     -34.384  14.565  -5.653  1.00 20.00     0.046 C 
HETATM    9  C9  UNL     1     -33.109  13.697  -3.698  1.00 20.00     0.046 C 
HETATM   10  N10 UNL     1     -38.735  14.380  -3.787  1.00 20.00    -0.192 NA
HETATM   11  O11 UNL     1     -33.122  16.030  -4.143  1.00 20.00    -0.380 OA
ENDROOT
TORSDOF 0
ENDMDL
MODEL 7
REMARK VINA RESULT:      -4.3      1.173      2.644
REMARK  0 active torsions:
REMARK  status: ('A' for Active; 'I' for Inactive)
ROOT
HETATM    1  C1  UNL     1     -34.657  13.674  -4.987  1.00 20.00     0.088 C 
HETATM    2  C2  UNL     1     -34.612  16.075  -5.177  1.00 20.00    -0.065 C 
HETATM    3  C3  UNL     1     -34.200  14.870  -5.595  1.00 20.00     0.096 C 
HETATM    4  C4  UNL     1     -34.151  17.364  -5.796  1.00 20.00     0.061 C 
HETATM    5  C5  UNL     1     -35.563  16.270  -4.027  1.00 20.00     0.072 C 
HETATM    6  C6  UNL     1     -33.611  18.285  -4.708  1.00 20.00     0.173 C 
HETATM    7  C7  UNL     1     -34.982  17.264  -2.999  1.00 20.00     0.057 C 
HETATM    8  C8  UNL     1     -33.828  16.653  -2.188  1.00 20.00     0.046 C 
HETATM    9  C9  UNL     1     -36.090  17.680  -2.022  1.00 20.00     0.046 C 
HETATM   10  N10 UNL     1     -35.026  12.691  -4.493  1.00 20.00    -0.192 NA
HETATM   11  O11 UNL     1     -34.564  18.474  -3.658  1.00 20.00    -0.380 OA
ENDROOT
TORSDOF 0
ENDMDL
MODEL 8
REMARK VINA RESULT:      -4.2      2.869      4.428
REMARK  0 active torsions:
REMARK  status: ('A' for Active; 'I' for Inactive)
ROOT
HETATM    1  C1  UNL     1     -33.743  18.640  -3.763  1.00 20.00     0.088 C 
HETATM    2  C2  UNL     1     -33.852  16.858  -5.381  1.00 20.00    -0.065 C 
HETATM    3  C3  UNL     1     -34.098  18.130  -5.037  1.00 20.00     0.096 C 
HETATM    4  C4  UNL     1     -34.211  16.281  -6.720  1.00 20.00     0.061 C 
HETATM    5  C5  UNL     1     -33.210  15.862  -4.454  1.00 20.00     0.072 C 
HETATM    6  C6  UNL     1     -35.035  15.014  -6.524  1.00 20.00     0.173 C 
HETATM    7  C7  UNL     1     -34.062  14.578  -4.354  1.00 20.00     0.057 C 
HETATM    8  C8  UNL     1     -35.346  14.796  -3.537  1.00 20.00     0.046 C 
HETATM    9  C9  UNL     1     -33.237  13.479  -3.671  1.00 20.00     0.046 C 
HETATM   10  N10 UNL     1     -33.457  19.063  -2.722  1.00 20.00    -0.192 NA
HETATM   11  O11 UNL     1     -34.368  14.080  -5.670  1.00 20.00    -0.380 OA
ENDROOT
TORSDOF 0
ENDMDL
MODEL 9
REMARK VINA RESULT:      -4.2      2.007      3.393
REMARK  0 active torsions:
REMARK  status: ('A' for Active; 'I' for Inactive)
ROOT
HETATM    1  C1  UNL     1     -37.847  14.916  -4.530  1.00 20.00     0.088 C 
HETATM    2  C2  UNL     1     -35.999  16.408  -4.931  1.00 20.00    -0.065 C 
HETATM    3  C3  UNL     1     -36.987  15.633  -5.399  1.00 20.00     0.096 C 
HETATM    4  C4  UNL     1     -35.067  17.183  -5.818  1.00 20.00     0.061 C 
HETATM    5  C5  UNL     1     -35.698  16.567  -3.465  1.00 20.00     0.072 C 
HETATM    6  C6  UNL     1     -33.624  16.853  -5.453  1.00 20.00     0.173 C 
HETATM    7  C7  UNL     1     -34.208  16.283  -3.177  1.00 20.00     0.057 C 
HETATM    8  C8  UNL     1     -33.871  14.787  -3.278  1.00 20.00     0.046 C 
HETATM    9  C9  UNL     1     -33.871  16.759  -1.757  1.00 20.00     0.046 C 
HETATM   10  N10 UNL     1     -38.554  14.326  -3.825  1.00 20.00    -0.192 NA
HETATM   11  O11 UNL     1     -33.374  17.059  -4.060  1.00 20.00    -0.380 OA
ENDROOT
TORSDOF 0
ENDMDL
