MODEL 1
REMARK VINA RESULT:      -4.0      0.000      0.000
REMARK  3 active torsions:
REMARK  status: ('A' for Active; 'I' for Inactive)
REMARK    1  A    between atoms: C4_4  and  N8_8 
REMARK    2  A    between atoms: C6_6  and  C7_7 
REMARK    3  A    between atoms: C6_6  and  N8_8 
ROOT
HETATM    1  C1  UNL     1     -35.338   5.068   4.547  1.00 20.00     0.064 C 
HETATM    2  C2  UNL     1     -34.814   4.142   5.626  1.00 20.00     0.170 C 
HETATM    3  C3  UNL     1     -34.074   6.304   6.100  1.00 20.00     0.203 C 
HETATM    4  C4  UNL     1     -34.380   6.235   4.616  1.00 20.00     0.248 C 
HETATM    5  O9  UNL     1     -34.181   4.967   6.614  1.00 20.00    -0.389 OA
ENDROOT
BRANCH   4   6
HETATM    6  N8  UNL     1     -33.184   5.988   3.846  1.00 20.00     0.092 N 
HETATM    7  C5  UNL     1     -33.526   5.456   2.528  1.00 20.00     0.310 C 
BRANCH   6   8
HETATM    8  C6  UNL     1     -32.400   7.215   3.715  1.00 20.00     0.287 C 
BRANCH   8   9
HETATM    9  C7  UNL     1     -32.045   7.531   2.272  1.00 20.00     0.144 C 
HETATM   10 CL10 UNL     1     -32.380   9.236   1.880  1.00 20.00    -0.129 Cl
ENDBRANCH   8   9
ENDBRANCH   6   8
ENDBRANCH   4   6
TORSDOF 3
ENDMDL
MODEL 2
REMARK VINA RESULT:      -3.9     11.799     12.372
REMARK  3 active torsions:
REMARK  status: ('A' for Active; 'I' for Inactive)
REMARK    1  A    between atoms: C4_4  and  N8_8 
REMARK    2  A    between atoms: C6_6  and  C7_7 
REMARK    3  A    between atoms: C6_6  and  N8_8 
ROOT
HETATM    1  C1  UNL     1     -34.603  14.490  -5.730  1.00 20.00     0.064 C 
HETATM    2  C2  UNL     1     -34.560  13.080  -5.176  1.00 20.00     0.170 C 
HETATM    3  C3  UNL     1     -36.188  14.272  -4.005  1.00 20.00     0.203 C 
HETATM    4  C4  UNL     1     -35.212  15.275  -4.592  1.00 20.00     0.248 C 
HETATM    5  O9  UNL     1     -35.639  12.966  -4.238  1.00 20.00    -0.389 OA
ENDROOT
BRANCH   4   6
HETATM    6  N8  UNL     1     -34.219  15.668  -3.622  1.00 20.00     0.092 N 
HETATM    7  C5  UNL     1     -33.544  16.892  -4.051  1.00 20.00     0.310 C 
BRANCH   6   8
HETATM    8  C6  UNL     1     -34.833  15.855  -2.309  1.00 20.00     0.287 C 
BRANCH   8   9
HETATM    9  C7  UNL     1     -34.092  16.871  -1.456  1.00 20.00     0.144 C 
HETATM   10 CL10 UNL     1     -34.888  17.098   0.121  1.00 20.00    -0.129 Cl
ENDBRANCH   8   9
ENDBRANCH   6   8
ENDBRANCH   4   6
TORSDOF 3
ENDMDL
MODEL 3
REMARK VINA RESULT:      -3.6     11.758     12.744
REMARK  3 active torsions:
REMARK  status: ('A' for Active; 'I' for Inactive)
REMARK    1  A    between atoms: C4_4  and  N8_8 
REMARK    2  A    between atoms: C6_6  and  C7_7 
REMARK    3  A    between atoms: C6_6  and  N8_8 
ROOT
HETATM    1  C1  UNL     1     -33.569  13.844  -3.763  1.00 20.00     0.064 C 
HETATM    2  C2  UNL     1     -34.494  13.205  -4.779  1.00 20.00     0.170 C 
HETATM    3  C3  UNL     1     -34.167  15.432  -5.394  1.00 20.00     0.203 C 
HETATM    4  C4  UNL     1     -33.883  15.315  -3.908  1.00 20.00     0.248 C 
HETATM    5  O9  UNL     1     -34.705  14.169  -5.819  1.00 20.00    -0.389 OA
ENDROOT
BRANCH   4   6
HETATM    6  N8  UNL     1     -35.033  15.695  -3.123  1.00 20.00     0.092 N 
HETATM    7  C5  UNL     1     -34.620  16.140  -1.794  1.00 20.00     0.310 C 
BRANCH   6   8
HETATM    8  C6  UNL     1     -35.790  16.745  -3.802  1.00 20.00     0.287 C 
BRANCH   8   9
HETATM    9  C7  UNL     1     -37.289  16.494  -3.781  1.00 20.00     0.144 C 
HETATM   10 CL10 UNL     1     -37.654  14.751  -3.813  1.00 20.00    -0.129 Cl
ENDBRANCH   8   9
ENDBRANCH   6   8
ENDBRANCH   4   6
TORSDOF 3
ENDMDL
MODEL 4
REMARK VINA RESULT:      -3.5     11.520     12.494
REMARK  3 active torsions:
REMARK  status: ('A' for Active; 'I' for Inactive)
REMARK    1  A    between atoms: C4_4  and  N8_8 
REMARK    2  A    between atoms: C6_6  and  C7_7 
REMARK    3  A    between atoms: C6_6  and  N8_8 
ROOT
HETATM    1  C1  UNL     1     -35.901  14.017  -4.212  1.00 20.00     0.064 C 
HETATM    2  C2  UNL     1     -34.964  13.138  -5.015  1.00 20.00     0.170 C 
HETATM    3  C3  UNL     1     -33.731  14.149  -3.312  1.00 20.00     0.203 C 
HETATM    4  C4  UNL     1     -34.957  15.006  -3.567  1.00 20.00     0.248 C 
HETATM    5  O9  UNL     1     -33.701  13.143  -4.337  1.00 20.00    -0.389 OA
ENDROOT
BRANCH   4   6
HETATM    6  N8  UNL     1     -34.653  16.107  -4.449  1.00 20.00     0.092 N 
HETATM    7  C5  UNL     1     -35.857  16.887  -4.725  1.00 20.00     0.310 C 
BRANCH   6   8
HETATM    8  C6  UNL     1     -33.614  16.955  -3.867  1.00 20.00     0.287 C 
BRANCH   8   9
HETATM    9  C7  UNL     1     -34.146  17.860  -2.769  1.00 20.00     0.144 C 
HETATM   10 CL10 UNL     1     -33.629  17.299  -1.159  1.00 20.00    -0.129 Cl
ENDBRANCH   8   9
ENDBRANCH   6   8
ENDBRANCH   4   6
TORSDOF 3
ENDMDL
MODEL 5
REMARK VINA RESULT:      -3.5     11.772     13.037
REMARK  3 active torsions:
REMARK  status: ('A' for Active; 'I' for Inactive)
REMARK    1  A    between atoms: C4_4  and  N8_8 
REMARK    2  A    between atoms: C6_6  and  C7_7 
REMARK    3  A    between atoms: C6_6  and  N8_8 
ROOT
HETATM    1  C1  UNL     1     -34.737  13.151  -4.634  1.00 20.00     0.064 C 
HETATM    2  C2  UNL     1     -33.728  13.804  -3.712  1.00 20.00     0.170 C 
HETATM    3  C3  UNL     1     -35.725  15.001  -3.568  1.00 20.00     0.203 C 
HETATM    4  C4  UNL     1     -35.719  14.269  -4.897  1.00 20.00     0.248 C 
HETATM    5  O9  UNL     1     -34.423  14.826  -2.986  1.00 20.00    -0.389 OA
ENDROOT
BRANCH   4   6
HETATM    6  N8  UNL     1     -35.273  15.129  -5.967  1.00 20.00     0.092 N 
HETATM    7  C5  UNL     1     -35.483  14.484  -7.261  1.00 20.00     0.310 C 
BRANCH   6   8
HETATM    8  C6  UNL     1     -35.973  16.412  -5.915  1.00 20.00     0.287 C 
BRANCH   8   9
HETATM    9  C7  UNL     1     -35.023  17.598  -5.951  1.00 20.00     0.144 C 
HETATM   10 CL10 UNL     1     -33.389  17.136  -5.414  1.00 20.00    -0.129 Cl
ENDBRANCH   8   9
ENDBRANCH   6   8
ENDBRANCH   4   6
TORSDOF 3
ENDMDL
MODEL 6
REMARK VINA RESULT:      -3.4     11.846     13.477
REMARK  3 active torsions:
REMARK  status: ('A' for Active; 'I' for Inactive)
REMARK    1  A    between atoms: C4_4  and  N8_8 
REMARK    2  A    between atoms: C6_6  and  C7_7 
REMARK    3  A    between atoms: C6_6  and  N8_8 
ROOT
HETATM    1  C1  UNL     1     -35.853  16.472  -6.298  1.00 20.00     0.064 C 
HETATM    2  C2  UNL     1     -34.414  16.439  -6.771  1.00 20.00     0.170 C 
HETATM    3  C3  UNL     1     -35.258  14.266  -6.859  1.00 20.00     0.203 C 
HETATM    4  C4  UNL     1     -36.091  15.046  -5.859  1.00 20.00     0.248 C 
HETATM    5  O9  UNL     1     -34.155  15.107  -7.234  1.00 20.00    -0.389 OA
ENDROOT
BRANCH   4   6
HETATM    6  N8  UNL     1     -35.636  14.820  -4.509  1.00 20.00     0.092 N 
HETATM    7  C5  UNL     1     -36.745  14.958  -3.566  1.00 20.00     0.310 C 
BRANCH   6   8
HETATM    8  C6  UNL     1     -35.026  13.497  -4.391  1.00 20.00     0.287 C 
BRANCH   8   9
HETATM    9  C7  UNL     1     -33.617  13.551  -3.823  1.00 20.00     0.144 C 
HETATM   10 CL10 UNL     1     -33.083  15.231  -3.572  1.00 20.00    -0.129 Cl
ENDBRANCH   8   9
ENDBRANCH   6   8
ENDBRANCH   4   6
TORSDOF 3
ENDMDL
MODEL 7
REMARK VINA RESULT:      -3.4     12.053     13.391
REMARK  3 active torsions:
REMARK  status: ('A' for Active; 'I' for Inactive)
REMARK    1  A    between atoms: C4_4  and  N8_8 
REMARK    2  A    between atoms: C6_6  and  C7_7 
REMARK    3  A    between atoms: C6_6  and  N8_8 
ROOT
HETATM    1  C1  UNL     1     -34.462  14.855  -6.738  1.00 20.00     0.064 C 
HETATM    2  C2  UNL     1     -35.802  14.614  -7.403  1.00 20.00     0.170 C 
HETATM    3  C3  UNL     1     -36.047  16.374  -5.891  1.00 20.00     0.203 C 
HETATM    4  C4  UNL     1     -34.849  15.552  -5.454  1.00 20.00     0.248 C 
HETATM    5  O9  UNL     1     -36.683  15.654  -6.960  1.00 20.00    -0.389 OA
ENDROOT
BRANCH   4   6
HETATM    6  N8  UNL     1     -35.209  14.608  -4.423  1.00 20.00     0.092 N 
HETATM    7  C5  UNL     1     -34.126  13.651  -4.207  1.00 20.00     0.310 C 
BRANCH   6   8
HETATM    8  C6  UNL     1     -35.530  15.308  -3.180  1.00 20.00     0.287 C 
BRANCH   8   9
HETATM    9  C7  UNL     1     -34.310  15.944  -2.535  1.00 20.00     0.144 C 
HETATM   10 CL10 UNL     1     -34.657  16.472  -0.870  1.00 20.00    -0.129 Cl
ENDBRANCH   8   9
ENDBRANCH   6   8
ENDBRANCH   4   6
TORSDOF 3
ENDMDL
MODEL 8
REMARK VINA RESULT:      -3.4     11.548     13.109
REMARK  3 active torsions:
REMARK  status: ('A' for Active; 'I' for Inactive)
REMARK    1  A    between atoms: C4_4  and  N8_8 
REMARK    2  A    between atoms: C6_6  and  C7_7 
REMARK    3  A    between atoms: C6_6  and  N8_8 
ROOT
HETATM    1  C1  UNL     1     -33.627  14.821  -4.167  1.00 20.00     0.064 C 
HETATM    2  C2  UNL     1     -34.278  13.655  -3.451  1.00 20.00     0.170 C 
HETATM    3  C3  UNL     1     -34.870  13.544  -5.705  1.00 20.00     0.203 C 
HETATM    4  C4  UNL     1     -34.494  14.982  -5.395  1.00 20.00     0.248 C 
HETATM    5  O9  UNL     1     -34.894  12.837  -4.454  1.00 20.00    -0.389 OA
ENDROOT
BRANCH   4   6
HETATM    6  N8  UNL     1     -35.664  15.781  -5.121  1.00 20.00     0.092 N 
HETATM    7  C5  UNL     1     -35.320  17.202  -5.109  1.00 20.00     0.310 C 
BRANCH   6   8
HETATM    8  C6  UNL     1     -36.707  15.514  -6.109  1.00 20.00     0.287 C 
BRANCH   8   9
HETATM    9  C7  UNL     1     -38.082  15.355  -5.481  1.00 20.00     0.144 C 
HETATM   10 CL10 UNL     1     -37.968  14.688  -3.833  1.00 20.00    -0.129 Cl
ENDBRANCH   8   9
ENDBRANCH   6   8
ENDBRANCH   4   6
TORSDOF 3
ENDMDL
MODEL 9
REMARK VINA RESULT:      -3.4     12.221     13.250
REMARK  3 active torsions:
REMARK  status: ('A' for Active; 'I' for Inactive)
REMARK    1  A    between atoms: C4_4  and  N8_8 
REMARK    2  A    between atoms: C6_6  and  C7_7 
REMARK    3  A    between atoms: C6_6  and  N8_8 
ROOT
HETATM    1  C1  UNL     1     -34.484  15.406  -6.170  1.00 20.00     0.064 C 
HETATM    2  C2  UNL     1     -34.007  16.844  -6.193  1.00 20.00     0.170 C 
HETATM    3  C3  UNL     1     -32.985  15.769  -4.393  1.00 20.00     0.203 C 
HETATM    4  C4  UNL     1     -34.249  15.002  -4.733  1.00 20.00     0.248 C 
HETATM    5  O9  UNL     1     -32.993  16.966  -5.187  1.00 20.00    -0.389 OA
ENDROOT
BRANCH   4   6
HETATM    6  N8  UNL     1     -35.346  15.397  -3.882  1.00 20.00     0.092 N 
HETATM    7  C5  UNL     1     -36.444  14.438  -3.987  1.00 20.00     0.310 C 
BRANCH   6   8
HETATM    8  C6  UNL     1     -34.899  15.513  -2.495  1.00 20.00     0.287 C 
BRANCH   8   9
HETATM    9  C7  UNL     1     -35.273  16.847  -1.870  1.00 20.00     0.144 C 
HETATM   10 CL10 UNL     1     -34.772  16.926  -0.163  1.00 20.00    -0.129 Cl
ENDBRANCH   8   9
ENDBRANCH   6   8
ENDBRANCH   4   6
TORSDOF 3
ENDMDL
