MODEL 1
REMARK VINA RESULT:      -4.3      0.000      0.000
REMARK  2 active torsions:
REMARK  status: ('A' for Active; 'I' for Inactive)
REMARK    1  A    between atoms: C5_5  and  C8_8 
REMARK    2  A    between atoms: C5_5  and  C9_9 
ROOT
HETATM    1  C1  UNL     1     -35.202  13.331  -4.211  1.00 20.00     0.046 C 
HETATM    2  C2  UNL     1     -35.538  15.748  -3.602  1.00 20.00     0.058 C 
HETATM    3  C3  UNL     1     -33.707  13.612  -4.210  1.00 20.00     0.170 C 
HETATM    4  C4  UNL     1     -36.019  14.591  -4.482  1.00 20.00     0.087 C 
HETATM    5  C5  UNL     1     -34.004  15.898  -3.492  1.00 20.00     0.061 C 
HETATM    6  O10 UNL     1     -33.377  14.628  -3.268  1.00 20.00    -0.380 OA
HETATM    7 CL11 UNL     1     -35.972  15.019  -6.216  1.00 20.00    -0.125 Cl
ENDROOT
BRANCH   5   8
HETATM    8  C8  UNL     1     -33.371  16.606  -4.699  1.00 20.00     0.033 C 
HETATM    9  C6  UNL     1     -33.728  18.052  -4.730  1.00 20.00     0.008 C 
ENDBRANCH   5   8
BRANCH   5  10
HETATM   10  C9  UNL     1     -33.685  16.743  -2.245  1.00 20.00     0.033 C 
HETATM   11  C7  UNL     1     -34.655  16.475  -1.146  1.00 20.00     0.008 C 
ENDBRANCH   5  10
TORSDOF 2
ENDMDL
MODEL 2
REMARK VINA RESULT:      -4.3      1.569      2.862
REMARK  2 active torsions:
REMARK  status: ('A' for Active; 'I' for Inactive)
REMARK    1  A    between atoms: C5_5  and  C8_8 
REMARK    2  A    between atoms: C5_5  and  C9_9 
ROOT
HETATM    1  C1  UNL     1     -35.620  17.136  -6.021  1.00 20.00     0.046 C 
HETATM    2  C2  UNL     1     -33.514  16.446  -4.830  1.00 20.00     0.058 C 
HETATM    3  C3  UNL     1     -36.393  16.484  -4.885  1.00 20.00     0.170 C 
HETATM    4  C4  UNL     1     -34.227  16.535  -6.183  1.00 20.00     0.087 C 
HETATM    5  C5  UNL     1     -34.385  15.934  -3.660  1.00 20.00     0.061 C 
HETATM    6  O10 UNL     1     -35.672  16.569  -3.659  1.00 20.00    -0.380 OA
HETATM    7 CL11 UNL     1     -34.311  14.942  -6.989  1.00 20.00    -0.125 Cl
ENDROOT
BRANCH   5   8
HETATM    8  C8  UNL     1     -34.538  14.407  -3.635  1.00 20.00     0.033 C 
HETATM    9  C6  UNL     1     -33.214  13.726  -3.702  1.00 20.00     0.008 C 
ENDBRANCH   5   8
BRANCH   5  10
HETATM   10  C9  UNL     1     -33.717  16.351  -2.337  1.00 20.00     0.033 C 
HETATM   11  C7  UNL     1     -34.719  16.493  -1.244  1.00 20.00     0.008 C 
ENDBRANCH   5  10
TORSDOF 2
ENDMDL
MODEL 3
REMARK VINA RESULT:      -4.3      2.127      3.781
REMARK  2 active torsions:
REMARK  status: ('A' for Active; 'I' for Inactive)
REMARK    1  A    between atoms: C5_5  and  C8_8 
REMARK    2  A    between atoms: C5_5  and  C9_9 
ROOT
HETATM    1  C1  UNL     1     -32.777  14.933  -3.567  1.00 20.00     0.046 C 
HETATM    2  C2  UNL     1     -34.730  16.114  -4.624  1.00 20.00     0.058 C 
HETATM    3  C3  UNL     1     -33.493  13.626  -3.871  1.00 20.00     0.170 C 
HETATM    4  C4  UNL     1     -33.750  16.102  -3.447  1.00 20.00     0.087 C 
HETATM    5  C5  UNL     1     -35.310  14.734  -5.012  1.00 20.00     0.061 C 
HETATM    6  O10 UNL     1     -34.280  13.736  -5.053  1.00 20.00    -0.380 OA
HETATM    7 CL11 UNL     1     -34.606  16.060  -1.879  1.00 20.00    -0.125 Cl
ENDROOT
BRANCH   5   8
HETATM    8  C8  UNL     1     -36.464  14.280  -4.107  1.00 20.00     0.033 C 
HETATM    9  C6  UNL     1     -37.517  15.329  -4.001  1.00 20.00     0.008 C 
ENDBRANCH   5   8
BRANCH   5  10
HETATM   10  C9  UNL     1     -35.858  14.823  -6.447  1.00 20.00     0.033 C 
HETATM   11  C7  UNL     1     -34.755  14.889  -7.447  1.00 20.00     0.008 C 
ENDBRANCH   5  10
TORSDOF 2
ENDMDL
MODEL 4
REMARK VINA RESULT:      -4.3      1.232      1.527
REMARK  2 active torsions:
REMARK  status: ('A' for Active; 'I' for Inactive)
REMARK    1  A    between atoms: C5_5  and  C8_8 
REMARK    2  A    between atoms: C5_5  and  C9_9 
ROOT
HETATM    1  C1  UNL     1     -33.490  13.617  -3.802  1.00 20.00     0.046 C 
HETATM    2  C2  UNL     1     -35.637  14.862  -3.396  1.00 20.00     0.058 C 
HETATM    3  C3  UNL     1     -32.781  14.962  -3.742  1.00 20.00     0.170 C 
HETATM    4  C4  UNL     1     -34.952  13.761  -4.211  1.00 20.00     0.087 C 
HETATM    5  C5  UNL     1     -34.813  16.157  -3.216  1.00 20.00     0.061 C 
HETATM    6  O10 UNL     1     -33.455  15.858  -2.863  1.00 20.00    -0.380 OA
HETATM    7 CL11 UNL     1     -35.097  14.055  -5.967  1.00 20.00    -0.125 Cl
ENDROOT
BRANCH   5   8
HETATM    8  C8  UNL     1     -34.859  17.086  -4.437  1.00 20.00     0.033 C 
HETATM    9  C6  UNL     1     -36.262  17.375  -4.848  1.00 20.00     0.008 C 
ENDBRANCH   5   8
BRANCH   5  10
HETATM   10  C9  UNL     1     -35.388  16.938  -2.021  1.00 20.00     0.033 C 
HETATM   11  C7  UNL     1     -34.611  16.678  -0.776  1.00 20.00     0.008 C 
ENDBRANCH   5  10
TORSDOF 2
ENDMDL
MODEL 5
REMARK VINA RESULT:      -4.2      1.713      3.110
REMARK  2 active torsions:
REMARK  status: ('A' for Active; 'I' for Inactive)
REMARK    1  A    between atoms: C5_5  and  C8_8 
REMARK    2  A    between atoms: C5_5  and  C9_9 
ROOT
HETATM    1  C1  UNL     1     -34.928  17.314  -6.220  1.00 20.00     0.046 C 
HETATM    2  C2  UNL     1     -35.067  15.571  -4.411  1.00 20.00     0.058 C 
HETATM    3  C3  UNL     1     -33.648  17.800  -5.555  1.00 20.00     0.170 C 
HETATM    4  C4  UNL     1     -35.848  16.601  -5.233  1.00 20.00     0.087 C 
HETATM    5  C5  UNL     1     -33.692  16.049  -3.893  1.00 20.00     0.061 C 
HETATM    6  O10 UNL     1     -32.959  16.725  -4.924  1.00 20.00    -0.380 OA
HETATM    7 CL11 UNL     1     -36.691  17.777  -4.185  1.00 20.00    -0.125 Cl
ENDROOT
BRANCH   5   8
HETATM    8  C8  UNL     1     -33.783  16.924  -2.635  1.00 20.00     0.033 C 
HETATM    9  C6  UNL     1     -34.638  16.290  -1.592  1.00 20.00     0.008 C 
ENDBRANCH   5   8
BRANCH   5  10
HETATM   10  C9  UNL     1     -32.851  14.811  -3.532  1.00 20.00     0.033 C 
HETATM   11  C7  UNL     1     -33.559  13.550  -3.890  1.00 20.00     0.008 C 
ENDBRANCH   5  10
TORSDOF 2
ENDMDL
MODEL 6
REMARK VINA RESULT:      -4.1      2.353      3.671
REMARK  2 active torsions:
REMARK  status: ('A' for Active; 'I' for Inactive)
REMARK    1  A    between atoms: C5_5  and  C8_8 
REMARK    2  A    between atoms: C5_5  and  C9_9 
ROOT
HETATM    1  C1  UNL     1     -33.290  13.710  -3.749  1.00 20.00     0.046 C 
HETATM    2  C2  UNL     1     -33.620  15.798  -5.112  1.00 20.00     0.058 C 
HETATM    3  C3  UNL     1     -34.639  13.240  -4.272  1.00 20.00     0.170 C 
HETATM    4  C4  UNL     1     -33.172  15.231  -3.762  1.00 20.00     0.087 C 
HETATM    5  C5  UNL     1     -34.909  15.174  -5.692  1.00 20.00     0.061 C 
HETATM    6  O10 UNL     1     -34.885  13.744  -5.581  1.00 20.00    -0.380 OA
HETATM    7 CL11 UNL     1     -34.088  15.952  -2.408  1.00 20.00    -0.125 Cl
ENDROOT
BRANCH   5   8
HETATM    8  C8  UNL     1     -36.195  15.741  -5.073  1.00 20.00     0.033 C 
HETATM    9  C6  UNL     1     -36.205  17.230  -5.109  1.00 20.00     0.008 C 
ENDBRANCH   5   8
BRANCH   5  10
HETATM   10  C9  UNL     1     -34.957  15.471  -7.202  1.00 20.00     0.033 C 
HETATM   11  C7  UNL     1     -35.864  14.527  -7.914  1.00 20.00     0.008 C 
ENDBRANCH   5  10
TORSDOF 2
ENDMDL
MODEL 7
REMARK VINA RESULT:      -4.0      2.341      3.891
REMARK  2 active torsions:
REMARK  status: ('A' for Active; 'I' for Inactive)
REMARK    1  A    between atoms: C5_5  and  C8_8 
REMARK    2  A    between atoms: C5_5  and  C9_9 
ROOT
HETATM    1  C1  UNL     1     -35.343  17.968  -3.240  1.00 20.00     0.046 C 
HETATM    2  C2  UNL     1     -35.581  15.486  -3.569  1.00 20.00     0.058 C 
HETATM    3  C3  UNL     1     -34.061  17.882  -4.055  1.00 20.00     0.170 C 
HETATM    4  C4  UNL     1     -35.682  16.641  -2.568  1.00 20.00     0.087 C 
HETATM    5  C5  UNL     1     -34.345  15.525  -4.496  1.00 20.00     0.061 C 
HETATM    6  O10 UNL     1     -34.139  16.842  -5.025  1.00 20.00    -0.380 OA
HETATM    7 CL11 UNL     1     -34.646  16.367  -1.139  1.00 20.00    -0.125 Cl
ENDROOT
BRANCH   5   8
HETATM    8  C8  UNL     1     -33.063  15.006  -3.828  1.00 20.00     0.033 C 
HETATM    9  C6  UNL     1     -33.118  13.532  -3.616  1.00 20.00     0.008 C 
ENDBRANCH   5   8
BRANCH   5  10
HETATM   10  C9  UNL     1     -34.623  14.628  -5.715  1.00 20.00     0.033 C 
HETATM   11  C7  UNL     1     -34.302  15.329  -6.990  1.00 20.00     0.008 C 
ENDBRANCH   5  10
TORSDOF 2
ENDMDL
MODEL 8
REMARK VINA RESULT:      -4.0      2.024      3.217
REMARK  2 active torsions:
REMARK  status: ('A' for Active; 'I' for Inactive)
REMARK    1  A    between atoms: C5_5  and  C8_8 
REMARK    2  A    between atoms: C5_5  and  C9_9 
ROOT
HETATM    1  C1  UNL     1     -34.114  15.387  -3.041  1.00 20.00     0.046 C 
HETATM    2  C2  UNL     1     -35.631  16.014  -4.948  1.00 20.00     0.058 C 
HETATM    3  C3  UNL     1     -32.957  15.479  -4.024  1.00 20.00     0.170 C 
HETATM    4  C4  UNL     1     -35.436  15.089  -3.743  1.00 20.00     0.087 C 
HETATM    5  C5  UNL     1     -34.379  16.215  -5.832  1.00 20.00     0.061 C 
HETATM    6  O10 UNL     1     -33.215  16.455  -5.029  1.00 20.00    -0.380 OA
HETATM    7 CL11 UNL     1     -35.535  13.367  -4.212  1.00 20.00    -0.125 Cl
ENDROOT
BRANCH   5   8
HETATM    8  C8  UNL     1     -34.130  15.059  -6.810  1.00 20.00     0.033 C 
HETATM    9  C6  UNL     1     -35.350  14.747  -7.607  1.00 20.00     0.008 C 
ENDBRANCH   5   8
BRANCH   5  10
HETATM   10  C9  UNL     1     -34.575  17.492  -6.669  1.00 20.00     0.033 C 
HETATM   11  C7  UNL     1     -33.723  18.607  -6.167  1.00 20.00     0.008 C 
ENDBRANCH   5  10
TORSDOF 2
ENDMDL
MODEL 9
REMARK VINA RESULT:      -3.9      1.748      2.904
REMARK  2 active torsions:
REMARK  status: ('A' for Active; 'I' for Inactive)
REMARK    1  A    between atoms: C5_5  and  C8_8 
REMARK    2  A    between atoms: C5_5  and  C9_9 
ROOT
HETATM    1  C1  UNL     1     -35.599  14.528  -4.886  1.00 20.00     0.046 C 
HETATM    2  C2  UNL     1     -33.736  16.166  -4.470  1.00 20.00     0.058 C 
HETATM    3  C3  UNL     1     -36.261  15.069  -3.627  1.00 20.00     0.170 C 
HETATM    4  C4  UNL     1     -34.087  14.729  -4.867  1.00 20.00     0.087 C 
HETATM    5  C5  UNL     1     -34.550  16.740  -3.288  1.00 20.00     0.061 C 
HETATM    6  O10 UNL     1     -35.946  16.445  -3.434  1.00 20.00    -0.380 OA
HETATM    7 CL11 UNL     1     -33.300  13.538  -3.791  1.00 20.00    -0.125 Cl
ENDROOT
BRANCH   5   8
HETATM    8  C8  UNL     1     -34.043  16.278  -1.914  1.00 20.00     0.033 C 
HETATM    9  C6  UNL     1     -34.772  16.961  -0.808  1.00 20.00     0.008 C 
ENDBRANCH   5   8
BRANCH   5  10
HETATM   10  C9  UNL     1     -34.445  18.275  -3.325  1.00 20.00     0.033 C 
HETATM   11  C7  UNL     1     -33.668  18.738  -4.509  1.00 20.00     0.008 C 
ENDBRANCH   5  10
TORSDOF 2
ENDMDL
