MODEL 1
REMARK VINA RESULT:      -3.7      0.000      0.000
REMARK  1 active torsions:
REMARK  status: ('A' for Active; 'I' for Inactive)
REMARK    1  A    between atoms: C4_4  and  S9_9 
ROOT
HETATM    1  C1  UNL     1     -33.784  17.298  -3.474  1.00 20.00     0.041 C 
HETATM    2  C2  UNL     1     -35.063  15.261  -2.765  1.00 20.00     0.052 C 
HETATM    3  C3  UNL     1     -33.399  16.611  -4.782  1.00 20.00     0.170 C 
HETATM    4  C4  UNL     1     -33.984  16.273  -2.366  1.00 20.00     0.049 C 
HETATM    5  C5  UNL     1     -34.964  14.841  -4.253  1.00 20.00     0.054 C 
HETATM    6  C6  UNL     1     -36.110  15.431  -5.090  1.00 20.00     0.045 C 
HETATM    7  C7  UNL     1     -35.032  13.311  -4.363  1.00 20.00     0.045 C 
HETATM    8  O8  UNL     1     -33.695  15.216  -4.803  1.00 20.00    -0.381 OA
ENDROOT
BRANCH   4   9
HETATM    9  S9  UNL     1     -34.428  17.092  -0.799  1.00 20.00    -0.177 SA
HETATM   10  H23 UNL     1     -33.548  18.094  -0.919  1.00 20.00     0.102 HD
ENDBRANCH   4   9
TORSDOF 1
ENDMDL
MODEL 2
REMARK VINA RESULT:      -3.6     11.897     13.052
REMARK  1 active torsions:
REMARK  status: ('A' for Active; 'I' for Inactive)
REMARK    1  A    between atoms: C4_4  and  S9_9 
ROOT
HETATM    1  C1  UNL     1     -41.564   4.514  -0.972  1.00 20.00     0.041 C 
HETATM    2  C2  UNL     1     -42.883   5.465  -2.880  1.00 20.00     0.052 C 
HETATM    3  C3  UNL     1     -40.811   5.834  -0.824  1.00 20.00     0.170 C 
HETATM    4  C4  UNL     1     -42.002   4.301  -2.414  1.00 20.00     0.049 C 
HETATM    5  C5  UNL     1     -42.370   6.839  -2.380  1.00 20.00     0.054 C 
HETATM    6  C6  UNL     1     -43.279   7.424  -1.288  1.00 20.00     0.045 C 
HETATM    7  C7  UNL     1     -42.330   7.832  -3.551  1.00 20.00     0.045 C 
HETATM    8  O8  UNL     1     -41.020   6.736  -1.910  1.00 20.00    -0.381 OA
ENDROOT
BRANCH   4   9
HETATM    9  S9  UNL     1     -42.887   2.719  -2.595  1.00 20.00    -0.177 SA
HETATM   10  H23 UNL     1     -43.345   2.963  -3.830  1.00 20.00     0.102 HD
ENDBRANCH   4   9
TORSDOF 1
ENDMDL
MODEL 3
REMARK VINA RESULT:      -3.5      1.619      2.457
REMARK  1 active torsions:
REMARK  status: ('A' for Active; 'I' for Inactive)
REMARK    1  A    between atoms: C4_4  and  S9_9 
ROOT
HETATM    1  C1  UNL     1     -33.880  14.292  -3.522  1.00 20.00     0.041 C 
HETATM    2  C2  UNL     1     -35.464  15.987  -4.471  1.00 20.00     0.052 C 
HETATM    3  C3  UNL     1     -34.209  13.332  -4.663  1.00 20.00     0.170 C 
HETATM    4  C4  UNL     1     -35.065  15.198  -3.220  1.00 20.00     0.049 C 
HETATM    5  C5  UNL     1     -35.403  15.129  -5.760  1.00 20.00     0.054 C 
HETATM    6  C6  UNL     1     -34.224  15.534  -6.659  1.00 20.00     0.045 C 
HETATM    7  C7  UNL     1     -36.700  15.312  -6.563  1.00 20.00     0.045 C 
HETATM    8  O8  UNL     1     -35.336  13.734  -5.439  1.00 20.00    -0.381 OA
ENDROOT
BRANCH   4   9
HETATM    9  S9  UNL     1     -34.679  16.333  -1.847  1.00 20.00    -0.177 SA
HETATM   10  H23 UNL     1     -35.782  17.080  -1.978  1.00 20.00     0.102 HD
ENDBRANCH   4   9
TORSDOF 1
ENDMDL
MODEL 4
REMARK VINA RESULT:      -3.5      2.644      3.770
REMARK  1 active torsions:
REMARK  status: ('A' for Active; 'I' for Inactive)
REMARK    1  A    between atoms: C4_4  and  S9_9 
ROOT
HETATM    1  C1  UNL     1     -34.433  13.556  -4.979  1.00 20.00     0.041 C 
HETATM    2  C2  UNL     1     -34.902  16.015  -5.099  1.00 20.00     0.052 C 
HETATM    3  C3  UNL     1     -33.511  13.781  -3.783  1.00 20.00     0.170 C 
HETATM    4  C4  UNL     1     -34.451  14.779  -5.885  1.00 20.00     0.049 C 
HETATM    5  C5  UNL     1     -34.300  16.068  -3.673  1.00 20.00     0.054 C 
HETATM    6  C6  UNL     1     -35.359  15.785  -2.596  1.00 20.00     0.045 C 
HETATM    7  C7  UNL     1     -33.714  17.463  -3.411  1.00 20.00     0.045 C 
HETATM    8  O8  UNL     1     -33.202  15.154  -3.552  1.00 20.00    -0.381 OA
ENDROOT
BRANCH   4   9
HETATM    9  S9  UNL     1     -35.537  14.506  -7.322  1.00 20.00    -0.177 SA
HETATM   10  H23 UNL     1     -34.594  13.961  -8.101  1.00 20.00     0.102 HD
ENDBRANCH   4   9
TORSDOF 1
ENDMDL
MODEL 5
REMARK VINA RESULT:      -3.5      2.461      3.614
REMARK  1 active torsions:
REMARK  status: ('A' for Active; 'I' for Inactive)
REMARK    1  A    between atoms: C4_4  and  S9_9 
ROOT
HETATM    1  C1  UNL     1     -35.896  15.841  -4.698  1.00 20.00     0.041 C 
HETATM    2  C2  UNL     1     -34.370  15.282  -2.788  1.00 20.00     0.052 C 
HETATM    3  C3  UNL     1     -36.505  16.983  -3.888  1.00 20.00     0.170 C 
HETATM    4  C4  UNL     1     -35.402  14.732  -3.779  1.00 20.00     0.049 C 
HETATM    5  C5  UNL     1     -34.755  16.680  -2.242  1.00 20.00     0.054 C 
HETATM    6  C6  UNL     1     -33.852  17.784  -2.813  1.00 20.00     0.045 C 
HETATM    7  C7  UNL     1     -34.616  16.693  -0.713  1.00 20.00     0.045 C 
HETATM    8  O8  UNL     1     -36.134  16.968  -2.511  1.00 20.00    -0.381 OA
ENDROOT
BRANCH   4   9
HETATM    9  S9  UNL     1     -34.689  13.361  -4.745  1.00 20.00    -0.177 SA
HETATM   10  H23 UNL     1     -34.159  12.720  -3.695  1.00 20.00     0.102 HD
ENDBRANCH   4   9
TORSDOF 1
ENDMDL
MODEL 6
REMARK VINA RESULT:      -3.5      2.076      2.700
REMARK  1 active torsions:
REMARK  status: ('A' for Active; 'I' for Inactive)
REMARK    1  A    between atoms: C4_4  and  S9_9 
ROOT
HETATM    1  C1  UNL     1     -34.017  17.058  -3.018  1.00 20.00     0.041 C 
HETATM    2  C2  UNL     1     -33.946  15.647  -5.089  1.00 20.00     0.052 C 
HETATM    3  C3  UNL     1     -34.650  15.904  -2.243  1.00 20.00     0.170 C 
HETATM    4  C4  UNL     1     -34.390  16.987  -4.491  1.00 20.00     0.049 C 
HETATM    5  C5  UNL     1     -34.192  14.456  -4.129  1.00 20.00     0.054 C 
HETATM    6  C6  UNL     1     -32.878  13.908  -3.552  1.00 20.00     0.045 C 
HETATM    7  C7  UNL     1     -34.892  13.319  -4.887  1.00 20.00     0.045 C 
HETATM    8  O8  UNL     1     -35.088  14.831  -3.074  1.00 20.00    -0.381 OA
ENDROOT
BRANCH   4   9
HETATM    9  S9  UNL     1     -33.649  18.372  -5.414  1.00 20.00    -0.177 SA
HETATM   10  H23 UNL     1     -33.706  19.251  -4.405  1.00 20.00     0.102 HD
ENDBRANCH   4   9
TORSDOF 1
ENDMDL
MODEL 7
REMARK VINA RESULT:      -3.4      2.297      3.015
REMARK  1 active torsions:
REMARK  status: ('A' for Active; 'I' for Inactive)
REMARK    1  A    between atoms: C4_4  and  S9_9 
ROOT
HETATM    1  C1  UNL     1     -33.364  16.599  -5.138  1.00 20.00     0.041 C 
HETATM    2  C2  UNL     1     -34.656  17.739  -3.317  1.00 20.00     0.052 C 
HETATM    3  C3  UNL     1     -33.005  15.463  -4.184  1.00 20.00     0.170 C 
HETATM    4  C4  UNL     1     -33.560  17.902  -4.376  1.00 20.00     0.049 C 
HETATM    5  C5  UNL     1     -34.581  16.374  -2.588  1.00 20.00     0.054 C 
HETATM    6  C6  UNL     1     -35.732  15.443  -3.002  1.00 20.00     0.045 C 
HETATM    7  C7  UNL     1     -34.668  16.593  -1.071  1.00 20.00     0.045 C 
HETATM    8  O8  UNL     1     -33.315  15.743  -2.820  1.00 20.00    -0.381 OA
ENDROOT
BRANCH   4   9
HETATM    9  S9  UNL     1     -33.973  19.262  -5.515  1.00 20.00    -0.177 SA
HETATM   10  H23 UNL     1     -34.490  18.482  -6.474  1.00 20.00     0.102 HD
ENDBRANCH   4   9
TORSDOF 1
ENDMDL
MODEL 8
REMARK VINA RESULT:      -3.4     12.005     12.892
REMARK  1 active torsions:
REMARK  status: ('A' for Active; 'I' for Inactive)
REMARK    1  A    between atoms: C4_4  and  S9_9 
ROOT
HETATM    1  C1  UNL     1     -43.056   5.384  -3.076  1.00 20.00     0.041 C 
HETATM    2  C2  UNL     1     -42.111   7.103  -1.515  1.00 20.00     0.052 C 
HETATM    3  C3  UNL     1     -42.190   4.306  -2.426  1.00 20.00     0.170 C 
HETATM    4  C4  UNL     1     -42.383   6.746  -2.980  1.00 20.00     0.049 C 
HETATM    5  C5  UNL     1     -41.613   5.891  -0.689  1.00 20.00     0.054 C 
HETATM    6  C6  UNL     1     -42.682   5.394   0.296  1.00 20.00     0.045 C 
HETATM    7  C7  UNL     1     -40.370   6.292   0.119  1.00 20.00     0.045 C 
HETATM    8  O8  UNL     1     -41.190   4.828  -1.553  1.00 20.00    -0.381 OA
ENDROOT
BRANCH   4   9
HETATM    9  S9  UNL     1     -43.408   8.030  -3.769  1.00 20.00    -0.177 SA
HETATM   10  H23 UNL     1     -44.004   7.208  -4.641  1.00 20.00     0.102 HD
ENDBRANCH   4   9
TORSDOF 1
ENDMDL
MODEL 9
REMARK VINA RESULT:      -3.4      2.163      2.829
REMARK  1 active torsions:
REMARK  status: ('A' for Active; 'I' for Inactive)
REMARK    1  A    between atoms: C4_4  and  S9_9 
ROOT
HETATM    1  C1  UNL     1     -35.075  16.437  -6.523  1.00 20.00     0.041 C 
HETATM    2  C2  UNL     1     -33.821  16.084  -4.381  1.00 20.00     0.052 C 
HETATM    3  C3  UNL     1     -35.178  14.927  -6.722  1.00 20.00     0.170 C 
HETATM    4  C4  UNL     1     -33.820  16.794  -5.740  1.00 20.00     0.049 C 
HETATM    5  C5  UNL     1     -34.336  14.626  -4.472  1.00 20.00     0.054 C 
HETATM    6  C6  UNL     1     -35.727  14.472  -3.836  1.00 20.00     0.045 C 
HETATM    7  C7  UNL     1     -33.368  13.690  -3.734  1.00 20.00     0.045 C 
HETATM    8  O8  UNL     1     -34.352  14.177  -5.833  1.00 20.00    -0.381 OA
ENDROOT
BRANCH   4   9
HETATM    9  S9  UNL     1     -33.687  18.598  -5.516  1.00 20.00    -0.177 SA
HETATM   10  H23 UNL     1     -34.263  18.625  -4.307  1.00 20.00     0.102 HD
ENDBRANCH   4   9
TORSDOF 1
ENDMDL
