MODEL 1
REMARK VINA RESULT:      -4.5      0.000      0.000
REMARK  0 active torsions:
REMARK  status: ('A' for Active; 'I' for Inactive)
ROOT
HETATM    1  C1  UNL     1     -34.620  13.711  -5.086  1.00 20.00     0.088 C 
HETATM    2  C2  UNL     1     -33.758  15.929  -4.723  1.00 20.00    -0.066 C 
HETATM    3  C3  UNL     1     -34.385  15.043  -5.508  1.00 20.00     0.096 C 
HETATM    4  C4  UNL     1     -33.491  17.350  -5.134  1.00 20.00     0.061 C 
HETATM    5  C5  UNL     1     -33.276  15.606  -3.336  1.00 20.00     0.066 C 
HETATM    6  C6  UNL     1     -34.021  18.298  -4.063  1.00 20.00     0.172 C 
HETATM    7  C7  UNL     1     -33.786  16.645  -2.328  1.00 20.00     0.121 C 
HETATM    8  C8  UNL     1     -35.266  16.481  -1.984  1.00 20.00     0.040 C 
HETATM    9  N9  UNL     1     -34.816  12.618  -4.747  1.00 20.00    -0.192 NA
HETATM   10  O10 UNL     1     -33.491  17.978  -2.773  1.00 20.00    -0.386 OA
ENDROOT
TORSDOF 0
ENDMDL
MODEL 2
REMARK VINA RESULT:      -4.5      2.168      2.512
REMARK  0 active torsions:
REMARK  status: ('A' for Active; 'I' for Inactive)
ROOT
HETATM    1  C1  UNL     1     -37.668  14.800  -4.433  1.00 20.00     0.088 C 
HETATM    2  C2  UNL     1     -35.372  15.135  -5.075  1.00 20.00    -0.066 C 
HETATM    3  C3  UNL     1     -36.676  15.368  -5.271  1.00 20.00     0.096 C 
HETATM    4  C4  UNL     1     -34.291  15.718  -5.942  1.00 20.00     0.061 C 
HETATM    5  C5  UNL     1     -34.846  14.286  -3.950  1.00 20.00     0.066 C 
HETATM    6  C6  UNL     1     -33.263  16.427  -5.065  1.00 20.00     0.172 C 
HETATM    7  C7  UNL     1     -33.763  15.038  -3.163  1.00 20.00     0.121 C 
HETATM    8  C8  UNL     1     -34.324  16.123  -2.245  1.00 20.00     0.040 C 
HETATM    9  N9  UNL     1     -38.486  14.339  -3.750  1.00 20.00    -0.192 NA
HETATM   10  O10 UNL     1     -32.758  15.560  -4.046  1.00 20.00    -0.386 OA
ENDROOT
TORSDOF 0
ENDMDL
MODEL 3
REMARK VINA RESULT:      -4.4      2.722      4.028
REMARK  0 active torsions:
REMARK  status: ('A' for Active; 'I' for Inactive)
ROOT
HETATM    1  C1  UNL     1     -33.940  17.142  -1.093  1.00 20.00     0.088 C 
HETATM    2  C2  UNL     1     -34.481  15.585  -2.848  1.00 20.00    -0.066 C 
HETATM    3  C3  UNL     1     -34.834  16.255  -1.742  1.00 20.00     0.096 C 
HETATM    4  C4  UNL     1     -35.400  14.636  -3.565  1.00 20.00     0.061 C 
HETATM    5  C5  UNL     1     -33.137  15.730  -3.506  1.00 20.00     0.066 C 
HETATM    6  C6  UNL     1     -35.476  15.018  -5.040  1.00 20.00     0.172 C 
HETATM    7  C7  UNL     1     -33.295  16.037  -5.002  1.00 20.00     0.121 C 
HETATM    8  C8  UNL     1     -33.724  17.477  -5.283  1.00 20.00     0.040 C 
HETATM    9  N9  UNL     1     -33.214  17.871  -0.556  1.00 20.00    -0.192 NA
HETATM   10  O10 UNL     1     -34.174  15.091  -5.628  1.00 20.00    -0.386 OA
ENDROOT
TORSDOF 0
ENDMDL
MODEL 4
REMARK VINA RESULT:      -4.4      1.621      2.287
REMARK  0 active torsions:
REMARK  status: ('A' for Active; 'I' for Inactive)
ROOT
HETATM    1  C1  UNL     1     -34.290  13.499  -4.266  1.00 20.00     0.088 C 
HETATM    2  C2  UNL     1     -34.425  15.483  -2.908  1.00 20.00    -0.066 C 
HETATM    3  C3  UNL     1     -33.692  14.531  -3.502  1.00 20.00     0.096 C 
HETATM    4  C4  UNL     1     -33.827  16.593  -2.090  1.00 20.00     0.061 C 
HETATM    5  C5  UNL     1     -35.923  15.558  -3.018  1.00 20.00     0.066 C 
HETATM    6  C6  UNL     1     -34.339  17.935  -2.602  1.00 20.00     0.172 C 
HETATM    7  C7  UNL     1     -36.365  16.959  -3.463  1.00 20.00     0.121 C 
HETATM    8  C8  UNL     1     -36.120  17.228  -4.948  1.00 20.00     0.040 C 
HETATM    9  N9  UNL     1     -34.774  12.651  -4.894  1.00 20.00    -0.192 NA
HETATM   10  O10 UNL     1     -35.769  17.970  -2.637  1.00 20.00    -0.386 OA
ENDROOT
TORSDOF 0
ENDMDL
MODEL 5
REMARK VINA RESULT:      -4.3      2.815      4.151
REMARK  0 active torsions:
REMARK  status: ('A' for Active; 'I' for Inactive)
ROOT
HETATM    1  C1  UNL     1     -33.938  17.271  -1.947  1.00 20.00     0.088 C 
HETATM    2  C2  UNL     1     -33.973  15.281  -3.302  1.00 20.00    -0.066 C 
HETATM    3  C3  UNL     1     -34.267  15.909  -2.155  1.00 20.00     0.096 C 
HETATM    4  C4  UNL     1     -34.305  13.838  -3.559  1.00 20.00     0.061 C 
HETATM    5  C5  UNL     1     -33.301  15.958  -4.464  1.00 20.00     0.066 C 
HETATM    6  C6  UNL     1     -35.078  13.720  -4.869  1.00 20.00     0.172 C 
HETATM    7  C7  UNL     1     -34.096  15.731  -5.758  1.00 20.00     0.121 C 
HETATM    8  C8  UNL     1     -35.368  16.573  -5.844  1.00 20.00     0.040 C 
HETATM    9  N9  UNL     1     -33.671  18.387  -1.770  1.00 20.00    -0.192 NA
HETATM   10  O10 UNL     1     -34.371  14.335  -5.950  1.00 20.00    -0.386 OA
ENDROOT
TORSDOF 0
ENDMDL
MODEL 6
REMARK VINA RESULT:      -4.1      1.595      2.094
REMARK  0 active torsions:
REMARK  status: ('A' for Active; 'I' for Inactive)
ROOT
HETATM    1  C1  UNL     1     -34.872  13.574  -5.186  1.00 20.00     0.088 C 
HETATM    2  C2  UNL     1     -34.321  15.637  -6.297  1.00 20.00    -0.066 C 
HETATM    3  C3  UNL     1     -35.031  14.502  -6.244  1.00 20.00     0.096 C 
HETATM    4  C4  UNL     1     -34.462  16.646  -7.403  1.00 20.00     0.061 C 
HETATM    5  C5  UNL     1     -33.325  16.037  -5.244  1.00 20.00     0.066 C 
HETATM    6  C6  UNL     1     -34.721  18.024  -6.803  1.00 20.00     0.172 C 
HETATM    7  C7  UNL     1     -33.603  17.461  -4.746  1.00 20.00     0.121 C 
HETATM    8  C8  UNL     1     -34.810  17.553  -3.813  1.00 20.00     0.040 C 
HETATM    9  N9  UNL     1     -34.746  12.808  -4.321  1.00 20.00    -0.192 NA
HETATM   10  O10 UNL     1     -33.716  18.376  -5.847  1.00 20.00    -0.386 OA
ENDROOT
TORSDOF 0
ENDMDL
MODEL 7
REMARK VINA RESULT:      -4.0      2.791      3.928
REMARK  0 active torsions:
REMARK  status: ('A' for Active; 'I' for Inactive)
ROOT
HETATM    1  C1  UNL     1     -37.093  16.974  -3.125  1.00 20.00     0.088 C 
HETATM    2  C2  UNL     1     -35.821  14.961  -3.486  1.00 20.00    -0.066 C 
HETATM    3  C3  UNL     1     -36.933  15.682  -3.685  1.00 20.00     0.096 C 
HETATM    4  C4  UNL     1     -35.615  13.589  -4.063  1.00 20.00     0.061 C 
HETATM    5  C5  UNL     1     -34.649  15.457  -2.686  1.00 20.00     0.066 C 
HETATM    6  C6  UNL     1     -34.292  13.549  -4.822  1.00 20.00     0.172 C 
HETATM    7  C7  UNL     1     -33.346  15.314  -3.485  1.00 20.00     0.121 C 
HETATM    8  C8  UNL     1     -33.193  16.362  -4.588  1.00 20.00     0.040 C 
HETATM    9  N9  UNL     1     -37.230  18.033  -2.669  1.00 20.00    -0.192 NA
HETATM   10  O10 UNL     1     -33.205  13.982  -3.999  1.00 20.00    -0.386 OA
ENDROOT
TORSDOF 0
ENDMDL
MODEL 8
REMARK VINA RESULT:      -4.0     12.290     13.493
REMARK  0 active torsions:
REMARK  status: ('A' for Active; 'I' for Inactive)
ROOT
HETATM    1  C1  UNL     1     -42.723   7.863  -3.137  1.00 20.00     0.088 C 
HETATM    2  C2  UNL     1     -42.607   6.774  -0.993  1.00 20.00    -0.066 C 
HETATM    3  C3  UNL     1     -43.314   7.426  -1.925  1.00 20.00     0.096 C 
HETATM    4  C4  UNL     1     -43.198   6.295   0.304  1.00 20.00     0.061 C 
HETATM    5  C5  UNL     1     -41.153   6.427  -1.153  1.00 20.00     0.066 C 
HETATM    6  C6  UNL     1     -42.896   4.810   0.483  1.00 20.00     0.172 C 
HETATM    7  C7  UNL     1     -40.917   4.935  -0.883  1.00 20.00     0.121 C 
HETATM    8  C8  UNL     1     -41.384   4.031  -2.023  1.00 20.00     0.040 C 
HETATM    9  N9  UNL     1     -42.246   8.224  -4.131  1.00 20.00    -0.192 NA
HETATM   10  O10 UNL     1     -41.495   4.544   0.372  1.00 20.00    -0.386 OA
ENDROOT
TORSDOF 0
ENDMDL
MODEL 9
REMARK VINA RESULT:      -4.0     12.069     13.410
REMARK  0 active torsions:
REMARK  status: ('A' for Active; 'I' for Inactive)
ROOT
HETATM    1  C1  UNL     1     -41.554   3.132  -2.669  1.00 20.00     0.088 C 
HETATM    2  C2  UNL     1     -41.552   5.086  -1.262  1.00 20.00    -0.066 C 
HETATM    3  C3  UNL     1     -40.902   4.050  -1.809  1.00 20.00     0.096 C 
HETATM    4  C4  UNL     1     -40.895   6.080  -0.346  1.00 20.00     0.061 C 
HETATM    5  C5  UNL     1     -43.003   5.381  -1.526  1.00 20.00     0.066 C 
HETATM    6  C6  UNL     1     -41.151   7.493  -0.861  1.00 20.00     0.172 C 
HETATM    7  C7  UNL     1     -43.189   6.840  -1.965  1.00 20.00     0.121 C 
HETATM    8  C8  UNL     1     -42.748   7.101  -3.405  1.00 20.00     0.040 C 
HETATM    9  N9  UNL     1     -42.082   2.376  -3.374  1.00 20.00    -0.192 NA
HETATM   10  O10 UNL     1     -42.549   7.737  -1.045  1.00 20.00    -0.386 OA
ENDROOT
TORSDOF 0
ENDMDL
