MODEL 1
REMARK VINA RESULT:      -4.4      0.000      0.000
REMARK  2 active torsions:
REMARK  status: ('A' for Active; 'I' for Inactive)
REMARK    1  A    between atoms: C5_5  and  C8_8 
REMARK    2  A    between atoms: C8_8  and  C9_9 
ROOT
HETATM    1  C1  UNL     1     -35.685  15.552  -4.772  1.00 20.00     0.046 C 
HETATM    2  C2  UNL     1     -33.669  15.230  -3.321  1.00 20.00     0.052 C 
HETATM    3  C3  UNL     1     -35.965  16.835  -4.002  1.00 20.00     0.169 C 
HETATM    4  C4  UNL     1     -34.922  14.568  -3.891  1.00 20.00     0.086 C 
HETATM    5  C5  UNL     1     -33.985  16.572  -2.653  1.00 20.00     0.123 C 
HETATM    6  O10 UNL     1     -34.763  17.421  -3.506  1.00 20.00    -0.386 OA
HETATM    7 CL11 UNL     1     -34.480  13.116  -4.829  1.00 20.00    -0.125 Cl
ENDROOT
BRANCH   5   8
HETATM    8  C8  UNL     1     -34.617  16.432  -1.295  1.00 20.00     0.035 C 
BRANCH   8   9
HETATM    9  C9  UNL     1     -34.563  17.722  -0.457  1.00 20.00    -0.020 C 
HETATM   10  C6  UNL     1     -35.106  17.521   0.958  1.00 20.00     0.009 C 
HETATM   11  C7  UNL     1     -33.123  18.236  -0.390  1.00 20.00     0.009 C 
ENDBRANCH   8   9
ENDBRANCH   5   8
TORSDOF 2
ENDMDL
MODEL 2
REMARK VINA RESULT:      -4.3      1.905      2.689
REMARK  2 active torsions:
REMARK  status: ('A' for Active; 'I' for Inactive)
REMARK    1  A    between atoms: C5_5  and  C8_8 
REMARK    2  A    between atoms: C8_8  and  C9_9 
ROOT
HETATM    1  C1  UNL     1     -34.978  13.762  -5.669  1.00 20.00     0.046 C 
HETATM    2  C2  UNL     1     -35.050  16.182  -5.028  1.00 20.00     0.052 C 
HETATM    3  C3  UNL     1     -34.860  13.430  -4.188  1.00 20.00     0.169 C 
HETATM    4  C4  UNL     1     -34.400  15.145  -5.944  1.00 20.00     0.086 C 
HETATM    5  C5  UNL     1     -35.005  15.752  -3.557  1.00 20.00     0.123 C 
HETATM    6  O10 UNL     1     -35.495  14.418  -3.378  1.00 20.00    -0.386 OA
HETATM    7 CL11 UNL     1     -34.652  15.590  -7.653  1.00 20.00    -0.125 Cl
ENDROOT
BRANCH   5   8
HETATM    8  C8  UNL     1     -33.654  15.930  -2.920  1.00 20.00     0.035 C 
BRANCH   8   9
HETATM    9  C9  UNL     1     -33.645  16.961  -1.778  1.00 20.00    -0.020 C 
HETATM   10  C6  UNL     1     -33.792  18.395  -2.284  1.00 20.00     0.009 C 
HETATM   11  C7  UNL     1     -34.768  16.645  -0.786  1.00 20.00     0.009 C 
ENDBRANCH   8   9
ENDBRANCH   5   8
TORSDOF 2
ENDMDL
MODEL 3
REMARK VINA RESULT:      -4.2      0.773      1.313
REMARK  2 active torsions:
REMARK  status: ('A' for Active; 'I' for Inactive)
REMARK    1  A    between atoms: C5_5  and  C8_8 
REMARK    2  A    between atoms: C8_8  and  C9_9 
ROOT
HETATM    1  C1  UNL     1     -34.853  15.637  -5.451  1.00 20.00     0.046 C 
HETATM    2  C2  UNL     1     -33.647  14.909  -3.381  1.00 20.00     0.052 C 
HETATM    3  C3  UNL     1     -34.860  17.049  -4.884  1.00 20.00     0.169 C 
HETATM    4  C4  UNL     1     -34.817  14.617  -4.319  1.00 20.00     0.086 C 
HETATM    5  C5  UNL     1     -33.633  16.372  -2.923  1.00 20.00     0.123 C 
HETATM    6  O10 UNL     1     -33.741  17.276  -4.030  1.00 20.00    -0.386 OA
HETATM    7 CL11 UNL     1     -34.679  12.965  -4.980  1.00 20.00    -0.125 Cl
ENDROOT
BRANCH   5   8
HETATM    8  C8  UNL     1     -34.654  16.679  -1.862  1.00 20.00     0.035 C 
BRANCH   8   9
HETATM    9  C9  UNL     1     -34.042  17.222  -0.560  1.00 20.00    -0.020 C 
HETATM   10  C6  UNL     1     -33.260  18.518  -0.777  1.00 20.00     0.009 C 
HETATM   11  C7  UNL     1     -35.146  17.452   0.475  1.00 20.00     0.009 C 
ENDBRANCH   8   9
ENDBRANCH   5   8
TORSDOF 2
ENDMDL
MODEL 4
REMARK VINA RESULT:      -4.2      2.032      2.627
REMARK  2 active torsions:
REMARK  status: ('A' for Active; 'I' for Inactive)
REMARK    1  A    between atoms: C5_5  and  C8_8 
REMARK    2  A    between atoms: C8_8  and  C9_9 
ROOT
HETATM    1  C1  UNL     1     -34.781  14.067  -5.921  1.00 20.00     0.046 C 
HETATM    2  C2  UNL     1     -35.589  16.179  -4.847  1.00 20.00     0.052 C 
HETATM    3  C3  UNL     1     -34.955  13.380  -4.574  1.00 20.00     0.169 C 
HETATM    4  C4  UNL     1     -34.504  15.552  -5.721  1.00 20.00     0.086 C 
HETATM    5  C5  UNL     1     -35.805  15.390  -3.551  1.00 20.00     0.123 C 
HETATM    6  O10 UNL     1     -35.988  13.992  -3.804  1.00 20.00    -0.386 OA
HETATM    7 CL11 UNL     1     -34.428  16.383  -7.299  1.00 20.00    -0.125 Cl
ENDROOT
BRANCH   5   8
HETATM    8  C8  UNL     1     -34.736  15.625  -2.519  1.00 20.00     0.035 C 
BRANCH   8   9
HETATM    9  C9  UNL     1     -34.834  17.000  -1.836  1.00 20.00    -0.020 C 
HETATM   10  C6  UNL     1     -34.724  16.905  -0.314  1.00 20.00     0.009 C 
HETATM   11  C7  UNL     1     -33.743  17.927  -2.376  1.00 20.00     0.009 C 
ENDBRANCH   8   9
ENDBRANCH   5   8
TORSDOF 2
ENDMDL
MODEL 5
REMARK VINA RESULT:      -4.1      2.141      2.566
REMARK  2 active torsions:
REMARK  status: ('A' for Active; 'I' for Inactive)
REMARK    1  A    between atoms: C5_5  and  C8_8 
REMARK    2  A    between atoms: C8_8  and  C9_9 
ROOT
HETATM    1  C1  UNL     1     -33.378  16.106  -4.794  1.00 20.00     0.046 C 
HETATM    2  C2  UNL     1     -34.984  17.463  -3.435  1.00 20.00     0.052 C 
HETATM    3  C3  UNL     1     -33.603  14.961  -3.816  1.00 20.00     0.169 C 
HETATM    4  C4  UNL     1     -33.609  17.442  -4.099  1.00 20.00     0.086 C 
HETATM    5  C5  UNL     1     -35.209  16.234  -2.546  1.00 20.00     0.123 C 
HETATM    6  O10 UNL     1     -34.906  15.016  -3.237  1.00 20.00    -0.386 OA
HETATM    7 CL11 UNL     1     -33.471  18.780  -5.272  1.00 20.00    -0.125 Cl
ENDROOT
BRANCH   5   8
HETATM    8  C8  UNL     1     -34.491  16.309  -1.226  1.00 20.00     0.035 C 
BRANCH   8   9
HETATM    9  C9  UNL     1     -34.580  17.690  -0.556  1.00 20.00    -0.020 C 
HETATM   10  C6  UNL     1     -35.293  17.638   0.795  1.00 20.00     0.009 C 
HETATM   11  C7  UNL     1     -33.176  18.272  -0.378  1.00 20.00     0.009 C 
ENDBRANCH   8   9
ENDBRANCH   5   8
TORSDOF 2
ENDMDL
MODEL 6
REMARK VINA RESULT:      -4.0      2.571      4.508
REMARK  2 active torsions:
REMARK  status: ('A' for Active; 'I' for Inactive)
REMARK    1  A    between atoms: C5_5  and  C8_8 
REMARK    2  A    between atoms: C8_8  and  C9_9 
ROOT
HETATM    1  C1  UNL     1     -34.649  18.698  -2.088  1.00 20.00     0.046 C 
HETATM    2  C2  UNL     1     -34.621  16.277  -1.445  1.00 20.00     0.052 C 
HETATM    3  C3  UNL     1     -34.871  18.256  -3.528  1.00 20.00     0.169 C 
HETATM    4  C4  UNL     1     -33.898  17.617  -1.318  1.00 20.00     0.086 C 
HETATM    5  C5  UNL     1     -34.922  15.927  -2.907  1.00 20.00     0.123 C 
HETATM    6  O10 UNL     1     -35.564  17.010  -3.592  1.00 20.00    -0.386 OA
HETATM    7 CL11 UNL     1     -33.748  18.076   0.400  1.00 20.00    -0.125 Cl
ENDROOT
BRANCH   5   8
HETATM    8  C8  UNL     1     -33.721  15.433  -3.665  1.00 20.00     0.035 C 
BRANCH   8   9
HETATM    9  C9  UNL     1     -34.045  14.306  -4.661  1.00 20.00    -0.020 C 
HETATM   10  C6  UNL     1     -35.179  13.404  -4.174  1.00 20.00     0.009 C 
HETATM   11  C7  UNL     1     -34.410  14.906  -6.022  1.00 20.00     0.009 C 
ENDBRANCH   8   9
ENDBRANCH   5   8
TORSDOF 2
ENDMDL
MODEL 7
REMARK VINA RESULT:      -4.0      2.680      4.648
REMARK  2 active torsions:
REMARK  status: ('A' for Active; 'I' for Inactive)
REMARK    1  A    between atoms: C5_5  and  C8_8 
REMARK    2  A    between atoms: C8_8  and  C9_9 
ROOT
HETATM    1  C1  UNL     1     -33.495  19.041  -1.597  1.00 20.00     0.046 C 
HETATM    2  C2  UNL     1     -34.810  17.125  -0.663  1.00 20.00     0.052 C 
HETATM    3  C3  UNL     1     -33.856  18.539  -2.987  1.00 20.00     0.169 C 
HETATM    4  C4  UNL     1     -33.484  17.882  -0.607  1.00 20.00     0.086 C 
HETATM    5  C5  UNL     1     -35.186  16.737  -2.097  1.00 20.00     0.123 C 
HETATM    6  O10 UNL     1     -35.108  17.855  -2.989  1.00 20.00    -0.386 OA
HETATM    7 CL11 UNL     1     -33.188  18.485   1.046  1.00 20.00    -0.125 Cl
ENDROOT
BRANCH   5   8
HETATM    8  C8  UNL     1     -34.410  15.560  -2.623  1.00 20.00     0.035 C 
BRANCH   8   9
HETATM    9  C9  UNL     1     -35.062  14.892  -3.845  1.00 20.00    -0.020 C 
HETATM   10  C6  UNL     1     -34.486  13.504  -4.128  1.00 20.00     0.009 C 
HETATM   11  C7  UNL     1     -36.575  14.790  -3.635  1.00 20.00     0.009 C 
ENDBRANCH   8   9
ENDBRANCH   5   8
TORSDOF 2
ENDMDL
MODEL 8
REMARK VINA RESULT:      -3.9      2.161      2.874
REMARK  2 active torsions:
REMARK  status: ('A' for Active; 'I' for Inactive)
REMARK    1  A    between atoms: C5_5  and  C8_8 
REMARK    2  A    between atoms: C8_8  and  C9_9 
ROOT
HETATM    1  C1  UNL     1     -35.880  14.758  -6.278  1.00 20.00     0.046 C 
HETATM    2  C2  UNL     1     -36.385  14.607  -3.829  1.00 20.00     0.052 C 
HETATM    3  C3  UNL     1     -34.404  14.659  -5.923  1.00 20.00     0.169 C 
HETATM    4  C4  UNL     1     -36.657  15.376  -5.121  1.00 20.00     0.086 C 
HETATM    5  C5  UNL     1     -34.884  14.436  -3.571  1.00 20.00     0.123 C 
HETATM    6  O10 UNL     1     -34.202  13.918  -4.720  1.00 20.00    -0.386 OA
HETATM    7 CL11 UNL     1     -38.405  15.376  -5.482  1.00 20.00    -0.125 Cl
ENDROOT
BRANCH   5   8
HETATM    8  C8  UNL     1     -34.219  15.682  -3.054  1.00 20.00     0.035 C 
BRANCH   8   9
HETATM    9  C9  UNL     1     -35.131  16.540  -2.160  1.00 20.00    -0.020 C 
HETATM   10  C6  UNL     1     -34.613  16.642  -0.726  1.00 20.00     0.009 C 
HETATM   11  C7  UNL     1     -35.274  17.941  -2.759  1.00 20.00     0.009 C 
ENDBRANCH   8   9
ENDBRANCH   5   8
TORSDOF 2
ENDMDL
MODEL 9
REMARK VINA RESULT:      -3.9      2.356      4.798
REMARK  2 active torsions:
REMARK  status: ('A' for Active; 'I' for Inactive)
REMARK    1  A    between atoms: C5_5  and  C8_8 
REMARK    2  A    between atoms: C8_8  and  C9_9 
ROOT
HETATM    1  C1  UNL     1     -34.398  15.758  -2.489  1.00 20.00     0.046 C 
HETATM    2  C2  UNL     1     -34.691  13.950  -4.196  1.00 20.00     0.052 C 
HETATM    3  C3  UNL     1     -35.837  16.173  -2.761  1.00 20.00     0.169 C 
HETATM    4  C4  UNL     1     -33.799  15.097  -3.725  1.00 20.00     0.086 C 
HETATM    5  C5  UNL     1     -36.152  14.388  -4.350  1.00 20.00     0.123 C 
HETATM    6  O10 UNL     1     -36.631  15.065  -3.181  1.00 20.00    -0.386 OA
HETATM    7 CL11 UNL     1     -32.158  14.495  -3.369  1.00 20.00    -0.125 Cl
ENDROOT
BRANCH   5   8
HETATM    8  C8  UNL     1     -36.409  15.194  -5.594  1.00 20.00     0.035 C 
BRANCH   8   9
HETATM    9  C9  UNL     1     -35.301  15.058  -6.653  1.00 20.00    -0.020 C 
HETATM   10  C6  UNL     1     -35.787  14.348  -7.917  1.00 20.00     0.009 C 
HETATM   11  C7  UNL     1     -34.757  16.442  -7.015  1.00 20.00     0.009 C 
ENDBRANCH   8   9
ENDBRANCH   5   8
TORSDOF 2
ENDMDL
