MODEL 1
REMARK VINA RESULT:      -4.6      0.000      0.000
REMARK  2 active torsions:
REMARK  status: ('A' for Active; 'I' for Inactive)
REMARK    1  A    between atoms: C4_4  and  O10_10 
REMARK    2  A    between atoms: C5_5  and  C8_8 
ROOT
HETATM    1  C1  UNL     1     -35.842  14.578  -5.580  1.00 20.00     0.058 C 
HETATM    2  C2  UNL     1     -35.235  14.797  -3.153  1.00 20.00     0.069 C 
HETATM    3  C3  UNL     1     -34.469  15.145  -5.911  1.00 20.00     0.171 C 
HETATM    4  C4  UNL     1     -35.837  13.884  -4.223  1.00 20.00     0.123 C 
HETATM    5  C5  UNL     1     -33.915  15.481  -3.579  1.00 20.00     0.059 C 
HETATM    6  C6  UNL     1     -32.718  14.556  -3.490  1.00 20.00     0.046 C 
HETATM    7  O9  UNL     1     -34.022  16.042  -4.898  1.00 20.00    -0.380 OA
ENDROOT
BRANCH   5   8
HETATM    8  C8  UNL     1     -33.664  16.678  -2.644  1.00 20.00     0.033 C 
HETATM    9  C7  UNL     1     -34.441  16.552  -1.378  1.00 20.00     0.008 C 
ENDBRANCH   5   8
BRANCH   4  10
HETATM   10  O10 UNL     1     -35.096  12.672  -4.292  1.00 20.00    -0.395 OA
HETATM   11  H26 UNL     1     -34.857  12.543  -5.223  1.00 20.00     0.210 HD
ENDBRANCH   4  10
TORSDOF 2
ENDMDL
MODEL 2
REMARK VINA RESULT:      -4.4      1.448      2.106
REMARK  2 active torsions:
REMARK  status: ('A' for Active; 'I' for Inactive)
REMARK    1  A    between atoms: C4_4  and  O10_10 
REMARK    2  A    between atoms: C5_5  and  C8_8 
ROOT
HETATM    1  C1  UNL     1     -35.393  13.530  -4.114  1.00 20.00     0.058 C 
HETATM    2  C2  UNL     1     -33.377  14.946  -3.625  1.00 20.00     0.069 C 
HETATM    3  C3  UNL     1     -36.247  14.753  -3.810  1.00 20.00     0.171 C 
HETATM    4  C4  UNL     1     -34.004  13.937  -4.589  1.00 20.00     0.123 C 
HETATM    5  C5  UNL     1     -34.325  16.096  -3.213  1.00 20.00     0.059 C 
HETATM    6  C6  UNL     1     -34.450  17.165  -4.280  1.00 20.00     0.046 C 
HETATM    7  O9  UNL     1     -35.621  15.596  -2.846  1.00 20.00    -0.380 OA
ENDROOT
BRANCH   5   8
HETATM    8  C8  UNL     1     -33.765  16.756  -1.939  1.00 20.00     0.033 C 
HETATM    9  C7  UNL     1     -34.704  16.605  -0.791  1.00 20.00     0.008 C 
ENDBRANCH   5   8
BRANCH   4  10
HETATM   10  O10 UNL     1     -34.074  14.501  -5.894  1.00 20.00    -0.395 OA
HETATM   11  H26 UNL     1     -34.012  13.763  -6.520  1.00 20.00     0.210 HD
ENDBRANCH   4  10
TORSDOF 2
ENDMDL
MODEL 3
REMARK VINA RESULT:      -4.3      1.309      3.249
REMARK  2 active torsions:
REMARK  status: ('A' for Active; 'I' for Inactive)
REMARK    1  A    between atoms: C4_4  and  O10_10 
REMARK    2  A    between atoms: C5_5  and  C8_8 
ROOT
HETATM    1  C1  UNL     1     -33.514  13.981  -3.754  1.00 20.00     0.058 C 
HETATM    2  C2  UNL     1     -34.930  14.192  -5.817  1.00 20.00     0.069 C 
HETATM    3  C3  UNL     1     -34.281  15.165  -3.182  1.00 20.00     0.171 C 
HETATM    4  C4  UNL     1     -34.353  13.228  -4.779  1.00 20.00     0.123 C 
HETATM    5  C5  UNL     1     -35.568  15.463  -5.209  1.00 20.00     0.059 C 
HETATM    6  C6  UNL     1     -36.952  15.213  -4.644  1.00 20.00     0.046 C 
HETATM    7  O9  UNL     1     -34.715  16.049  -4.213  1.00 20.00    -0.380 OA
ENDROOT
BRANCH   5   8
HETATM    8  C8  UNL     1     -35.691  16.525  -6.318  1.00 20.00     0.033 C 
HETATM    9  C7  UNL     1     -34.540  16.459  -7.264  1.00 20.00     0.008 C 
ENDBRANCH   5   8
BRANCH   4  10
HETATM   10  O10 UNL     1     -35.410  12.529  -4.133  1.00 20.00    -0.395 OA
HETATM   11  H26 UNL     1     -36.077  13.191  -3.894  1.00 20.00     0.210 HD
ENDBRANCH   4  10
TORSDOF 2
ENDMDL
MODEL 4
REMARK VINA RESULT:      -4.2     11.402     13.356
REMARK  2 active torsions:
REMARK  status: ('A' for Active; 'I' for Inactive)
REMARK    1  A    between atoms: C4_4  and  O10_10 
REMARK    2  A    between atoms: C5_5  and  C8_8 
ROOT
HETATM    1  C1  UNL     1     -41.197   6.828  -1.341  1.00 20.00     0.058 C 
HETATM    2  C2  UNL     1     -40.684   4.379  -1.126  1.00 20.00     0.069 C 
HETATM    3  C3  UNL     1     -42.482   6.432  -2.055  1.00 20.00     0.171 C 
HETATM    4  C4  UNL     1     -40.731   5.724  -0.400  1.00 20.00     0.123 C 
HETATM    5  C5  UNL     1     -41.944   4.075  -1.969  1.00 20.00     0.059 C 
HETATM    6  C6  UNL     1     -43.113   3.601  -1.129  1.00 20.00     0.046 C 
HETATM    7  O9  UNL     1     -42.323   5.208  -2.767  1.00 20.00    -0.380 OA
ENDROOT
BRANCH   5   8
HETATM    8  C8  UNL     1     -41.599   2.962  -2.976  1.00 20.00     0.033 C 
HETATM    9  C7  UNL     1     -42.605   1.862  -2.937  1.00 20.00     0.008 C 
ENDBRANCH   5   8
BRANCH   4  10
HETATM   10  O10 UNL     1     -41.601   5.633   0.722  1.00 20.00    -0.395 OA
HETATM   11  H26 UNL     1     -42.284   4.984   0.494  1.00 20.00     0.210 HD
ENDBRANCH   4  10
TORSDOF 2
ENDMDL
MODEL 5
REMARK VINA RESULT:      -4.2      1.470      3.222
REMARK  2 active torsions:
REMARK  status: ('A' for Active; 'I' for Inactive)
REMARK    1  A    between atoms: C4_4  and  O10_10 
REMARK    2  A    between atoms: C5_5  and  C8_8 
ROOT
HETATM    1  C1  UNL     1     -33.208  13.682  -3.744  1.00 20.00     0.058 C 
HETATM    2  C2  UNL     1     -34.440  15.816  -3.258  1.00 20.00     0.069 C 
HETATM    3  C3  UNL     1     -34.333  13.324  -4.704  1.00 20.00     0.171 C 
HETATM    4  C4  UNL     1     -33.082  15.192  -3.585  1.00 20.00     0.123 C 
HETATM    5  C5  UNL     1     -35.595  15.314  -4.154  1.00 20.00     0.059 C 
HETATM    6  C6  UNL     1     -35.605  15.968  -5.522  1.00 20.00     0.046 C 
HETATM    7  O9  UNL     1     -35.574  13.883  -4.280  1.00 20.00    -0.380 OA
ENDROOT
BRANCH   5   8
HETATM    8  C8  UNL     1     -36.930  15.644  -3.459  1.00 20.00     0.033 C 
HETATM    9  C7  UNL     1     -38.037  14.787  -3.972  1.00 20.00     0.008 C 
ENDBRANCH   5   8
BRANCH   4  10
HETATM   10  O10 UNL     1     -32.563  15.772  -4.777  1.00 20.00    -0.395 OA
HETATM   11  H26 UNL     1     -32.708  15.126  -5.486  1.00 20.00     0.210 HD
ENDBRANCH   4  10
TORSDOF 2
ENDMDL
MODEL 6
REMARK VINA RESULT:      -4.1      1.514      3.737
REMARK  2 active torsions:
REMARK  status: ('A' for Active; 'I' for Inactive)
REMARK    1  A    between atoms: C4_4  and  O10_10 
REMARK    2  A    between atoms: C5_5  and  C8_8 
ROOT
HETATM    1  C1  UNL     1     -33.923  16.377  -3.051  1.00 20.00     0.058 C 
HETATM    2  C2  UNL     1     -33.881  15.592  -5.436  1.00 20.00     0.069 C 
HETATM    3  C3  UNL     1     -35.068  15.403  -2.815  1.00 20.00     0.171 C 
HETATM    4  C4  UNL     1     -33.037  15.915  -4.202  1.00 20.00     0.123 C 
HETATM    5  C5  UNL     1     -35.127  14.725  -5.138  1.00 20.00     0.059 C 
HETATM    6  C6  UNL     1     -34.793  13.258  -4.960  1.00 20.00     0.046 C 
HETATM    7  O9  UNL     1     -35.845  15.221  -3.996  1.00 20.00    -0.380 OA
ENDROOT
BRANCH   5   8
HETATM    8  C8  UNL     1     -36.103  14.852  -6.322  1.00 20.00     0.033 C 
HETATM    9  C7  UNL     1     -35.434  14.531  -7.615  1.00 20.00     0.008 C 
ENDBRANCH   5   8
BRANCH   4  10
HETATM   10  O10 UNL     1     -32.290  14.767  -3.819  1.00 20.00    -0.395 OA
HETATM   11  H26 UNL     1     -31.427  15.086  -3.511  1.00 20.00     0.210 HD
ENDBRANCH   4  10
TORSDOF 2
ENDMDL
MODEL 7
REMARK VINA RESULT:      -4.1      1.632      3.348
REMARK  2 active torsions:
REMARK  status: ('A' for Active; 'I' for Inactive)
REMARK    1  A    between atoms: C4_4  and  O10_10 
REMARK    2  A    between atoms: C5_5  and  C8_8 
ROOT
HETATM    1  C1  UNL     1     -33.730  17.336  -3.407  1.00 20.00     0.058 C 
HETATM    2  C2  UNL     1     -34.839  15.773  -5.030  1.00 20.00     0.069 C 
HETATM    3  C3  UNL     1     -34.041  16.323  -2.315  1.00 20.00     0.171 C 
HETATM    4  C4  UNL     1     -33.620  16.658  -4.767  1.00 20.00     0.123 C 
HETATM    5  C5  UNL     1     -35.224  14.864  -3.839  1.00 20.00     0.059 C 
HETATM    6  C6  UNL     1     -34.338  13.640  -3.724  1.00 20.00     0.046 C 
HETATM    7  O9  UNL     1     -35.233  15.598  -2.604  1.00 20.00    -0.380 OA
ENDROOT
BRANCH   5   8
HETATM    8  C8  UNL     1     -36.674  14.385  -4.041  1.00 20.00     0.033 C 
HETATM    9  C7  UNL     1     -37.654  15.444  -3.665  1.00 20.00     0.008 C 
ENDBRANCH   5   8
BRANCH   4  10
HETATM   10  O10 UNL     1     -32.435  15.874  -4.834  1.00 20.00    -0.395 OA
HETATM   11  H26 UNL     1     -32.666  15.059  -5.306  1.00 20.00     0.210 HD
ENDBRANCH   4  10
TORSDOF 2
ENDMDL
MODEL 8
REMARK VINA RESULT:      -4.1      1.651      2.410
REMARK  2 active torsions:
REMARK  status: ('A' for Active; 'I' for Inactive)
REMARK    1  A    between atoms: C4_4  and  O10_10 
REMARK    2  A    between atoms: C5_5  and  C8_8 
ROOT
HETATM    1  C1  UNL     1     -36.251  14.324  -3.804  1.00 20.00     0.058 C 
HETATM    2  C2  UNL     1     -33.885  14.868  -4.447  1.00 20.00     0.069 C 
HETATM    3  C3  UNL     1     -36.695  15.043  -5.069  1.00 20.00     0.171 C 
HETATM    4  C4  UNL     1     -34.836  13.778  -3.951  1.00 20.00     0.123 C 
HETATM    5  C5  UNL     1     -34.434  15.686  -5.640  1.00 20.00     0.059 C 
HETATM    6  C6  UNL     1     -34.311  14.953  -6.961  1.00 20.00     0.046 C 
HETATM    7  O9  UNL     1     -35.793  16.091  -5.413  1.00 20.00    -0.380 OA
ENDROOT
BRANCH   5   8
HETATM    8  C8  UNL     1     -33.628  16.995  -5.745  1.00 20.00     0.033 C 
HETATM    9  C7  UNL     1     -33.680  17.768  -4.471  1.00 20.00     0.008 C 
ENDBRANCH   5   8
BRANCH   4  10
HETATM   10  O10 UNL     1     -34.823  12.681  -4.858  1.00 20.00    -0.395 OA
HETATM   11  H26 UNL     1     -34.164  12.891  -5.539  1.00 20.00     0.210 HD
ENDBRANCH   4  10
TORSDOF 2
ENDMDL
MODEL 9
REMARK VINA RESULT:      -4.0      1.562      1.778
REMARK  2 active torsions:
REMARK  status: ('A' for Active; 'I' for Inactive)
REMARK    1  A    between atoms: C4_4  and  O10_10 
REMARK    2  A    between atoms: C5_5  and  C8_8 
ROOT
HETATM    1  C1  UNL     1     -37.267  15.945  -5.210  1.00 20.00     0.058 C 
HETATM    2  C2  UNL     1     -36.029  15.579  -3.056  1.00 20.00     0.069 C 
HETATM    3  C3  UNL     1     -36.076  15.326  -5.927  1.00 20.00     0.171 C 
HETATM    4  C4  UNL     1     -37.370  15.435  -3.778  1.00 20.00     0.123 C 
HETATM    5  C5  UNL     1     -34.816  15.081  -3.876  1.00 20.00     0.059 C 
HETATM    6  C6  UNL     1     -34.680  13.571  -3.866  1.00 20.00     0.046 C 
HETATM    7  O9  UNL     1     -34.861  15.574  -5.224  1.00 20.00    -0.380 OA
ENDROOT
BRANCH   5   8
HETATM    8  C8  UNL     1     -33.536  15.678  -3.263  1.00 20.00     0.033 C 
HETATM    9  C7  UNL     1     -33.848  16.557  -2.100  1.00 20.00     0.008 C 
ENDBRANCH   5   8
BRANCH   4  10
HETATM   10  O10 UNL     1     -37.776  14.072  -3.767  1.00 20.00    -0.395 OA
HETATM   11  H26 UNL     1     -38.070  13.862  -4.668  1.00 20.00     0.210 HD
ENDBRANCH   4  10
TORSDOF 2
ENDMDL
