MODEL 1
REMARK VINA RESULT:      -4.7      0.000      0.000
REMARK  2 active torsions:
REMARK  status: ('A' for Active; 'I' for Inactive)
REMARK    1  A    between atoms: C5_5  and  C8_8 
REMARK    2  A    between atoms: C8_8  and  C9_9 
ROOT
HETATM    1  C1  UNL     1     -34.681  16.671  -6.572  1.00 20.00     0.046 C 
HETATM    2  C2  UNL     1     -34.340  14.532  -5.318  1.00 20.00     0.057 C 
HETATM    3  C3  UNL     1     -33.641  17.360  -5.695  1.00 20.00     0.170 C 
HETATM    4  C4  UNL     1     -34.380  15.186  -6.700  1.00 20.00     0.087 C 
HETATM    5  C5  UNL     1     -33.601  15.401  -4.272  1.00 20.00     0.058 C 
HETATM    6  C6  UNL     1     -32.556  14.549  -3.537  1.00 20.00     0.046 C 
HETATM    7  O10 UNL     1     -32.867  16.454  -4.910  1.00 20.00    -0.380 OA
HETATM    8 CL11 UNL     1     -35.595  14.386  -7.732  1.00 20.00    -0.125 Cl
ENDROOT
BRANCH   5   9
HETATM    9  C8  UNL     1     -34.570  15.978  -3.228  1.00 20.00     0.037 C 
BRANCH   9  10
HETATM   10  C9  UNL     1     -33.811  16.622  -2.078  1.00 20.00    -0.002 C 
HETATM   11  C7  UNL     1     -34.646  16.622  -0.807  1.00 20.00     0.005 C 
ENDBRANCH   9  10
ENDBRANCH   5   9
TORSDOF 2
ENDMDL
MODEL 2
REMARK VINA RESULT:      -4.4      1.261      1.304
REMARK  2 active torsions:
REMARK  status: ('A' for Active; 'I' for Inactive)
REMARK    1  A    between atoms: C5_5  and  C8_8 
REMARK    2  A    between atoms: C8_8  and  C9_9 
ROOT
HETATM    1  C1  UNL     1     -35.069  17.317  -5.446  1.00 20.00     0.046 C 
HETATM    2  C2  UNL     1     -34.861  15.156  -4.200  1.00 20.00     0.057 C 
HETATM    3  C3  UNL     1     -33.570  17.555  -5.298  1.00 20.00     0.170 C 
HETATM    4  C4  UNL     1     -35.378  15.829  -5.473  1.00 20.00     0.087 C 
HETATM    5  C5  UNL     1     -33.458  15.664  -3.789  1.00 20.00     0.058 C 
HETATM    6  C6  UNL     1     -32.530  14.469  -3.530  1.00 20.00     0.046 C 
HETATM    7  O10 UNL     1     -32.851  16.405  -4.856  1.00 20.00    -0.380 OA
HETATM    8 CL11 UNL     1     -37.132  15.555  -5.652  1.00 20.00    -0.125 Cl
ENDROOT
BRANCH   5   9
HETATM    9  C8  UNL     1     -33.515  16.514  -2.510  1.00 20.00     0.037 C 
BRANCH   9  10
HETATM   10  C9  UNL     1     -34.762  16.193  -1.699  1.00 20.00    -0.002 C 
HETATM   11  C7  UNL     1     -34.749  16.929  -0.369  1.00 20.00     0.005 C 
ENDBRANCH   9  10
ENDBRANCH   5   9
TORSDOF 2
ENDMDL
MODEL 3
REMARK VINA RESULT:      -4.4      1.888      2.004
REMARK  2 active torsions:
REMARK  status: ('A' for Active; 'I' for Inactive)
REMARK    1  A    between atoms: C5_5  and  C8_8 
REMARK    2  A    between atoms: C8_8  and  C9_9 
ROOT
HETATM    1  C1  UNL     1     -36.232  16.349  -5.258  1.00 20.00     0.046 C 
HETATM    2  C2  UNL     1     -35.649  14.478  -3.702  1.00 20.00     0.057 C 
HETATM    3  C3  UNL     1     -34.768  16.473  -5.670  1.00 20.00     0.170 C 
HETATM    4  C4  UNL     1     -36.558  14.922  -4.849  1.00 20.00     0.087 C 
HETATM    5  C5  UNL     1     -34.181  14.927  -3.900  1.00 20.00     0.058 C 
HETATM    6  C6  UNL     1     -33.242  13.729  -3.701  1.00 20.00     0.046 C 
HETATM    7  O10 UNL     1     -33.962  15.375  -5.244  1.00 20.00    -0.380 OA
HETATM    8 CL11 UNL     1     -38.272  14.781  -4.375  1.00 20.00    -0.125 Cl
ENDROOT
BRANCH   5   9
HETATM    9  C8  UNL     1     -33.783  16.021  -2.897  1.00 20.00     0.037 C 
BRANCH   9  10
HETATM   10  C9  UNL     1     -34.800  16.122  -1.770  1.00 20.00    -0.002 C 
HETATM   11  C7  UNL     1     -34.304  17.050  -0.672  1.00 20.00     0.005 C 
ENDBRANCH   9  10
ENDBRANCH   5   9
TORSDOF 2
ENDMDL
MODEL 4
REMARK VINA RESULT:      -4.3      2.876      4.133
REMARK  2 active torsions:
REMARK  status: ('A' for Active; 'I' for Inactive)
REMARK    1  A    between atoms: C5_5  and  C8_8 
REMARK    2  A    between atoms: C8_8  and  C9_9 
ROOT
HETATM    1  C1  UNL     1     -35.860  17.004  -2.523  1.00 20.00     0.046 C 
HETATM    2  C2  UNL     1     -33.851  15.543  -2.827  1.00 20.00     0.057 C 
HETATM    3  C3  UNL     1     -36.686  16.062  -3.393  1.00 20.00     0.170 C 
HETATM    4  C4  UNL     1     -34.752  16.247  -1.810  1.00 20.00     0.087 C 
HETATM    5  C5  UNL     1     -34.654  14.877  -3.970  1.00 20.00     0.058 C 
HETATM    6  C6  UNL     1     -34.197  13.422  -4.145  1.00 20.00     0.046 C 
HETATM    7  O10 UNL     1     -36.048  14.810  -3.642  1.00 20.00    -0.380 OA
HETATM    8 CL11 UNL     1     -33.793  17.350  -0.789  1.00 20.00    -0.125 Cl
ENDROOT
BRANCH   5   9
HETATM    9  C8  UNL     1     -34.451  15.608  -5.306  1.00 20.00     0.037 C 
BRANCH   9  10
HETATM   10  C9  UNL     1     -33.271  16.566  -5.228  1.00 20.00    -0.002 C 
HETATM   11  C7  UNL     1     -33.686  17.974  -5.623  1.00 20.00     0.005 C 
ENDBRANCH   9  10
ENDBRANCH   5   9
TORSDOF 2
ENDMDL
MODEL 5
REMARK VINA RESULT:      -4.2      2.162      2.874
REMARK  2 active torsions:
REMARK  status: ('A' for Active; 'I' for Inactive)
REMARK    1  A    between atoms: C5_5  and  C8_8 
REMARK    2  A    between atoms: C8_8  and  C9_9 
ROOT
HETATM    1  C1  UNL     1     -35.452  14.810  -3.750  1.00 20.00     0.046 C 
HETATM    2  C2  UNL     1     -33.326  16.105  -4.006  1.00 20.00     0.057 C 
HETATM    3  C3  UNL     1     -36.250  16.001  -4.270  1.00 20.00     0.170 C 
HETATM    4  C4  UNL     1     -34.052  14.800  -4.339  1.00 20.00     0.087 C 
HETATM    5  C5  UNL     1     -34.239  17.346  -4.158  1.00 20.00     0.058 C 
HETATM    6  C6  UNL     1     -33.531  18.407  -5.011  1.00 20.00     0.046 C 
HETATM    7  O10 UNL     1     -35.439  17.012  -4.867  1.00 20.00    -0.380 OA
HETATM    8 CL11 UNL     1     -33.125  13.401  -3.734  1.00 20.00    -0.125 Cl
ENDROOT
BRANCH   5   9
HETATM    9  C8  UNL     1     -34.576  17.972  -2.795  1.00 20.00     0.037 C 
BRANCH   9  10
HETATM   10  C9  UNL     1     -33.752  17.335  -1.685  1.00 20.00    -0.002 C 
HETATM   11  C7  UNL     1     -34.652  16.763  -0.601  1.00 20.00     0.005 C 
ENDBRANCH   9  10
ENDBRANCH   5   9
TORSDOF 2
ENDMDL
MODEL 6
REMARK VINA RESULT:      -4.2      1.824      2.722
REMARK  2 active torsions:
REMARK  status: ('A' for Active; 'I' for Inactive)
REMARK    1  A    between atoms: C5_5  and  C8_8 
REMARK    2  A    between atoms: C8_8  and  C9_9 
ROOT
HETATM    1  C1  UNL     1     -34.424  13.846  -5.204  1.00 20.00     0.046 C 
HETATM    2  C2  UNL     1     -35.062  16.261  -5.054  1.00 20.00     0.057 C 
HETATM    3  C3  UNL     1     -35.139  13.568  -3.885  1.00 20.00     0.170 C 
HETATM    4  C4  UNL     1     -35.074  15.009  -5.934  1.00 20.00     0.087 C 
HETATM    5  C5  UNL     1     -35.421  15.954  -3.581  1.00 20.00     0.058 C 
HETATM    6  C6  UNL     1     -36.516  16.918  -3.103  1.00 20.00     0.046 C 
HETATM    7  O10 UNL     1     -35.978  14.639  -3.455  1.00 20.00    -0.380 OA
HETATM    8 CL11 UNL     1     -34.239  15.327  -7.478  1.00 20.00    -0.125 Cl
ENDROOT
BRANCH   5   9
HETATM    9  C8  UNL     1     -34.204  16.113  -2.656  1.00 20.00     0.037 C 
BRANCH   9  10
HETATM   10  C9  UNL     1     -34.639  16.446  -1.236  1.00 20.00    -0.002 C 
HETATM   11  C7  UNL     1     -33.786  17.562  -0.654  1.00 20.00     0.005 C 
ENDBRANCH   9  10
ENDBRANCH   5   9
TORSDOF 2
ENDMDL
MODEL 7
REMARK VINA RESULT:      -4.1      2.798      4.022
REMARK  2 active torsions:
REMARK  status: ('A' for Active; 'I' for Inactive)
REMARK    1  A    between atoms: C5_5  and  C8_8 
REMARK    2  A    between atoms: C8_8  and  C9_9 
ROOT
HETATM    1  C1  UNL     1     -33.744  17.026  -3.210  1.00 20.00     0.046 C 
HETATM    2  C2  UNL     1     -35.861  15.705  -3.017  1.00 20.00     0.057 C 
HETATM    3  C3  UNL     1     -34.034  17.290  -4.684  1.00 20.00     0.170 C 
HETATM    4  C4  UNL     1     -35.036  16.852  -2.429  1.00 20.00     0.087 C 
HETATM    5  C5  UNL     1     -35.868  15.713  -4.564  1.00 20.00     0.058 C 
HETATM    6  C6  UNL     1     -37.311  15.605  -5.075  1.00 20.00     0.046 C 
HETATM    7  O10 UNL     1     -35.367  16.956  -5.071  1.00 20.00    -0.380 OA
HETATM    8 CL11 UNL     1     -34.691  16.550  -0.705  1.00 20.00    -0.125 Cl
ENDROOT
BRANCH   5   9
HETATM    9  C8  UNL     1     -35.066  14.535  -5.140  1.00 20.00     0.037 C 
BRANCH   9  10
HETATM   10  C9  UNL     1     -34.756  13.508  -4.061  1.00 20.00    -0.002 C 
HETATM   11  C7  UNL     1     -33.265  13.462  -3.767  1.00 20.00     0.005 C 
ENDBRANCH   9  10
ENDBRANCH   5   9
TORSDOF 2
ENDMDL
MODEL 8
REMARK VINA RESULT:      -4.1      2.010      3.813
REMARK  2 active torsions:
REMARK  status: ('A' for Active; 'I' for Inactive)
REMARK    1  A    between atoms: C5_5  and  C8_8 
REMARK    2  A    between atoms: C8_8  and  C9_9 
ROOT
HETATM    1  C1  UNL     1     -35.449  13.678  -4.143  1.00 20.00     0.046 C 
HETATM    2  C2  UNL     1     -35.741  16.164  -4.146  1.00 20.00     0.057 C 
HETATM    3  C3  UNL     1     -33.996  13.842  -3.708  1.00 20.00     0.170 C 
HETATM    4  C4  UNL     1     -36.297  14.833  -3.636  1.00 20.00     0.087 C 
HETATM    5  C5  UNL     1     -34.196  16.227  -4.075  1.00 20.00     0.058 C 
HETATM    6  C6  UNL     1     -33.763  17.525  -3.380  1.00 20.00     0.046 C 
HETATM    7  O10 UNL     1     -33.678  15.161  -3.269  1.00 20.00    -0.380 OA
HETATM    8 CL11 UNL     1     -37.996  14.634  -4.141  1.00 20.00    -0.125 Cl
ENDROOT
BRANCH   5   9
HETATM    9  C8  UNL     1     -33.563  16.198  -5.475  1.00 20.00     0.037 C 
BRANCH   9  10
HETATM   10  C9  UNL     1     -34.631  16.263  -6.557  1.00 20.00    -0.002 C 
HETATM   11  C7  UNL     1     -34.567  15.040  -7.457  1.00 20.00     0.005 C 
ENDBRANCH   9  10
ENDBRANCH   5   9
TORSDOF 2
ENDMDL
MODEL 9
REMARK VINA RESULT:      -4.1      2.450      4.455
REMARK  2 active torsions:
REMARK  status: ('A' for Active; 'I' for Inactive)
REMARK    1  A    between atoms: C5_5  and  C8_8 
REMARK    2  A    between atoms: C8_8  and  C9_9 
ROOT
HETATM    1  C1  UNL     1     -33.808  15.215  -2.791  1.00 20.00     0.046 C 
HETATM    2  C2  UNL     1     -34.496  17.563  -3.319  1.00 20.00     0.057 C 
HETATM    3  C3  UNL     1     -33.021  15.144  -4.096  1.00 20.00     0.170 C 
HETATM    4  C4  UNL     1     -33.864  16.642  -2.273  1.00 20.00     0.087 C 
HETATM    5  C5  UNL     1     -33.995  17.262  -4.752  1.00 20.00     0.058 C 
HETATM    6  C6  UNL     1     -33.539  18.564  -5.425  1.00 20.00     0.046 C 
HETATM    7  O10 UNL     1     -32.840  16.414  -4.722  1.00 20.00    -0.380 OA
HETATM    8 CL11 UNL     1     -34.780  16.720  -0.744  1.00 20.00    -0.125 Cl
ENDROOT
BRANCH   5   9
HETATM    9  C8  UNL     1     -35.099  16.636  -5.619  1.00 20.00     0.037 C 
BRANCH   9  10
HETATM   10  C9  UNL     1     -34.624  16.443  -7.051  1.00 20.00    -0.002 C 
HETATM   11  C7  UNL     1     -34.657  14.974  -7.441  1.00 20.00     0.005 C 
ENDBRANCH   9  10
ENDBRANCH   5   9
TORSDOF 2
ENDMDL
