MODEL 1
REMARK VINA RESULT:      -4.3      0.000      0.000
REMARK  1 active torsions:
REMARK  status: ('A' for Active; 'I' for Inactive)
REMARK    1  A    between atoms: C5_5  and  C8_8 
ROOT
HETATM    1  C1  UNL     1     -35.411  13.573  -4.165  1.00 20.00     0.046 C 
HETATM    2  C2  UNL     1     -35.677  15.868  -3.202  1.00 20.00     0.057 C 
HETATM    3  C3  UNL     1     -33.917  13.845  -4.260  1.00 20.00     0.170 C 
HETATM    4  C4  UNL     1     -36.188  14.881  -4.252  1.00 20.00     0.087 C 
HETATM    5  C5  UNL     1     -34.145  16.040  -3.262  1.00 20.00     0.058 C 
HETATM    6  C6  UNL     1     -33.708  16.863  -4.458  1.00 20.00     0.046 C 
HETATM    7  O9  UNL     1     -33.485  14.762  -3.257  1.00 20.00    -0.380 OA
HETATM    8 CL10 UNL     1     -37.932  14.577  -4.016  1.00 20.00    -0.125 Cl
ENDROOT
BRANCH   5   9
HETATM    9  C8  UNL     1     -33.676  16.753  -1.983  1.00 20.00     0.033 C 
HETATM   10  C7  UNL     1     -34.666  16.600  -0.880  1.00 20.00     0.008 C 
ENDBRANCH   5   9
TORSDOF 1
ENDMDL
MODEL 2
REMARK VINA RESULT:      -4.2      2.083      3.558
REMARK  1 active torsions:
REMARK  status: ('A' for Active; 'I' for Inactive)
REMARK    1  A    between atoms: C5_5  and  C8_8 
ROOT
HETATM    1  C1  UNL     1     -33.714  17.432  -3.387  1.00 20.00     0.046 C 
HETATM    2  C2  UNL     1     -34.859  15.382  -2.521  1.00 20.00     0.057 C 
HETATM    3  C3  UNL     1     -33.420  16.662  -4.665  1.00 20.00     0.170 C 
HETATM    4  C4  UNL     1     -33.832  16.471  -2.211  1.00 20.00     0.087 C 
HETATM    5  C5  UNL     1     -34.587  14.693  -3.874  1.00 20.00     0.058 C 
HETATM    6  C6  UNL     1     -33.399  13.753  -3.809  1.00 20.00     0.046 C 
HETATM    7  O9  UNL     1     -34.408  15.666  -4.919  1.00 20.00    -0.380 OA
HETATM    8 CL10 UNL     1     -34.300  17.358  -0.734  1.00 20.00    -0.125 Cl
ENDROOT
BRANCH   5   9
HETATM    9  C8  UNL     1     -35.829  13.880  -4.276  1.00 20.00     0.033 C 
HETATM   10  C7  UNL     1     -37.086  14.627  -3.985  1.00 20.00     0.008 C 
ENDBRANCH   5   9
TORSDOF 1
ENDMDL
MODEL 3
REMARK VINA RESULT:      -4.1     12.280     13.142
REMARK  1 active torsions:
REMARK  status: ('A' for Active; 'I' for Inactive)
REMARK    1  A    between atoms: C5_5  and  C8_8 
ROOT
HETATM    1  C1  UNL     1     -34.392   5.042   6.710  1.00 20.00     0.046 C 
HETATM    2  C2  UNL     1     -33.799   6.450   4.728  1.00 20.00     0.057 C 
HETATM    3  C3  UNL     1     -35.188   4.150   5.770  1.00 20.00     0.170 C 
HETATM    4  C4  UNL     1     -34.332   6.462   6.160  1.00 20.00     0.087 C 
HETATM    5  C5  UNL     1     -34.566   5.458   3.829  1.00 20.00     0.058 C 
HETATM    6  C6  UNL     1     -35.947   5.966   3.463  1.00 20.00     0.046 C 
HETATM    7  O9  UNL     1     -34.649   4.163   4.450  1.00 20.00    -0.380 OA
HETATM    8 CL10 UNL     1     -33.295   7.481   7.197  1.00 20.00    -0.125 Cl
ENDROOT
BRANCH   5   9
HETATM    9  C8  UNL     1     -33.767   5.243   2.532  1.00 20.00     0.033 C 
HETATM   10  C7  UNL     1     -32.490   6.012   2.547  1.00 20.00     0.008 C 
ENDBRANCH   5   9
TORSDOF 1
ENDMDL
MODEL 4
REMARK VINA RESULT:      -4.1      1.859      2.536
REMARK  1 active torsions:
REMARK  status: ('A' for Active; 'I' for Inactive)
REMARK    1  A    between atoms: C5_5  and  C8_8 
ROOT
HETATM    1  C1  UNL     1     -33.440  15.915  -4.889  1.00 20.00     0.046 C 
HETATM    2  C2  UNL     1     -34.703  15.148  -2.869  1.00 20.00     0.057 C 
HETATM    3  C3  UNL     1     -33.632  17.343  -4.401  1.00 20.00     0.170 C 
HETATM    4  C4  UNL     1     -34.576  15.032  -4.388  1.00 20.00     0.087 C 
HETATM    5  C5  UNL     1     -34.793  16.617  -2.403  1.00 20.00     0.058 C 
HETATM    6  C6  UNL     1     -36.145  17.232  -2.707  1.00 20.00     0.046 C 
HETATM    7  O9  UNL     1     -33.736  17.403  -2.980  1.00 20.00    -0.380 OA
HETATM    8 CL10 UNL     1     -34.288  13.333  -4.855  1.00 20.00    -0.125 Cl
ENDROOT
BRANCH   5   9
HETATM    9  C8  UNL     1     -34.565  16.669  -0.883  1.00 20.00     0.033 C 
HETATM   10  C7  UNL     1     -33.665  17.796  -0.507  1.00 20.00     0.008 C 
ENDBRANCH   5   9
TORSDOF 1
ENDMDL
MODEL 5
REMARK VINA RESULT:      -4.1      2.150      2.354
REMARK  1 active torsions:
REMARK  status: ('A' for Active; 'I' for Inactive)
REMARK    1  A    between atoms: C5_5  and  C8_8 
ROOT
HETATM    1  C1  UNL     1     -35.089  14.082  -6.232  1.00 20.00     0.046 C 
HETATM    2  C2  UNL     1     -34.674  16.160  -4.901  1.00 20.00     0.057 C 
HETATM    3  C3  UNL     1     -34.721  13.279  -4.993  1.00 20.00     0.170 C 
HETATM    4  C4  UNL     1     -34.382  15.431  -6.212  1.00 20.00     0.087 C 
HETATM    5  C5  UNL     1     -34.385  15.279  -3.668  1.00 20.00     0.058 C 
HETATM    6  C6  UNL     1     -32.899  15.118  -3.414  1.00 20.00     0.046 C 
HETATM    7  O9  UNL     1     -35.020  13.994  -3.796  1.00 20.00    -0.380 OA
HETATM    8 CL10 UNL     1     -34.908  16.423  -7.600  1.00 20.00    -0.125 Cl
ENDROOT
BRANCH   5   9
HETATM    9  C8  UNL     1     -35.023  15.933  -2.430  1.00 20.00     0.033 C 
HETATM   10  C7  UNL     1     -34.011  16.670  -1.622  1.00 20.00     0.008 C 
ENDBRANCH   5   9
TORSDOF 1
ENDMDL
MODEL 6
REMARK VINA RESULT:      -4.0      2.199      3.537
REMARK  1 active torsions:
REMARK  status: ('A' for Active; 'I' for Inactive)
REMARK    1  A    between atoms: C5_5  and  C8_8 
ROOT
HETATM    1  C1  UNL     1     -35.996  17.363  -2.752  1.00 20.00     0.046 C 
HETATM    2  C2  UNL     1     -34.262  15.572  -2.980  1.00 20.00     0.057 C 
HETATM    3  C3  UNL     1     -36.010  17.468  -4.269  1.00 20.00     0.170 C 
HETATM    4  C4  UNL     1     -34.634  16.875  -2.272  1.00 20.00     0.087 C 
HETATM    5  C5  UNL     1     -34.387  15.687  -4.514  1.00 20.00     0.058 C 
HETATM    6  C6  UNL     1     -33.264  16.504  -5.120  1.00 20.00     0.046 C 
HETATM    7  O9  UNL     1     -35.667  16.228  -4.885  1.00 20.00    -0.380 OA
HETATM    8 CL10 UNL     1     -34.655  16.632  -0.504  1.00 20.00    -0.125 Cl
ENDROOT
BRANCH   5   9
HETATM    9  C8  UNL     1     -34.344  14.274  -5.122  1.00 20.00     0.033 C 
HETATM   10  C7  UNL     1     -35.077  13.294  -4.272  1.00 20.00     0.008 C 
ENDBRANCH   5   9
TORSDOF 1
ENDMDL
MODEL 7
REMARK VINA RESULT:      -4.0      2.019      2.600
REMARK  1 active torsions:
REMARK  status: ('A' for Active; 'I' for Inactive)
REMARK    1  A    between atoms: C5_5  and  C8_8 
ROOT
HETATM    1  C1  UNL     1     -36.714  15.258  -5.583  1.00 20.00     0.046 C 
HETATM    2  C2  UNL     1     -34.318  15.756  -5.059  1.00 20.00     0.057 C 
HETATM    3  C3  UNL     1     -36.824  14.613  -4.210  1.00 20.00     0.170 C 
HETATM    4  C4  UNL     1     -35.280  15.169  -6.092  1.00 20.00     0.087 C 
HETATM    5  C5  UNL     1     -34.528  15.150  -3.656  1.00 20.00     0.058 C 
HETATM    6  C6  UNL     1     -33.996  13.734  -3.558  1.00 20.00     0.046 C 
HETATM    7  O9  UNL     1     -35.916  15.199  -3.280  1.00 20.00    -0.380 OA
HETATM    8 CL10 UNL     1     -35.122  16.034  -7.645  1.00 20.00    -0.125 Cl
ENDROOT
BRANCH   5   9
HETATM    9  C8  UNL     1     -33.790  16.020  -2.624  1.00 20.00     0.033 C 
HETATM   10  C7  UNL     1     -34.659  16.332  -1.454  1.00 20.00     0.008 C 
ENDBRANCH   5   9
TORSDOF 1
ENDMDL
MODEL 8
REMARK VINA RESULT:      -4.0     11.238     13.027
REMARK  1 active torsions:
REMARK  status: ('A' for Active; 'I' for Inactive)
REMARK    1  A    between atoms: C5_5  and  C8_8 
ROOT
HETATM    1  C1  UNL     1     -41.108   7.011  -1.224  1.00 20.00     0.046 C 
HETATM    2  C2  UNL     1     -42.401   5.448  -2.689  1.00 20.00     0.057 C 
HETATM    3  C3  UNL     1     -40.726   5.810  -0.371  1.00 20.00     0.170 C 
HETATM    4  C4  UNL     1     -42.445   6.763  -1.911  1.00 20.00     0.087 C 
HETATM    5  C5  UNL     1     -41.911   4.272  -1.818  1.00 20.00     0.058 C 
HETATM    6  C6  UNL     1     -42.964   3.816  -0.826  1.00 20.00     0.046 C 
HETATM    7  O9  UNL     1     -40.688   4.610  -1.140  1.00 20.00    -0.380 OA
HETATM    8 CL10 UNL     1     -42.835   8.116  -3.008  1.00 20.00    -0.125 Cl
ENDROOT
BRANCH   5   9
HETATM    9  C8  UNL     1     -41.562   3.088  -2.735  1.00 20.00     0.033 C 
HETATM   10  C7  UNL     1     -42.748   2.219  -2.978  1.00 20.00     0.008 C 
ENDBRANCH   5   9
TORSDOF 1
ENDMDL
MODEL 9
REMARK VINA RESULT:      -3.9      2.045      3.712
REMARK  1 active torsions:
REMARK  status: ('A' for Active; 'I' for Inactive)
REMARK    1  A    between atoms: C5_5  and  C8_8 
ROOT
HETATM    1  C1  UNL     1     -33.526  16.654  -3.132  1.00 20.00     0.046 C 
HETATM    2  C2  UNL     1     -35.747  15.513  -2.969  1.00 20.00     0.057 C 
HETATM    3  C3  UNL     1     -33.338  15.978  -4.482  1.00 20.00     0.170 C 
HETATM    4  C4  UNL     1     -34.434  15.812  -2.245  1.00 20.00     0.087 C 
HETATM    5  C5  UNL     1     -35.515  14.922  -4.375  1.00 20.00     0.058 C 
HETATM    6  C6  UNL     1     -35.050  13.481  -4.321  1.00 20.00     0.046 C 
HETATM    7  O9  UNL     1     -34.586  15.728  -5.123  1.00 20.00    -0.380 OA
HETATM    8 CL10 UNL     1     -34.756  16.663  -0.709  1.00 20.00    -0.125 Cl
ENDROOT
BRANCH   5   9
HETATM    9  C8  UNL     1     -36.836  14.979  -5.161  1.00 20.00     0.033 C 
HETATM   10  C7  UNL     1     -36.594  15.164  -6.620  1.00 20.00     0.008 C 
ENDBRANCH   5   9
TORSDOF 1
ENDMDL
