MODEL 1
REMARK VINA RESULT:      -3.9      0.000      0.000
REMARK  0 active torsions:
REMARK  status: ('A' for Active; 'I' for Inactive)
ROOT
HETATM    1  C1  UNL     1     -33.670  13.951  -3.618  1.00 20.00     0.066 C 
HETATM    2  C2  UNL     1     -35.835  15.166  -3.124  1.00 20.00     0.071 C 
HETATM    3  C3  UNL     1     -34.413  13.223  -4.731  1.00 20.00     0.171 C 
HETATM    4  C4  UNL     1     -33.575  16.388  -2.709  1.00 20.00     0.207 A 
HETATM    5  C5  UNL     1     -36.492  14.325  -4.226  1.00 20.00     0.120 C 
HETATM    6  C6  UNL     1     -34.352  15.250  -3.320  1.00 20.00     0.086 A 
HETATM    7  C7  UNL     1     -36.664  15.081  -5.542  1.00 20.00     0.039 C 
HETATM    8  O8  UNL     1     -35.800  13.082  -4.413  1.00 20.00    -0.386 OA
HETATM    9  O9  UNL     1     -33.905  16.361  -4.106  1.00 20.00    -0.375 OA
ENDROOT
TORSDOF 0
ENDMDL
MODEL 2
REMARK VINA RESULT:      -3.9      1.774      2.753
REMARK  0 active torsions:
REMARK  status: ('A' for Active; 'I' for Inactive)
ROOT
HETATM    1  C1  UNL     1     -34.803  13.946  -5.712  1.00 20.00     0.066 C 
HETATM    2  C2  UNL     1     -33.321  15.597  -4.495  1.00 20.00     0.071 C 
HETATM    3  C3  UNL     1     -35.190  13.392  -4.347  1.00 20.00     0.171 C 
HETATM    4  C4  UNL     1     -34.430  16.309  -6.739  1.00 20.00     0.207 A 
HETATM    5  C5  UNL     1     -33.733  14.914  -3.184  1.00 20.00     0.120 C 
HETATM    6  C6  UNL     1     -34.337  15.362  -5.569  1.00 20.00     0.086 A 
HETATM    7  C7  UNL     1     -34.798  15.686  -2.408  1.00 20.00     0.039 C 
HETATM    8  O8  UNL     1     -34.122  13.551  -3.410  1.00 20.00    -0.386 OA
HETATM    9  O9  UNL     1     -35.371  16.349  -5.655  1.00 20.00    -0.375 OA
ENDROOT
TORSDOF 0
ENDMDL
MODEL 3
REMARK VINA RESULT:      -3.8      1.304      1.846
REMARK  0 active torsions:
REMARK  status: ('A' for Active; 'I' for Inactive)
ROOT
HETATM    1  C1  UNL     1     -33.944  15.518  -2.813  1.00 20.00     0.066 C 
HETATM    2  C2  UNL     1     -36.023  14.445  -3.778  1.00 20.00     0.071 C 
HETATM    3  C3  UNL     1     -33.133  14.584  -3.703  1.00 20.00     0.171 C 
HETATM    4  C4  UNL     1     -36.102  16.949  -3.073  1.00 20.00     0.207 A 
HETATM    5  C5  UNL     1     -35.103  13.513  -4.577  1.00 20.00     0.120 C 
HETATM    6  C6  UNL     1     -35.312  15.705  -3.392  1.00 20.00     0.086 A 
HETATM    7  C7  UNL     1     -34.945  13.925  -6.039  1.00 20.00     0.039 C 
HETATM    8  O8  UNL     1     -33.832  13.357  -3.928  1.00 20.00    -0.386 OA
HETATM    9  O9  UNL     1     -35.428  16.781  -4.330  1.00 20.00    -0.375 OA
ENDROOT
TORSDOF 0
ENDMDL
MODEL 4
REMARK VINA RESULT:      -3.8     11.869     12.771
REMARK  0 active torsions:
REMARK  status: ('A' for Active; 'I' for Inactive)
ROOT
HETATM    1  C1  UNL     1     -33.485   7.019   5.390  1.00 20.00     0.066 C 
HETATM    2  C2  UNL     1     -34.868   5.706   3.726  1.00 20.00     0.071 C 
HETATM    3  C3  UNL     1     -33.930   6.016   6.447  1.00 20.00     0.171 C 
HETATM    4  C4  UNL     1     -32.709   6.908   2.908  1.00 20.00     0.207 A 
HETATM    5  C5  UNL     1     -35.300   4.800   4.886  1.00 20.00     0.120 C 
HETATM    6  C6  UNL     1     -33.574   6.396   4.032  1.00 20.00     0.086 A 
HETATM    7  C7  UNL     1     -34.550   3.470   4.927  1.00 20.00     0.039 C 
HETATM    8  O8  UNL     1     -35.225   5.492   6.141  1.00 20.00    -0.386 OA
HETATM    9  O9  UNL     1     -32.398   5.695   3.611  1.00 20.00    -0.375 OA
ENDROOT
TORSDOF 0
ENDMDL
MODEL 5
REMARK VINA RESULT:      -3.8      1.508      3.226
REMARK  0 active torsions:
REMARK  status: ('A' for Active; 'I' for Inactive)
ROOT
HETATM    1  C1  UNL     1     -33.937  15.725  -5.170  1.00 20.00     0.066 C 
HETATM    2  C2  UNL     1     -35.742  15.156  -3.491  1.00 20.00     0.071 C 
HETATM    3  C3  UNL     1     -33.649  16.967  -4.336  1.00 20.00     0.171 C 
HETATM    4  C4  UNL     1     -34.472  13.224  -4.687  1.00 20.00     0.207 A 
HETATM    5  C5  UNL     1     -35.408  16.468  -2.771  1.00 20.00     0.120 C 
HETATM    6  C6  UNL     1     -34.586  14.681  -4.316  1.00 20.00     0.086 A 
HETATM    7  C7  UNL     1     -34.544  16.273  -1.527  1.00 20.00     0.039 C 
HETATM    8  O8  UNL     1     -34.831  17.423  -3.674  1.00 20.00    -0.386 OA
HETATM    9  O9  UNL     1     -33.677  13.804  -3.640  1.00 20.00    -0.375 OA
ENDROOT
TORSDOF 0
ENDMDL
MODEL 6
REMARK VINA RESULT:      -3.7     10.489     11.942
REMARK  0 active torsions:
REMARK  status: ('A' for Active; 'I' for Inactive)
ROOT
HETATM    1  C1  UNL     1     -40.820   4.905  -1.064  1.00 20.00     0.066 C 
HETATM    2  C2  UNL     1     -42.117   6.462  -2.581  1.00 20.00     0.071 C 
HETATM    3  C3  UNL     1     -40.836   6.017  -0.023  1.00 20.00     0.171 C 
HETATM    4  C4  UNL     1     -42.521   3.897  -2.758  1.00 20.00     0.207 A 
HETATM    5  C5  UNL     1     -42.011   7.528  -1.482  1.00 20.00     0.120 C 
HETATM    6  C6  UNL     1     -41.964   5.084  -2.014  1.00 20.00     0.086 A 
HETATM    7  C7  UNL     1     -43.289   7.677  -0.659  1.00 20.00     0.039 C 
HETATM    8  O8  UNL     1     -40.865   7.302  -0.649  1.00 20.00    -0.386 OA
HETATM    9  O9  UNL     1     -43.186   4.453  -1.613  1.00 20.00    -0.375 OA
ENDROOT
TORSDOF 0
ENDMDL
MODEL 7
REMARK VINA RESULT:      -3.7     11.378     12.836
REMARK  0 active torsions:
REMARK  status: ('A' for Active; 'I' for Inactive)
ROOT
HETATM    1  C1  UNL     1     -43.166   3.955  -0.681  1.00 20.00     0.066 C 
HETATM    2  C2  UNL     1     -40.746   4.576  -1.084  1.00 20.00     0.071 C 
HETATM    3  C3  UNL     1     -43.309   5.275   0.066  1.00 20.00     0.171 C 
HETATM    4  C4  UNL     1     -42.000   3.153  -2.866  1.00 20.00     0.207 A 
HETATM    5  C5  UNL     1     -40.993   5.844  -0.255  1.00 20.00     0.120 C 
HETATM    6  C6  UNL     1     -42.026   4.042  -1.648  1.00 20.00     0.086 A 
HETATM    7  C7  UNL     1     -41.191   7.095  -1.108  1.00 20.00     0.039 C 
HETATM    8  O8  UNL     1     -42.071   5.656   0.672  1.00 20.00    -0.386 OA
HETATM    9  O9  UNL     1     -42.372   4.538  -2.946  1.00 20.00    -0.375 OA
ENDROOT
TORSDOF 0
ENDMDL
MODEL 8
REMARK VINA RESULT:      -3.7      1.665      3.146
REMARK  0 active torsions:
REMARK  status: ('A' for Active; 'I' for Inactive)
ROOT
HETATM    1  C1  UNL     1     -34.637  13.553  -5.110  1.00 20.00     0.066 C 
HETATM    2  C2  UNL     1     -33.811  15.936  -5.318  1.00 20.00     0.071 C 
HETATM    3  C3  UNL     1     -33.964  13.512  -3.743  1.00 20.00     0.171 C 
HETATM    4  C4  UNL     1     -36.059  15.274  -6.448  1.00 20.00     0.207 A 
HETATM    5  C5  UNL     1     -33.118  15.755  -3.961  1.00 20.00     0.120 C 
HETATM    6  C6  UNL     1     -34.944  14.971  -5.480  1.00 20.00     0.086 A 
HETATM    7  C7  UNL     1     -33.882  16.390  -2.802  1.00 20.00     0.039 C 
HETATM    8  O8  UNL     1     -32.823  14.373  -3.710  1.00 20.00    -0.386 OA
HETATM    9  O9  UNL     1     -36.218  15.450  -5.032  1.00 20.00    -0.375 OA
ENDROOT
TORSDOF 0
ENDMDL
MODEL 9
REMARK VINA RESULT:      -3.7      1.439      1.634
REMARK  0 active torsions:
REMARK  status: ('A' for Active; 'I' for Inactive)
ROOT
HETATM    1  C1  UNL     1     -33.991  14.757  -3.478  1.00 20.00     0.066 C 
HETATM    2  C2  UNL     1     -35.390  16.058  -5.138  1.00 20.00     0.071 C 
HETATM    3  C3  UNL     1     -34.048  13.587  -4.451  1.00 20.00     0.171 C 
HETATM    4  C4  UNL     1     -33.669  17.334  -3.660  1.00 20.00     0.207 A 
HETATM    5  C5  UNL     1     -35.434  14.794  -6.006  1.00 20.00     0.120 C 
HETATM    6  C6  UNL     1     -34.209  16.041  -4.217  1.00 20.00     0.086 A 
HETATM    7  C7  UNL     1     -34.460  14.833  -7.182  1.00 20.00     0.039 C 
HETATM    8  O8  UNL     1     -35.260  13.612  -5.210  1.00 20.00    -0.386 OA
HETATM    9  O9  UNL     1     -33.021  16.645  -4.741  1.00 20.00    -0.375 OA
ENDROOT
TORSDOF 0
ENDMDL
