MODEL 1
REMARK VINA RESULT:      -5.1      0.000      0.000
REMARK  3 active torsions:
REMARK  status: ('A' for Active; 'I' for Inactive)
REMARK    1  A    between atoms: C1_1  and  C7_7 
REMARK    2  A    between atoms: C1_1  and  C9_9 
REMARK    3  A    between atoms: C8_8  and  C9_9 
ROOT
HETATM    1  C1  UNL     1     -32.725   6.364   3.503  1.00 20.00     0.141 C 
HETATM    2  O10 UNL     1     -32.269   5.235   3.337  1.00 20.00    -0.297 OA
ENDROOT
BRANCH   1   3
HETATM    3  C7  UNL     1     -34.068   6.568   4.127  1.00 20.00     0.116 C 
HETATM    4  C3  UNL     1     -35.072   5.507   3.700  1.00 20.00     0.024 C 
HETATM    5  C2  UNL     1     -34.893   4.308   4.624  1.00 20.00     0.012 C 
HETATM    6  C6  UNL     1     -34.851   4.852   6.040  1.00 20.00     0.075 C 
HETATM    7  S11 UNL     1     -33.889   6.384   5.923  1.00 20.00    -0.157 SA
ENDBRANCH   1   3
BRANCH   1   8
HETATM    8  C9  UNL     1     -31.980   7.623   3.096  1.00 20.00     0.084 C 
BRANCH   8   9
HETATM    9  C8  UNL     1     -32.573   8.280   1.864  1.00 20.00    -0.007 A 
HETATM   10  C4  UNL     1     -32.431   9.762   1.652  1.00 20.00     0.005 A 
HETATM   11  C5  UNL     1     -31.674   8.801   0.776  1.00 20.00     0.005 A 
ENDBRANCH   8   9
ENDBRANCH   1   8
TORSDOF 3
ENDMDL
MODEL 2
REMARK VINA RESULT:      -4.7     11.350     12.201
REMARK  3 active torsions:
REMARK  status: ('A' for Active; 'I' for Inactive)
REMARK    1  A    between atoms: C1_1  and  C7_7 
REMARK    2  A    between atoms: C1_1  and  C9_9 
REMARK    3  A    between atoms: C8_8  and  C9_9 
ROOT
HETATM    1  C1  UNL     1     -33.792  16.398  -4.615  1.00 20.00     0.141 C 
HETATM    2  O10 UNL     1     -32.609  16.277  -4.922  1.00 20.00    -0.297 OA
ENDROOT
BRANCH   1   3
HETATM    3  C7  UNL     1     -34.866  15.724  -5.407  1.00 20.00     0.116 C 
HETATM    4  C3  UNL     1     -34.763  14.207  -5.349  1.00 20.00     0.024 C 
HETATM    5  C2  UNL     1     -35.488  13.746  -4.090  1.00 20.00     0.012 C 
HETATM    6  C6  UNL     1     -36.826  14.463  -4.072  1.00 20.00     0.075 C 
HETATM    7  S11 UNL     1     -36.465  16.140  -4.658  1.00 20.00    -0.157 SA
ENDBRANCH   1   3
BRANCH   1   8
HETATM    8  C9  UNL     1     -34.256  17.226  -3.430  1.00 20.00     0.084 C 
BRANCH   8   9
HETATM    9  C8  UNL     1     -33.766  16.672  -2.104  1.00 20.00    -0.007 A 
HETATM   10  C4  UNL     1     -33.614  17.579  -0.914  1.00 20.00     0.005 A 
HETATM   11  C5  UNL     1     -34.710  16.549  -0.940  1.00 20.00     0.005 A 
ENDBRANCH   8   9
ENDBRANCH   1   8
TORSDOF 3
ENDMDL
MODEL 3
REMARK VINA RESULT:      -4.7     10.751     12.262
REMARK  3 active torsions:
REMARK  status: ('A' for Active; 'I' for Inactive)
REMARK    1  A    between atoms: C1_1  and  C7_7 
REMARK    2  A    between atoms: C1_1  and  C9_9 
REMARK    3  A    between atoms: C8_8  and  C9_9 
ROOT
HETATM    1  C1  UNL     1     -35.077  13.711  -4.557  1.00 20.00     0.141 C 
HETATM    2  O10 UNL     1     -34.809  12.550  -4.858  1.00 20.00    -0.297 OA
ENDROOT
BRANCH   1   3
HETATM    3  C7  UNL     1     -34.442  14.366  -3.373  1.00 20.00     0.116 C 
HETATM    4  C3  UNL     1     -33.020  14.828  -3.661  1.00 20.00     0.024 C 
HETATM    5  C2  UNL     1     -33.108  16.209  -4.300  1.00 20.00     0.012 C 
HETATM    6  C6  UNL     1     -34.062  17.024  -3.445  1.00 20.00     0.075 C 
HETATM    7  S11 UNL     1     -35.381  15.868  -2.988  1.00 20.00    -0.157 SA
ENDBRANCH   1   3
BRANCH   1   8
HETATM    8  C9  UNL     1     -36.056  14.562  -5.346  1.00 20.00     0.084 C 
BRANCH   8   9
HETATM    9  C8  UNL     1     -35.759  14.566  -6.834  1.00 20.00    -0.007 A 
HETATM   10  C4  UNL     1     -35.591  15.867  -7.570  1.00 20.00     0.005 A 
HETATM   11  C5  UNL     1     -34.402  14.977  -7.334  1.00 20.00     0.005 A 
ENDBRANCH   8   9
ENDBRANCH   1   8
TORSDOF 3
ENDMDL
MODEL 4
REMARK VINA RESULT:      -4.7     11.434     12.186
REMARK  3 active torsions:
REMARK  status: ('A' for Active; 'I' for Inactive)
REMARK    1  A    between atoms: C1_1  and  C7_7 
REMARK    2  A    between atoms: C1_1  and  C9_9 
REMARK    3  A    between atoms: C8_8  and  C9_9 
ROOT
HETATM    1  C1  UNL     1     -35.678  15.121  -3.458  1.00 20.00     0.141 C 
HETATM    2  O10 UNL     1     -36.722  14.472  -3.473  1.00 20.00    -0.297 OA
ENDROOT
BRANCH   1   3
HETATM    3  C7  UNL     1     -34.476  14.663  -4.219  1.00 20.00     0.116 C 
HETATM    4  C3  UNL     1     -34.818  13.603  -5.257  1.00 20.00     0.024 C 
HETATM    5  C2  UNL     1     -35.264  14.327  -6.521  1.00 20.00     0.012 C 
HETATM    6  C6  UNL     1     -34.237  15.413  -6.787  1.00 20.00     0.075 C 
HETATM    7  S11 UNL     1     -33.826  16.076  -5.151  1.00 20.00    -0.157 SA
ENDBRANCH   1   3
BRANCH   1   8
HETATM    8  C9  UNL     1     -35.523  16.416  -2.680  1.00 20.00     0.084 C 
BRANCH   8   9
HETATM    9  C8  UNL     1     -34.589  16.275  -1.493  1.00 20.00    -0.007 A 
HETATM   10  C4  UNL     1     -33.670  17.403  -1.113  1.00 20.00     0.005 A 
HETATM   11  C5  UNL     1     -34.840  17.060  -0.234  1.00 20.00     0.005 A 
ENDBRANCH   8   9
ENDBRANCH   1   8
TORSDOF 3
ENDMDL
MODEL 5
REMARK VINA RESULT:      -4.7     11.195     12.288
REMARK  3 active torsions:
REMARK  status: ('A' for Active; 'I' for Inactive)
REMARK    1  A    between atoms: C1_1  and  C7_7 
REMARK    2  A    between atoms: C1_1  and  C9_9 
REMARK    3  A    between atoms: C8_8  and  C9_9 
ROOT
HETATM    1  C1  UNL     1     -34.013  14.440  -3.850  1.00 20.00     0.141 C 
HETATM    2  O10 UNL     1     -34.120  13.282  -3.453  1.00 20.00    -0.297 OA
ENDROOT
BRANCH   1   3
HETATM    3  C7  UNL     1     -34.212  14.783  -5.291  1.00 20.00     0.116 C 
HETATM    4  C3  UNL     1     -35.665  14.648  -5.722  1.00 20.00     0.024 C 
HETATM    5  C2  UNL     1     -36.368  15.956  -5.379  1.00 20.00     0.012 C 
HETATM    6  C6  UNL     1     -35.478  17.076  -5.887  1.00 20.00     0.075 C 
HETATM    7  S11 UNL     1     -33.789  16.531  -5.519  1.00 20.00    -0.157 SA
ENDBRANCH   1   3
BRANCH   1   8
HETATM    8  C9  UNL     1     -33.675  15.599  -2.928  1.00 20.00     0.084 C 
BRANCH   8   9
HETATM    9  C8  UNL     1     -34.797  15.918  -1.957  1.00 20.00    -0.007 A 
HETATM   10  C4  UNL     1     -34.531  16.765  -0.743  1.00 20.00     0.005 A 
HETATM   11  C5  UNL     1     -35.354  17.313  -1.876  1.00 20.00     0.005 A 
ENDBRANCH   8   9
ENDBRANCH   1   8
TORSDOF 3
ENDMDL
MODEL 6
REMARK VINA RESULT:      -4.6     11.112     11.979
REMARK  3 active torsions:
REMARK  status: ('A' for Active; 'I' for Inactive)
REMARK    1  A    between atoms: C1_1  and  C7_7 
REMARK    2  A    between atoms: C1_1  and  C9_9 
REMARK    3  A    between atoms: C8_8  and  C9_9 
ROOT
HETATM    1  C1  UNL     1     -34.568  16.364  -3.161  1.00 20.00     0.141 C 
HETATM    2  O10 UNL     1     -35.221  17.254  -3.702  1.00 20.00    -0.297 OA
ENDROOT
BRANCH   1   3
HETATM    3  C7  UNL     1     -33.735  15.420  -3.967  1.00 20.00     0.116 C 
HETATM    4  C3  UNL     1     -33.954  13.968  -3.565  1.00 20.00     0.024 C 
HETATM    5  C2  UNL     1     -35.166  13.457  -4.335  1.00 20.00     0.012 C 
HETATM    6  C6  UNL     1     -34.969  13.872  -5.782  1.00 20.00     0.075 C 
HETATM    7  S11 UNL     1     -34.263  15.539  -5.698  1.00 20.00    -0.157 SA
ENDBRANCH   1   3
BRANCH   1   8
HETATM    8  C9  UNL     1     -34.554  16.151  -1.658  1.00 20.00     0.084 C 
BRANCH   8   9
HETATM    9  C8  UNL     1     -34.839  17.426  -0.885  1.00 20.00    -0.007 A 
HETATM   10  C4  UNL     1     -35.022  17.383   0.607  1.00 20.00     0.005 A 
HETATM   11  C5  UNL     1     -33.791  18.015   0.019  1.00 20.00     0.005 A 
ENDBRANCH   8   9
ENDBRANCH   1   8
TORSDOF 3
ENDMDL
MODEL 7
REMARK VINA RESULT:      -4.3     10.871     12.704
REMARK  3 active torsions:
REMARK  status: ('A' for Active; 'I' for Inactive)
REMARK    1  A    between atoms: C1_1  and  C7_7 
REMARK    2  A    between atoms: C1_1  and  C9_9 
REMARK    3  A    between atoms: C8_8  and  C9_9 
ROOT
HETATM    1  C1  UNL     1     -36.398  14.403  -4.489  1.00 20.00     0.141 C 
HETATM    2  O10 UNL     1     -37.143  14.572  -3.526  1.00 20.00    -0.297 OA
ENDROOT
BRANCH   1   3
HETATM    3  C7  UNL     1     -36.666  15.075  -5.797  1.00 20.00     0.116 C 
HETATM    4  C3  UNL     1     -36.564  16.590  -5.700  1.00 20.00     0.024 C 
HETATM    5  C2  UNL     1     -35.097  16.964  -5.880  1.00 20.00     0.012 C 
HETATM    6  C6  UNL     1     -34.599  16.199  -7.093  1.00 20.00     0.075 C 
HETATM    7  S11 UNL     1     -35.376  14.567  -6.967  1.00 20.00    -0.157 SA
ENDBRANCH   1   3
BRANCH   1   8
HETATM    8  C9  UNL     1     -35.167  13.515  -4.433  1.00 20.00     0.084 C 
BRANCH   8   9
HETATM    9  C8  UNL     1     -34.201  13.925  -3.337  1.00 20.00    -0.007 A 
HETATM   10  C4  UNL     1     -32.834  14.446  -3.687  1.00 20.00     0.005 A 
HETATM   11  C5  UNL     1     -33.871  15.377  -3.122  1.00 20.00     0.005 A 
ENDBRANCH   8   9
ENDBRANCH   1   8
TORSDOF 3
ENDMDL
MODEL 8
REMARK VINA RESULT:      -4.2      9.606     11.072
REMARK  3 active torsions:
REMARK  status: ('A' for Active; 'I' for Inactive)
REMARK    1  A    between atoms: C1_1  and  C7_7 
REMARK    2  A    between atoms: C1_1  and  C9_9 
REMARK    3  A    between atoms: C8_8  and  C9_9 
ROOT
HETATM    1  C1  UNL     1     -41.402   4.365  -1.584  1.00 20.00     0.141 C 
HETATM    2  O10 UNL     1     -40.230   4.000  -1.510  1.00 20.00    -0.297 OA
ENDROOT
BRANCH   1   3
HETATM    3  C7  UNL     1     -42.016   5.204  -0.511  1.00 20.00     0.116 C 
HETATM    4  C3  UNL     1     -41.061   6.269   0.009  1.00 20.00     0.024 C 
HETATM    5  C2  UNL     1     -41.175   7.477  -0.914  1.00 20.00     0.012 C 
HETATM    6  C6  UNL     1     -42.657   7.745  -1.099  1.00 20.00     0.075 C 
HETATM    7  S11 UNL     1     -43.416   6.105  -1.231  1.00 20.00    -0.157 SA
ENDBRANCH   1   3
BRANCH   1   8
HETATM    8  C9  UNL     1     -42.307   4.000  -2.747  1.00 20.00     0.084 C 
BRANCH   8   9
HETATM    9  C8  UNL     1     -42.372   2.503  -2.989  1.00 20.00    -0.007 A 
HETATM   10  C4  UNL     1     -42.820   1.969  -4.322  1.00 20.00     0.005 A 
HETATM   11  C5  UNL     1     -41.381   1.840  -3.906  1.00 20.00     0.005 A 
ENDBRANCH   8   9
ENDBRANCH   1   8
TORSDOF 3
ENDMDL
MODEL 9
REMARK VINA RESULT:      -4.2     11.009     12.722
REMARK  3 active torsions:
REMARK  status: ('A' for Active; 'I' for Inactive)
REMARK    1  A    between atoms: C1_1  and  C7_7 
REMARK    2  A    between atoms: C1_1  and  C9_9 
REMARK    3  A    between atoms: C8_8  and  C9_9 
ROOT
HETATM    1  C1  UNL     1     -35.314  16.002  -2.906  1.00 20.00     0.141 C 
HETATM    2  O10 UNL     1     -34.818  15.869  -1.789  1.00 20.00    -0.297 OA
ENDROOT
BRANCH   1   3
HETATM    3  C7  UNL     1     -35.238  17.306  -3.632  1.00 20.00     0.116 C 
HETATM    4  C3  UNL     1     -33.804  17.727  -3.917  1.00 20.00     0.024 C 
HETATM    5  C2  UNL     1     -33.376  17.051  -5.215  1.00 20.00     0.012 C 
HETATM    6  C6  UNL     1     -34.497  17.279  -6.214  1.00 20.00     0.075 C 
HETATM    7  S11 UNL     1     -36.023  17.094  -5.254  1.00 20.00    -0.157 SA
ENDBRANCH   1   3
BRANCH   1   8
HETATM    8  C9  UNL     1     -36.031  14.875  -3.628  1.00 20.00     0.084 C 
BRANCH   8   9
HETATM    9  C8  UNL     1     -35.163  13.641  -3.792  1.00 20.00    -0.007 A 
HETATM   10  C4  UNL     1     -34.629  13.266  -5.148  1.00 20.00     0.005 A 
HETATM   11  C5  UNL     1     -33.695  13.782  -4.088  1.00 20.00     0.005 A 
ENDBRANCH   8   9
ENDBRANCH   1   8
TORSDOF 3
ENDMDL
