MODEL 1
REMARK VINA RESULT:      -4.2      0.000      0.000
REMARK  0 active torsions:
REMARK  status: ('A' for Active; 'I' for Inactive)
ROOT
HETATM    1  C1  UNL     1     -34.208  15.424  -5.311  1.00 20.00     0.066 C 
HETATM    2  C2  UNL     1     -34.795  15.171  -2.860  1.00 20.00     0.071 C 
HETATM    3  C3  UNL     1     -33.163  16.445  -4.873  1.00 20.00     0.171 C 
HETATM    4  C4  UNL     1     -35.031  13.108  -4.440  1.00 20.00     0.207 A 
HETATM    5  C5  UNL     1     -33.705  16.210  -2.573  1.00 20.00     0.120 C 
HETATM    6  C6  UNL     1     -34.517  14.499  -4.172  1.00 20.00     0.086 A 
HETATM    7  C7  UNL     1     -34.040  17.029  -1.335  1.00 20.00     0.039 C 
HETATM    8  O8  UNL     1     -33.588  17.116  -3.681  1.00 20.00    -0.386 OA
HETATM    9  O9  UNL     1     -33.661  13.353  -4.086  1.00 20.00    -0.375 OA
ENDROOT
TORSDOF 0
ENDMDL
MODEL 2
REMARK VINA RESULT:      -4.0     11.637     12.759
REMARK  0 active torsions:
REMARK  status: ('A' for Active; 'I' for Inactive)
ROOT
HETATM    1  C1  UNL     1     -35.326   5.276   3.910  1.00 20.00     0.066 C 
HETATM    2  C2  UNL     1     -33.455   6.535   5.062  1.00 20.00     0.071 C 
HETATM    3  C3  UNL     1     -34.396   5.155   2.707  1.00 20.00     0.171 C 
HETATM    4  C4  UNL     1     -35.066   5.067   6.496  1.00 20.00     0.207 A 
HETATM    5  C5  UNL     1     -32.636   6.331   3.782  1.00 20.00     0.120 C 
HETATM    6  C6  UNL     1     -34.516   5.479   5.154  1.00 20.00     0.086 A 
HETATM    7  C7  UNL     1     -31.660   7.479   3.567  1.00 20.00     0.039 C 
HETATM    8  O8  UNL     1     -33.510   6.279   2.644  1.00 20.00    -0.386 OA
HETATM    9  O9  UNL     1     -34.098   4.269   5.797  1.00 20.00    -0.375 OA
ENDROOT
TORSDOF 0
ENDMDL
MODEL 3
REMARK VINA RESULT:      -3.8      1.606      3.998
REMARK  0 active torsions:
REMARK  status: ('A' for Active; 'I' for Inactive)
ROOT
HETATM    1  C1  UNL     1     -34.335  14.658  -3.724  1.00 20.00     0.066 C 
HETATM    2  C2  UNL     1     -34.893  15.912  -5.852  1.00 20.00     0.071 C 
HETATM    3  C3  UNL     1     -34.207  13.409  -4.588  1.00 20.00     0.171 C 
HETATM    4  C4  UNL     1     -33.625  17.158  -3.943  1.00 20.00     0.207 A 
HETATM    5  C5  UNL     1     -34.725  14.578  -6.589  1.00 20.00     0.120 C 
HETATM    6  C6  UNL     1     -34.120  15.879  -4.567  1.00 20.00     0.086 A 
HETATM    7  C7  UNL     1     -35.627  14.510  -7.813  1.00 20.00     0.039 C 
HETATM    8  O8  UNL     1     -35.080  13.491  -5.720  1.00 20.00    -0.386 OA
HETATM    9  O9  UNL     1     -32.752  16.290  -4.683  1.00 20.00    -0.375 OA
ENDROOT
TORSDOF 0
ENDMDL
MODEL 4
REMARK VINA RESULT:      -3.8      2.095      2.411
REMARK  0 active torsions:
REMARK  status: ('A' for Active; 'I' for Inactive)
ROOT
HETATM    1  C1  UNL     1     -35.313  14.248  -4.907  1.00 20.00     0.066 C 
HETATM    2  C2  UNL     1     -36.008  16.087  -3.311  1.00 20.00     0.071 C 
HETATM    3  C3  UNL     1     -34.279  13.842  -3.862  1.00 20.00     0.171 C 
HETATM    4  C4  UNL     1     -37.806  15.010  -4.864  1.00 20.00     0.207 A 
HETATM    5  C5  UNL     1     -34.927  15.561  -2.358  1.00 20.00     0.120 C 
HETATM    6  C6  UNL     1     -36.432  14.993  -4.245  1.00 20.00     0.086 A 
HETATM    7  C7  UNL     1     -34.352  16.684  -1.507  1.00 20.00     0.039 C 
HETATM    8  O8  UNL     1     -33.850  14.984  -3.111  1.00 20.00    -0.386 OA
HETATM    9  O9  UNL     1     -37.489  14.162  -3.749  1.00 20.00    -0.375 OA
ENDROOT
TORSDOF 0
ENDMDL
MODEL 5
REMARK VINA RESULT:      -3.7      2.409      3.274
REMARK  0 active torsions:
REMARK  status: ('A' for Active; 'I' for Inactive)
ROOT
HETATM    1  C1  UNL     1     -36.641  15.376  -5.663  1.00 20.00     0.066 C 
HETATM    2  C2  UNL     1     -35.489  14.806  -3.482  1.00 20.00     0.071 C 
HETATM    3  C3  UNL     1     -35.681  14.398  -6.333  1.00 20.00     0.171 C 
HETATM    4  C4  UNL     1     -38.027  15.411  -3.455  1.00 20.00     0.207 A 
HETATM    5  C5  UNL     1     -34.599  13.855  -4.291  1.00 20.00     0.120 C 
HETATM    6  C6  UNL     1     -36.780  15.031  -4.212  1.00 20.00     0.086 A 
HETATM    7  C7  UNL     1     -33.216  13.734  -3.667  1.00 20.00     0.039 C 
HETATM    8  O8  UNL     1     -34.436  14.355  -5.627  1.00 20.00    -0.386 OA
HETATM    9  O9  UNL     1     -37.804  14.071  -3.922  1.00 20.00    -0.375 OA
ENDROOT
TORSDOF 0
ENDMDL
MODEL 6
REMARK VINA RESULT:      -3.7      2.042      3.720
REMARK  0 active torsions:
REMARK  status: ('A' for Active; 'I' for Inactive)
ROOT
HETATM    1  C1  UNL     1     -35.245  14.991  -3.440  1.00 20.00     0.066 C 
HETATM    2  C2  UNL     1     -34.144  14.879  -5.717  1.00 20.00     0.071 C 
HETATM    3  C3  UNL     1     -36.485  14.395  -4.099  1.00 20.00     0.171 C 
HETATM    4  C4  UNL     1     -32.675  14.575  -3.583  1.00 20.00     0.207 A 
HETATM    5  C5  UNL     1     -35.457  14.282  -6.236  1.00 20.00     0.120 C 
HETATM    6  C6  UNL     1     -34.029  14.638  -4.242  1.00 20.00     0.086 A 
HETATM    7  C7  UNL     1     -35.689  14.651  -7.695  1.00 20.00     0.039 C 
HETATM    8  O8  UNL     1     -36.562  14.791  -5.473  1.00 20.00    -0.386 OA
HETATM    9  O9  UNL     1     -33.424  13.388  -3.887  1.00 20.00    -0.375 OA
ENDROOT
TORSDOF 0
ENDMDL
MODEL 7
REMARK VINA RESULT:      -3.7     11.389     13.157
REMARK  0 active torsions:
REMARK  status: ('A' for Active; 'I' for Inactive)
ROOT
HETATM    1  C1  UNL     1     -40.988   4.343  -1.235  1.00 20.00     0.066 C 
HETATM    2  C2  UNL     1     -42.615   5.328  -2.907  1.00 20.00     0.071 C 
HETATM    3  C3  UNL     1     -40.739   5.770  -0.757  1.00 20.00     0.171 C 
HETATM    4  C4  UNL     1     -43.077   2.950  -1.938  1.00 20.00     0.207 A 
HETATM    5  C5  UNL     1     -42.266   6.701  -2.319  1.00 20.00     0.120 C 
HETATM    6  C6  UNL     1     -42.331   4.260  -1.893  1.00 20.00     0.086 A 
HETATM    7  C7  UNL     1     -42.381   7.794  -3.372  1.00 20.00     0.039 C 
HETATM    8  O8  UNL     1     -40.914   6.697  -1.835  1.00 20.00    -0.386 OA
HETATM    9  O9  UNL     1     -43.417   3.983  -0.999  1.00 20.00    -0.375 OA
ENDROOT
TORSDOF 0
ENDMDL
MODEL 8
REMARK VINA RESULT:      -3.7      1.769      3.517
REMARK  0 active torsions:
REMARK  status: ('A' for Active; 'I' for Inactive)
ROOT
HETATM    1  C1  UNL     1     -34.019  13.944  -3.480  1.00 20.00     0.066 C 
HETATM    2  C2  UNL     1     -35.991  15.477  -3.064  1.00 20.00     0.071 C 
HETATM    3  C3  UNL     1     -34.843  13.320  -4.601  1.00 20.00     0.171 C 
HETATM    4  C4  UNL     1     -33.580  16.364  -2.614  1.00 20.00     0.207 A 
HETATM    5  C5  UNL     1     -36.695  14.757  -4.221  1.00 20.00     0.120 C 
HETATM    6  C6  UNL     1     -34.506  15.336  -3.212  1.00 20.00     0.086 A 
HETATM    7  C7  UNL     1     -38.203  14.734  -4.017  1.00 20.00     0.039 C 
HETATM    8  O8  UNL     1     -36.241  13.397  -4.299  1.00 20.00    -0.386 OA
HETATM    9  O9  UNL     1     -33.888  16.349  -4.016  1.00 20.00    -0.375 OA
ENDROOT
TORSDOF 0
ENDMDL
MODEL 9
REMARK VINA RESULT:      -3.7      1.242      1.385
REMARK  0 active torsions:
REMARK  status: ('A' for Active; 'I' for Inactive)
ROOT
HETATM    1  C1  UNL     1     -34.185  16.543  -4.543  1.00 20.00     0.066 C 
HETATM    2  C2  UNL     1     -34.601  15.530  -2.260  1.00 20.00     0.071 C 
HETATM    3  C3  UNL     1     -33.713  17.795  -3.813  1.00 20.00     0.171 C 
HETATM    4  C4  UNL     1     -33.879  13.973  -4.225  1.00 20.00     0.207 A 
HETATM    5  C5  UNL     1     -34.096  16.851  -1.668  1.00 20.00     0.120 C 
HETATM    6  C6  UNL     1     -34.048  15.353  -3.643  1.00 20.00     0.086 A 
HETATM    7  C7  UNL     1     -34.768  17.147  -0.335  1.00 20.00     0.039 C 
HETATM    8  O8  UNL     1     -34.397  17.934  -2.562  1.00 20.00    -0.386 OA
HETATM    9  O9  UNL     1     -32.767  14.711  -3.695  1.00 20.00    -0.375 OA
ENDROOT
TORSDOF 0
ENDMDL
