MODEL 1
REMARK VINA RESULT:      -3.6      0.000      0.000
REMARK  1 active torsions:
REMARK  status: ('A' for Active; 'I' for Inactive)
REMARK    1  A    between atoms: C4_4  and  C5_5 
ROOT
HETATM    1  C1  UNL     1     -34.276   5.305   3.235  1.00 20.00     0.016 C 
HETATM    2  C2  UNL     1     -35.456   5.056   4.160  1.00 20.00     0.074 C 
HETATM    3  C3  UNL     1     -33.302   6.206   5.281  1.00 20.00     0.079 C 
HETATM    4  C4  UNL     1     -33.529   6.511   3.803  1.00 20.00     0.009 C 
HETATM    5  S6  UNL     1     -34.816   5.369   5.829  1.00 20.00    -0.169 SA
ENDROOT
BRANCH   4   6
HETATM    6  C5  UNL     1     -32.219   6.768   3.068  1.00 20.00     0.120 C 
HETATM    7 CL7  UNL     1     -32.305   8.301   2.179  1.00 20.00    -0.130 Cl
ENDBRANCH   4   6
TORSDOF 1
ENDMDL
MODEL 2
REMARK VINA RESULT:      -3.6      1.153      1.847
REMARK  1 active torsions:
REMARK  status: ('A' for Active; 'I' for Inactive)
REMARK    1  A    between atoms: C4_4  and  C5_5 
ROOT
HETATM    1  C1  UNL     1     -33.812   6.568   5.441  1.00 20.00     0.016 C 
HETATM    2  C2  UNL     1     -34.384   5.441   6.285  1.00 20.00     0.074 C 
HETATM    3  C3  UNL     1     -34.595   5.143   3.623  1.00 20.00     0.079 C 
HETATM    4  C4  UNL     1     -33.390   5.941   4.112  1.00 20.00     0.009 C 
HETATM    5  S6  UNL     1     -35.314   4.408   5.120  1.00 20.00    -0.169 SA
ENDROOT
BRANCH   4   6
HETATM    6  C5  UNL     1     -32.956   6.992   3.098  1.00 20.00     0.120 C 
HETATM    7 CL7  UNL     1     -31.395   7.690   3.569  1.00 20.00    -0.130 Cl
ENDBRANCH   4   6
TORSDOF 1
ENDMDL
MODEL 3
REMARK VINA RESULT:      -3.3     11.520     11.749
REMARK  1 active torsions:
REMARK  status: ('A' for Active; 'I' for Inactive)
REMARK    1  A    between atoms: C4_4  and  C5_5 
ROOT
HETATM    1  C1  UNL     1     -35.803  15.430  -3.440  1.00 20.00     0.016 C 
HETATM    2  C2  UNL     1     -36.113  14.127  -4.159  1.00 20.00     0.074 C 
HETATM    3  C3  UNL     1     -33.508  14.701  -3.829  1.00 20.00     0.079 C 
HETATM    4  C4  UNL     1     -34.451  15.234  -2.754  1.00 20.00     0.009 C 
HETATM    5  S6  UNL     1     -34.520  13.571  -4.827  1.00 20.00    -0.169 SA
ENDROOT
BRANCH   4   6
HETATM    6  C5  UNL     1     -33.934  16.526  -2.134  1.00 20.00     0.120 C 
HETATM    7 CL7  UNL     1     -34.609  16.740  -0.508  1.00 20.00    -0.130 Cl
ENDBRANCH   4   6
TORSDOF 1
ENDMDL
MODEL 4
REMARK VINA RESULT:      -3.2     11.571     12.304
REMARK  1 active torsions:
REMARK  status: ('A' for Active; 'I' for Inactive)
REMARK    1  A    between atoms: C4_4  and  C5_5 
ROOT
HETATM    1  C1  UNL     1     -34.374  14.212  -3.516  1.00 20.00     0.016 C 
HETATM    2  C2  UNL     1     -34.497  13.291  -4.719  1.00 20.00     0.074 C 
HETATM    3  C3  UNL     1     -34.512  15.926  -5.245  1.00 20.00     0.079 C 
HETATM    4  C4  UNL     1     -33.713  15.494  -4.018  1.00 20.00     0.009 C 
HETATM    5  S6  UNL     1     -34.936  14.382  -6.100  1.00 20.00    -0.169 SA
ENDROOT
BRANCH   4   6
HETATM    6  C5  UNL     1     -33.684  16.578  -2.949  1.00 20.00     0.120 C 
HETATM    7 CL7  UNL     1     -34.685  16.101  -1.564  1.00 20.00    -0.130 Cl
ENDBRANCH   4   6
TORSDOF 1
ENDMDL
MODEL 5
REMARK VINA RESULT:      -3.1     12.121     12.632
REMARK  1 active torsions:
REMARK  status: ('A' for Active; 'I' for Inactive)
REMARK    1  A    between atoms: C4_4  and  C5_5 
ROOT
HETATM    1  C1  UNL     1     -34.547  15.259  -2.991  1.00 20.00     0.016 C 
HETATM    2  C2  UNL     1     -33.833  15.203  -4.332  1.00 20.00     0.074 C 
HETATM    3  C3  UNL     1     -33.894  17.604  -3.127  1.00 20.00     0.079 C 
HETATM    4  C4  UNL     1     -33.895  16.392  -2.201  1.00 20.00     0.009 C 
HETATM    5  S6  UNL     1     -33.540  16.937  -4.778  1.00 20.00    -0.169 SA
ENDROOT
BRANCH   4   6
HETATM    6  C5  UNL     1     -34.630  16.674  -0.897  1.00 20.00     0.120 C 
HETATM    7 CL7  UNL     1     -33.767  17.908   0.040  1.00 20.00    -0.130 Cl
ENDBRANCH   4   6
TORSDOF 1
ENDMDL
MODEL 6
REMARK VINA RESULT:      -3.1      9.492     10.445
REMARK  1 active torsions:
REMARK  status: ('A' for Active; 'I' for Inactive)
REMARK    1  A    between atoms: C4_4  and  C5_5 
ROOT
HETATM    1  C1  UNL     1     -40.966   4.546  -1.318  1.00 20.00     0.016 C 
HETATM    2  C2  UNL     1     -40.705   5.704  -0.369  1.00 20.00     0.074 C 
HETATM    3  C3  UNL     1     -42.318   6.227  -2.454  1.00 20.00     0.079 C 
HETATM    4  C4  UNL     1     -42.342   4.793  -1.935  1.00 20.00     0.009 C 
HETATM    5  S6  UNL     1     -41.375   7.162  -1.216  1.00 20.00    -0.169 SA
ENDROOT
BRANCH   4   6
HETATM    6  C5  UNL     1     -42.659   3.794  -3.040  1.00 20.00     0.120 C 
HETATM    7 CL7  UNL     1     -41.374   2.577  -3.155  1.00 20.00    -0.130 Cl
ENDBRANCH   4   6
TORSDOF 1
ENDMDL
MODEL 7
REMARK VINA RESULT:      -3.1      2.581      3.092
REMARK  1 active torsions:
REMARK  status: ('A' for Active; 'I' for Inactive)
REMARK    1  A    between atoms: C4_4  and  C5_5 
ROOT
HETATM    1  C1  UNL     1     -35.077   5.394   3.920  1.00 20.00     0.016 C 
HETATM    2  C2  UNL     1     -34.344   5.242   2.598  1.00 20.00     0.074 C 
HETATM    3  C3  UNL     1     -32.997   6.496   4.556  1.00 20.00     0.079 C 
HETATM    4  C4  UNL     1     -34.004   5.442   5.007  1.00 20.00     0.009 C 
HETATM    5  S6  UNL     1     -32.872   6.290   2.756  1.00 20.00    -0.169 SA
ENDROOT
BRANCH   4   6
HETATM    6  C5  UNL     1     -34.590   5.765   6.375  1.00 20.00     0.120 C 
HETATM    7 CL7  UNL     1     -33.873   7.256   7.014  1.00 20.00    -0.130 Cl
ENDBRANCH   4   6
TORSDOF 1
ENDMDL
MODEL 8
REMARK VINA RESULT:      -3.0     11.880     12.715
REMARK  1 active torsions:
REMARK  status: ('A' for Active; 'I' for Inactive)
REMARK    1  A    between atoms: C4_4  and  C5_5 
ROOT
HETATM    1  C1  UNL     1     -33.650  15.911  -5.149  1.00 20.00     0.016 C 
HETATM    2  C2  UNL     1     -33.509  17.418  -5.020  1.00 20.00     0.074 C 
HETATM    3  C3  UNL     1     -33.872  16.069  -2.725  1.00 20.00     0.079 C 
HETATM    4  C4  UNL     1     -33.144  15.315  -3.835  1.00 20.00     0.009 C 
HETATM    5  S6  UNL     1     -33.966  17.787  -3.304  1.00 20.00    -0.169 SA
ENDROOT
BRANCH   4   6
HETATM    6  C5  UNL     1     -33.389  13.814  -3.758  1.00 20.00     0.120 C 
HETATM    7 CL7  UNL     1     -35.084  13.448  -4.132  1.00 20.00    -0.130 Cl
ENDBRANCH   4   6
TORSDOF 1
ENDMDL
MODEL 9
REMARK VINA RESULT:      -3.0     11.598     12.023
REMARK  1 active torsions:
REMARK  status: ('A' for Active; 'I' for Inactive)
REMARK    1  A    between atoms: C4_4  and  C5_5 
ROOT
HETATM    1  C1  UNL     1     -33.422  15.272  -3.592  1.00 20.00     0.016 C 
HETATM    2  C2  UNL     1     -33.730  16.272  -2.491  1.00 20.00     0.074 C 
HETATM    3  C3  UNL     1     -35.849  15.042  -3.592  1.00 20.00     0.079 C 
HETATM    4  C4  UNL     1     -34.550  14.242  -3.569  1.00 20.00     0.009 C 
HETATM    5  S6  UNL     1     -35.530  16.492  -2.548  1.00 20.00    -0.169 SA
ENDROOT
BRANCH   4   6
HETATM    6  C5  UNL     1     -34.460  13.271  -4.739  1.00 20.00     0.120 C 
HETATM    7 CL7  UNL     1     -35.082  14.030  -6.217  1.00 20.00    -0.130 Cl
ENDBRANCH   4   6
TORSDOF 1
ENDMDL
