MODEL 1
REMARK VINA RESULT:      -4.1      0.000      0.000
REMARK  4 active torsions:
REMARK  status: ('A' for Active; 'I' for Inactive)
REMARK    1  A    between atoms: C1_1  and  C3_3 
REMARK    2  A    between atoms: C1_1  and  C7_7 
REMARK    3  A    between atoms: C7_7  and  C8_8 
REMARK    4  A    between atoms: C8_8  and  S10_10 
ROOT
HETATM    1  C1  UNL     1     -34.769  13.717  -4.721  1.00 20.00     0.132 C 
HETATM    2  O9  UNL     1     -34.824  12.503  -4.916  1.00 20.00    -0.298 OA
ENDROOT
BRANCH   1   3
HETATM    3  C3  UNL     1     -35.286  14.696  -5.743  1.00 20.00     0.059 A 
HETATM    4  C2  UNL     1     -35.188  14.323  -7.179  1.00 20.00     0.017 A 
HETATM    5  C4  UNL     1     -34.282  15.386  -6.615  1.00 20.00    -0.007 A 
HETATM    6  C5  UNL     1     -34.495  16.817  -6.970  1.00 20.00     0.011 C 
ENDBRANCH   1   3
BRANCH   1   7
HETATM    7  C7  UNL     1     -34.164  14.282  -3.450  1.00 20.00     0.088 C 
BRANCH   7   8
HETATM    8  C8  UNL     1     -34.975  15.421  -2.845  1.00 20.00     0.081 C 
BRANCH   8   9
HETATM    9  S10 UNL     1     -33.913  16.743  -2.188  1.00 20.00    -0.173 SA
HETATM   10  C6  UNL     1     -34.644  16.865  -0.539  1.00 20.00     0.089 C 
ENDBRANCH   8   9
ENDBRANCH   7   8
ENDBRANCH   1   7
TORSDOF 4
ENDMDL
MODEL 2
REMARK VINA RESULT:      -4.0      2.498      4.403
REMARK  4 active torsions:
REMARK  status: ('A' for Active; 'I' for Inactive)
REMARK    1  A    between atoms: C1_1  and  C3_3 
REMARK    2  A    between atoms: C1_1  and  C7_7 
REMARK    3  A    between atoms: C7_7  and  C8_8 
REMARK    4  A    between atoms: C8_8  and  S10_10 
ROOT
HETATM    1  C1  UNL     1     -33.526  15.087  -3.569  1.00 20.00     0.132 C 
HETATM    2  O9  UNL     1     -32.610  15.776  -4.017  1.00 20.00    -0.298 OA
ENDROOT
BRANCH   1   3
HETATM    3  C3  UNL     1     -34.546  15.664  -2.623  1.00 20.00     0.059 A 
HETATM    4  C2  UNL     1     -35.092  17.014  -2.923  1.00 20.00     0.017 A 
HETATM    5  C4  UNL     1     -34.131  16.830  -1.779  1.00 20.00    -0.007 A 
HETATM    6  C5  UNL     1     -34.614  16.915  -0.373  1.00 20.00     0.011 C 
ENDBRANCH   1   3
BRANCH   1   7
HETATM    7  C7  UNL     1     -33.660  13.621  -3.937  1.00 20.00     0.088 C 
BRANCH   7   8
HETATM    8  C8  UNL     1     -34.925  13.306  -4.725  1.00 20.00     0.081 C 
BRANCH   8   9
HETATM    9  S10 UNL     1     -35.062  14.316  -6.230  1.00 20.00    -0.173 SA
HETATM   10  C6  UNL     1     -36.597  15.179  -5.823  1.00 20.00     0.089 C 
ENDBRANCH   8   9
ENDBRANCH   7   8
ENDBRANCH   1   7
TORSDOF 4
ENDMDL
MODEL 3
REMARK VINA RESULT:      -4.0     10.992     12.662
REMARK  4 active torsions:
REMARK  status: ('A' for Active; 'I' for Inactive)
REMARK    1  A    between atoms: C1_1  and  C3_3 
REMARK    2  A    between atoms: C1_1  and  C7_7 
REMARK    3  A    between atoms: C7_7  and  C8_8 
REMARK    4  A    between atoms: C8_8  and  S10_10 
ROOT
HETATM    1  C1  UNL     1     -33.645   5.779   3.252  1.00 20.00     0.132 C 
HETATM    2  O9  UNL     1     -34.113   5.344   2.200  1.00 20.00    -0.298 OA
ENDROOT
BRANCH   1   3
HETATM    3  C3  UNL     1     -34.482   5.872   4.501  1.00 20.00     0.059 A 
HETATM    4  C2  UNL     1     -33.837   6.385   5.738  1.00 20.00     0.017 A 
HETATM    5  C4  UNL     1     -34.175   4.922   5.617  1.00 20.00    -0.007 A 
HETATM    6  C5  UNL     1     -35.298   4.345   6.406  1.00 20.00     0.011 C 
ENDBRANCH   1   3
BRANCH   1   7
HETATM    7  C7  UNL     1     -32.207   6.258   3.334  1.00 20.00     0.088 C 
BRANCH   7   8
HETATM    8  C8  UNL     1     -32.055   7.761   3.144  1.00 20.00     0.081 C 
BRANCH   8   9
HETATM    9  S10 UNL     1     -31.919   8.218   1.389  1.00 20.00    -0.173 SA
HETATM   10  C6  UNL     1     -32.544   9.910   1.513  1.00 20.00     0.089 C 
ENDBRANCH   8   9
ENDBRANCH   7   8
ENDBRANCH   1   7
TORSDOF 4
ENDMDL
MODEL 4
REMARK VINA RESULT:      -4.0     11.406     13.102
REMARK  4 active torsions:
REMARK  status: ('A' for Active; 'I' for Inactive)
REMARK    1  A    between atoms: C1_1  and  C3_3 
REMARK    2  A    between atoms: C1_1  and  C7_7 
REMARK    3  A    between atoms: C7_7  and  C8_8 
REMARK    4  A    between atoms: C8_8  and  S10_10 
ROOT
HETATM    1  C1  UNL     1     -34.576   5.524   3.868  1.00 20.00     0.132 C 
HETATM    2  O9  UNL     1     -35.788   5.356   3.730  1.00 20.00    -0.298 OA
ENDROOT
BRANCH   1   3
HETATM    3  C3  UNL     1     -33.939   5.526   5.233  1.00 20.00     0.059 A 
HETATM    4  C2  UNL     1     -34.798   5.214   6.405  1.00 20.00     0.017 A 
HETATM    5  C4  UNL     1     -34.322   6.624   6.177  1.00 20.00    -0.007 A 
HETATM    6  C5  UNL     1     -33.279   7.215   7.061  1.00 20.00     0.011 C 
ENDBRANCH   1   3
BRANCH   1   7
HETATM    7  C7  UNL     1     -33.673   5.752   2.671  1.00 20.00     0.088 C 
BRANCH   7   8
HETATM    8  C8  UNL     1     -32.210   5.954   3.043  1.00 20.00     0.081 C 
BRANCH   8   9
HETATM    9  S10 UNL     1     -31.817   7.702   3.354  1.00 20.00    -0.173 SA
HETATM   10  C6  UNL     1     -32.034   8.319   1.669  1.00 20.00     0.089 C 
ENDBRANCH   8   9
ENDBRANCH   7   8
ENDBRANCH   1   7
TORSDOF 4
ENDMDL
MODEL 5
REMARK VINA RESULT:      -4.0      2.210      4.546
REMARK  4 active torsions:
REMARK  status: ('A' for Active; 'I' for Inactive)
REMARK    1  A    between atoms: C1_1  and  C3_3 
REMARK    2  A    between atoms: C1_1  and  C7_7 
REMARK    3  A    between atoms: C7_7  and  C8_8 
REMARK    4  A    between atoms: C8_8  and  S10_10 
ROOT
HETATM    1  C1  UNL     1     -35.733  14.942  -3.271  1.00 20.00     0.132 C 
HETATM    2  O9  UNL     1     -36.931  14.686  -3.397  1.00 20.00    -0.298 OA
ENDROOT
BRANCH   1   3
HETATM    3  C3  UNL     1     -35.273  16.252  -2.689  1.00 20.00     0.059 A 
HETATM    4  C2  UNL     1     -33.810  16.503  -2.603  1.00 20.00     0.017 A 
HETATM    5  C4  UNL     1     -34.598  16.222  -1.352  1.00 20.00    -0.007 A 
HETATM    6  C5  UNL     1     -34.873  17.315  -0.378  1.00 20.00     0.011 C 
ENDBRANCH   1   3
BRANCH   1   7
HETATM    7  C7  UNL     1     -34.668  13.955  -3.711  1.00 20.00     0.088 C 
BRANCH   7   8
HETATM    8  C8  UNL     1     -34.819  13.504  -5.158  1.00 20.00     0.081 C 
BRANCH   8   9
HETATM    9  S10 UNL     1     -34.583  14.875  -6.329  1.00 20.00    -0.173 SA
HETATM   10  C6  UNL     1     -36.253  14.914  -7.020  1.00 20.00     0.089 C 
ENDBRANCH   8   9
ENDBRANCH   7   8
ENDBRANCH   1   7
TORSDOF 4
ENDMDL
MODEL 6
REMARK VINA RESULT:      -3.9      2.081      3.954
REMARK  4 active torsions:
REMARK  status: ('A' for Active; 'I' for Inactive)
REMARK    1  A    between atoms: C1_1  and  C3_3 
REMARK    2  A    between atoms: C1_1  and  C7_7 
REMARK    3  A    between atoms: C7_7  and  C8_8 
REMARK    4  A    between atoms: C8_8  and  S10_10 
ROOT
HETATM    1  C1  UNL     1     -34.681  13.766  -4.769  1.00 20.00     0.132 C 
HETATM    2  O9  UNL     1     -34.795  12.546  -4.893  1.00 20.00    -0.298 OA
ENDROOT
BRANCH   1   3
HETATM    3  C3  UNL     1     -34.798  14.428  -3.421  1.00 20.00     0.059 A 
HETATM    4  C2  UNL     1     -35.961  15.322  -3.181  1.00 20.00     0.017 A 
HETATM    5  C4  UNL     1     -34.585  15.909  -3.353  1.00 20.00    -0.007 A 
HETATM    6  C5  UNL     1     -33.864  16.483  -2.182  1.00 20.00     0.011 C 
ENDBRANCH   1   3
BRANCH   1   7
HETATM    7  C7  UNL     1     -34.433  14.658  -5.971  1.00 20.00     0.088 C 
BRANCH   7   8
HETATM    8  C8  UNL     1     -35.407  14.418  -7.117  1.00 20.00     0.081 C 
BRANCH   8   9
HETATM    9  S10 UNL     1     -36.981  15.295  -6.873  1.00 20.00    -0.173 SA
HETATM   10  C6  UNL     1     -36.312  16.946  -6.567  1.00 20.00     0.089 C 
ENDBRANCH   8   9
ENDBRANCH   7   8
ENDBRANCH   1   7
TORSDOF 4
ENDMDL
MODEL 7
REMARK VINA RESULT:      -3.8     10.953     12.172
REMARK  4 active torsions:
REMARK  status: ('A' for Active; 'I' for Inactive)
REMARK    1  A    between atoms: C1_1  and  C3_3 
REMARK    2  A    between atoms: C1_1  and  C7_7 
REMARK    3  A    between atoms: C7_7  and  C8_8 
REMARK    4  A    between atoms: C8_8  and  S10_10 
ROOT
HETATM    1  C1  UNL     1     -33.585   5.745   2.777  1.00 20.00     0.132 C 
HETATM    2  O9  UNL     1     -33.873   4.751   2.111  1.00 20.00    -0.298 OA
ENDROOT
BRANCH   1   3
HETATM    3  C3  UNL     1     -32.335   6.537   2.496  1.00 20.00     0.059 A 
HETATM    4  C2  UNL     1     -31.841   7.460   3.552  1.00 20.00     0.017 A 
HETATM    5  C4  UNL     1     -32.476   8.017   2.305  1.00 20.00    -0.007 A 
HETATM    6  C5  UNL     1     -31.640   8.697   1.277  1.00 20.00     0.011 C 
ENDBRANCH   1   3
BRANCH   1   7
HETATM    7  C7  UNL     1     -34.467   6.208   3.922  1.00 20.00     0.088 C 
BRANCH   7   8
HETATM    8  C8  UNL     1     -35.211   5.072   4.612  1.00 20.00     0.081 C 
BRANCH   8   9
HETATM    9  S10 UNL     1     -34.732   4.902   6.358  1.00 20.00    -0.173 SA
HETATM   10  C6  UNL     1     -33.963   6.523   6.574  1.00 20.00     0.089 C 
ENDBRANCH   8   9
ENDBRANCH   7   8
ENDBRANCH   1   7
TORSDOF 4
ENDMDL
MODEL 8
REMARK VINA RESULT:      -3.7      2.050      3.575
REMARK  4 active torsions:
REMARK  status: ('A' for Active; 'I' for Inactive)
REMARK    1  A    between atoms: C1_1  and  C3_3 
REMARK    2  A    between atoms: C1_1  and  C7_7 
REMARK    3  A    between atoms: C7_7  and  C8_8 
REMARK    4  A    between atoms: C8_8  and  S10_10 
ROOT
HETATM    1  C1  UNL     1     -34.680  13.797  -5.269  1.00 20.00     0.132 C 
HETATM    2  O9  UNL     1     -34.818  12.639  -4.873  1.00 20.00    -0.298 OA
ENDROOT
BRANCH   1   3
HETATM    3  C3  UNL     1     -33.867  14.797  -4.490  1.00 20.00     0.059 A 
HETATM    4  C2  UNL     1     -32.856  14.280  -3.532  1.00 20.00     0.017 A 
HETATM    5  C4  UNL     1     -34.124  14.908  -3.018  1.00 20.00    -0.007 A 
HETATM    6  C5  UNL     1     -34.089  16.252  -2.377  1.00 20.00     0.011 C 
ENDBRANCH   1   3
BRANCH   1   7
HETATM    7  C7  UNL     1     -35.338  14.272  -6.551  1.00 20.00     0.088 C 
BRANCH   7   8
HETATM    8  C8  UNL     1     -36.119  15.569  -6.389  1.00 20.00     0.081 C 
BRANCH   8   9
HETATM    9  S10 UNL     1     -37.538  15.377  -5.268  1.00 20.00    -0.173 SA
HETATM   10  C6  UNL     1     -37.288  16.868  -4.277  1.00 20.00     0.089 C 
ENDBRANCH   8   9
ENDBRANCH   7   8
ENDBRANCH   1   7
TORSDOF 4
ENDMDL
MODEL 9
REMARK VINA RESULT:      -3.7      2.358      5.231
REMARK  4 active torsions:
REMARK  status: ('A' for Active; 'I' for Inactive)
REMARK    1  A    between atoms: C1_1  and  C3_3 
REMARK    2  A    between atoms: C1_1  and  C7_7 
REMARK    3  A    between atoms: C7_7  and  C8_8 
REMARK    4  A    between atoms: C8_8  and  S10_10 
ROOT
HETATM    1  C1  UNL     1     -34.711  16.535  -2.509  1.00 20.00     0.132 C 
HETATM    2  O9  UNL     1     -35.933  16.409  -2.587  1.00 20.00    -0.298 OA
ENDROOT
BRANCH   1   3
HETATM    3  C3  UNL     1     -34.032  16.762  -1.184  1.00 20.00     0.059 A 
HETATM    4  C2  UNL     1     -34.867  17.218  -0.041  1.00 20.00     0.017 A 
HETATM    5  C4  UNL     1     -33.908  18.174  -0.699  1.00 20.00    -0.007 A 
HETATM    6  C5  UNL     1     -32.663  18.590   0.006  1.00 20.00     0.011 C 
ENDBRANCH   1   3
BRANCH   1   7
HETATM    7  C7  UNL     1     -33.835  16.484  -3.747  1.00 20.00     0.088 C 
BRANCH   7   8
HETATM    8  C8  UNL     1     -32.977  15.229  -3.833  1.00 20.00     0.081 C 
BRANCH   8   9
HETATM    9  S10 UNL     1     -33.983  13.720  -3.963  1.00 20.00    -0.173 SA
HETATM   10  C6  UNL     1     -34.824  14.103  -5.516  1.00 20.00     0.089 C 
ENDBRANCH   8   9
ENDBRANCH   7   8
ENDBRANCH   1   7
TORSDOF 4
ENDMDL
