MODEL 1
REMARK VINA RESULT:      -4.9      0.000      0.000
REMARK  3 active torsions:
REMARK  status: ('A' for Active; 'I' for Inactive)
REMARK    1  A    between atoms: C1_1  and  C7_7 
REMARK    2  A    between atoms: C1_1  and  C9_9 
REMARK    3  A    between atoms: C8_8  and  C9_9 
ROOT
HETATM    1  C1  UNL     1     -32.647   6.444   3.550  1.00 20.00     0.141 C 
HETATM    2  O10 UNL     1     -32.173   5.325   3.357  1.00 20.00    -0.297 OA
ENDROOT
BRANCH   1   3
HETATM    3  C7  UNL     1     -33.965   6.614   4.229  1.00 20.00     0.116 C 
HETATM    4  C3  UNL     1     -33.898   6.477   5.750  1.00 20.00     0.024 C 
HETATM    5  C2  UNL     1     -33.961   4.991   6.080  1.00 20.00     0.012 C 
HETATM    6  C6  UNL     1     -35.132   4.427   5.296  1.00 20.00     0.075 C 
HETATM    7  S11 UNL     1     -35.088   5.281   3.697  1.00 20.00    -0.157 SA
ENDBRANCH   1   3
BRANCH   1   8
HETATM    8  C9  UNL     1     -31.944   7.719   3.124  1.00 20.00     0.084 C 
BRANCH   8   9
HETATM    9  C8  UNL     1     -32.538   8.321   1.864  1.00 20.00    -0.007 A 
HETATM   10  C4  UNL     1     -32.413   9.794   1.596  1.00 20.00     0.005 A 
HETATM   11  C5  UNL     1     -31.639   8.812   0.763  1.00 20.00     0.005 A 
ENDBRANCH   8   9
ENDBRANCH   1   8
TORSDOF 3
ENDMDL
MODEL 2
REMARK VINA RESULT:      -4.7     11.217     12.626
REMARK  3 active torsions:
REMARK  status: ('A' for Active; 'I' for Inactive)
REMARK    1  A    between atoms: C1_1  and  C7_7 
REMARK    2  A    between atoms: C1_1  and  C9_9 
REMARK    3  A    between atoms: C8_8  and  C9_9 
ROOT
HETATM    1  C1  UNL     1     -35.486  13.991  -4.499  1.00 20.00     0.141 C 
HETATM    2  O10 UNL     1     -35.053  12.854  -4.313  1.00 20.00    -0.297 OA
ENDROOT
BRANCH   1   3
HETATM    3  C7  UNL     1     -35.775  14.487  -5.877  1.00 20.00     0.116 C 
HETATM    4  C3  UNL     1     -34.523  14.717  -6.724  1.00 20.00     0.024 C 
HETATM    5  C2  UNL     1     -33.983  16.098  -6.379  1.00 20.00     0.012 C 
HETATM    6  C6  UNL     1     -35.161  17.052  -6.452  1.00 20.00     0.075 C 
HETATM    7  S11 UNL     1     -36.563  16.127  -5.767  1.00 20.00    -0.157 SA
ENDBRANCH   1   3
BRANCH   1   8
HETATM    8  C9  UNL     1     -35.759  14.962  -3.367  1.00 20.00     0.084 C 
BRANCH   8   9
HETATM    9  C8  UNL     1     -34.496  15.376  -2.634  1.00 20.00    -0.007 A 
HETATM   10  C4  UNL     1     -33.961  16.774  -2.776  1.00 20.00     0.005 A 
HETATM   11  C5  UNL     1     -34.571  16.331  -1.475  1.00 20.00     0.005 A 
ENDBRANCH   8   9
ENDBRANCH   1   8
TORSDOF 3
ENDMDL
MODEL 3
REMARK VINA RESULT:      -4.6     11.045     12.100
REMARK  3 active torsions:
REMARK  status: ('A' for Active; 'I' for Inactive)
REMARK    1  A    between atoms: C1_1  and  C7_7 
REMARK    2  A    between atoms: C1_1  and  C9_9 
REMARK    3  A    between atoms: C8_8  and  C9_9 
ROOT
HETATM    1  C1  UNL     1     -33.963  16.640  -4.229  1.00 20.00     0.141 C 
HETATM    2  O10 UNL     1     -32.868  16.549  -4.781  1.00 20.00    -0.297 OA
ENDROOT
BRANCH   1   3
HETATM    3  C7  UNL     1     -35.130  15.834  -4.697  1.00 20.00     0.116 C 
HETATM    4  C3  UNL     1     -35.624  14.813  -3.673  1.00 20.00     0.024 C 
HETATM    5  C2  UNL     1     -34.757  13.569  -3.809  1.00 20.00     0.012 C 
HETATM    6  C6  UNL     1     -34.715  13.233  -5.288  1.00 20.00     0.075 C 
HETATM    7  S11 UNL     1     -34.625  14.834  -6.135  1.00 20.00    -0.157 SA
ENDBRANCH   1   3
BRANCH   1   8
HETATM    8  C9  UNL     1     -34.216  17.559  -3.049  1.00 20.00     0.084 C 
BRANCH   8   9
HETATM    9  C8  UNL     1     -33.711  16.981  -1.739  1.00 20.00    -0.007 A 
HETATM   10  C4  UNL     1     -33.610  17.850  -0.517  1.00 20.00     0.005 A 
HETATM   11  C5  UNL     1     -34.657  16.773  -0.588  1.00 20.00     0.005 A 
ENDBRANCH   8   9
ENDBRANCH   1   8
TORSDOF 3
ENDMDL
MODEL 4
REMARK VINA RESULT:      -4.5     11.214     12.233
REMARK  3 active torsions:
REMARK  status: ('A' for Active; 'I' for Inactive)
REMARK    1  A    between atoms: C1_1  and  C7_7 
REMARK    2  A    between atoms: C1_1  and  C9_9 
REMARK    3  A    between atoms: C8_8  and  C9_9 
ROOT
HETATM    1  C1  UNL     1     -35.591  15.332  -3.240  1.00 20.00     0.141 C 
HETATM    2  O10 UNL     1     -36.655  14.717  -3.295  1.00 20.00    -0.297 OA
ENDROOT
BRANCH   1   3
HETATM    3  C7  UNL     1     -34.377  14.833  -3.951  1.00 20.00     0.116 C 
HETATM    4  C3  UNL     1     -33.562  15.936  -4.627  1.00 20.00     0.024 C 
HETATM    5  C2  UNL     1     -34.199  16.210  -5.984  1.00 20.00     0.012 C 
HETATM    6  C6  UNL     1     -34.390  14.860  -6.650  1.00 20.00     0.075 C 
HETATM    7  S11 UNL     1     -34.891  13.739  -5.314  1.00 20.00    -0.157 SA
ENDBRANCH   1   3
BRANCH   1   8
HETATM    8  C9  UNL     1     -35.427  16.623  -2.460  1.00 20.00     0.084 C 
BRANCH   8   9
HETATM    9  C8  UNL     1     -34.585  16.448  -1.210  1.00 20.00    -0.007 A 
HETATM   10  C4  UNL     1     -33.671  17.550  -0.752  1.00 20.00     0.005 A 
HETATM   11  C5  UNL     1     -34.909  17.225   0.036  1.00 20.00     0.005 A 
ENDBRANCH   8   9
ENDBRANCH   1   8
TORSDOF 3
ENDMDL
MODEL 5
REMARK VINA RESULT:      -4.5     11.342     12.257
REMARK  3 active torsions:
REMARK  status: ('A' for Active; 'I' for Inactive)
REMARK    1  A    between atoms: C1_1  and  C7_7 
REMARK    2  A    between atoms: C1_1  and  C9_9 
REMARK    3  A    between atoms: C8_8  and  C9_9 
ROOT
HETATM    1  C1  UNL     1     -33.580  15.997  -4.487  1.00 20.00     0.141 C 
HETATM    2  O10 UNL     1     -32.934  16.863  -5.075  1.00 20.00    -0.297 OA
ENDROOT
BRANCH   1   3
HETATM    3  C7  UNL     1     -34.493  15.079  -5.232  1.00 20.00     0.116 C 
HETATM    4  C3  UNL     1     -35.727  15.773  -5.809  1.00 20.00     0.024 C 
HETATM    5  C2  UNL     1     -36.769  15.851  -4.701  1.00 20.00     0.012 C 
HETATM    6  C6  UNL     1     -36.864  14.461  -4.101  1.00 20.00     0.075 C 
HETATM    7  S11 UNL     1     -35.161  13.837  -4.079  1.00 20.00    -0.157 SA
ENDBRANCH   1   3
BRANCH   1   8
HETATM    8  C9  UNL     1     -33.503  15.791  -2.986  1.00 20.00     0.084 C 
BRANCH   8   9
HETATM    9  C8  UNL     1     -34.210  16.886  -2.209  1.00 20.00    -0.007 A 
HETATM   10  C4  UNL     1     -34.685  16.634  -0.805  1.00 20.00     0.005 A 
HETATM   11  C5  UNL     1     -33.524  17.556  -1.050  1.00 20.00     0.005 A 
ENDBRANCH   8   9
ENDBRANCH   1   8
TORSDOF 3
ENDMDL
MODEL 6
REMARK VINA RESULT:      -4.3     11.539     12.850
REMARK  3 active torsions:
REMARK  status: ('A' for Active; 'I' for Inactive)
REMARK    1  A    between atoms: C1_1  and  C7_7 
REMARK    2  A    between atoms: C1_1  and  C9_9 
REMARK    3  A    between atoms: C8_8  and  C9_9 
ROOT
HETATM    1  C1  UNL     1     -36.784  15.066  -4.221  1.00 20.00     0.141 C 
HETATM    2  O10 UNL     1     -37.267  13.986  -3.883  1.00 20.00    -0.297 OA
ENDROOT
BRANCH   1   3
HETATM    3  C7  UNL     1     -36.648  15.430  -5.663  1.00 20.00     0.116 C 
HETATM    4  C3  UNL     1     -35.659  14.552  -6.429  1.00 20.00     0.024 C 
HETATM    5  C2  UNL     1     -34.265  15.118  -6.194  1.00 20.00     0.012 C 
HETATM    6  C6  UNL     1     -34.356  16.609  -6.460  1.00 20.00     0.075 C 
HETATM    7  S11 UNL     1     -35.964  17.114  -5.791  1.00 20.00    -0.157 SA
ENDBRANCH   1   3
BRANCH   1   8
HETATM    8  C9  UNL     1     -36.296  16.098  -3.222  1.00 20.00     0.084 C 
BRANCH   8   9
HETATM    9  C8  UNL     1     -35.098  15.618  -2.423  1.00 20.00    -0.007 A 
HETATM   10  C4  UNL     1     -33.763  16.291  -2.581  1.00 20.00     0.005 A 
HETATM   11  C5  UNL     1     -34.544  16.461  -1.308  1.00 20.00     0.005 A 
ENDBRANCH   8   9
ENDBRANCH   1   8
TORSDOF 3
ENDMDL
MODEL 7
REMARK VINA RESULT:      -4.3     11.566     12.936
REMARK  3 active torsions:
REMARK  status: ('A' for Active; 'I' for Inactive)
REMARK    1  A    between atoms: C1_1  and  C7_7 
REMARK    2  A    between atoms: C1_1  and  C9_9 
REMARK    3  A    between atoms: C8_8  and  C9_9 
ROOT
HETATM    1  C1  UNL     1     -35.980  15.569  -3.886  1.00 20.00     0.141 C 
HETATM    2  O10 UNL     1     -36.307  14.389  -3.772  1.00 20.00    -0.297 OA
ENDROOT
BRANCH   1   3
HETATM    3  C7  UNL     1     -35.622  16.143  -5.217  1.00 20.00     0.116 C 
HETATM    4  C3  UNL     1     -34.296  15.626  -5.774  1.00 20.00     0.024 C 
HETATM    5  C2  UNL     1     -33.182  16.460  -5.156  1.00 20.00     0.012 C 
HETATM    6  C6  UNL     1     -33.587  17.912  -5.325  1.00 20.00     0.075 C 
HETATM    7  S11 UNL     1     -35.379  17.941  -5.045  1.00 20.00    -0.157 SA
ENDBRANCH   1   3
BRANCH   1   8
HETATM    8  C9  UNL     1     -35.916  16.522  -2.707  1.00 20.00     0.084 C 
BRANCH   8   9
HETATM    9  C8  UNL     1     -34.780  16.197  -1.754  1.00 20.00    -0.007 A 
HETATM   10  C4  UNL     1     -33.710  17.215  -1.477  1.00 20.00     0.005 A 
HETATM   11  C5  UNL     1     -34.707  16.863  -0.408  1.00 20.00     0.005 A 
ENDBRANCH   8   9
ENDBRANCH   1   8
TORSDOF 3
ENDMDL
MODEL 8
REMARK VINA RESULT:      -4.2     11.154     12.524
REMARK  3 active torsions:
REMARK  status: ('A' for Active; 'I' for Inactive)
REMARK    1  A    between atoms: C1_1  and  C7_7 
REMARK    2  A    between atoms: C1_1  and  C9_9 
REMARK    3  A    between atoms: C8_8  and  C9_9 
ROOT
HETATM    1  C1  UNL     1     -34.518  13.846  -4.717  1.00 20.00     0.141 C 
HETATM    2  O10 UNL     1     -34.931  12.750  -4.341  1.00 20.00    -0.297 OA
ENDROOT
BRANCH   1   3
HETATM    3  C7  UNL     1     -33.829  14.773  -3.770  1.00 20.00     0.116 C 
HETATM    4  C3  UNL     1     -34.743  15.331  -2.679  1.00 20.00     0.024 C 
HETATM    5  C2  UNL     1     -35.476  16.531  -3.264  1.00 20.00     0.012 C 
HETATM    6  C6  UNL     1     -34.420  17.402  -3.919  1.00 20.00     0.075 C 
HETATM    7  S11 UNL     1     -33.256  16.241  -4.685  1.00 20.00    -0.157 SA
ENDBRANCH   1   3
BRANCH   1   8
HETATM    8  C9  UNL     1     -34.669  14.338  -6.144  1.00 20.00     0.084 C 
BRANCH   8   9
HETATM    9  C8  UNL     1     -36.102  14.700  -6.488  1.00 20.00    -0.007 A 
HETATM   10  C4  UNL     1     -36.443  16.092  -6.943  1.00 20.00     0.005 A 
HETATM   11  C5  UNL     1     -36.499  14.948  -7.917  1.00 20.00     0.005 A 
ENDBRANCH   8   9
ENDBRANCH   1   8
TORSDOF 3
ENDMDL
MODEL 9
REMARK VINA RESULT:      -4.2     10.965     11.860
REMARK  3 active torsions:
REMARK  status: ('A' for Active; 'I' for Inactive)
REMARK    1  A    between atoms: C1_1  and  C7_7 
REMARK    2  A    between atoms: C1_1  and  C9_9 
REMARK    3  A    between atoms: C8_8  and  C9_9 
ROOT
HETATM    1  C1  UNL     1     -35.647  16.307  -2.971  1.00 20.00     0.141 C 
HETATM    2  O10 UNL     1     -36.802  16.726  -3.029  1.00 20.00    -0.297 OA
ENDROOT
BRANCH   1   3
HETATM    3  C7  UNL     1     -34.926  15.866  -4.202  1.00 20.00     0.116 C 
HETATM    4  C3  UNL     1     -35.579  14.677  -4.907  1.00 20.00     0.024 C 
HETATM    5  C2  UNL     1     -35.094  13.411  -4.215  1.00 20.00     0.012 C 
HETATM    6  C6  UNL     1     -33.584  13.526  -4.115  1.00 20.00     0.075 C 
HETATM    7  S11 UNL     1     -33.266  15.273  -3.742  1.00 20.00    -0.157 SA
ENDBRANCH   1   3
BRANCH   1   8
HETATM    8  C9  UNL     1     -34.873  16.204  -1.670  1.00 20.00     0.084 C 
BRANCH   8   9
HETATM    9  C8  UNL     1     -34.965  17.468  -0.835  1.00 20.00    -0.007 A 
HETATM   10  C4  UNL     1     -34.885  17.393   0.664  1.00 20.00     0.005 A 
HETATM   11  C5  UNL     1     -33.751  17.993  -0.119  1.00 20.00     0.005 A 
ENDBRANCH   8   9
ENDBRANCH   1   8
TORSDOF 3
ENDMDL
