MODEL 1
REMARK VINA RESULT:      -4.3      0.000      0.000
REMARK  1 active torsions:
REMARK  status: ('A' for Active; 'I' for Inactive)
REMARK    1  A    between atoms: C4_4  and  C5_5 
ROOT
HETATM    1  C1  UNL     1     -35.001   4.196   4.874  1.00 20.00     0.011 C 
HETATM    2  C2  UNL     1     -35.205   5.335   3.887  1.00 20.00     0.016 C 
HETATM    3  C3  UNL     1     -34.866   4.830   6.246  1.00 20.00     0.074 C 
HETATM    4  C4  UNL     1     -34.126   6.381   4.165  1.00 20.00     0.057 C 
HETATM    5  S6  UNL     1     -33.920   6.353   5.978  1.00 20.00    -0.164 SA
ENDROOT
BRANCH   4   6
HETATM    6  C5  UNL     1     -32.800   6.063   3.486  1.00 20.00     0.100 C 
HETATM    7 BR7  UNL     1     -32.114   7.656   2.612  1.00 20.00    -0.095 Br
ENDBRANCH   4   6
TORSDOF 1
ENDMDL
MODEL 2
REMARK VINA RESULT:      -3.3     12.143     12.742
REMARK  1 active torsions:
REMARK  status: ('A' for Active; 'I' for Inactive)
REMARK    1  A    between atoms: C4_4  and  C5_5 
ROOT
HETATM    1  C1  UNL     1     -34.805  13.273  -4.744  1.00 20.00     0.011 C 
HETATM    2  C2  UNL     1     -33.810  13.826  -3.734  1.00 20.00     0.016 C 
HETATM    3  C3  UNL     1     -34.760  14.198  -5.947  1.00 20.00     0.074 C 
HETATM    4  C4  UNL     1     -34.091  15.320  -3.586  1.00 20.00     0.057 C 
HETATM    5  S6  UNL     1     -34.566  15.865  -5.262  1.00 20.00    -0.164 SA
ENDROOT
BRANCH   4   6
HETATM    6  C5  UNL     1     -35.217  15.620  -2.604  1.00 20.00     0.100 C 
HETATM    7 BR7  UNL     1     -34.536  16.693  -1.136  1.00 20.00    -0.095 Br
ENDBRANCH   4   6
TORSDOF 1
ENDMDL
MODEL 3
REMARK VINA RESULT:      -3.2     12.071     12.957
REMARK  1 active torsions:
REMARK  status: ('A' for Active; 'I' for Inactive)
REMARK    1  A    between atoms: C4_4  and  C5_5 
ROOT
HETATM    1  C1  UNL     1     -32.907  14.841  -3.702  1.00 20.00     0.011 C 
HETATM    2  C2  UNL     1     -33.195  16.156  -4.412  1.00 20.00     0.016 C 
HETATM    3  C3  UNL     1     -34.243  14.144  -3.521  1.00 20.00     0.074 C 
HETATM    4  C4  UNL     1     -34.341  16.837  -3.666  1.00 20.00     0.057 C 
HETATM    5  S6  UNL     1     -35.424  15.466  -3.140  1.00 20.00    -0.164 SA
ENDROOT
BRANCH   4   6
HETATM    6  C5  UNL     1     -33.873  17.626  -2.449  1.00 20.00     0.100 C 
HETATM    7 BR7  UNL     1     -34.599  16.828  -0.834  1.00 20.00    -0.095 Br
ENDBRANCH   4   6
TORSDOF 1
ENDMDL
MODEL 4
REMARK VINA RESULT:      -3.1     12.117     12.703
REMARK  1 active torsions:
REMARK  status: ('A' for Active; 'I' for Inactive)
REMARK    1  A    between atoms: C4_4  and  C5_5 
ROOT
HETATM    1  C1  UNL     1     -32.933  15.139  -3.654  1.00 20.00     0.011 C 
HETATM    2  C2  UNL     1     -33.407  13.697  -3.752  1.00 20.00     0.016 C 
HETATM    3  C3  UNL     1     -33.985  15.887  -2.854  1.00 20.00     0.074 C 
HETATM    4  C4  UNL     1     -34.865  13.724  -4.206  1.00 20.00     0.057 C 
HETATM    5  S6  UNL     1     -35.573  15.191  -3.385  1.00 20.00    -0.164 SA
ENDROOT
BRANCH   4   6
HETATM    6  C5  UNL     1     -35.016  13.850  -5.717  1.00 20.00     0.100 C 
HETATM    7 BR7  UNL     1     -36.187  15.342  -6.134  1.00 20.00    -0.095 Br
ENDBRANCH   4   6
TORSDOF 1
ENDMDL
MODEL 5
REMARK VINA RESULT:      -3.1     12.592     13.281
REMARK  1 active torsions:
REMARK  status: ('A' for Active; 'I' for Inactive)
REMARK    1  A    between atoms: C4_4  and  C5_5 
ROOT
HETATM    1  C1  UNL     1     -35.100  14.357  -6.018  1.00 20.00     0.011 C 
HETATM    2  C2  UNL     1     -34.440  13.755  -4.786  1.00 20.00     0.016 C 
HETATM    3  C3  UNL     1     -34.195  15.482  -6.488  1.00 20.00     0.074 C 
HETATM    4  C4  UNL     1     -34.073  14.909  -3.854  1.00 20.00     0.057 C 
HETATM    5  S6  UNL     1     -33.574  16.260  -4.973  1.00 20.00    -0.164 SA
ENDROOT
BRANCH   4   6
HETATM    6  C5  UNL     1     -35.236  15.360  -2.979  1.00 20.00     0.100 C 
HETATM    7 BR7  UNL     1     -34.570  16.458  -1.522  1.00 20.00    -0.095 Br
ENDBRANCH   4   6
TORSDOF 1
ENDMDL
MODEL 6
REMARK VINA RESULT:      -3.1     12.489     12.957
REMARK  1 active torsions:
REMARK  status: ('A' for Active; 'I' for Inactive)
REMARK    1  A    between atoms: C4_4  and  C5_5 
ROOT
HETATM    1  C1  UNL     1     -35.936  15.291  -3.293  1.00 20.00     0.011 C 
HETATM    2  C2  UNL     1     -34.502  15.402  -2.797  1.00 20.00     0.016 C 
HETATM    3  C3  UNL     1     -36.042  13.961  -4.016  1.00 20.00     0.074 C 
HETATM    4  C4  UNL     1     -33.584  15.073  -3.972  1.00 20.00     0.057 C 
HETATM    5  S6  UNL     1     -34.464  13.763  -4.888  1.00 20.00    -0.164 SA
ENDROOT
BRANCH   4   6
HETATM    6  C5  UNL     1     -33.334  16.267  -4.885  1.00 20.00     0.100 C 
HETATM    7 BR7  UNL     1     -34.171  15.958  -6.610  1.00 20.00    -0.095 Br
ENDBRANCH   4   6
TORSDOF 1
ENDMDL
MODEL 7
REMARK VINA RESULT:      -3.0     12.628     13.091
REMARK  1 active torsions:
REMARK  status: ('A' for Active; 'I' for Inactive)
REMARK    1  A    between atoms: C4_4  and  C5_5 
ROOT
HETATM    1  C1  UNL     1     -34.393  16.642  -1.142  1.00 20.00     0.011 C 
HETATM    2  C2  UNL     1     -35.143  16.048  -2.325  1.00 20.00     0.016 C 
HETATM    3  C3  UNL     1     -34.224  18.122  -1.435  1.00 20.00     0.074 C 
HETATM    4  C4  UNL     1     -34.441  16.520  -3.596  1.00 20.00     0.057 C 
HETATM    5  S6  UNL     1     -33.904  18.222  -3.217  1.00 20.00    -0.164 SA
ENDROOT
BRANCH   4   6
HETATM    6  C5  UNL     1     -33.234  15.665  -3.963  1.00 20.00     0.100 C 
HETATM    7 BR7  UNL     1     -33.716  13.785  -3.881  1.00 20.00    -0.095 Br
ENDBRANCH   4   6
TORSDOF 1
ENDMDL
MODEL 8
REMARK VINA RESULT:      -3.0     12.598     13.382
REMARK  1 active torsions:
REMARK  status: ('A' for Active; 'I' for Inactive)
REMARK    1  A    between atoms: C4_4  and  C5_5 
ROOT
HETATM    1  C1  UNL     1     -34.170  14.199  -3.408  1.00 20.00     0.011 C 
HETATM    2  C2  UNL     1     -35.339  15.170  -3.339  1.00 20.00     0.016 C 
HETATM    3  C3  UNL     1     -32.934  15.029  -3.706  1.00 20.00     0.074 C 
HETATM    4  C4  UNL     1     -35.271  16.058  -4.581  1.00 20.00     0.057 C 
HETATM    5  S6  UNL     1     -33.486  16.309  -4.866  1.00 20.00    -0.164 SA
ENDROOT
BRANCH   4   6
HETATM    6  C5  UNL     1     -35.908  15.417  -5.807  1.00 20.00     0.100 C 
HETATM    7 BR7  UNL     1     -34.548  15.092  -7.156  1.00 20.00    -0.095 Br
ENDBRANCH   4   6
TORSDOF 1
ENDMDL
MODEL 9
REMARK VINA RESULT:      -3.0     12.015     12.607
REMARK  1 active torsions:
REMARK  status: ('A' for Active; 'I' for Inactive)
REMARK    1  A    between atoms: C4_4  and  C5_5 
ROOT
HETATM    1  C1  UNL     1     -35.919  14.690  -5.352  1.00 20.00     0.011 C 
HETATM    2  C2  UNL     1     -36.369  14.700  -3.899  1.00 20.00     0.016 C 
HETATM    3  C3  UNL     1     -34.765  13.707  -5.441  1.00 20.00     0.074 C 
HETATM    4  C4  UNL     1     -35.122  14.874  -3.034  1.00 20.00     0.057 C 
HETATM    5  S6  UNL     1     -33.825  13.933  -3.907  1.00 20.00    -0.164 SA
ENDROOT
BRANCH   4   6
HETATM    6  C5  UNL     1     -34.698  16.330  -2.887  1.00 20.00     0.100 C 
HETATM    7 BR7  UNL     1     -34.545  16.780  -1.004  1.00 20.00    -0.095 Br
ENDBRANCH   4   6
TORSDOF 1
ENDMDL
