MODEL 1
REMARK VINA RESULT:      -3.9      0.000      0.000
REMARK  1 active torsions:
REMARK  status: ('A' for Active; 'I' for Inactive)
REMARK    1  A    between atoms: C4_4  and  C5_5 
ROOT
HETATM    1  C1  UNL     1     -34.422   6.111   6.466  1.00 20.00     0.011 C 
HETATM    2  C2  UNL     1     -33.312   6.451   5.483  1.00 20.00     0.017 C 
HETATM    3  C3  UNL     1     -35.048   4.816   5.975  1.00 20.00     0.074 C 
HETATM    4  C4  UNL     1     -33.933   6.383   4.091  1.00 20.00     0.061 C 
HETATM    5  S6  UNL     1     -35.070   4.960   4.166  1.00 20.00    -0.163 SA
ENDROOT
BRANCH   4   6
HETATM    6  C5  UNL     1     -32.898   6.213   2.992  1.00 20.00     0.129 C 
HETATM    7 CL7  UNL     1     -32.182   7.780   2.567  1.00 20.00    -0.129 Cl
ENDBRANCH   4   6
TORSDOF 1
ENDMDL
MODEL 2
REMARK VINA RESULT:      -3.6      1.369      1.772
REMARK  1 active torsions:
REMARK  status: ('A' for Active; 'I' for Inactive)
REMARK    1  A    between atoms: C4_4  and  C5_5 
ROOT
HETATM    1  C1  UNL     1     -35.079   4.157   5.209  1.00 20.00     0.011 C 
HETATM    2  C2  UNL     1     -34.824   5.010   3.975  1.00 20.00     0.017 C 
HETATM    3  C3  UNL     1     -35.092   5.109   6.393  1.00 20.00     0.074 C 
HETATM    4  C4  UNL     1     -33.594   5.858   4.285  1.00 20.00     0.061 C 
HETATM    5  S6  UNL     1     -33.787   6.319   6.039  1.00 20.00    -0.163 SA
ENDROOT
BRANCH   4   6
HETATM    6  C5  UNL     1     -33.486   7.084   3.396  1.00 20.00     0.129 C 
HETATM    7 CL7  UNL     1     -31.783   7.500   3.119  1.00 20.00    -0.129 Cl
ENDBRANCH   4   6
TORSDOF 1
ENDMDL
MODEL 3
REMARK VINA RESULT:      -3.4     11.866     12.529
REMARK  1 active torsions:
REMARK  status: ('A' for Active; 'I' for Inactive)
REMARK    1  A    between atoms: C4_4  and  C5_5 
ROOT
HETATM    1  C1  UNL     1     -34.777  13.191  -4.739  1.00 20.00     0.011 C 
HETATM    2  C2  UNL     1     -34.054  13.873  -3.588  1.00 20.00     0.017 C 
HETATM    3  C3  UNL     1     -34.936  14.239  -5.827  1.00 20.00     0.074 C 
HETATM    4  C4  UNL     1     -34.819  15.161  -3.300  1.00 20.00     0.061 C 
HETATM    5  S6  UNL     1     -35.304  15.782  -4.945  1.00 20.00    -0.163 SA
ENDROOT
BRANCH   4   6
HETATM    6  C5  UNL     1     -33.991  16.182  -2.541  1.00 20.00     0.129 C 
HETATM    7 CL7  UNL     1     -34.658  16.437  -0.917  1.00 20.00    -0.129 Cl
ENDBRANCH   4   6
TORSDOF 1
ENDMDL
MODEL 4
REMARK VINA RESULT:      -3.2     11.996     12.408
REMARK  1 active torsions:
REMARK  status: ('A' for Active; 'I' for Inactive)
REMARK    1  A    between atoms: C4_4  and  C5_5 
ROOT
HETATM    1  C1  UNL     1     -34.992  15.973  -2.249  1.00 20.00     0.011 C 
HETATM    2  C2  UNL     1     -35.592  14.993  -3.246  1.00 20.00     0.017 C 
HETATM    3  C3  UNL     1     -33.715  16.501  -2.881  1.00 20.00     0.074 C 
HETATM    4  C4  UNL     1     -34.474  14.027  -3.626  1.00 20.00     0.061 C 
HETATM    5  S6  UNL     1     -32.982  15.070  -3.724  1.00 20.00    -0.163 SA
ENDROOT
BRANCH   4   6
HETATM    6  C5  UNL     1     -34.737  13.307  -4.937  1.00 20.00     0.129 C 
HETATM    7 CL7  UNL     1     -34.685  14.452  -6.293  1.00 20.00    -0.129 Cl
ENDBRANCH   4   6
TORSDOF 1
ENDMDL
MODEL 5
REMARK VINA RESULT:      -3.1     12.250     12.772
REMARK  1 active torsions:
REMARK  status: ('A' for Active; 'I' for Inactive)
REMARK    1  A    between atoms: C4_4  and  C5_5 
ROOT
HETATM    1  C1  UNL     1     -33.714  17.397  -1.311  1.00 20.00     0.011 C 
HETATM    2  C2  UNL     1     -34.721  16.277  -1.527  1.00 20.00     0.017 C 
HETATM    3  C3  UNL     1     -33.695  18.211  -2.594  1.00 20.00     0.074 C 
HETATM    4  C4  UNL     1     -34.346  15.610  -2.848  1.00 20.00     0.061 C 
HETATM    5  S6  UNL     1     -33.838  16.989  -3.928  1.00 20.00    -0.163 SA
ENDROOT
BRANCH   4   6
HETATM    6  C5  UNL     1     -35.491  14.820  -3.455  1.00 20.00     0.129 C 
HETATM    7 CL7  UNL     1     -34.889  13.317  -4.182  1.00 20.00    -0.129 Cl
ENDBRANCH   4   6
TORSDOF 1
ENDMDL
MODEL 6
REMARK VINA RESULT:      -3.1      2.753      3.653
REMARK  1 active torsions:
REMARK  status: ('A' for Active; 'I' for Inactive)
REMARK    1  A    between atoms: C4_4  and  C5_5 
ROOT
HETATM    1  C1  UNL     1     -32.851   6.693   2.662  1.00 20.00     0.011 C 
HETATM    2  C2  UNL     1     -33.762   5.480   2.775  1.00 20.00     0.017 C 
HETATM    3  C3  UNL     1     -32.249   6.908   4.040  1.00 20.00     0.074 C 
HETATM    4  C4  UNL     1     -34.671   5.735   3.973  1.00 20.00     0.061 C 
HETATM    5  S6  UNL     1     -33.592   6.540   5.203  1.00 20.00    -0.163 SA
ENDROOT
BRANCH   4   6
HETATM    6  C5  UNL     1     -35.290   4.462   4.524  1.00 20.00     0.129 C 
HETATM    7 CL7  UNL     1     -35.106   4.397   6.288  1.00 20.00    -0.129 Cl
ENDBRANCH   4   6
TORSDOF 1
ENDMDL
MODEL 7
REMARK VINA RESULT:      -3.1     11.985     12.673
REMARK  1 active torsions:
REMARK  status: ('A' for Active; 'I' for Inactive)
REMARK    1  A    between atoms: C4_4  and  C5_5 
ROOT
HETATM    1  C1  UNL     1     -33.472  13.638  -3.743  1.00 20.00     0.011 C 
HETATM    2  C2  UNL     1     -32.968  15.074  -3.742  1.00 20.00     0.017 C 
HETATM    3  C3  UNL     1     -34.926  13.694  -4.182  1.00 20.00     0.074 C 
HETATM    4  C4  UNL     1     -33.978  15.884  -2.935  1.00 20.00     0.061 C 
HETATM    5  S6  UNL     1     -35.598  15.185  -3.395  1.00 20.00    -0.163 SA
ENDROOT
BRANCH   4   6
HETATM    6  C5  UNL     1     -33.910  17.372  -3.230  1.00 20.00     0.129 C 
HETATM    7 CL7  UNL     1     -33.448  17.648  -4.921  1.00 20.00    -0.129 Cl
ENDBRANCH   4   6
TORSDOF 1
ENDMDL
MODEL 8
REMARK VINA RESULT:      -3.1      9.959     10.372
REMARK  1 active torsions:
REMARK  status: ('A' for Active; 'I' for Inactive)
REMARK    1  A    between atoms: C4_4  and  C5_5 
ROOT
HETATM    1  C1  UNL     1     -40.786   6.160  -0.188  1.00 20.00     0.011 C 
HETATM    2  C2  UNL     1     -41.234   4.732  -0.460  1.00 20.00     0.017 C 
HETATM    3  C3  UNL     1     -41.808   7.065  -0.855  1.00 20.00     0.074 C 
HETATM    4  C4  UNL     1     -41.472   4.635  -1.964  1.00 20.00     0.061 C 
HETATM    5  S6  UNL     1     -42.229   6.232  -2.412  1.00 20.00    -0.163 SA
ENDROOT
BRANCH   4   6
HETATM    6  C5  UNL     1     -42.367   3.469  -2.345  1.00 20.00     0.129 C 
HETATM    7 CL7  UNL     1     -41.480   2.312  -3.358  1.00 20.00    -0.129 Cl
ENDBRANCH   4   6
TORSDOF 1
ENDMDL
MODEL 9
REMARK VINA RESULT:      -3.1     10.095     10.497
REMARK  1 active torsions:
REMARK  status: ('A' for Active; 'I' for Inactive)
REMARK    1  A    between atoms: C4_4  and  C5_5 
ROOT
HETATM    1  C1  UNL     1     -40.809   6.087  -0.405  1.00 20.00     0.011 C 
HETATM    2  C2  UNL     1     -41.381   6.931  -1.535  1.00 20.00     0.017 C 
HETATM    3  C3  UNL     1     -40.670   4.676  -0.951  1.00 20.00     0.074 C 
HETATM    4  C4  UNL     1     -42.611   6.187  -2.048  1.00 20.00     0.061 C 
HETATM    5  S6  UNL     1     -42.137   4.427  -1.990  1.00 20.00    -0.163 SA
ENDROOT
BRANCH   4   6
HETATM    6  C5  UNL     1     -43.012   6.610  -3.450  1.00 20.00     0.129 C 
HETATM    7 CL7  UNL     1     -42.320   8.196  -3.841  1.00 20.00    -0.129 Cl
ENDBRANCH   4   6
TORSDOF 1
ENDMDL
