MODEL 1
REMARK VINA RESULT:      -5.2      0.000      0.000
REMARK  2 active torsions:
REMARK  status: ('A' for Active; 'I' for Inactive)
REMARK    1  A    between atoms: C3_3  and  C7_7 
REMARK    2  A    between atoms: C3_3  and  C10_10 
ROOT
HETATM    1  C1  UNL     1     -32.284   9.854   1.247  1.00 20.00     0.012 C 
HETATM    2  C2  UNL     1     -32.228   8.696   1.562  1.00 20.00    -0.110 C 
HETATM    3  C10 UNL     1     -32.161   7.280   1.940  1.00 20.00     0.171 C 
ENDROOT
BRANCH   3   4
HETATM    4  C3  UNL     1     -32.030   7.083   3.436  1.00 20.00     0.144 C 
HETATM    5  O11 UNL     1     -31.348   7.813   4.154  1.00 20.00    -0.297 OA
BRANCH   4   6
HETATM    6  C7  UNL     1     -32.789   5.930   4.017  1.00 20.00     0.087 C 
HETATM    7  C6  UNL     1     -33.725   5.309   2.974  1.00 20.00     0.046 C 
HETATM    8  C8  UNL     1     -35.093   5.485   3.633  1.00 20.00     0.122 C 
HETATM    9  C4  UNL     1     -35.241   4.557   4.839  1.00 20.00     0.034 C 
HETATM   10  O12 UNL     1     -34.927   6.766   4.283  1.00 20.00    -0.380 OA
HETATM   11  C5  UNL     1     -34.327   5.222   5.871  1.00 20.00     0.035 C 
HETATM   12  C9  UNL     1     -33.774   6.411   5.086  1.00 20.00     0.133 C 
ENDBRANCH   4   6
ENDBRANCH   3   4
TORSDOF 2
ENDMDL
MODEL 2
REMARK VINA RESULT:      -4.9     11.044     11.930
REMARK  2 active torsions:
REMARK  status: ('A' for Active; 'I' for Inactive)
REMARK    1  A    between atoms: C3_3  and  C7_7 
REMARK    2  A    between atoms: C3_3  and  C10_10 
ROOT
HETATM    1  C1  UNL     1     -34.018  18.428   0.949  1.00 20.00     0.012 C 
HETATM    2  C2  UNL     1     -34.327  17.598   0.138  1.00 20.00    -0.110 C 
HETATM    3  C10 UNL     1     -34.708  16.581  -0.849  1.00 20.00     0.171 C 
ENDROOT
BRANCH   3   4
HETATM    4  C3  UNL     1     -34.013  16.774  -2.182  1.00 20.00     0.144 C 
HETATM    5  O11 UNL     1     -33.568  17.858  -2.557  1.00 20.00    -0.297 OA
BRANCH   4   6
HETATM    6  C7  UNL     1     -33.889  15.554  -3.042  1.00 20.00     0.087 C 
HETATM    7  C6  UNL     1     -33.293  15.906  -4.409  1.00 20.00     0.046 C 
HETATM    8  C8  UNL     1     -34.405  15.465  -5.361  1.00 20.00     0.122 C 
HETATM    9  C4  UNL     1     -34.515  13.941  -5.403  1.00 20.00     0.034 C 
HETATM   10  O12 UNL     1     -35.581  15.811  -4.595  1.00 20.00    -0.380 OA
HETATM   11  C5  UNL     1     -35.146  13.626  -4.045  1.00 20.00     0.035 C 
HETATM   12  C9  UNL     1     -35.272  15.016  -3.423  1.00 20.00     0.133 C 
ENDBRANCH   4   6
ENDBRANCH   3   4
TORSDOF 2
ENDMDL
MODEL 3
REMARK VINA RESULT:      -4.9     10.558     11.816
REMARK  2 active torsions:
REMARK  status: ('A' for Active; 'I' for Inactive)
REMARK    1  A    between atoms: C3_3  and  C7_7 
REMARK    2  A    between atoms: C3_3  and  C10_10 
ROOT
HETATM    1  C1  UNL     1     -34.415  15.036  -7.228  1.00 20.00     0.012 C 
HETATM    2  C2  UNL     1     -34.742  14.404  -6.261  1.00 20.00    -0.110 C 
HETATM    3  C10 UNL     1     -35.147  13.629  -5.082  1.00 20.00     0.171 C 
ENDROOT
BRANCH   3   4
HETATM    4  C3  UNL     1     -34.211  13.827  -3.907  1.00 20.00     0.144 C 
HETATM    5  O11 UNL     1     -33.127  13.255  -3.805  1.00 20.00    -0.297 OA
BRANCH   4   6
HETATM    6  C7  UNL     1     -34.678  14.778  -2.847  1.00 20.00     0.087 C 
HETATM    7  C6  UNL     1     -36.024  15.404  -3.228  1.00 20.00     0.046 C 
HETATM    8  C8  UNL     1     -35.681  16.893  -3.262  1.00 20.00     0.122 C 
HETATM    9  C4  UNL     1     -35.428  17.427  -1.852  1.00 20.00     0.034 C 
HETATM   10  O12 UNL     1     -34.338  16.858  -3.795  1.00 20.00    -0.380 OA
HETATM   11  C5  UNL     1     -34.064  16.816  -1.517  1.00 20.00     0.035 C 
HETATM   12  C9  UNL     1     -33.763  16.004  -2.775  1.00 20.00     0.133 C 
ENDBRANCH   4   6
ENDBRANCH   3   4
TORSDOF 2
ENDMDL
MODEL 4
REMARK VINA RESULT:      -4.8     10.967     12.947
REMARK  2 active torsions:
REMARK  status: ('A' for Active; 'I' for Inactive)
REMARK    1  A    between atoms: C3_3  and  C7_7 
REMARK    2  A    between atoms: C3_3  and  C10_10 
ROOT
HETATM    1  C1  UNL     1     -34.643  16.053  -1.969  1.00 20.00     0.012 C 
HETATM    2  C2  UNL     1     -34.100  15.403  -2.821  1.00 20.00    -0.110 C 
HETATM    3  C10 UNL     1     -33.431  14.611  -3.859  1.00 20.00     0.171 C 
ENDROOT
BRANCH   3   4
HETATM    4  C3  UNL     1     -34.406  13.807  -4.696  1.00 20.00     0.144 C 
HETATM    5  O11 UNL     1     -34.939  12.772  -4.300  1.00 20.00    -0.297 OA
BRANCH   4   6
HETATM    6  C7  UNL     1     -34.698  14.346  -6.063  1.00 20.00     0.087 C 
HETATM    7  C6  UNL     1     -33.939  15.655  -6.310  1.00 20.00     0.046 C 
HETATM    8  C8  UNL     1     -35.081  16.636  -6.570  1.00 20.00     0.122 C 
HETATM    9  C4  UNL     1     -35.747  16.354  -7.917  1.00 20.00     0.034 C 
HETATM   10  O12 UNL     1     -36.085  16.148  -5.652  1.00 20.00    -0.380 OA
HETATM   11  C5  UNL     1     -36.524  15.067  -7.628  1.00 20.00     0.035 C 
HETATM   12  C9  UNL     1     -36.158  14.796  -6.169  1.00 20.00     0.133 C 
ENDBRANCH   4   6
ENDBRANCH   3   4
TORSDOF 2
ENDMDL
MODEL 5
REMARK VINA RESULT:      -4.8     11.480     12.818
REMARK  2 active torsions:
REMARK  status: ('A' for Active; 'I' for Inactive)
REMARK    1  A    between atoms: C3_3  and  C7_7 
REMARK    2  A    between atoms: C3_3  and  C10_10 
ROOT
HETATM    1  C1  UNL     1     -34.779  17.498   0.385  1.00 20.00     0.012 C 
HETATM    2  C2  UNL     1     -34.690  16.834  -0.611  1.00 20.00    -0.110 C 
HETATM    3  C10 UNL     1     -34.585  16.016  -1.826  1.00 20.00     0.171 C 
ENDROOT
BRANCH   3   4
HETATM    4  C3  UNL     1     -33.948  16.767  -2.978  1.00 20.00     0.144 C 
HETATM    5  O11 UNL     1     -33.634  17.954  -2.916  1.00 20.00    -0.297 OA
BRANCH   4   6
HETATM    6  C7  UNL     1     -33.712  15.975  -4.227  1.00 20.00     0.087 C 
HETATM    7  C6  UNL     1     -33.359  16.895  -5.401  1.00 20.00     0.046 C 
HETATM    8  C8  UNL     1     -34.481  16.586  -6.392  1.00 20.00     0.122 C 
HETATM    9  C4  UNL     1     -34.319  15.185  -6.980  1.00 20.00     0.034 C 
HETATM   10  O12 UNL     1     -35.599  16.389  -5.497  1.00 20.00    -0.380 OA
HETATM   11  C5  UNL     1     -34.714  14.293  -5.799  1.00 20.00     0.035 C 
HETATM   12  C9  UNL     1     -35.011  15.323  -4.710  1.00 20.00     0.133 C 
ENDBRANCH   4   6
ENDBRANCH   3   4
TORSDOF 2
ENDMDL
MODEL 6
REMARK VINA RESULT:      -4.7     11.377     12.292
REMARK  2 active torsions:
REMARK  status: ('A' for Active; 'I' for Inactive)
REMARK    1  A    between atoms: C3_3  and  C7_7 
REMARK    2  A    between atoms: C3_3  and  C10_10 
ROOT
HETATM    1  C1  UNL     1     -34.789  14.915  -7.639  1.00 20.00     0.012 C 
HETATM    2  C2  UNL     1     -34.549  14.784  -6.469  1.00 20.00    -0.110 C 
HETATM    3  C10 UNL     1     -34.259  14.619  -5.040  1.00 20.00     0.171 C 
ENDROOT
BRANCH   3   4
HETATM    4  C3  UNL     1     -33.510  15.800  -4.458  1.00 20.00     0.144 C 
HETATM    5  O11 UNL     1     -32.848  16.580  -5.142  1.00 20.00    -0.297 OA
BRANCH   4   6
HETATM    6  C7  UNL     1     -33.616  15.980  -2.975  1.00 20.00     0.087 C 
HETATM    7  C6  UNL     1     -34.959  15.457  -2.455  1.00 20.00     0.046 C 
HETATM    8  C8  UNL     1     -35.566  16.713  -1.829  1.00 20.00     0.122 C 
HETATM    9  C4  UNL     1     -34.819  17.102  -0.553  1.00 20.00     0.034 C 
HETATM   10  O12 UNL     1     -35.107  17.732  -2.746  1.00 20.00    -0.380 OA
HETATM   11  C5  UNL     1     -33.503  17.654  -1.107  1.00 20.00     0.035 C 
HETATM   12  C9  UNL     1     -33.688  17.467  -2.612  1.00 20.00     0.133 C 
ENDBRANCH   4   6
ENDBRANCH   3   4
TORSDOF 2
ENDMDL
MODEL 7
REMARK VINA RESULT:      -4.6     10.874     12.570
REMARK  2 active torsions:
REMARK  status: ('A' for Active; 'I' for Inactive)
REMARK    1  A    between atoms: C3_3  and  C7_7 
REMARK    2  A    between atoms: C3_3  and  C10_10 
ROOT
HETATM    1  C1  UNL     1     -34.738  16.602  -0.903  1.00 20.00     0.012 C 
HETATM    2  C2  UNL     1     -34.157  16.254  -1.894  1.00 20.00    -0.110 C 
HETATM    3  C10 UNL     1     -33.443  15.834  -3.106  1.00 20.00     0.171 C 
ENDROOT
BRANCH   3   4
HETATM    4  C3  UNL     1     -34.048  14.596  -3.737  1.00 20.00     0.144 C 
HETATM    5  O11 UNL     1     -33.661  13.456  -3.487  1.00 20.00    -0.297 OA
BRANCH   4   6
HETATM    6  C7  UNL     1     -35.167  14.832  -4.705  1.00 20.00     0.087 C 
HETATM    7  C6  UNL     1     -35.189  13.751  -5.791  1.00 20.00     0.046 C 
HETATM    8  C8  UNL     1     -35.005  14.579  -7.063  1.00 20.00     0.122 C 
HETATM    9  C4  UNL     1     -36.255  15.406  -7.361  1.00 20.00     0.034 C 
HETATM   10  O12 UNL     1     -34.094  15.602  -6.601  1.00 20.00    -0.380 OA
HETATM   11  C5  UNL     1     -36.184  16.495  -6.287  1.00 20.00     0.035 C 
HETATM   12  C9  UNL     1     -34.921  16.104  -5.522  1.00 20.00     0.133 C 
ENDBRANCH   4   6
ENDBRANCH   3   4
TORSDOF 2
ENDMDL
MODEL 8
REMARK VINA RESULT:      -4.6     10.769     12.044
REMARK  2 active torsions:
REMARK  status: ('A' for Active; 'I' for Inactive)
REMARK    1  A    between atoms: C3_3  and  C7_7 
REMARK    2  A    between atoms: C3_3  and  C10_10 
ROOT
HETATM    1  C1  UNL     1     -33.734  18.476   0.730  1.00 20.00     0.012 C 
HETATM    2  C2  UNL     1     -34.050  17.671  -0.103  1.00 20.00    -0.110 C 
HETATM    3  C10 UNL     1     -34.439  16.683  -1.117  1.00 20.00     0.171 C 
ENDROOT
BRANCH   3   4
HETATM    4  C3  UNL     1     -34.171  17.163  -2.529  1.00 20.00     0.144 C 
HETATM    5  O11 UNL     1     -33.555  18.197  -2.783  1.00 20.00    -0.297 OA
BRANCH   4   6
HETATM    6  C7  UNL     1     -34.703  16.296  -3.629  1.00 20.00     0.087 C 
HETATM    7  C6  UNL     1     -35.208  14.958  -3.078  1.00 20.00     0.046 C 
HETATM    8  C8  UNL     1     -34.326  13.957  -3.823  1.00 20.00     0.122 C 
HETATM    9  C4  UNL     1     -34.702  13.895  -5.304  1.00 20.00     0.034 C 
HETATM   10  O12 UNL     1     -33.073  14.676  -3.881  1.00 20.00    -0.380 OA
HETATM   11  C5  UNL     1     -34.153  15.223  -5.831  1.00 20.00     0.035 C 
HETATM   12  C9  UNL     1     -33.574  15.853  -4.565  1.00 20.00     0.133 C 
ENDBRANCH   4   6
ENDBRANCH   3   4
TORSDOF 2
ENDMDL
MODEL 9
REMARK VINA RESULT:      -4.4     10.955     12.500
REMARK  2 active torsions:
REMARK  status: ('A' for Active; 'I' for Inactive)
REMARK    1  A    between atoms: C3_3  and  C7_7 
REMARK    2  A    between atoms: C3_3  and  C10_10 
ROOT
HETATM    1  C1  UNL     1     -37.595  15.156  -7.707  1.00 20.00     0.012 C 
HETATM    2  C2  UNL     1     -36.491  14.808  -7.388  1.00 20.00    -0.110 C 
HETATM    3  C10 UNL     1     -35.139  14.383  -7.004  1.00 20.00     0.171 C 
ENDROOT
BRANCH   3   4
HETATM    4  C3  UNL     1     -35.042  14.007  -5.539  1.00 20.00     0.144 C 
HETATM    5  O11 UNL     1     -34.899  12.850  -5.149  1.00 20.00    -0.297 OA
BRANCH   4   6
HETATM    6  C7  UNL     1     -35.129  15.141  -4.563  1.00 20.00     0.087 C 
HETATM    7  C6  UNL     1     -34.337  16.355  -5.061  1.00 20.00     0.046 C 
HETATM    8  C8  UNL     1     -33.313  16.544  -3.942  1.00 20.00     0.122 C 
HETATM    9  C4  UNL     1     -33.986  17.058  -2.669  1.00 20.00     0.034 C 
HETATM   10  O12 UNL     1     -33.037  15.172  -3.580  1.00 20.00    -0.380 OA
HETATM   11  C5  UNL     1     -34.736  15.817  -2.178  1.00 20.00     0.035 C 
HETATM   12  C9  UNL     1     -34.400  14.793  -3.261  1.00 20.00     0.133 C 
ENDBRANCH   4   6
ENDBRANCH   3   4
TORSDOF 2
ENDMDL
