MODEL 1
REMARK VINA RESULT:      -3.5      0.000      0.000
REMARK  1 active torsions:
REMARK  status: ('A' for Active; 'I' for Inactive)
REMARK    1  A    between atoms: C4_4  and  C5_5 
ROOT
HETATM    1  C1  UNL     1     -33.608   6.353   5.245  1.00 20.00     0.016 C 
HETATM    2  C2  UNL     1     -34.384   6.070   6.520  1.00 20.00     0.074 C 
HETATM    3  C3  UNL     1     -34.826   4.386   4.475  1.00 20.00     0.079 C 
HETATM    4  C4  UNL     1     -34.453   5.816   4.091  1.00 20.00     0.005 C 
HETATM    5  S6  UNL     1     -35.127   4.436   6.264  1.00 20.00    -0.169 SA
ENDROOT
BRANCH   4   6
HETATM    6  C5  UNL     1     -33.725   5.875   2.780  1.00 20.00     0.090 C 
HETATM    7 BR7  UNL     1     -32.226   7.094   2.934  1.00 20.00    -0.096 Br
ENDBRANCH   4   6
TORSDOF 1
ENDMDL
MODEL 2
REMARK VINA RESULT:      -3.3     12.145     12.608
REMARK  1 active torsions:
REMARK  status: ('A' for Active; 'I' for Inactive)
REMARK    1  A    between atoms: C4_4  and  C5_5 
ROOT
HETATM    1  C1  UNL     1     -33.270  15.022  -3.592  1.00 20.00     0.016 C 
HETATM    2  C2  UNL     1     -33.792  13.695  -4.113  1.00 20.00     0.074 C 
HETATM    3  C3  UNL     1     -35.651  15.450  -3.288  1.00 20.00     0.079 C 
HETATM    4  C4  UNL     1     -34.299  15.531  -2.584  1.00 20.00     0.005 C 
HETATM    5  S6  UNL     1     -35.584  13.926  -4.273  1.00 20.00    -0.169 SA
ENDROOT
BRANCH   4   6
HETATM    6  C5  UNL     1     -33.993  16.924  -2.115  1.00 20.00     0.090 C 
HETATM    7 BR7  UNL     1     -34.694  17.166  -0.326  1.00 20.00    -0.096 Br
ENDBRANCH   4   6
TORSDOF 1
ENDMDL
MODEL 3
REMARK VINA RESULT:      -3.3      0.941      1.780
REMARK  1 active torsions:
REMARK  status: ('A' for Active; 'I' for Inactive)
REMARK    1  A    between atoms: C4_4  and  C5_5 
ROOT
HETATM    1  C1  UNL     1     -34.948   5.190   3.705  1.00 20.00     0.016 C 
HETATM    2  C2  UNL     1     -35.259   4.312   4.905  1.00 20.00     0.074 C 
HETATM    3  C3  UNL     1     -33.694   6.444   5.379  1.00 20.00     0.079 C 
HETATM    4  C4  UNL     1     -33.593   5.841   3.980  1.00 20.00     0.005 C 
HETATM    5  S6  UNL     1     -34.673   5.255   6.340  1.00 20.00    -0.169 SA
ENDROOT
BRANCH   4   6
HETATM    6  C5  UNL     1     -33.241   6.873   2.948  1.00 20.00     0.090 C 
HETATM    7 BR7  UNL     1     -31.495   7.610   3.349  1.00 20.00    -0.096 Br
ENDBRANCH   4   6
TORSDOF 1
ENDMDL
MODEL 4
REMARK VINA RESULT:      -3.3     12.341     13.005
REMARK  1 active torsions:
REMARK  status: ('A' for Active; 'I' for Inactive)
REMARK    1  A    between atoms: C4_4  and  C5_5 
ROOT
HETATM    1  C1  UNL     1     -33.700  13.952  -3.761  1.00 20.00     0.016 C 
HETATM    2  C2  UNL     1     -34.514  13.159  -4.768  1.00 20.00     0.074 C 
HETATM    3  C3  UNL     1     -34.694  15.833  -4.952  1.00 20.00     0.079 C 
HETATM    4  C4  UNL     1     -34.431  15.278  -3.555  1.00 20.00     0.005 C 
HETATM    5  S6  UNL     1     -35.094  14.385  -5.972  1.00 20.00    -0.169 SA
ENDROOT
BRANCH   4   6
HETATM    6  C5  UNL     1     -33.641  16.235  -2.709  1.00 20.00     0.090 C 
HETATM    7 BR7  UNL     1     -34.640  16.642  -1.100  1.00 20.00    -0.096 Br
ENDBRANCH   4   6
TORSDOF 1
ENDMDL
MODEL 5
REMARK VINA RESULT:      -3.2     12.286     12.653
REMARK  1 active torsions:
REMARK  status: ('A' for Active; 'I' for Inactive)
REMARK    1  A    between atoms: C4_4  and  C5_5 
ROOT
HETATM    1  C1  UNL     1     -35.739  15.375  -3.091  1.00 20.00     0.016 C 
HETATM    2  C2  UNL     1     -36.272  14.382  -4.110  1.00 20.00     0.074 C 
HETATM    3  C3  UNL     1     -33.605  14.429  -3.793  1.00 20.00     0.079 C 
HETATM    4  C4  UNL     1     -34.328  15.749  -3.542  1.00 20.00     0.005 C 
HETATM    5  S6  UNL     1     -34.852  13.335  -4.530  1.00 20.00    -0.169 SA
ENDROOT
BRANCH   4   6
HETATM    6  C5  UNL     1     -33.616  16.597  -2.528  1.00 20.00     0.090 C 
HETATM    7 BR7  UNL     1     -34.682  16.696  -0.913  1.00 20.00    -0.096 Br
ENDBRANCH   4   6
TORSDOF 1
ENDMDL
MODEL 6
REMARK VINA RESULT:      -3.2     12.512     13.341
REMARK  1 active torsions:
REMARK  status: ('A' for Active; 'I' for Inactive)
REMARK    1  A    between atoms: C4_4  and  C5_5 
ROOT
HETATM    1  C1  UNL     1     -34.190  15.912  -2.560  1.00 20.00     0.016 C 
HETATM    2  C2  UNL     1     -34.056  17.424  -2.595  1.00 20.00     0.074 C 
HETATM    3  C3  UNL     1     -33.393  16.130  -4.854  1.00 20.00     0.079 C 
HETATM    4  C4  UNL     1     -33.171  15.359  -3.555  1.00 20.00     0.005 C 
HETATM    5  S6  UNL     1     -33.772  17.830  -4.340  1.00 20.00    -0.169 SA
ENDROOT
BRANCH   4   6
HETATM    6  C5  UNL     1     -33.314  13.878  -3.749  1.00 20.00     0.090 C 
HETATM    7 BR7  UNL     1     -35.109  13.483  -4.364  1.00 20.00    -0.096 Br
ENDBRANCH   4   6
TORSDOF 1
ENDMDL
MODEL 7
REMARK VINA RESULT:      -3.2     12.618     13.092
REMARK  1 active torsions:
REMARK  status: ('A' for Active; 'I' for Inactive)
REMARK    1  A    between atoms: C4_4  and  C5_5 
ROOT
HETATM    1  C1  UNL     1     -34.695  16.617  -0.901  1.00 20.00     0.016 C 
HETATM    2  C2  UNL     1     -33.887  17.775  -0.341  1.00 20.00     0.074 C 
HETATM    3  C3  UNL     1     -33.957  17.573  -3.019  1.00 20.00     0.079 C 
HETATM    4  C4  UNL     1     -34.072  16.260  -2.249  1.00 20.00     0.005 C 
HETATM    5  S6  UNL     1     -33.504  18.816  -1.776  1.00 20.00    -0.169 SA
ENDROOT
BRANCH   4   6
HETATM    6  C5  UNL     1     -34.881  15.239  -2.995  1.00 20.00     0.090 C 
HETATM    7 BR7  UNL     1     -33.689  13.947  -3.808  1.00 20.00    -0.096 Br
ENDBRANCH   4   6
TORSDOF 1
ENDMDL
MODEL 8
REMARK VINA RESULT:      -3.0     12.643     13.353
REMARK  1 active torsions:
REMARK  status: ('A' for Active; 'I' for Inactive)
REMARK    1  A    between atoms: C4_4  and  C5_5 
ROOT
HETATM    1  C1  UNL     1     -33.704  17.038  -3.559  1.00 20.00     0.016 C 
HETATM    2  C2  UNL     1     -33.267  16.377  -4.856  1.00 20.00     0.074 C 
HETATM    3  C3  UNL     1     -34.976  14.970  -3.334  1.00 20.00     0.079 C 
HETATM    4  C4  UNL     1     -34.034  15.909  -2.584  1.00 20.00     0.005 C 
HETATM    5  S6  UNL     1     -34.359  14.941  -5.041  1.00 20.00    -0.169 SA
ENDROOT
BRANCH   4   6
HETATM    6  C5  UNL     1     -34.646  16.421  -1.312  1.00 20.00     0.090 C 
HETATM    7 BR7  UNL     1     -33.615  17.929  -0.667  1.00 20.00    -0.096 Br
ENDBRANCH   4   6
TORSDOF 1
ENDMDL
MODEL 9
REMARK VINA RESULT:      -3.0     12.432     12.736
REMARK  1 active torsions:
REMARK  status: ('A' for Active; 'I' for Inactive)
REMARK    1  A    between atoms: C4_4  and  C5_5 
ROOT
HETATM    1  C1  UNL     1     -35.746  15.067  -3.541  1.00 20.00     0.016 C 
HETATM    2  C2  UNL     1     -35.496  16.045  -2.406  1.00 20.00     0.074 C 
HETATM    3  C3  UNL     1     -33.311  15.119  -3.665  1.00 20.00     0.079 C 
HETATM    4  C4  UNL     1     -34.510  14.174  -3.628  1.00 20.00     0.005 C 
HETATM    5  S6  UNL     1     -33.738  16.473  -2.534  1.00 20.00    -0.169 SA
ENDROOT
BRANCH   4   6
HETATM    6  C5  UNL     1     -34.548  13.268  -4.825  1.00 20.00     0.090 C 
HETATM    7 BR7  UNL     1     -35.063  14.293  -6.387  1.00 20.00    -0.096 Br
ENDBRANCH   4   6
TORSDOF 1
ENDMDL
