MODEL 1
REMARK VINA RESULT:      -4.1      0.000      0.000
REMARK  4 active torsions:
REMARK  status: ('A' for Active; 'I' for Inactive)
REMARK    1  A    between atoms: C5_5  and  C7_7 
REMARK    2  A    between atoms: C5_5  and  O9_9 
REMARK    3  A    between atoms: C6_6  and  C7_7 
REMARK    4  A    between atoms: C8_8  and  O9_9 
ROOT
HETATM    1  C5  UNL     1     -33.322   6.222   3.118  1.00 20.00     0.174 C 
ENDROOT
BRANCH   1   2
HETATM    2  C7  UNL     1     -32.138   7.152   2.821  1.00 20.00     0.019 C 
HETATM    3  C1  UNL     1     -31.413   7.521   4.116  1.00 20.00     0.013 C 
BRANCH   2   4
HETATM    4  C6  UNL     1     -32.540   8.389   2.002  1.00 20.00     0.121 C 
HETATM    5 CL10 UNL     1     -31.486   8.686   0.597  1.00 20.00    -0.130 Cl
ENDBRANCH   2   4
ENDBRANCH   1   2
BRANCH   1   6
HETATM    6  O9  UNL     1     -33.124   5.521   4.339  1.00 20.00    -0.381 OA
BRANCH   6   7
HETATM    7  C8  UNL     1     -34.334   5.401   5.074  1.00 20.00     0.050 C 
HETATM    8  C2  UNL     1     -34.301   6.401   6.229  1.00 20.00     0.045 C 
HETATM    9  C3  UNL     1     -35.484   5.716   4.122  1.00 20.00     0.045 C 
HETATM   10  C4  UNL     1     -34.446   3.970   5.597  1.00 20.00     0.045 C 
ENDBRANCH   6   7
ENDBRANCH   1   6
TORSDOF 4
ENDMDL
MODEL 2
REMARK VINA RESULT:      -4.1      0.027      1.368
REMARK  4 active torsions:
REMARK  status: ('A' for Active; 'I' for Inactive)
REMARK    1  A    between atoms: C5_5  and  C7_7 
REMARK    2  A    between atoms: C5_5  and  O9_9 
REMARK    3  A    between atoms: C6_6  and  C7_7 
REMARK    4  A    between atoms: C8_8  and  O9_9 
ROOT
HETATM    1  C5  UNL     1     -33.334   6.242   3.135  1.00 20.00     0.174 C 
ENDROOT
BRANCH   1   2
HETATM    2  C7  UNL     1     -32.143   7.160   2.830  1.00 20.00     0.019 C 
HETATM    3  C1  UNL     1     -31.406   7.523   4.120  1.00 20.00     0.013 C 
BRANCH   2   4
HETATM    4  C6  UNL     1     -32.537   8.400   2.012  1.00 20.00     0.121 C 
HETATM    5 CL10 UNL     1     -31.499   8.677   0.591  1.00 20.00    -0.130 Cl
ENDBRANCH   2   4
ENDBRANCH   1   2
BRANCH   1   6
HETATM    6  O9  UNL     1     -33.131   5.533   4.350  1.00 20.00    -0.381 OA
BRANCH   6   7
HETATM    7  C8  UNL     1     -34.341   5.392   5.081  1.00 20.00     0.050 C 
HETATM    8  C2  UNL     1     -34.415   3.968   5.629  1.00 20.00     0.045 C 
HETATM    9  C3  UNL     1     -34.310   6.406   6.222  1.00 20.00     0.045 C 
HETATM   10  C4  UNL     1     -35.513   5.676   4.143  1.00 20.00     0.045 C 
ENDBRANCH   6   7
ENDBRANCH   1   6
TORSDOF 4
ENDMDL
MODEL 3
REMARK VINA RESULT:      -4.1      0.026      1.381
REMARK  4 active torsions:
REMARK  status: ('A' for Active; 'I' for Inactive)
REMARK    1  A    between atoms: C5_5  and  C7_7 
REMARK    2  A    between atoms: C5_5  and  O9_9 
REMARK    3  A    between atoms: C6_6  and  C7_7 
REMARK    4  A    between atoms: C8_8  and  O9_9 
ROOT
HETATM    1  C5  UNL     1     -33.339   6.250   3.124  1.00 20.00     0.174 C 
ENDROOT
BRANCH   1   2
HETATM    2  C7  UNL     1     -32.140   7.158   2.825  1.00 20.00     0.019 C 
HETATM    3  C1  UNL     1     -31.404   7.513   4.118  1.00 20.00     0.013 C 
BRANCH   2   4
HETATM    4  C6  UNL     1     -32.521   8.404   2.009  1.00 20.00     0.121 C 
HETATM    5 CL10 UNL     1     -31.483   8.671   0.587  1.00 20.00    -0.130 Cl
ENDBRANCH   2   4
ENDBRANCH   1   2
BRANCH   1   6
HETATM    6  O9  UNL     1     -33.138   5.523   4.329  1.00 20.00    -0.381 OA
BRANCH   6   7
HETATM    7  C8  UNL     1     -34.344   5.398   5.071  1.00 20.00     0.050 C 
HETATM    8  C2  UNL     1     -35.519   5.682   4.137  1.00 20.00     0.045 C 
HETATM    9  C3  UNL     1     -34.412   3.968   5.602  1.00 20.00     0.045 C 
HETATM   10  C4  UNL     1     -34.311   6.398   6.225  1.00 20.00     0.045 C 
ENDBRANCH   6   7
ENDBRANCH   1   6
TORSDOF 4
ENDMDL
MODEL 4
REMARK VINA RESULT:      -3.8     11.167     12.289
REMARK  4 active torsions:
REMARK  status: ('A' for Active; 'I' for Inactive)
REMARK    1  A    between atoms: C5_5  and  C7_7 
REMARK    2  A    between atoms: C5_5  and  O9_9 
REMARK    3  A    between atoms: C6_6  and  C7_7 
REMARK    4  A    between atoms: C8_8  and  O9_9 
ROOT
HETATM    1  C5  UNL     1     -34.066  17.010  -2.603  1.00 20.00     0.174 C 
ENDROOT
BRANCH   1   2
HETATM    2  C7  UNL     1     -33.667  17.373  -1.166  1.00 20.00     0.019 C 
HETATM    3  C1  UNL     1     -34.806  17.044  -0.199  1.00 20.00     0.013 C 
BRANCH   2   4
HETATM    4  C6  UNL     1     -33.184  18.826  -1.028  1.00 20.00     0.121 C 
HETATM    5 CL10 UNL     1     -31.891  19.035   0.179  1.00 20.00    -0.130 Cl
ENDBRANCH   2   4
ENDBRANCH   1   2
BRANCH   1   6
HETATM    6  O9  UNL     1     -33.323  15.891  -3.069  1.00 20.00    -0.381 OA
BRANCH   6   7
HETATM    7  C8  UNL     1     -34.106  15.061  -3.915  1.00 20.00     0.050 C 
HETATM    8  C2  UNL     1     -33.549  13.640  -3.852  1.00 20.00     0.045 C 
HETATM    9  C3  UNL     1     -35.542  15.100  -3.398  1.00 20.00     0.045 C 
HETATM   10  C4  UNL     1     -34.033  15.611  -5.339  1.00 20.00     0.045 C 
ENDBRANCH   6   7
ENDBRANCH   1   6
TORSDOF 4
ENDMDL
MODEL 5
REMARK VINA RESULT:      -3.7     11.040     12.031
REMARK  4 active torsions:
REMARK  status: ('A' for Active; 'I' for Inactive)
REMARK    1  A    between atoms: C5_5  and  C7_7 
REMARK    2  A    between atoms: C5_5  and  O9_9 
REMARK    3  A    between atoms: C6_6  and  C7_7 
REMARK    4  A    between atoms: C8_8  and  O9_9 
ROOT
HETATM    1  C5  UNL     1     -35.650  14.860  -3.523  1.00 20.00     0.174 C 
ENDROOT
BRANCH   1   2
HETATM    2  C7  UNL     1     -34.980  13.786  -4.389  1.00 20.00     0.019 C 
HETATM    3  C1  UNL     1     -33.547  13.537  -3.916  1.00 20.00     0.013 C 
BRANCH   2   4
HETATM    4  C6  UNL     1     -35.054  14.097  -5.893  1.00 20.00     0.121 C 
HETATM    5 CL10 UNL     1     -34.116  15.534  -6.369  1.00 20.00    -0.130 Cl
ENDBRANCH   2   4
ENDBRANCH   1   2
BRANCH   1   6
HETATM    6  O9  UNL     1     -34.813  15.230  -2.435  1.00 20.00    -0.381 OA
BRANCH   6   7
HETATM    7  C8  UNL     1     -34.881  16.625  -2.175  1.00 20.00     0.050 C 
HETATM    8  C2  UNL     1     -34.674  16.851  -0.678  1.00 20.00     0.045 C 
HETATM    9  C3  UNL     1     -33.771  17.298  -2.979  1.00 20.00     0.045 C 
HETATM   10  C4  UNL     1     -36.251  17.137  -2.618  1.00 20.00     0.045 C 
ENDBRANCH   6   7
ENDBRANCH   1   6
TORSDOF 4
ENDMDL
MODEL 6
REMARK VINA RESULT:      -3.7      2.662      4.533
REMARK  4 active torsions:
REMARK  status: ('A' for Active; 'I' for Inactive)
REMARK    1  A    between atoms: C5_5  and  C7_7 
REMARK    2  A    between atoms: C5_5  and  O9_9 
REMARK    3  A    between atoms: C6_6  and  C7_7 
REMARK    4  A    between atoms: C8_8  and  O9_9 
ROOT
HETATM    1  C5  UNL     1     -33.845   6.118   4.317  1.00 20.00     0.174 C 
ENDROOT
BRANCH   1   2
HETATM    2  C7  UNL     1     -34.468   6.276   5.710  1.00 20.00     0.019 C 
HETATM    3  C1  UNL     1     -33.535   7.073   6.623  1.00 20.00     0.013 C 
BRANCH   2   4
HETATM    4  C6  UNL     1     -34.891   4.935   6.332  1.00 20.00     0.121 C 
HETATM    5 CL10 UNL     1     -34.979   3.600   5.157  1.00 20.00    -0.130 Cl
ENDBRANCH   2   4
ENDBRANCH   1   2
BRANCH   1   6
HETATM    6  O9  UNL     1     -33.452   7.378   3.790  1.00 20.00    -0.381 OA
BRANCH   6   7
HETATM    7  C8  UNL     1     -32.208   7.294   3.109  1.00 20.00     0.050 C 
HETATM    8  C2  UNL     1     -31.099   7.722   4.068  1.00 20.00     0.045 C 
HETATM    9  C3  UNL     1     -32.016   5.841   2.679  1.00 20.00     0.045 C 
HETATM   10  C4  UNL     1     -32.257   8.212   1.889  1.00 20.00     0.045 C 
ENDBRANCH   6   7
ENDBRANCH   1   6
TORSDOF 4
ENDMDL
MODEL 7
REMARK VINA RESULT:      -3.6     11.323     12.222
REMARK  4 active torsions:
REMARK  status: ('A' for Active; 'I' for Inactive)
REMARK    1  A    between atoms: C5_5  and  C7_7 
REMARK    2  A    between atoms: C5_5  and  O9_9 
REMARK    3  A    between atoms: C6_6  and  C7_7 
REMARK    4  A    between atoms: C8_8  and  O9_9 
ROOT
HETATM    1  C5  UNL     1     -33.678  16.120  -3.041  1.00 20.00     0.174 C 
ENDROOT
BRANCH   1   2
HETATM    2  C7  UNL     1     -33.647  17.028  -1.804  1.00 20.00     0.019 C 
HETATM    3  C1  UNL     1     -34.732  16.611  -0.810  1.00 20.00     0.013 C 
BRANCH   2   4
HETATM    4  C6  UNL     1     -33.720  18.523  -2.157  1.00 20.00     0.121 C 
HETATM    5 CL10 UNL     1     -33.658  18.846  -3.907  1.00 20.00    -0.130 Cl
ENDBRANCH   2   4
ENDBRANCH   1   2
BRANCH   1   6
HETATM    6  O9  UNL     1     -34.524  14.999  -2.827  1.00 20.00    -0.381 OA
BRANCH   6   7
HETATM    7  C8  UNL     1     -35.287  14.692  -3.986  1.00 20.00     0.050 C 
HETATM    8  C2  UNL     1     -35.045  13.230  -4.354  1.00 20.00     0.045 C 
HETATM    9  C3  UNL     1     -36.757  14.924  -3.643  1.00 20.00     0.045 C 
HETATM   10  C4  UNL     1     -34.847  15.619  -5.118  1.00 20.00     0.045 C 
ENDBRANCH   6   7
ENDBRANCH   1   6
TORSDOF 4
ENDMDL
MODEL 8
REMARK VINA RESULT:      -3.6     11.356     12.414
REMARK  4 active torsions:
REMARK  status: ('A' for Active; 'I' for Inactive)
REMARK    1  A    between atoms: C5_5  and  C7_7 
REMARK    2  A    between atoms: C5_5  and  O9_9 
REMARK    3  A    between atoms: C6_6  and  C7_7 
REMARK    4  A    between atoms: C8_8  and  O9_9 
ROOT
HETATM    1  C5  UNL     1     -34.967  16.562  -3.201  1.00 20.00     0.174 C 
ENDROOT
BRANCH   1   2
HETATM    2  C7  UNL     1     -34.018  17.007  -2.081  1.00 20.00     0.019 C 
HETATM    3  C1  UNL     1     -34.614  16.672  -0.713  1.00 20.00     0.013 C 
BRANCH   2   4
HETATM    4  C6  UNL     1     -33.609  18.485  -2.195  1.00 20.00     0.121 C 
HETATM    5 CL10 UNL     1     -32.731  19.093  -0.769  1.00 20.00    -0.130 Cl
ENDBRANCH   2   4
ENDBRANCH   1   2
BRANCH   1   6
HETATM    6  O9  UNL     1     -34.242  16.011  -4.293  1.00 20.00    -0.381 OA
BRANCH   6   7
HETATM    7  C8  UNL     1     -34.637  14.672  -4.559  1.00 20.00     0.050 C 
HETATM    8  C2  UNL     1     -34.642  14.460  -6.072  1.00 20.00     0.045 C 
HETATM    9  C3  UNL     1     -33.620  13.751  -3.890  1.00 20.00     0.045 C 
HETATM   10  C4  UNL     1     -36.030  14.450  -3.974  1.00 20.00     0.045 C 
ENDBRANCH   6   7
ENDBRANCH   1   6
TORSDOF 4
ENDMDL
MODEL 9
REMARK VINA RESULT:      -3.6     11.718     12.648
REMARK  4 active torsions:
REMARK  status: ('A' for Active; 'I' for Inactive)
REMARK    1  A    between atoms: C5_5  and  C7_7 
REMARK    2  A    between atoms: C5_5  and  O9_9 
REMARK    3  A    between atoms: C6_6  and  C7_7 
REMARK    4  A    between atoms: C8_8  and  O9_9 
ROOT
HETATM    1  C5  UNL     1     -33.395  15.439  -3.465  1.00 20.00     0.174 C 
ENDROOT
BRANCH   1   2
HETATM    2  C7  UNL     1     -33.626  16.600  -2.488  1.00 20.00     0.019 C 
HETATM    3  C1  UNL     1     -34.739  16.250  -1.499  1.00 20.00     0.013 C 
BRANCH   2   4
HETATM    4  C6  UNL     1     -33.875  17.940  -3.199  1.00 20.00     0.121 C 
HETATM    5 CL10 UNL     1     -35.596  18.390  -3.288  1.00 20.00    -0.130 Cl
ENDBRANCH   2   4
ENDBRANCH   1   2
BRANCH   1   6
HETATM    6  O9  UNL     1     -33.845  15.777  -4.770  1.00 20.00    -0.381 OA
BRANCH   6   7
HETATM    7  C8  UNL     1     -34.721  14.787  -5.292  1.00 20.00     0.050 C 
HETATM    8  C2  UNL     1     -36.154  15.159  -4.916  1.00 20.00     0.045 C 
HETATM    9  C3  UNL     1     -34.549  14.774  -6.809  1.00 20.00     0.045 C 
HETATM   10  C4  UNL     1     -34.336  13.433  -4.697  1.00 20.00     0.045 C 
ENDBRANCH   6   7
ENDBRANCH   1   6
TORSDOF 4
ENDMDL
