MODEL 1
REMARK VINA RESULT:      -4.2      0.000      0.000
REMARK  0 active torsions:
REMARK  status: ('A' for Active; 'I' for Inactive)
ROOT
HETATM    1  C1  UNL     1     -37.205  14.513  -3.960  1.00 20.00     0.087 C 
HETATM    2  C2  UNL     1     -33.488  15.280  -3.465  1.00 20.00     0.029 C 
HETATM    3  C3  UNL     1     -35.001  15.407  -3.288  1.00 20.00     0.045 C 
HETATM    4  C4  UNL     1     -33.078  13.817  -3.535  1.00 20.00     0.167 C 
HETATM    5  C5  UNL     1     -35.196  13.131  -4.356  1.00 20.00     0.208 C 
HETATM    6  C6  UNL     1     -35.775  14.549  -4.298  1.00 20.00     0.146 C 
HETATM    7  N7  UNL     1     -38.334  14.483  -3.692  1.00 20.00    -0.195 NA
HETATM    8  O8  UNL     1     -33.783  13.145  -4.576  1.00 20.00    -0.388 OA
HETATM    9 CL9  UNL     1     -35.666  15.293  -5.934  1.00 20.00    -0.101 Cl
ENDROOT
TORSDOF 0
ENDMDL
MODEL 2
REMARK VINA RESULT:      -4.1      1.824      2.236
REMARK  0 active torsions:
REMARK  status: ('A' for Active; 'I' for Inactive)
ROOT
HETATM    1  C1  UNL     1     -36.835  14.498  -4.047  1.00 20.00     0.087 C 
HETATM    2  C2  UNL     1     -33.971  15.977  -6.113  1.00 20.00     0.029 C 
HETATM    3  C3  UNL     1     -35.394  15.539  -5.765  1.00 20.00     0.045 C 
HETATM    4  C4  UNL     1     -33.292  16.600  -4.903  1.00 20.00     0.167 C 
HETATM    5  C5  UNL     1     -34.631  15.386  -3.366  1.00 20.00     0.208 C 
HETATM    6  C6  UNL     1     -35.444  14.708  -4.476  1.00 20.00     0.146 C 
HETATM    7  N7  UNL     1     -37.932  14.333  -3.708  1.00 20.00    -0.195 NA
HETATM    8  O8  UNL     1     -33.305  15.699  -3.798  1.00 20.00    -0.388 OA
HETATM    9 CL9  UNL     1     -34.762  13.071  -4.783  1.00 20.00    -0.101 Cl
ENDROOT
TORSDOF 0
ENDMDL
MODEL 3
REMARK VINA RESULT:      -4.1      2.806      3.375
REMARK  0 active torsions:
REMARK  status: ('A' for Active; 'I' for Inactive)
ROOT
HETATM    1  C1  UNL     1     -34.549  13.712  -4.282  1.00 20.00     0.087 C 
HETATM    2  C2  UNL     1     -33.425  17.291  -5.042  1.00 20.00     0.029 C 
HETATM    3  C3  UNL     1     -33.881  15.857  -5.312  1.00 20.00     0.045 C 
HETATM    4  C4  UNL     1     -34.188  17.882  -3.866  1.00 20.00     0.167 C 
HETATM    5  C5  UNL     1     -34.593  15.756  -2.895  1.00 20.00     0.208 C 
HETATM    6  C6  UNL     1     -33.895  15.006  -4.035  1.00 20.00     0.146 C 
HETATM    7  N7  UNL     1     -35.066  12.691  -4.476  1.00 20.00    -0.195 NA
HETATM    8  O8  UNL     1     -34.044  17.063  -2.708  1.00 20.00    -0.388 OA
HETATM    9 CL9  UNL     1     -32.206  14.627  -3.540  1.00 20.00    -0.101 Cl
ENDROOT
TORSDOF 0
ENDMDL
MODEL 4
REMARK VINA RESULT:      -4.0      2.572      3.254
REMARK  0 active torsions:
REMARK  status: ('A' for Active; 'I' for Inactive)
ROOT
HETATM    1  C1  UNL     1     -34.414  15.809  -2.336  1.00 20.00     0.087 C 
HETATM    2  C2  UNL     1     -34.765  13.283  -5.190  1.00 20.00     0.029 C 
HETATM    3  C3  UNL     1     -34.903  13.866  -3.784  1.00 20.00     0.045 C 
HETATM    4  C4  UNL     1     -35.000  14.358  -6.240  1.00 20.00     0.167 C 
HETATM    5  C5  UNL     1     -34.323  16.106  -4.787  1.00 20.00     0.208 C 
HETATM    6  C6  UNL     1     -34.085  15.152  -3.610  1.00 20.00     0.146 C 
HETATM    7  N7  UNL     1     -34.675  16.326  -1.330  1.00 20.00    -0.195 NA
HETATM    8  O8  UNL     1     -34.114  15.457  -6.043  1.00 20.00    -0.388 OA
HETATM    9 CL9  UNL     1     -32.332  14.750  -3.528  1.00 20.00    -0.101 Cl
ENDROOT
TORSDOF 0
ENDMDL
MODEL 5
REMARK VINA RESULT:      -3.9     11.432     12.176
REMARK  0 active torsions:
REMARK  status: ('A' for Active; 'I' for Inactive)
ROOT
HETATM    1  C1  UNL     1     -41.681   3.188  -2.689  1.00 20.00     0.087 C 
HETATM    2  C2  UNL     1     -40.811   5.984  -0.224  1.00 20.00     0.029 C 
HETATM    3  C3  UNL     1     -40.670   4.666  -0.985  1.00 20.00     0.045 C 
HETATM    4  C4  UNL     1     -41.310   7.084  -1.148  1.00 20.00     0.167 C 
HETATM    5  C5  UNL     1     -42.395   5.551  -2.597  1.00 20.00     0.208 C 
HETATM    6  C6  UNL     1     -41.928   4.330  -1.796  1.00 20.00     0.146 C 
HETATM    7  N7  UNL     1     -41.486   2.287  -3.393  1.00 20.00    -0.195 NA
HETATM    8  O8  UNL     1     -42.537   6.706  -1.766  1.00 20.00    -0.388 OA
HETATM    9 CL9  UNL     1     -43.249   3.821  -0.684  1.00 20.00    -0.101 Cl
ENDROOT
TORSDOF 0
ENDMDL
MODEL 6
REMARK VINA RESULT:      -3.9      2.636      3.220
REMARK  0 active torsions:
REMARK  status: ('A' for Active; 'I' for Inactive)
ROOT
HETATM    1  C1  UNL     1     -34.740  13.844  -4.835  1.00 20.00     0.087 C 
HETATM    2  C2  UNL     1     -35.422  17.580  -5.317  1.00 20.00     0.029 C 
HETATM    3  C3  UNL     1     -35.718  16.105  -5.046  1.00 20.00     0.045 C 
HETATM    4  C4  UNL     1     -34.132  18.001  -4.631  1.00 20.00     0.167 C 
HETATM    5  C5  UNL     1     -33.243  15.802  -4.668  1.00 20.00     0.208 C 
HETATM    6  C6  UNL     1     -34.500  15.212  -5.318  1.00 20.00     0.146 C 
HETATM    7  N7  UNL     1     -34.930  12.765  -4.453  1.00 20.00    -0.195 NA
HETATM    8  O8  UNL     1     -33.049  17.169  -5.038  1.00 20.00    -0.388 OA
HETATM    9 CL9  UNL     1     -34.232  15.076  -7.093  1.00 20.00    -0.101 Cl
ENDROOT
TORSDOF 0
ENDMDL
MODEL 7
REMARK VINA RESULT:      -3.9      2.685      3.374
REMARK  0 active torsions:
REMARK  status: ('A' for Active; 'I' for Inactive)
ROOT
HETATM    1  C1  UNL     1     -33.872  17.209  -3.990  1.00 20.00     0.087 C 
HETATM    2  C2  UNL     1     -36.171  14.149  -4.047  1.00 20.00     0.029 C 
HETATM    3  C3  UNL     1     -35.718  15.590  -4.280  1.00 20.00     0.045 C 
HETATM    4  C4  UNL     1     -35.032  13.179  -4.321  1.00 20.00     0.167 C 
HETATM    5  C5  UNL     1     -33.367  14.796  -3.829  1.00 20.00     0.208 C 
HETATM    6  C6  UNL     1     -34.395  15.902  -3.566  1.00 20.00     0.146 C 
HETATM    7  N7  UNL     1     -33.459  18.241  -4.325  1.00 20.00    -0.195 NA
HETATM    8  O8  UNL     1     -33.893  13.502  -3.527  1.00 20.00    -0.388 OA
HETATM    9 CL9  UNL     1     -34.678  16.027  -1.793  1.00 20.00    -0.101 Cl
ENDROOT
TORSDOF 0
ENDMDL
MODEL 8
REMARK VINA RESULT:      -3.9      2.167      2.512
REMARK  0 active torsions:
REMARK  status: ('A' for Active; 'I' for Inactive)
ROOT
HETATM    1  C1  UNL     1     -36.823  14.876  -3.584  1.00 20.00     0.087 C 
HETATM    2  C2  UNL     1     -33.005  15.084  -3.745  1.00 20.00     0.029 C 
HETATM    3  C3  UNL     1     -34.388  14.450  -3.607  1.00 20.00     0.045 C 
HETATM    4  C4  UNL     1     -33.013  16.156  -4.824  1.00 20.00     0.167 C 
HETATM    5  C5  UNL     1     -35.331  16.587  -4.557  1.00 20.00     0.208 C 
HETATM    6  C6  UNL     1     -35.497  15.504  -3.485  1.00 20.00     0.146 C 
HETATM    7  N7  UNL     1     -37.870  14.380  -3.662  1.00 20.00    -0.195 NA
HETATM    8  O8  UNL     1     -34.011  17.137  -4.553  1.00 20.00    -0.388 OA
HETATM    9 CL9  UNL     1     -35.427  16.273  -1.860  1.00 20.00    -0.101 Cl
ENDROOT
TORSDOF 0
ENDMDL
MODEL 9
REMARK VINA RESULT:      -3.9      2.591      3.035
REMARK  0 active torsions:
REMARK  status: ('A' for Active; 'I' for Inactive)
ROOT
HETATM    1  C1  UNL     1     -34.925  13.745  -4.378  1.00 20.00     0.087 C 
HETATM    2  C2  UNL     1     -34.155  16.851  -2.278  1.00 20.00     0.029 C 
HETATM    3  C3  UNL     1     -34.177  15.376  -2.678  1.00 20.00     0.045 C 
HETATM    4  C4  UNL     1     -33.913  17.731  -3.495  1.00 20.00     0.167 C 
HETATM    5  C5  UNL     1     -34.833  16.136  -4.991  1.00 20.00     0.208 C 
HETATM    6  C6  UNL     1     -35.099  15.117  -3.878  1.00 20.00     0.146 C 
HETATM    7  N7  UNL     1     -34.787  12.662  -4.774  1.00 20.00    -0.195 NA
HETATM    8  O8  UNL     1     -34.889  17.479  -4.503  1.00 20.00    -0.388 OA
HETATM    9 CL9  UNL     1     -36.818  15.247  -3.362  1.00 20.00    -0.101 Cl
ENDROOT
TORSDOF 0
ENDMDL
