MODEL 1
REMARK VINA RESULT:      -5.0      0.000      0.000
REMARK  0 active torsions:
REMARK  status: ('A' for Active; 'I' for Inactive)
ROOT
HETATM    1  C1  UNL     1     -32.129   7.061   3.303  1.00 20.00     0.088 C 
HETATM    2  C2  UNL     1     -34.059   5.892   4.144  1.00 20.00    -0.046 C 
HETATM    3  C3  UNL     1     -33.193   6.138   3.151  1.00 20.00     0.098 C 
HETATM    4  C4  UNL     1     -35.197   4.917   4.008  1.00 20.00     0.039 C 
HETATM    5  C5  UNL     1     -33.957   6.544   5.494  1.00 20.00     0.202 C 
HETATM    6  C6  UNL     1     -35.205   3.962   5.201  1.00 20.00     0.030 C 
HETATM    7  C7  UNL     1     -35.098   4.728   6.517  1.00 20.00     0.168 C 
HETATM    8  N8  UNL     1     -31.255   7.816   3.420  1.00 20.00    -0.192 NA
HETATM    9  O9  UNL     1     -33.927   5.550   6.522  1.00 20.00    -0.387 OA
ENDROOT
TORSDOF 0
ENDMDL
MODEL 2
REMARK VINA RESULT:      -4.1     12.190     13.112
REMARK  0 active torsions:
REMARK  status: ('A' for Active; 'I' for Inactive)
ROOT
HETATM    1  C1  UNL     1     -34.333  13.523  -4.175  1.00 20.00     0.088 C 
HETATM    2  C2  UNL     1     -34.510  15.510  -2.826  1.00 20.00    -0.046 C 
HETATM    3  C3  UNL     1     -33.764  14.534  -3.362  1.00 20.00     0.098 C 
HETATM    4  C4  UNL     1     -33.931  16.596  -1.960  1.00 20.00     0.039 C 
HETATM    5  C5  UNL     1     -35.989  15.628  -3.064  1.00 20.00     0.202 C 
HETATM    6  C6  UNL     1     -34.410  17.961  -2.452  1.00 20.00     0.030 C 
HETATM    7  C7  UNL     1     -35.922  17.969  -2.658  1.00 20.00     0.168 C 
HETATM    8  N8  UNL     1     -34.792  12.691  -4.841  1.00 20.00    -0.192 NA
HETATM    9  O9  UNL     1     -36.307  16.931  -3.564  1.00 20.00    -0.387 OA
ENDROOT
TORSDOF 0
ENDMDL
MODEL 3
REMARK VINA RESULT:      -4.1     11.922     12.947
REMARK  0 active torsions:
REMARK  status: ('A' for Active; 'I' for Inactive)
ROOT
HETATM    1  C1  UNL     1     -37.812  14.902  -3.984  1.00 20.00     0.088 C 
HETATM    2  C2  UNL     1     -35.436  15.038  -4.355  1.00 20.00    -0.046 C 
HETATM    3  C3  UNL     1     -36.619  15.643  -4.170  1.00 20.00     0.098 C 
HETATM    4  C4  UNL     1     -34.155  15.802  -4.555  1.00 20.00     0.039 C 
HETATM    5  C5  UNL     1     -35.276  13.544  -4.350  1.00 20.00     0.202 C 
HETATM    6  C6  UNL     1     -33.078  15.259  -3.615  1.00 20.00     0.030 C 
HETATM    7  C7  UNL     1     -33.001  13.737  -3.692  1.00 20.00     0.168 C 
HETATM    8  N8  UNL     1     -38.794  14.302  -3.831  1.00 20.00    -0.192 NA
HETATM    9  O9  UNL     1     -34.276  13.158  -3.403  1.00 20.00    -0.387 OA
ENDROOT
TORSDOF 0
ENDMDL
MODEL 4
REMARK VINA RESULT:      -4.1      1.619      2.173
REMARK  0 active torsions:
REMARK  status: ('A' for Active; 'I' for Inactive)
ROOT
HETATM    1  C1  UNL     1     -32.103   7.827   2.490  1.00 20.00     0.088 C 
HETATM    2  C2  UNL     1     -33.093   6.230   3.996  1.00 20.00    -0.046 C 
HETATM    3  C3  UNL     1     -32.275   7.270   3.782  1.00 20.00     0.098 C 
HETATM    4  C4  UNL     1     -33.294   5.620   5.357  1.00 20.00     0.039 C 
HETATM    5  C5  UNL     1     -33.908   5.595   2.905  1.00 20.00     0.202 C 
HETATM    6  C6  UNL     1     -34.788   5.483   5.647  1.00 20.00     0.030 C 
HETATM    7  C7  UNL     1     -35.515   4.827   4.477  1.00 20.00     0.168 C 
HETATM    8  N8  UNL     1     -31.957   8.289   1.435  1.00 20.00    -0.192 NA
HETATM    9  O9  UNL     1     -35.290   5.565   3.273  1.00 20.00    -0.387 OA
ENDROOT
TORSDOF 0
ENDMDL
MODEL 5
REMARK VINA RESULT:      -4.0     12.010     12.677
REMARK  0 active torsions:
REMARK  status: ('A' for Active; 'I' for Inactive)
ROOT
HETATM    1  C1  UNL     1     -35.031  17.363  -0.786  1.00 20.00     0.088 C 
HETATM    2  C2  UNL     1     -34.505  15.944  -2.660  1.00 20.00    -0.046 C 
HETATM    3  C3  UNL     1     -34.128  16.570  -1.535  1.00 20.00     0.098 C 
HETATM    4  C4  UNL     1     -33.566  15.096  -3.474  1.00 20.00     0.039 C 
HETATM    5  C5  UNL     1     -35.908  16.008  -3.195  1.00 20.00     0.202 C 
HETATM    6  C6  UNL     1     -34.216  13.746  -3.773  1.00 20.00     0.030 C 
HETATM    7  C7  UNL     1     -35.633  13.928  -4.312  1.00 20.00     0.168 C 
HETATM    8  N8  UNL     1     -35.766  18.014  -0.167  1.00 20.00    -0.192 NA
HETATM    9  O9  UNL     1     -36.422  14.687  -3.391  1.00 20.00    -0.387 OA
ENDROOT
TORSDOF 0
ENDMDL
MODEL 6
REMARK VINA RESULT:      -3.9     13.287     14.813
REMARK  0 active torsions:
REMARK  status: ('A' for Active; 'I' for Inactive)
ROOT
HETATM    1  C1  UNL     1     -34.832  13.576  -5.110  1.00 20.00     0.088 C 
HETATM    2  C2  UNL     1     -34.254  15.685  -6.120  1.00 20.00    -0.046 C 
HETATM    3  C3  UNL     1     -34.954  14.541  -6.141  1.00 20.00     0.098 C 
HETATM    4  C4  UNL     1     -34.366  16.726  -7.201  1.00 20.00     0.039 C 
HETATM    5  C5  UNL     1     -33.319  16.048  -5.002  1.00 20.00     0.202 C 
HETATM    6  C6  UNL     1     -34.593  18.101  -6.574  1.00 20.00     0.030 C 
HETATM    7  C7  UNL     1     -33.590  18.365  -5.454  1.00 20.00     0.168 C 
HETATM    8  N8  UNL     1     -34.737  12.781  -4.270  1.00 20.00    -0.192 NA
HETATM    9  O9  UNL     1     -33.659  17.331  -4.469  1.00 20.00    -0.387 OA
ENDROOT
TORSDOF 0
ENDMDL
MODEL 7
REMARK VINA RESULT:      -3.9     12.324     13.319
REMARK  0 active torsions:
REMARK  status: ('A' for Active; 'I' for Inactive)
ROOT
HETATM    1  C1  UNL     1     -33.865  17.526  -2.118  1.00 20.00     0.088 C 
HETATM    2  C2  UNL     1     -33.972  15.444  -3.324  1.00 20.00    -0.046 C 
HETATM    3  C3  UNL     1     -34.151  16.140  -2.192  1.00 20.00     0.098 C 
HETATM    4  C4  UNL     1     -34.268  13.972  -3.430  1.00 20.00     0.039 C 
HETATM    5  C5  UNL     1     -33.489  16.074  -4.600  1.00 20.00     0.202 C 
HETATM    6  C6  UNL     1     -35.132  13.706  -4.662  1.00 20.00     0.030 C 
HETATM    7  C7  UNL     1     -34.549  14.389  -5.897  1.00 20.00     0.168 C 
HETATM    8  N8  UNL     1     -33.633  18.661  -2.049  1.00 20.00    -0.192 NA
HETATM    9  O9  UNL     1     -34.400  15.793  -5.666  1.00 20.00    -0.387 OA
ENDROOT
TORSDOF 0
ENDMDL
MODEL 8
REMARK VINA RESULT:      -3.9     12.286     13.309
REMARK  0 active torsions:
REMARK  status: ('A' for Active; 'I' for Inactive)
ROOT
HETATM    1  C1  UNL     1     -34.144  13.745  -4.537  1.00 20.00     0.088 C 
HETATM    2  C2  UNL     1     -36.152  14.967  -5.062  1.00 20.00    -0.046 C 
HETATM    3  C3  UNL     1     -34.965  14.470  -5.437  1.00 20.00     0.098 C 
HETATM    4  C4  UNL     1     -37.042  15.740  -5.998  1.00 20.00     0.039 C 
HETATM    5  C5  UNL     1     -36.718  14.774  -3.684  1.00 20.00     0.202 C 
HETATM    6  C6  UNL     1     -38.462  15.177  -5.944  1.00 20.00     0.030 C 
HETATM    7  C7  UNL     1     -38.936  15.024  -4.501  1.00 20.00     0.168 C 
HETATM    8  N8  UNL     1     -33.467  13.151  -3.806  1.00 20.00    -0.192 NA
HETATM    9  O9  UNL     1     -38.027  14.203  -3.762  1.00 20.00    -0.387 OA
ENDROOT
TORSDOF 0
ENDMDL
MODEL 9
REMARK VINA RESULT:      -3.8     12.657     13.525
REMARK  0 active torsions:
REMARK  status: ('A' for Active; 'I' for Inactive)
ROOT
HETATM    1  C1  UNL     1     -34.355  14.857  -4.353  1.00 20.00     0.088 C 
HETATM    2  C2  UNL     1     -34.510  16.335  -2.457  1.00 20.00    -0.046 C 
HETATM    3  C3  UNL     1     -34.387  15.097  -2.956  1.00 20.00     0.098 C 
HETATM    4  C4  UNL     1     -34.546  16.616  -0.979  1.00 20.00     0.039 C 
HETATM    5  C5  UNL     1     -34.592  17.559  -3.325  1.00 20.00     0.202 C 
HETATM    6  C6  UNL     1     -33.556  17.730  -0.640  1.00 20.00     0.030 C 
HETATM    7  C7  UNL     1     -33.728  18.921  -1.579  1.00 20.00     0.168 C 
HETATM    8  N8  UNL     1     -34.328  14.653  -5.495  1.00 20.00    -0.192 NA
HETATM    9  O9  UNL     1     -33.591  18.505  -2.941  1.00 20.00    -0.387 OA
ENDROOT
TORSDOF 0
ENDMDL
