MODEL 1
REMARK VINA RESULT:      -4.1      0.000      0.000
REMARK  4 active torsions:
REMARK  status: ('A' for Active; 'I' for Inactive)
REMARK    1  A    between atoms: C4_4  and  C6_6 
REMARK    2  A    between atoms: C4_4  and  O8_8 
REMARK    3  A    between atoms: C5_5  and  C6_6 
REMARK    4  A    between atoms: C7_7  and  O8_8 
ROOT
HETATM    1  C4  UNL     1     -33.908   6.801   3.980  1.00 20.00     0.173 C 
ENDROOT
BRANCH   1   2
HETATM    2  C6  UNL     1     -32.884   6.698   2.841  1.00 20.00     0.019 C 
HETATM    3  C1  UNL     1     -32.081   5.402   2.963  1.00 20.00     0.013 C 
BRANCH   2   4
HETATM    4  C5  UNL     1     -31.981   7.938   2.736  1.00 20.00     0.121 C 
HETATM    5 CL9  UNL     1     -32.061   8.744   1.151  1.00 20.00    -0.130 Cl
ENDBRANCH   2   4
ENDBRANCH   1   2
BRANCH   1   6
HETATM    6  O8  UNL     1     -34.726   5.640   4.034  1.00 20.00    -0.386 OA
BRANCH   6   7
HETATM    7  C7  UNL     1     -35.044   5.289   5.374  1.00 20.00     0.113 C 
HETATM    8  C2  UNL     1     -34.807   3.799   5.570  1.00 20.00     0.039 C 
HETATM    9  C3  UNL     1     -34.202   6.126   6.325  1.00 20.00     0.039 C 
ENDBRANCH   6   7
ENDBRANCH   1   6
TORSDOF 4
ENDMDL
MODEL 2
REMARK VINA RESULT:      -4.0      2.796      4.679
REMARK  4 active torsions:
REMARK  status: ('A' for Active; 'I' for Inactive)
REMARK    1  A    between atoms: C4_4  and  C6_6 
REMARK    2  A    between atoms: C4_4  and  O8_8 
REMARK    3  A    between atoms: C5_5  and  C6_6 
REMARK    4  A    between atoms: C7_7  and  O8_8 
ROOT
HETATM    1  C4  UNL     1     -33.017   6.162   3.866  1.00 20.00     0.173 C 
ENDROOT
BRANCH   1   2
HETATM    2  C6  UNL     1     -34.295   6.218   4.712  1.00 20.00     0.019 C 
HETATM    3  C1  UNL     1     -33.952   6.495   6.176  1.00 20.00     0.013 C 
BRANCH   2   4
HETATM    4  C5  UNL     1     -35.179   4.971   4.544  1.00 20.00     0.121 C 
HETATM    5 CL9  UNL     1     -35.094   3.847   5.922  1.00 20.00    -0.130 Cl
ENDBRANCH   2   4
ENDBRANCH   1   2
BRANCH   1   6
HETATM    6  O8  UNL     1     -33.141   6.968   2.702  1.00 20.00    -0.386 OA
BRANCH   6   7
HETATM    7  C7  UNL     1     -31.949   7.698   2.444  1.00 20.00     0.113 C 
HETATM    8  C2  UNL     1     -32.302   8.997   1.735  1.00 20.00     0.039 C 
HETATM    9  C3  UNL     1     -31.220   7.948   3.755  1.00 20.00     0.039 C 
ENDBRANCH   6   7
ENDBRANCH   1   6
TORSDOF 4
ENDMDL
MODEL 3
REMARK VINA RESULT:      -3.9      2.424      4.279
REMARK  4 active torsions:
REMARK  status: ('A' for Active; 'I' for Inactive)
REMARK    1  A    between atoms: C4_4  and  C6_6 
REMARK    2  A    between atoms: C4_4  and  O8_8 
REMARK    3  A    between atoms: C5_5  and  C6_6 
REMARK    4  A    between atoms: C7_7  and  O8_8 
ROOT
HETATM    1  C4  UNL     1     -33.731   6.743   4.071  1.00 20.00     0.173 C 
ENDROOT
BRANCH   1   2
HETATM    2  C6  UNL     1     -34.211   5.490   4.817  1.00 20.00     0.019 C 
HETATM    3  C1  UNL     1     -35.488   4.946   4.176  1.00 20.00     0.013 C 
BRANCH   2   4
HETATM    4  C5  UNL     1     -34.367   5.718   6.330  1.00 20.00     0.121 C 
HETATM    5 CL9  UNL     1     -33.644   7.242   6.898  1.00 20.00    -0.130 Cl
ENDBRANCH   2   4
ENDBRANCH   1   2
BRANCH   1   6
HETATM    6  O8  UNL     1     -33.009   6.391   2.898  1.00 20.00    -0.386 OA
BRANCH   6   7
HETATM    7  C7  UNL     1     -31.880   7.233   2.710  1.00 20.00     0.113 C 
HETATM    8  C2  UNL     1     -32.274   8.409   1.827  1.00 20.00     0.039 C 
HETATM    9  C3  UNL     1     -31.363   7.691   4.065  1.00 20.00     0.039 C 
ENDBRANCH   6   7
ENDBRANCH   1   6
TORSDOF 4
ENDMDL
MODEL 4
REMARK VINA RESULT:      -3.9      2.770      4.673
REMARK  4 active torsions:
REMARK  status: ('A' for Active; 'I' for Inactive)
REMARK    1  A    between atoms: C4_4  and  C6_6 
REMARK    2  A    between atoms: C4_4  and  O8_8 
REMARK    3  A    between atoms: C5_5  and  C6_6 
REMARK    4  A    between atoms: C7_7  and  O8_8 
ROOT
HETATM    1  C4  UNL     1     -32.898   6.094   3.824  1.00 20.00     0.173 C 
ENDROOT
BRANCH   1   2
HETATM    2  C6  UNL     1     -34.200   6.218   4.627  1.00 20.00     0.019 C 
HETATM    3  C1  UNL     1     -33.894   6.519   6.094  1.00 20.00     0.013 C 
BRANCH   2   4
HETATM    4  C5  UNL     1     -35.124   5.000   4.459  1.00 20.00     0.121 C 
HETATM    5 CL9  UNL     1     -35.007   3.829   5.795  1.00 20.00    -0.130 Cl
ENDBRANCH   2   4
ENDBRANCH   1   2
BRANCH   1   6
HETATM    6  O8  UNL     1     -32.987   6.806   2.597  1.00 20.00    -0.386 OA
BRANCH   6   7
HETATM    7  C7  UNL     1     -32.298   8.048   2.664  1.00 20.00     0.113 C 
HETATM    8  C2  UNL     1     -31.141   7.925   3.644  1.00 20.00     0.039 C 
HETATM    9  C3  UNL     1     -31.823   8.432   1.271  1.00 20.00     0.039 C 
ENDBRANCH   6   7
ENDBRANCH   1   6
TORSDOF 4
ENDMDL
MODEL 5
REMARK VINA RESULT:      -3.7      2.883      4.784
REMARK  4 active torsions:
REMARK  status: ('A' for Active; 'I' for Inactive)
REMARK    1  A    between atoms: C4_4  and  C6_6 
REMARK    2  A    between atoms: C4_4  and  O8_8 
REMARK    3  A    between atoms: C5_5  and  C6_6 
REMARK    4  A    between atoms: C7_7  and  O8_8 
ROOT
HETATM    1  C4  UNL     1     -32.315   6.927   3.487  1.00 20.00     0.173 C 
ENDROOT
BRANCH   1   2
HETATM    2  C6  UNL     1     -33.315   5.900   4.035  1.00 20.00     0.019 C 
HETATM    3  C1  UNL     1     -34.353   5.547   2.969  1.00 20.00     0.013 C 
BRANCH   2   4
HETATM    4  C5  UNL     1     -33.963   6.343   5.357  1.00 20.00     0.121 C 
HETATM    5 CL9  UNL     1     -34.816   5.031   6.206  1.00 20.00    -0.130 Cl
ENDBRANCH   2   4
ENDBRANCH   1   2
BRANCH   1   6
HETATM    6  O8  UNL     1     -32.804   7.528   2.295  1.00 20.00    -0.386 OA
BRANCH   6   7
HETATM    7  C7  UNL     1     -31.997   8.628   1.897  1.00 20.00     0.113 C 
HETATM    8  C2  UNL     1     -31.535   8.415   0.463  1.00 20.00     0.039 C 
HETATM    9  C3  UNL     1     -32.793   9.915   2.050  1.00 20.00     0.039 C 
ENDBRANCH   6   7
ENDBRANCH   1   6
TORSDOF 4
ENDMDL
MODEL 6
REMARK VINA RESULT:      -3.6     11.580     12.312
REMARK  4 active torsions:
REMARK  status: ('A' for Active; 'I' for Inactive)
REMARK    1  A    between atoms: C4_4  and  C6_6 
REMARK    2  A    between atoms: C4_4  and  O8_8 
REMARK    3  A    between atoms: C5_5  and  C6_6 
REMARK    4  A    between atoms: C7_7  and  O8_8 
ROOT
HETATM    1  C4  UNL     1     -34.243  14.912  -3.017  1.00 20.00     0.173 C 
ENDROOT
BRANCH   1   2
HETATM    2  C6  UNL     1     -33.809  16.264  -2.434  1.00 20.00     0.019 C 
HETATM    3  C1  UNL     1     -34.605  16.577  -1.167  1.00 20.00     0.013 C 
BRANCH   2   4
HETATM    4  C5  UNL     1     -33.872  17.406  -3.462  1.00 20.00     0.121 C 
HETATM    5 CL9  UNL     1     -33.288  16.942  -5.079  1.00 20.00    -0.130 Cl
ENDBRANCH   2   4
ENDBRANCH   1   2
BRANCH   1   6
HETATM    6  O8  UNL     1     -35.638  14.899  -3.285  1.00 20.00    -0.386 OA
BRANCH   6   7
HETATM    7  C7  UNL     1     -35.943  14.107  -4.425  1.00 20.00     0.113 C 
HETATM    8  C2  UNL     1     -36.364  15.017  -5.568  1.00 20.00     0.039 C 
HETATM    9  C3  UNL     1     -34.729  13.264  -4.789  1.00 20.00     0.039 C 
ENDBRANCH   6   7
ENDBRANCH   1   6
TORSDOF 4
ENDMDL
MODEL 7
REMARK VINA RESULT:      -3.5     11.448     13.416
REMARK  4 active torsions:
REMARK  status: ('A' for Active; 'I' for Inactive)
REMARK    1  A    between atoms: C4_4  and  C6_6 
REMARK    2  A    between atoms: C4_4  and  O8_8 
REMARK    3  A    between atoms: C5_5  and  C6_6 
REMARK    4  A    between atoms: C7_7  and  O8_8 
ROOT
HETATM    1  C4  UNL     1     -33.264  16.121  -4.645  1.00 20.00     0.173 C 
ENDROOT
BRANCH   1   2
HETATM    2  C6  UNL     1     -33.540  15.253  -3.410  1.00 20.00     0.019 C 
HETATM    3  C1  UNL     1     -33.480  13.770  -3.777  1.00 20.00     0.013 C 
BRANCH   2   4
HETATM    4  C5  UNL     1     -34.851  15.627  -2.697  1.00 20.00     0.121 C 
HETATM    5 CL9  UNL     1     -34.605  16.377  -1.101  1.00 20.00    -0.130 Cl
ENDBRANCH   2   4
ENDBRANCH   1   2
BRANCH   1   6
HETATM    6  O8  UNL     1     -34.439  16.278  -5.429  1.00 20.00    -0.386 OA
BRANCH   6   7
HETATM    7  C7  UNL     1     -34.205  15.945  -6.791  1.00 20.00     0.113 C 
HETATM    8  C2  UNL     1     -34.968  14.674  -7.133  1.00 20.00     0.039 C 
HETATM    9  C3  UNL     1     -34.624  17.112  -7.671  1.00 20.00     0.039 C 
ENDBRANCH   6   7
ENDBRANCH   1   6
TORSDOF 4
ENDMDL
MODEL 8
REMARK VINA RESULT:      -3.4     11.381     12.368
REMARK  4 active torsions:
REMARK  status: ('A' for Active; 'I' for Inactive)
REMARK    1  A    between atoms: C4_4  and  C6_6 
REMARK    2  A    between atoms: C4_4  and  O8_8 
REMARK    3  A    between atoms: C5_5  and  C6_6 
REMARK    4  A    between atoms: C7_7  and  O8_8 
ROOT
HETATM    1  C4  UNL     1     -34.080  17.030  -2.598  1.00 20.00     0.173 C 
ENDROOT
BRANCH   1   2
HETATM    2  C6  UNL     1     -33.660  17.377  -1.164  1.00 20.00     0.019 C 
HETATM    3  C1  UNL     1     -34.788  17.050  -0.185  1.00 20.00     0.013 C 
BRANCH   2   4
HETATM    4  C5  UNL     1     -33.162  18.825  -1.020  1.00 20.00     0.121 C 
HETATM    5 CL9  UNL     1     -31.877  19.018   0.196  1.00 20.00    -0.130 Cl
ENDBRANCH   2   4
ENDBRANCH   1   2
BRANCH   1   6
HETATM    6  O8  UNL     1     -33.317  15.943  -3.103  1.00 20.00    -0.386 OA
BRANCH   6   7
HETATM    7  C7  UNL     1     -34.115  15.063  -3.884  1.00 20.00     0.113 C 
HETATM    8  C2  UNL     1     -33.525  13.662  -3.820  1.00 20.00     0.039 C 
HETATM    9  C3  UNL     1     -35.547  15.098  -3.371  1.00 20.00     0.039 C 
ENDBRANCH   6   7
ENDBRANCH   1   6
TORSDOF 4
ENDMDL
MODEL 9
REMARK VINA RESULT:      -3.4     11.421     11.862
REMARK  4 active torsions:
REMARK  status: ('A' for Active; 'I' for Inactive)
REMARK    1  A    between atoms: C4_4  and  C6_6 
REMARK    2  A    between atoms: C4_4  and  O8_8 
REMARK    3  A    between atoms: C5_5  and  C6_6 
REMARK    4  A    between atoms: C7_7  and  O8_8 
ROOT
HETATM    1  C4  UNL     1     -35.122  16.208  -2.226  1.00 20.00     0.173 C 
ENDROOT
BRANCH   1   2
HETATM    2  C6  UNL     1     -34.421  15.089  -3.007  1.00 20.00     0.019 C 
HETATM    3  C1  UNL     1     -33.224  15.648  -3.777  1.00 20.00     0.013 C 
BRANCH   2   4
HETATM    4  C5  UNL     1     -35.381  14.299  -3.912  1.00 20.00     0.121 C 
HETATM    5 CL9  UNL     1     -34.568  13.072  -4.913  1.00 20.00    -0.130 Cl
ENDBRANCH   2   4
ENDBRANCH   1   2
BRANCH   1   6
HETATM    6  O8  UNL     1     -34.681  16.239  -0.875  1.00 20.00    -0.386 OA
BRANCH   6   7
HETATM    7  C7  UNL     1     -34.665  17.565  -0.363  1.00 20.00     0.113 C 
HETATM    8  C2  UNL     1     -35.136  17.548   1.084  1.00 20.00     0.039 C 
HETATM    9  C3  UNL     1     -33.261  18.136  -0.495  1.00 20.00     0.039 C 
ENDBRANCH   6   7
ENDBRANCH   1   6
TORSDOF 4
ENDMDL
