MODEL 1
REMARK VINA RESULT:      -3.8      0.000      0.000
REMARK  1 active torsions:
REMARK  status: ('A' for Active; 'I' for Inactive)
REMARK    1  A    between atoms: C1_1  and  C5_5 
ROOT
HETATM    1  C2  UNL     1     -35.271   5.507   3.775  1.00 20.00     0.022 C 
HETATM    2  C3  UNL     1     -35.124   4.216   4.568  1.00 20.00     0.075 C 
HETATM    3  C4  UNL     1     -34.050   6.405   5.705  1.00 20.00     0.085 C 
HETATM    4  C5  UNL     1     -34.142   6.443   4.186  1.00 20.00     0.057 C 
HETATM    5  S7  UNL     1     -34.521   4.721   6.199  1.00 20.00    -0.168 SA
ENDROOT
BRANCH   4   6
HETATM    6  C1  UNL     1     -32.834   6.063   3.552  1.00 20.00     0.236 C 
HETATM    7  O6  UNL     1     -32.169   6.830   2.862  1.00 20.00    -0.306 OA
ENDBRANCH   4   6
TORSDOF 1
ENDMDL
MODEL 2
REMARK VINA RESULT:      -3.5     12.172     12.774
REMARK  1 active torsions:
REMARK  status: ('A' for Active; 'I' for Inactive)
REMARK    1  A    between atoms: C1_1  and  C5_5 
ROOT
HETATM    1  C2  UNL     1     -33.012  15.014  -3.714  1.00 20.00     0.022 C 
HETATM    2  C3  UNL     1     -33.224  16.217  -4.622  1.00 20.00     0.075 C 
HETATM    3  C4  UNL     1     -35.114  15.832  -2.748  1.00 20.00     0.085 C 
HETATM    4  C5  UNL     1     -34.373  14.577  -3.187  1.00 20.00     0.057 C 
HETATM    5  S7  UNL     1     -34.574  17.158  -3.866  1.00 20.00    -0.168 SA
ENDROOT
BRANCH   4   6
HETATM    6  C1  UNL     1     -35.158  13.812  -4.214  1.00 20.00     0.236 C 
HETATM    7  O6  UNL     1     -34.990  12.618  -4.441  1.00 20.00    -0.306 OA
ENDBRANCH   4   6
TORSDOF 1
ENDMDL
MODEL 3
REMARK VINA RESULT:      -3.3     12.261     12.830
REMARK  1 active torsions:
REMARK  status: ('A' for Active; 'I' for Inactive)
REMARK    1  A    between atoms: C1_1  and  C5_5 
ROOT
HETATM    1  C2  UNL     1     -34.985  15.693  -2.513  1.00 20.00     0.022 C 
HETATM    2  C3  UNL     1     -33.609  16.296  -2.750  1.00 20.00     0.075 C 
HETATM    3  C4  UNL     1     -35.031  15.746  -4.966  1.00 20.00     0.085 C 
HETATM    4  C5  UNL     1     -35.368  14.893  -3.752  1.00 20.00     0.057 C 
HETATM    5  S7  UNL     1     -33.567  16.721  -4.510  1.00 20.00    -0.168 SA
ENDROOT
BRANCH   4   6
HETATM    6  C1  UNL     1     -34.666  13.566  -3.807  1.00 20.00     0.236 C 
HETATM    7  O6  UNL     1     -35.064  12.617  -4.474  1.00 20.00    -0.306 OA
ENDBRANCH   4   6
TORSDOF 1
ENDMDL
MODEL 4
REMARK VINA RESULT:      -3.3     12.189     12.664
REMARK  1 active torsions:
REMARK  status: ('A' for Active; 'I' for Inactive)
REMARK    1  A    between atoms: C1_1  and  C5_5 
ROOT
HETATM    1  C2  UNL     1     -35.180  15.450  -2.616  1.00 20.00     0.022 C 
HETATM    2  C3  UNL     1     -36.030  14.802  -3.699  1.00 20.00     0.075 C 
HETATM    3  C4  UNL     1     -33.426  14.128  -3.712  1.00 20.00     0.085 C 
HETATM    4  C5  UNL     1     -33.739  15.491  -3.111  1.00 20.00     0.057 C 
HETATM    5  S7  UNL     1     -34.979  13.524  -4.435  1.00 20.00    -0.168 SA
ENDROOT
BRANCH   4   6
HETATM    6  C1  UNL     1     -33.516  16.591  -4.110  1.00 20.00     0.236 C 
HETATM    7  O6  UNL     1     -32.847  16.454  -5.128  1.00 20.00    -0.306 OA
ENDBRANCH   4   6
TORSDOF 1
ENDMDL
MODEL 5
REMARK VINA RESULT:      -3.2     12.325     12.898
REMARK  1 active torsions:
REMARK  status: ('A' for Active; 'I' for Inactive)
REMARK    1  A    between atoms: C1_1  and  C5_5 
ROOT
HETATM    1  C2  UNL     1     -34.829  14.618  -5.807  1.00 20.00     0.022 C 
HETATM    2  C3  UNL     1     -33.981  15.778  -5.305  1.00 20.00     0.075 C 
HETATM    3  C4  UNL     1     -34.289  13.736  -3.581  1.00 20.00     0.085 C 
HETATM    4  C5  UNL     1     -35.412  13.903  -4.594  1.00 20.00     0.057 C 
HETATM    5  S7  UNL     1     -33.208  15.183  -3.779  1.00 20.00    -0.168 SA
ENDROOT
BRANCH   4   6
HETATM    6  C1  UNL     1     -36.573  14.651  -4.002  1.00 20.00     0.236 C 
HETATM    7  O6  UNL     1     -37.655  14.131  -3.752  1.00 20.00    -0.306 OA
ENDBRANCH   4   6
TORSDOF 1
ENDMDL
MODEL 6
REMARK VINA RESULT:      -3.2     12.128     12.696
REMARK  1 active torsions:
REMARK  status: ('A' for Active; 'I' for Inactive)
REMARK    1  A    between atoms: C1_1  and  C5_5 
ROOT
HETATM    1  C2  UNL     1     -33.491  13.698  -3.785  1.00 20.00     0.022 C 
HETATM    2  C3  UNL     1     -34.566  13.373  -4.812  1.00 20.00     0.075 C 
HETATM    3  C4  UNL     1     -33.655  15.904  -4.850  1.00 20.00     0.085 C 
HETATM    4  C5  UNL     1     -33.544  15.196  -3.507  1.00 20.00     0.057 C 
HETATM    5  S7  UNL     1     -34.611  14.798  -5.929  1.00 20.00    -0.168 SA
ENDROOT
BRANCH   4   6
HETATM    6  C1  UNL     1     -34.686  15.562  -2.602  1.00 20.00     0.236 C 
HETATM    7  O6  UNL     1     -34.537  16.102  -1.511  1.00 20.00    -0.306 OA
ENDBRANCH   4   6
TORSDOF 1
ENDMDL
MODEL 7
REMARK VINA RESULT:      -3.2     12.119     12.658
REMARK  1 active torsions:
REMARK  status: ('A' for Active; 'I' for Inactive)
REMARK    1  A    between atoms: C1_1  and  C5_5 
ROOT
HETATM    1  C2  UNL     1     -35.607  15.444  -4.441  1.00 20.00     0.022 C 
HETATM    2  C3  UNL     1     -35.577  15.738  -2.949  1.00 20.00     0.075 C 
HETATM    3  C4  UNL     1     -33.187  15.752  -4.182  1.00 20.00     0.085 C 
HETATM    4  C5  UNL     1     -34.248  14.881  -4.837  1.00 20.00     0.057 C 
HETATM    5  S7  UNL     1     -33.896  16.316  -2.607  1.00 20.00    -0.168 SA
ENDROOT
BRANCH   4   6
HETATM    6  C1  UNL     1     -34.095  13.441  -4.437  1.00 20.00     0.236 C 
HETATM    7  O6  UNL     1     -35.022  12.639  -4.429  1.00 20.00    -0.306 OA
ENDBRANCH   4   6
TORSDOF 1
ENDMDL
MODEL 8
REMARK VINA RESULT:      -3.2     12.306     12.898
REMARK  1 active torsions:
REMARK  status: ('A' for Active; 'I' for Inactive)
REMARK    1  A    between atoms: C1_1  and  C5_5 
ROOT
HETATM    1  C2  UNL     1     -33.261  15.908  -4.573  1.00 20.00     0.022 C 
HETATM    2  C3  UNL     1     -34.520  16.625  -5.037  1.00 20.00     0.075 C 
HETATM    3  C4  UNL     1     -34.783  15.151  -2.802  1.00 20.00     0.085 C 
HETATM    4  C5  UNL     1     -33.686  14.695  -3.753  1.00 20.00     0.057 C 
HETATM    5  S7  UNL     1     -35.701  16.454  -3.675  1.00 20.00    -0.168 SA
ENDROOT
BRANCH   4   6
HETATM    6  C1  UNL     1     -34.153  13.562  -4.622  1.00 20.00     0.236 C 
HETATM    7  O6  UNL     1     -34.999  12.746  -4.271  1.00 20.00    -0.306 OA
ENDBRANCH   4   6
TORSDOF 1
ENDMDL
MODEL 9
REMARK VINA RESULT:      -3.1     12.405     12.955
REMARK  1 active torsions:
REMARK  status: ('A' for Active; 'I' for Inactive)
REMARK    1  A    between atoms: C1_1  and  C5_5 
ROOT
HETATM    1  C2  UNL     1     -34.253  16.100  -3.796  1.00 20.00     0.022 C 
HETATM    2  C3  UNL     1     -34.796  16.415  -5.182  1.00 20.00     0.075 C 
HETATM    3  C4  UNL     1     -36.414  14.952  -3.608  1.00 20.00     0.085 C 
HETATM    4  C5  UNL     1     -34.928  14.825  -3.305  1.00 20.00     0.057 C 
HETATM    5  S7  UNL     1     -36.538  15.923  -5.139  1.00 20.00    -0.168 SA
ENDROOT
BRANCH   4   6
HETATM    6  C1  UNL     1     -34.346  13.596  -3.942  1.00 20.00     0.236 C 
HETATM    7  O6  UNL     1     -35.026  12.671  -4.374  1.00 20.00    -0.306 OA
ENDBRANCH   4   6
TORSDOF 1
ENDMDL
