MODEL 1
REMARK VINA RESULT:      -4.3      0.000      0.000
REMARK  0 active torsions:
REMARK  status: ('A' for Active; 'I' for Inactive)
ROOT
HETATM    1  C1  UNL     1     -34.534  13.746  -4.154  1.00 20.00     0.087 C 
HETATM    2  C2  UNL     1     -33.946  17.034  -2.283  1.00 20.00     0.029 C 
HETATM    3  C3  UNL     1     -34.470  15.623  -2.544  1.00 20.00     0.045 C 
HETATM    4  C4  UNL     1     -34.034  17.880  -3.545  1.00 20.00     0.167 C 
HETATM    5  C5  UNL     1     -33.900  15.990  -4.973  1.00 20.00     0.208 C 
HETATM    6  C6  UNL     1     -33.849  15.000  -3.803  1.00 20.00     0.146 C 
HETATM    7  N7  UNL     1     -35.073  12.758  -4.432  1.00 20.00    -0.195 NA
HETATM    8  O8  UNL     1     -33.336  17.256  -4.621  1.00 20.00    -0.388 OA
HETATM    9 CL9  UNL     1     -32.133  14.562  -3.481  1.00 20.00    -0.101 Cl
ENDROOT
TORSDOF 0
ENDMDL
MODEL 2
REMARK VINA RESULT:      -4.3      2.087      2.263
REMARK  0 active torsions:
REMARK  status: ('A' for Active; 'I' for Inactive)
ROOT
HETATM    1  C1  UNL     1     -36.916  14.499  -3.984  1.00 20.00     0.087 C 
HETATM    2  C2  UNL     1     -33.304  15.632  -3.413  1.00 20.00     0.029 C 
HETATM    3  C3  UNL     1     -34.733  15.216  -3.068  1.00 20.00     0.045 C 
HETATM    4  C4  UNL     1     -33.288  16.528  -4.643  1.00 20.00     0.167 C 
HETATM    5  C5  UNL     1     -35.305  15.610  -5.493  1.00 20.00     0.208 C 
HETATM    6  C6  UNL     1     -35.488  14.676  -4.292  1.00 20.00     0.146 C 
HETATM    7  N7  UNL     1     -38.042  14.361  -3.743  1.00 20.00    -0.195 NA
HETATM    8  O8  UNL     1     -33.924  15.883  -5.746  1.00 20.00    -0.388 OA
HETATM    9 CL9  UNL     1     -34.861  13.043  -4.718  1.00 20.00    -0.101 Cl
ENDROOT
TORSDOF 0
ENDMDL
MODEL 3
REMARK VINA RESULT:      -4.1      2.373      2.863
REMARK  0 active torsions:
REMARK  status: ('A' for Active; 'I' for Inactive)
ROOT
HETATM    1  C1  UNL     1     -37.065  14.501  -4.066  1.00 20.00     0.087 C 
HETATM    2  C2  UNL     1     -33.298  13.829  -3.928  1.00 20.00     0.029 C 
HETATM    3  C3  UNL     1     -34.793  13.573  -3.750  1.00 20.00     0.045 C 
HETATM    4  C4  UNL     1     -32.956  15.271  -3.579  1.00 20.00     0.167 C 
HETATM    5  C5  UNL     1     -35.138  16.047  -4.099  1.00 20.00     0.208 C 
HETATM    6  C6  UNL     1     -35.650  14.644  -4.442  1.00 20.00     0.146 C 
HETATM    7  N7  UNL     1     -38.180  14.390  -3.768  1.00 20.00    -0.195 NA
HETATM    8  O8  UNL     1     -33.737  16.177  -4.356  1.00 20.00    -0.388 OA
HETATM    9 CL9  UNL     1     -35.580  14.415  -6.226  1.00 20.00    -0.101 Cl
ENDROOT
TORSDOF 0
ENDMDL
MODEL 4
REMARK VINA RESULT:      -4.0      2.782      3.659
REMARK  0 active torsions:
REMARK  status: ('A' for Active; 'I' for Inactive)
ROOT
HETATM    1  C1  UNL     1     -33.892  17.473  -3.830  1.00 20.00     0.087 C 
HETATM    2  C2  UNL     1     -33.479  13.670  -3.684  1.00 20.00     0.029 C 
HETATM    3  C3  UNL     1     -33.078  15.137  -3.820  1.00 20.00     0.045 C 
HETATM    4  C4  UNL     1     -34.789  13.403  -4.412  1.00 20.00     0.167 C 
HETATM    5  C5  UNL     1     -35.521  15.648  -4.182  1.00 20.00     0.208 C 
HETATM    6  C6  UNL     1     -34.234  16.087  -3.474  1.00 20.00     0.146 C 
HETATM    7  N7  UNL     1     -33.624  18.566  -4.112  1.00 20.00    -0.195 NA
HETATM    8  O8  UNL     1     -35.817  14.271  -3.938  1.00 20.00    -0.388 OA
HETATM    9 CL9  UNL     1     -34.513  16.080  -1.696  1.00 20.00    -0.101 Cl
ENDROOT
TORSDOF 0
ENDMDL
MODEL 5
REMARK VINA RESULT:      -4.0      2.298      3.336
REMARK  0 active torsions:
REMARK  status: ('A' for Active; 'I' for Inactive)
ROOT
HETATM    1  C1  UNL     1     -34.463  15.765  -2.418  1.00 20.00     0.087 C 
HETATM    2  C2  UNL     1     -34.244  15.413  -6.224  1.00 20.00     0.029 C 
HETATM    3  C3  UNL     1     -34.342  16.104  -4.866  1.00 20.00     0.045 C 
HETATM    4  C4  UNL     1     -35.121  14.169  -6.256  1.00 20.00     0.167 C 
HETATM    5  C5  UNL     1     -34.994  13.865  -3.906  1.00 20.00     0.208 C 
HETATM    6  C6  UNL     1     -34.141  15.122  -3.702  1.00 20.00     0.146 C 
HETATM    7  N7  UNL     1     -34.718  16.271  -1.406  1.00 20.00    -0.195 NA
HETATM    8  O8  UNL     1     -34.777  13.281  -5.193  1.00 20.00    -0.388 OA
HETATM    9 CL9  UNL     1     -32.409  14.645  -3.602  1.00 20.00    -0.101 Cl
ENDROOT
TORSDOF 0
ENDMDL
MODEL 6
REMARK VINA RESULT:      -3.9      1.913      2.145
REMARK  0 active torsions:
REMARK  status: ('A' for Active; 'I' for Inactive)
ROOT
HETATM    1  C1  UNL     1     -34.782  13.734  -4.462  1.00 20.00     0.087 C 
HETATM    2  C2  UNL     1     -33.722  16.684  -2.264  1.00 20.00     0.029 C 
HETATM    3  C3  UNL     1     -33.612  15.350  -2.999  1.00 20.00     0.045 C 
HETATM    4  C4  UNL     1     -35.102  16.839  -1.639  1.00 20.00     0.167 C 
HETATM    5  C5  UNL     1     -36.123  15.406  -3.231  1.00 20.00     0.208 C 
HETATM    6  C6  UNL     1     -34.798  15.111  -3.945  1.00 20.00     0.146 C 
HETATM    7  N7  UNL     1     -34.771  12.648  -4.869  1.00 20.00    -0.195 NA
HETATM    8  O8  UNL     1     -36.122  16.702  -2.627  1.00 20.00    -0.388 OA
HETATM    9 CL9  UNL     1     -34.655  16.187  -5.381  1.00 20.00    -0.101 Cl
ENDROOT
TORSDOF 0
ENDMDL
MODEL 7
REMARK VINA RESULT:      -3.9      2.290      2.445
REMARK  0 active torsions:
REMARK  status: ('A' for Active; 'I' for Inactive)
ROOT
HETATM    1  C1  UNL     1     -34.758  13.803  -4.945  1.00 20.00     0.087 C 
HETATM    2  C2  UNL     1     -33.467  17.395  -5.234  1.00 20.00     0.029 C 
HETATM    3  C3  UNL     1     -33.474  15.915  -4.856  1.00 20.00     0.045 C 
HETATM    4  C4  UNL     1     -34.843  18.009  -5.022  1.00 20.00     0.167 C 
HETATM    5  C5  UNL     1     -35.954  15.933  -5.315  1.00 20.00     0.208 C 
HETATM    6  C6  UNL     1     -34.644  15.159  -5.503  1.00 20.00     0.146 C 
HETATM    7  N7  UNL     1     -34.849  12.733  -4.505  1.00 20.00    -0.195 NA
HETATM    8  O8  UNL     1     -35.835  17.289  -5.752  1.00 20.00    -0.388 OA
HETATM    9 CL9  UNL     1     -34.334  14.953  -7.263  1.00 20.00    -0.101 Cl
ENDROOT
TORSDOF 0
ENDMDL
MODEL 8
REMARK VINA RESULT:      -3.9      2.764      3.356
REMARK  0 active torsions:
REMARK  status: ('A' for Active; 'I' for Inactive)
ROOT
HETATM    1  C1  UNL     1     -35.442  14.460  -6.814  1.00 20.00     0.087 C 
HETATM    2  C2  UNL     1     -33.240  15.572  -3.887  1.00 20.00     0.029 C 
HETATM    3  C3  UNL     1     -33.885  15.606  -5.271  1.00 20.00     0.045 C 
HETATM    4  C4  UNL     1     -32.855  14.149  -3.509  1.00 20.00     0.167 C 
HETATM    5  C5  UNL     1     -34.525  13.195  -4.900  1.00 20.00     0.208 C 
HETATM    6  C6  UNL     1     -34.999  14.559  -5.414  1.00 20.00     0.146 C 
HETATM    7  N7  UNL     1     -35.791  14.381  -7.917  1.00 20.00    -0.195 NA
HETATM    8  O8  UNL     1     -33.989  13.285  -3.577  1.00 20.00    -0.388 OA
HETATM    9 CL9  UNL     1     -36.440  15.073  -4.467  1.00 20.00    -0.101 Cl
ENDROOT
TORSDOF 0
ENDMDL
MODEL 9
REMARK VINA RESULT:      -3.8      1.613      1.681
REMARK  0 active torsions:
REMARK  status: ('A' for Active; 'I' for Inactive)
ROOT
HETATM    1  C1  UNL     1     -35.985  15.106  -3.405  1.00 20.00     0.087 C 
HETATM    2  C2  UNL     1     -33.686  17.279  -1.250  1.00 20.00     0.029 C 
HETATM    3  C3  UNL     1     -34.767  16.253  -1.583  1.00 20.00     0.045 C 
HETATM    4  C4  UNL     1     -33.771  18.472  -2.191  1.00 20.00     0.167 C 
HETATM    5  C5  UNL     1     -34.771  17.195  -3.923  1.00 20.00     0.208 C 
HETATM    6  C6  UNL     1     -34.799  15.914  -3.081  1.00 20.00     0.146 C 
HETATM    7  N7  UNL     1     -36.920  14.469  -3.662  1.00 20.00    -0.195 NA
HETATM    8  O8  UNL     1     -33.686  18.049  -3.551  1.00 20.00    -0.388 OA
HETATM    9 CL9  UNL     1     -33.372  14.903  -3.505  1.00 20.00    -0.101 Cl
ENDROOT
TORSDOF 0
ENDMDL
