MODEL 1
REMARK VINA RESULT:      -3.9      0.000      0.000
REMARK  3 active torsions:
REMARK  status: ('A' for Active; 'I' for Inactive)
REMARK    1  A    between atoms: C3_3  and  C5_5 
REMARK    2  A    between atoms: C3_3  and  O6_6 
REMARK    3  A    between atoms: C4_4  and  C5_5 
ROOT
HETATM    1  C1  UNL     1     -33.728   6.531   5.753  1.00 20.00     0.013 C 
HETATM    2  C5  UNL     1     -34.154   6.225   4.317  1.00 20.00     0.019 C 
ENDROOT
BRANCH   2   3
HETATM    3  C3  UNL     1     -32.920   6.054   3.419  1.00 20.00     0.172 C 
BRANCH   3   4
HETATM    4  O6  UNL     1     -32.055   7.177   3.526  1.00 20.00    -0.396 OA
HETATM    5  C2  UNL     1     -32.074   7.964   2.343  1.00 20.00     0.201 C 
ENDBRANCH   3   4
ENDBRANCH   2   3
BRANCH   2   6
HETATM    6  C4  UNL     1     -35.122   5.034   4.235  1.00 20.00     0.121 C 
HETATM    7 CL7  UNL     1     -35.018   3.934   5.631  1.00 20.00    -0.130 Cl
ENDBRANCH   2   6
TORSDOF 3
ENDMDL
MODEL 2
REMARK VINA RESULT:      -3.9      1.938      2.459
REMARK  3 active torsions:
REMARK  status: ('A' for Active; 'I' for Inactive)
REMARK    1  A    between atoms: C3_3  and  C5_5 
REMARK    2  A    between atoms: C3_3  and  O6_6 
REMARK    3  A    between atoms: C4_4  and  C5_5 
ROOT
HETATM    1  C1  UNL     1     -35.107   3.940   5.128  1.00 20.00     0.013 C 
HETATM    2  C5  UNL     1     -34.235   5.194   5.204  1.00 20.00     0.019 C 
ENDROOT
BRANCH   2   3
HETATM    3  C3  UNL     1     -34.445   6.067   3.959  1.00 20.00     0.172 C 
BRANCH   3   4
HETATM    4  O6  UNL     1     -33.424   5.836   2.998  1.00 20.00    -0.396 OA
HETATM    5  C2  UNL     1     -32.263   6.607   3.274  1.00 20.00     0.201 C 
ENDBRANCH   3   4
ENDBRANCH   2   3
BRANCH   2   6
HETATM    6  C4  UNL     1     -34.436   5.967   6.517  1.00 20.00     0.121 C 
HETATM    7 CL7  UNL     1     -33.275   7.297   6.746  1.00 20.00    -0.130 Cl
ENDBRANCH   2   6
TORSDOF 3
ENDMDL
MODEL 3
REMARK VINA RESULT:      -3.6      0.869      1.468
REMARK  3 active torsions:
REMARK  status: ('A' for Active; 'I' for Inactive)
REMARK    1  A    between atoms: C3_3  and  C5_5 
REMARK    2  A    between atoms: C3_3  and  O6_6 
REMARK    3  A    between atoms: C4_4  and  C5_5 
ROOT
HETATM    1  C1  UNL     1     -34.811   5.496   3.321  1.00 20.00     0.013 C 
HETATM    2  C5  UNL     1     -33.723   5.681   4.380  1.00 20.00     0.019 C 
ENDROOT
BRANCH   2   3
HETATM    3  C3  UNL     1     -32.821   6.869   4.018  1.00 20.00     0.172 C 
BRANCH   3   4
HETATM    4  O6  UNL     1     -32.425   6.808   2.654  1.00 20.00    -0.396 OA
HETATM    5  C2  UNL     1     -32.061   8.089   2.159  1.00 20.00     0.201 C 
ENDBRANCH   3   4
ENDBRANCH   2   3
BRANCH   2   6
HETATM    6  C4  UNL     1     -34.303   5.782   5.801  1.00 20.00     0.121 C 
HETATM    7 CL7  UNL     1     -35.222   4.341   6.299  1.00 20.00    -0.130 Cl
ENDBRANCH   2   6
TORSDOF 3
ENDMDL
MODEL 4
REMARK VINA RESULT:      -3.5      2.999      4.090
REMARK  3 active torsions:
REMARK  status: ('A' for Active; 'I' for Inactive)
REMARK    1  A    between atoms: C3_3  and  C5_5 
REMARK    2  A    between atoms: C3_3  and  O6_6 
REMARK    3  A    between atoms: C4_4  and  C5_5 
ROOT
HETATM    1  C1  UNL     1     -34.337   5.410   2.774  1.00 20.00     0.013 C 
HETATM    2  C5  UNL     1     -33.727   6.469   3.694  1.00 20.00     0.019 C 
ENDROOT
BRANCH   2   3
HETATM    3  C3  UNL     1     -33.986   6.112   5.164  1.00 20.00     0.172 C 
BRANCH   3   4
HETATM    4  O6  UNL     1     -35.130   5.278   5.291  1.00 20.00    -0.396 OA
HETATM    5  C2  UNL     1     -34.827   4.080   5.991  1.00 20.00     0.201 C 
ENDBRANCH   3   4
ENDBRANCH   2   3
BRANCH   2   6
HETATM    6  C4  UNL     1     -32.241   6.720   3.391  1.00 20.00     0.121 C 
HETATM    7 CL7  UNL     1     -31.964   8.022   2.210  1.00 20.00    -0.130 Cl
ENDBRANCH   2   6
TORSDOF 3
ENDMDL
MODEL 5
REMARK VINA RESULT:      -3.2     11.370     12.241
REMARK  3 active torsions:
REMARK  status: ('A' for Active; 'I' for Inactive)
REMARK    1  A    between atoms: C3_3  and  C5_5 
REMARK    2  A    between atoms: C3_3  and  O6_6 
REMARK    3  A    between atoms: C4_4  and  C5_5 
ROOT
HETATM    1  C1  UNL     1     -33.293  16.478  -5.096  1.00 20.00     0.013 C 
HETATM    2  C5  UNL     1     -33.765  15.734  -3.847  1.00 20.00     0.019 C 
ENDROOT
BRANCH   2   3
HETATM    3  C3  UNL     1     -33.119  14.343  -3.778  1.00 20.00     0.172 C 
BRANCH   3   4
HETATM    4  O6  UNL     1     -34.076  13.357  -3.415  1.00 20.00    -0.396 OA
HETATM    5  C2  UNL     1     -35.134  13.283  -4.360  1.00 20.00     0.201 C 
ENDBRANCH   3   4
ENDBRANCH   2   3
BRANCH   2   6
HETATM    6  C4  UNL     1     -33.555  16.555  -2.564  1.00 20.00     0.121 C 
HETATM    7 CL7  UNL     1     -34.781  16.245  -1.311  1.00 20.00    -0.130 Cl
ENDBRANCH   2   6
TORSDOF 3
ENDMDL
MODEL 6
REMARK VINA RESULT:      -3.1     12.027     12.474
REMARK  3 active torsions:
REMARK  status: ('A' for Active; 'I' for Inactive)
REMARK    1  A    between atoms: C3_3  and  C5_5 
REMARK    2  A    between atoms: C3_3  and  O6_6 
REMARK    3  A    between atoms: C4_4  and  C5_5 
ROOT
HETATM    1  C1  UNL     1     -34.558  16.505  -1.201  1.00 20.00     0.013 C 
HETATM    2  C5  UNL     1     -34.058  16.006  -2.557  1.00 20.00     0.019 C 
ENDROOT
BRANCH   2   3
HETATM    3  C3  UNL     1     -35.027  14.965  -3.135  1.00 20.00     0.172 C 
BRANCH   3   4
HETATM    4  O6  UNL     1     -34.351  13.752  -3.434  1.00 20.00    -0.396 OA
HETATM    5  C2  UNL     1     -34.680  13.278  -4.733  1.00 20.00     0.201 C 
ENDBRANCH   3   4
ENDBRANCH   2   3
BRANCH   2   6
HETATM    6  C4  UNL     1     -33.767  17.158  -3.532  1.00 20.00     0.121 C 
HETATM    7 CL7  UNL     1     -33.168  16.616  -5.119  1.00 20.00    -0.130 Cl
ENDBRANCH   2   6
TORSDOF 3
ENDMDL
MODEL 7
REMARK VINA RESULT:      -3.1      2.817      3.816
REMARK  3 active torsions:
REMARK  status: ('A' for Active; 'I' for Inactive)
REMARK    1  A    between atoms: C3_3  and  C5_5 
REMARK    2  A    between atoms: C3_3  and  O6_6 
REMARK    3  A    between atoms: C4_4  and  C5_5 
ROOT
HETATM    1  C1  UNL     1     -33.715   6.833   5.443  1.00 20.00     0.013 C 
HETATM    2  C5  UNL     1     -33.681   5.763   4.351  1.00 20.00     0.019 C 
ENDROOT
BRANCH   2   3
HETATM    3  C3  UNL     1     -35.102   5.277   4.034  1.00 20.00     0.172 C 
BRANCH   3   4
HETATM    4  O6  UNL     1     -35.311   3.960   4.526  1.00 20.00    -0.396 OA
HETATM    5  C2  UNL     1     -34.914   3.842   5.885  1.00 20.00     0.201 C 
ENDBRANCH   3   4
ENDBRANCH   2   3
BRANCH   2   6
HETATM    6  C4  UNL     1     -32.914   6.227   3.102  1.00 20.00     0.121 C 
HETATM    7 CL7  UNL     1     -31.704   7.488   3.436  1.00 20.00    -0.130 Cl
ENDBRANCH   2   6
TORSDOF 3
ENDMDL
MODEL 8
REMARK VINA RESULT:      -3.1     11.574     12.307
REMARK  3 active torsions:
REMARK  status: ('A' for Active; 'I' for Inactive)
REMARK    1  A    between atoms: C3_3  and  C5_5 
REMARK    2  A    between atoms: C3_3  and  O6_6 
REMARK    3  A    between atoms: C4_4  and  C5_5 
ROOT
HETATM    1  C1  UNL     1     -35.015  13.390  -4.121  1.00 20.00     0.013 C 
HETATM    2  C5  UNL     1     -35.184  14.891  -3.886  1.00 20.00     0.019 C 
ENDROOT
BRANCH   2   3
HETATM    3  C3  UNL     1     -36.598  15.196  -3.372  1.00 20.00     0.172 C 
BRANCH   3   4
HETATM    4  O6  UNL     1     -37.518  14.199  -3.795  1.00 20.00    -0.396 OA
HETATM    5  C2  UNL     1     -38.814  14.741  -4.006  1.00 20.00     0.201 C 
ENDBRANCH   3   4
ENDBRANCH   2   3
BRANCH   2   6
HETATM    6  C4  UNL     1     -34.081  15.469  -2.984  1.00 20.00     0.121 C 
HETATM    7 CL7  UNL     1     -34.698  16.190  -1.478  1.00 20.00    -0.130 Cl
ENDBRANCH   2   6
TORSDOF 3
ENDMDL
MODEL 9
REMARK VINA RESULT:      -3.1     11.539     11.886
REMARK  3 active torsions:
REMARK  status: ('A' for Active; 'I' for Inactive)
REMARK    1  A    between atoms: C3_3  and  C5_5 
REMARK    2  A    between atoms: C3_3  and  O6_6 
REMARK    3  A    between atoms: C4_4  and  C5_5 
ROOT
HETATM    1  C1  UNL     1     -36.026  16.074  -3.260  1.00 20.00     0.013 C 
HETATM    2  C5  UNL     1     -34.812  15.555  -2.489  1.00 20.00     0.019 C 
ENDROOT
BRANCH   2   3
HETATM    3  C3  UNL     1     -33.875  14.780  -3.426  1.00 20.00     0.172 C 
BRANCH   3   4
HETATM    4  O6  UNL     1     -34.281  13.423  -3.542  1.00 20.00    -0.396 OA
HETATM    5  C2  UNL     1     -34.660  13.104  -4.874  1.00 20.00     0.201 C 
ENDBRANCH   3   4
ENDBRANCH   2   3
BRANCH   2   6
HETATM    6  C4  UNL     1     -34.093  16.669  -1.712  1.00 20.00     0.121 C 
HETATM    7 CL7  UNL     1     -34.779  16.968  -0.097  1.00 20.00    -0.130 Cl
ENDBRANCH   2   6
TORSDOF 3
ENDMDL
