MODEL 1
REMARK VINA RESULT:      -3.7      0.000      0.000
REMARK  4 active torsions:
REMARK  status: ('A' for Active; 'I' for Inactive)
REMARK    1  A    between atoms: C5_5  and  C7_7 
REMARK    2  A    between atoms: C5_5  and  S9_9 
REMARK    3  A    between atoms: C6_6  and  C7_7 
REMARK    4  A    between atoms: C8_8  and  S9_9 
ROOT
HETATM    1  C5  UNL     1     -35.437  14.467  -3.882  1.00 20.00     0.080 C 
ENDROOT
BRANCH   1   2
HETATM    2  C7  UNL     1     -34.363  15.040  -2.938  1.00 20.00     0.004 C 
HETATM    3  C1  UNL     1     -32.990  14.953  -3.618  1.00 20.00     0.012 C 
BRANCH   2   4
HETATM    4  C6  UNL     1     -34.643  16.466  -2.434  1.00 20.00     0.119 C 
HETATM    5 CL10 UNL     1     -34.650  16.607  -0.659  1.00 20.00    -0.130 Cl
ENDBRANCH   2   4
ENDBRANCH   1   2
BRANCH   1   6
HETATM    6  S9  UNL     1     -34.759  13.827  -5.444  1.00 20.00    -0.160 SA
BRANCH   6   7
HETATM    7  C8  UNL     1     -35.366  15.128  -6.542  1.00 20.00    -0.003 C 
HETATM    8  C2  UNL     1     -35.702  14.507  -7.900  1.00 20.00     0.026 C 
HETATM    9  C3  UNL     1     -36.619  15.744  -5.914  1.00 20.00     0.026 C 
HETATM   10  C4  UNL     1     -34.272  16.188  -6.697  1.00 20.00     0.026 C 
ENDBRANCH   6   7
ENDBRANCH   1   6
TORSDOF 4
ENDMDL
MODEL 2
REMARK VINA RESULT:      -3.6      1.399      2.305
REMARK  4 active torsions:
REMARK  status: ('A' for Active; 'I' for Inactive)
REMARK    1  A    between atoms: C5_5  and  C7_7 
REMARK    2  A    between atoms: C5_5  and  S9_9 
REMARK    3  A    between atoms: C6_6  and  C7_7 
REMARK    4  A    between atoms: C8_8  and  S9_9 
ROOT
HETATM    1  C5  UNL     1     -33.215  15.655  -3.592  1.00 20.00     0.080 C 
ENDROOT
BRANCH   1   2
HETATM    2  C7  UNL     1     -33.649  16.669  -2.518  1.00 20.00     0.004 C 
HETATM    3  C1  UNL     1     -33.985  18.008  -3.188  1.00 20.00     0.012 C 
BRANCH   2   4
HETATM    4  C6  UNL     1     -34.801  16.197  -1.613  1.00 20.00     0.119 C 
HETATM    5 CL10 UNL     1     -34.833  16.997  -0.022  1.00 20.00    -0.130 Cl
ENDBRANCH   2   4
ENDBRANCH   1   2
BRANCH   1   6
HETATM    6  S9  UNL     1     -33.521  16.227  -5.292  1.00 20.00    -0.160 SA
BRANCH   6   7
HETATM    7  C8  UNL     1     -34.782  15.015  -5.749  1.00 20.00    -0.003 C 
HETATM    8  C2  UNL     1     -36.154  15.557  -5.341  1.00 20.00     0.026 C 
HETATM    9  C3  UNL     1     -34.722  14.806  -7.265  1.00 20.00     0.026 C 
HETATM   10  C4  UNL     1     -34.488  13.702  -5.019  1.00 20.00     0.026 C 
ENDBRANCH   6   7
ENDBRANCH   1   6
TORSDOF 4
ENDMDL
MODEL 3
REMARK VINA RESULT:      -3.6      1.963      3.069
REMARK  4 active torsions:
REMARK  status: ('A' for Active; 'I' for Inactive)
REMARK    1  A    between atoms: C5_5  and  C7_7 
REMARK    2  A    between atoms: C5_5  and  S9_9 
REMARK    3  A    between atoms: C6_6  and  C7_7 
REMARK    4  A    between atoms: C8_8  and  S9_9 
ROOT
HETATM    1  C5  UNL     1     -33.642  16.289  -2.515  1.00 20.00     0.080 C 
ENDROOT
BRANCH   1   2
HETATM    2  C7  UNL     1     -34.275  17.439  -1.710  1.00 20.00     0.004 C 
HETATM    3  C1  UNL     1     -34.736  16.911  -0.345  1.00 20.00     0.012 C 
BRANCH   2   4
HETATM    4  C6  UNL     1     -33.383  18.683  -1.552  1.00 20.00     0.119 C 
HETATM    5 CL10 UNL     1     -32.418  18.684  -0.055  1.00 20.00    -0.130 Cl
ENDBRANCH   2   4
ENDBRANCH   1   2
BRANCH   1   6
HETATM    6  S9  UNL     1     -33.980  16.385  -4.300  1.00 20.00    -0.160 SA
BRANCH   6   7
HETATM    7  C8  UNL     1     -34.586  14.699  -4.541  1.00 20.00    -0.003 C 
HETATM    8  C2  UNL     1     -33.602  13.726  -3.887  1.00 20.00     0.026 C 
HETATM    9  C3  UNL     1     -35.965  14.584  -3.885  1.00 20.00     0.026 C 
HETATM   10  C4  UNL     1     -34.687  14.425  -6.044  1.00 20.00     0.026 C 
ENDBRANCH   6   7
ENDBRANCH   1   6
TORSDOF 4
ENDMDL
MODEL 4
REMARK VINA RESULT:      -3.6      1.966      3.148
REMARK  4 active torsions:
REMARK  status: ('A' for Active; 'I' for Inactive)
REMARK    1  A    between atoms: C5_5  and  C7_7 
REMARK    2  A    between atoms: C5_5  and  S9_9 
REMARK    3  A    between atoms: C6_6  and  C7_7 
REMARK    4  A    between atoms: C8_8  and  S9_9 
ROOT
HETATM    1  C5  UNL     1     -33.642  16.289  -2.496  1.00 20.00     0.080 C 
ENDROOT
BRANCH   1   2
HETATM    2  C7  UNL     1     -34.279  17.443  -1.700  1.00 20.00     0.004 C 
HETATM    3  C1  UNL     1     -34.738  16.924  -0.331  1.00 20.00     0.012 C 
BRANCH   2   4
HETATM    4  C6  UNL     1     -33.390  18.691  -1.550  1.00 20.00     0.119 C 
HETATM    5 CL10 UNL     1     -32.409  18.694  -0.065  1.00 20.00    -0.130 Cl
ENDBRANCH   2   4
ENDBRANCH   1   2
BRANCH   1   6
HETATM    6  S9  UNL     1     -33.955  16.388  -4.286  1.00 20.00    -0.160 SA
BRANCH   6   7
HETATM    7  C8  UNL     1     -34.578  14.709  -4.533  1.00 20.00    -0.003 C 
HETATM    8  C2  UNL     1     -34.681  14.440  -6.037  1.00 20.00     0.026 C 
HETATM    9  C3  UNL     1     -33.597  13.730  -3.883  1.00 20.00     0.026 C 
HETATM   10  C4  UNL     1     -35.957  14.596  -3.876  1.00 20.00     0.026 C 
ENDBRANCH   6   7
ENDBRANCH   1   6
TORSDOF 4
ENDMDL
MODEL 5
REMARK VINA RESULT:      -3.6      2.133      2.850
REMARK  4 active torsions:
REMARK  status: ('A' for Active; 'I' for Inactive)
REMARK    1  A    between atoms: C5_5  and  C7_7 
REMARK    2  A    between atoms: C5_5  and  S9_9 
REMARK    3  A    between atoms: C6_6  and  C7_7 
REMARK    4  A    between atoms: C8_8  and  S9_9 
ROOT
HETATM    1  C5  UNL     1     -34.589  17.118  -3.771  1.00 20.00     0.080 C 
ENDROOT
BRANCH   1   2
HETATM    2  C7  UNL     1     -34.140  16.026  -2.782  1.00 20.00     0.004 C 
HETATM    3  C1  UNL     1     -34.635  16.381  -1.374  1.00 20.00     0.012 C 
BRANCH   2   4
HETATM    4  C6  UNL     1     -34.552  14.595  -3.170  1.00 20.00     0.119 C 
HETATM    5 CL10 UNL     1     -33.201  13.599  -3.763  1.00 20.00    -0.130 Cl
ENDBRANCH   2   4
ENDBRANCH   1   2
BRANCH   1   6
HETATM    6  S9  UNL     1     -33.513  17.256  -5.231  1.00 20.00    -0.160 SA
BRANCH   6   7
HETATM    7  C8  UNL     1     -34.692  16.687  -6.477  1.00 20.00    -0.003 C 
HETATM    8  C2  UNL     1     -34.596  17.605  -7.699  1.00 20.00     0.026 C 
HETATM    9  C3  UNL     1     -34.331  15.250  -6.862  1.00 20.00     0.026 C 
HETATM   10  C4  UNL     1     -36.100  16.741  -5.880  1.00 20.00     0.026 C 
ENDBRANCH   6   7
ENDBRANCH   1   6
TORSDOF 4
ENDMDL
MODEL 6
REMARK VINA RESULT:      -3.6      2.125      2.834
REMARK  4 active torsions:
REMARK  status: ('A' for Active; 'I' for Inactive)
REMARK    1  A    between atoms: C5_5  and  C7_7 
REMARK    2  A    between atoms: C5_5  and  S9_9 
REMARK    3  A    between atoms: C6_6  and  C7_7 
REMARK    4  A    between atoms: C8_8  and  S9_9 
ROOT
HETATM    1  C5  UNL     1     -34.578  17.116  -3.784  1.00 20.00     0.080 C 
ENDROOT
BRANCH   1   2
HETATM    2  C7  UNL     1     -34.144  16.024  -2.790  1.00 20.00     0.004 C 
HETATM    3  C1  UNL     1     -34.649  16.382  -1.387  1.00 20.00     0.012 C 
BRANCH   2   4
HETATM    4  C6  UNL     1     -34.559  14.594  -3.181  1.00 20.00     0.119 C 
HETATM    5 CL10 UNL     1     -33.210  13.595  -3.774  1.00 20.00    -0.130 Cl
ENDBRANCH   2   4
ENDBRANCH   1   2
BRANCH   1   6
HETATM    6  S9  UNL     1     -33.506  17.228  -5.249  1.00 20.00    -0.160 SA
BRANCH   6   7
HETATM    7  C8  UNL     1     -34.697  16.663  -6.486  1.00 20.00    -0.003 C 
HETATM    8  C2  UNL     1     -36.102  16.734  -5.882  1.00 20.00     0.026 C 
HETATM    9  C3  UNL     1     -34.596  17.581  -7.707  1.00 20.00     0.026 C 
HETATM   10  C4  UNL     1     -34.355  15.222  -6.874  1.00 20.00     0.026 C 
ENDBRANCH   6   7
ENDBRANCH   1   6
TORSDOF 4
ENDMDL
MODEL 7
REMARK VINA RESULT:      -3.6      2.167      3.317
REMARK  4 active torsions:
REMARK  status: ('A' for Active; 'I' for Inactive)
REMARK    1  A    between atoms: C5_5  and  C7_7 
REMARK    2  A    between atoms: C5_5  and  S9_9 
REMARK    3  A    between atoms: C6_6  and  C7_7 
REMARK    4  A    between atoms: C8_8  and  S9_9 
ROOT
HETATM    1  C5  UNL     1     -34.884  16.254  -1.781  1.00 20.00     0.080 C 
ENDROOT
BRANCH   1   2
HETATM    2  C7  UNL     1     -34.392  17.009  -0.533  1.00 20.00     0.004 C 
HETATM    3  C1  UNL     1     -33.287  17.994  -0.936  1.00 20.00     0.012 C 
BRANCH   2   4
HETATM    4  C6  UNL     1     -35.497  17.715   0.272  1.00 20.00     0.119 C 
HETATM    5 CL10 UNL     1     -35.386  17.446   2.028  1.00 20.00    -0.130 Cl
ENDBRANCH   2   4
ENDBRANCH   1   2
BRANCH   1   6
HETATM    6  S9  UNL     1     -33.726  16.341  -3.182  1.00 20.00    -0.160 SA
BRANCH   6   7
HETATM    7  C8  UNL     1     -34.355  14.933  -4.125  1.00 20.00    -0.003 C 
HETATM    8  C2  UNL     1     -35.810  14.683  -3.723  1.00 20.00     0.026 C 
HETATM    9  C3  UNL     1     -34.266  15.274  -5.615  1.00 20.00     0.026 C 
HETATM   10  C4  UNL     1     -33.495  13.707  -3.807  1.00 20.00     0.026 C 
ENDBRANCH   6   7
ENDBRANCH   1   6
TORSDOF 4
ENDMDL
MODEL 8
REMARK VINA RESULT:      -3.5      1.226      1.250
REMARK  4 active torsions:
REMARK  status: ('A' for Active; 'I' for Inactive)
REMARK    1  A    between atoms: C5_5  and  C7_7 
REMARK    2  A    between atoms: C5_5  and  S9_9 
REMARK    3  A    between atoms: C6_6  and  C7_7 
REMARK    4  A    between atoms: C8_8  and  S9_9 
ROOT
HETATM    1  C5  UNL     1     -35.737  14.425  -4.137  1.00 20.00     0.080 C 
ENDROOT
BRANCH   1   2
HETATM    2  C7  UNL     1     -34.542  14.512  -3.169  1.00 20.00     0.004 C 
HETATM    3  C1  UNL     1     -33.346  13.761  -3.768  1.00 20.00     0.012 C 
BRANCH   2   4
HETATM    4  C6  UNL     1     -34.149  15.941  -2.756  1.00 20.00     0.119 C 
HETATM    5 CL10 UNL     1     -34.647  16.369  -1.101  1.00 20.00    -0.130 Cl
ENDBRANCH   2   4
ENDBRANCH   1   2
BRANCH   1   6
HETATM    6  S9  UNL     1     -36.226  16.035  -4.827  1.00 20.00    -0.160 SA
BRANCH   6   7
HETATM    7  C8  UNL     1     -35.479  15.853  -6.463  1.00 20.00    -0.003 C 
HETATM    8  C2  UNL     1     -35.426  14.365  -6.816  1.00 20.00     0.026 C 
HETATM    9  C3  UNL     1     -36.344  16.609  -7.475  1.00 20.00     0.026 C 
HETATM   10  C4  UNL     1     -34.066  16.443  -6.425  1.00 20.00     0.026 C 
ENDBRANCH   6   7
ENDBRANCH   1   6
TORSDOF 4
ENDMDL
MODEL 9
REMARK VINA RESULT:      -3.5      2.053      3.155
REMARK  4 active torsions:
REMARK  status: ('A' for Active; 'I' for Inactive)
REMARK    1  A    between atoms: C5_5  and  C7_7 
REMARK    2  A    between atoms: C5_5  and  S9_9 
REMARK    3  A    between atoms: C6_6  and  C7_7 
REMARK    4  A    between atoms: C8_8  and  S9_9 
ROOT
HETATM    1  C5  UNL     1     -34.579  15.871  -1.944  1.00 20.00     0.080 C 
ENDROOT
BRANCH   1   2
HETATM    2  C7  UNL     1     -34.764  17.304  -1.411  1.00 20.00     0.004 C 
HETATM    3  C1  UNL     1     -34.896  17.265   0.117  1.00 20.00     0.012 C 
BRANCH   2   4
HETATM    4  C6  UNL     1     -33.676  18.301  -1.848  1.00 20.00     0.119 C 
HETATM    5 CL10 UNL     1     -33.711  18.678  -3.588  1.00 20.00    -0.130 Cl
ENDBRANCH   2   4
ENDBRANCH   1   2
BRANCH   1   6
HETATM    6  S9  UNL     1     -35.570  15.519  -3.428  1.00 20.00    -0.160 SA
BRANCH   6   7
HETATM    7  C8  UNL     1     -34.261  14.813  -4.453  1.00 20.00    -0.003 C 
HETATM    8  C2  UNL     1     -34.559  13.328  -4.677  1.00 20.00     0.026 C 
HETATM    9  C3  UNL     1     -34.240  15.559  -5.790  1.00 20.00     0.026 C 
HETATM   10  C4  UNL     1     -32.924  14.984  -3.728  1.00 20.00     0.026 C 
ENDBRANCH   6   7
ENDBRANCH   1   6
TORSDOF 4
ENDMDL
