MODEL 1
REMARK VINA RESULT:      -3.7      0.000      0.000
REMARK  1 active torsions:
REMARK  status: ('A' for Active; 'I' for Inactive)
REMARK    1  A    between atoms: C1_1  and  C5_5 
ROOT
HETATM    1  C2  UNL     1     -34.742   5.397   3.539  1.00 20.00     0.022 C 
HETATM    2  C3  UNL     1     -35.228   4.484   4.652  1.00 20.00     0.075 C 
HETATM    3  C4  UNL     1     -33.538   6.439   5.389  1.00 20.00     0.085 C 
HETATM    4  C5  UNL     1     -33.374   5.913   3.970  1.00 20.00     0.057 C 
HETATM    5  S7  UNL     1     -34.707   5.301   6.185  1.00 20.00    -0.168 SA
ENDROOT
BRANCH   4   6
HETATM    6  C1  UNL     1     -32.902   7.004   3.062  1.00 20.00     0.236 C 
HETATM    7  O6  UNL     1     -31.779   7.493   3.122  1.00 20.00    -0.306 OA
ENDBRANCH   4   6
TORSDOF 1
ENDMDL
MODEL 2
REMARK VINA RESULT:      -3.5      0.895      1.675
REMARK  1 active torsions:
REMARK  status: ('A' for Active; 'I' for Inactive)
REMARK    1  A    between atoms: C1_1  and  C5_5 
ROOT
HETATM    1  C2  UNL     1     -33.474   6.379   5.518  1.00 20.00     0.022 C 
HETATM    2  C3  UNL     1     -34.565   5.704   6.332  1.00 20.00     0.075 C 
HETATM    3  C4  UNL     1     -34.448   5.028   3.733  1.00 20.00     0.085 C 
HETATM    4  C5  UNL     1     -33.979   6.433   4.081  1.00 20.00     0.057 C 
HETATM    5  S7  UNL     1     -35.203   4.390   5.257  1.00 20.00    -0.168 SA
ENDROOT
BRANCH   4   6
HETATM    6  C1  UNL     1     -32.893   6.864   3.147  1.00 20.00     0.236 C 
HETATM    7  O6  UNL     1     -31.788   7.239   3.524  1.00 20.00    -0.306 OA
ENDBRANCH   4   6
TORSDOF 1
ENDMDL
MODEL 3
REMARK VINA RESULT:      -3.4     11.951     12.696
REMARK  1 active torsions:
REMARK  status: ('A' for Active; 'I' for Inactive)
REMARK    1  A    between atoms: C1_1  and  C5_5 
ROOT
HETATM    1  C2  UNL     1     -34.643  15.465  -2.687  1.00 20.00     0.022 C 
HETATM    2  C3  UNL     1     -33.814  16.737  -2.685  1.00 20.00     0.075 C 
HETATM    3  C4  UNL     1     -34.172  15.574  -5.081  1.00 20.00     0.085 C 
HETATM    4  C5  UNL     1     -34.165  14.641  -3.877  1.00 20.00     0.057 C 
HETATM    5  S7  UNL     1     -33.642  17.185  -4.434  1.00 20.00    -0.168 SA
ENDROOT
BRANCH   4   6
HETATM    6  C1  UNL     1     -35.069  13.474  -4.120  1.00 20.00     0.236 C 
HETATM    7  O6  UNL     1     -34.759  12.513  -4.815  1.00 20.00    -0.306 OA
ENDBRANCH   4   6
TORSDOF 1
ENDMDL
MODEL 4
REMARK VINA RESULT:      -3.3     12.458     13.577
REMARK  1 active torsions:
REMARK  status: ('A' for Active; 'I' for Inactive)
REMARK    1  A    between atoms: C1_1  and  C5_5 
ROOT
HETATM    1  C2  UNL     1     -34.410  15.111  -6.410  1.00 20.00     0.022 C 
HETATM    2  C3  UNL     1     -34.526  16.603  -6.672  1.00 20.00     0.075 C 
HETATM    3  C4  UNL     1     -33.488  15.905  -4.293  1.00 20.00     0.085 C 
HETATM    4  C5  UNL     1     -34.489  14.931  -4.898  1.00 20.00     0.057 C 
HETATM    5  S7  UNL     1     -33.574  17.385  -5.342  1.00 20.00    -0.168 SA
ENDROOT
BRANCH   4   6
HETATM    6  C1  UNL     1     -34.150  13.528  -4.507  1.00 20.00     0.236 C 
HETATM    7  O6  UNL     1     -34.949  12.599  -4.565  1.00 20.00    -0.306 OA
ENDBRANCH   4   6
TORSDOF 1
ENDMDL
MODEL 5
REMARK VINA RESULT:      -3.2     11.989     12.359
REMARK  1 active torsions:
REMARK  status: ('A' for Active; 'I' for Inactive)
REMARK    1  A    between atoms: C1_1  and  C5_5 
ROOT
HETATM    1  C2  UNL     1     -33.353  15.308  -3.502  1.00 20.00     0.022 C 
HETATM    2  C3  UNL     1     -33.691  16.640  -2.856  1.00 20.00     0.075 C 
HETATM    3  C4  UNL     1     -35.784  15.081  -3.498  1.00 20.00     0.085 C 
HETATM    4  C5  UNL     1     -34.547  14.935  -4.373  1.00 20.00     0.057 C 
HETATM    5  S7  UNL     1     -35.455  16.527  -2.450  1.00 20.00    -0.168 SA
ENDROOT
BRANCH   4   6
HETATM    6  C1  UNL     1     -34.428  13.531  -4.875  1.00 20.00     0.236 C 
HETATM    7  O6  UNL     1     -35.036  12.586  -4.384  1.00 20.00    -0.306 OA
ENDBRANCH   4   6
TORSDOF 1
ENDMDL
MODEL 6
REMARK VINA RESULT:      -3.1     11.737     12.368
REMARK  1 active torsions:
REMARK  status: ('A' for Active; 'I' for Inactive)
REMARK    1  A    between atoms: C1_1  and  C5_5 
ROOT
HETATM    1  C2  UNL     1     -34.115  13.891  -3.558  1.00 20.00     0.022 C 
HETATM    2  C3  UNL     1     -34.701  13.190  -4.772  1.00 20.00     0.075 C 
HETATM    3  C4  UNL     1     -34.950  15.865  -4.726  1.00 20.00     0.085 C 
HETATM    4  C5  UNL     1     -34.918  15.173  -3.371  1.00 20.00     0.057 C 
HETATM    5  S7  UNL     1     -35.082  14.523  -5.941  1.00 20.00    -0.168 SA
ENDROOT
BRANCH   4   6
HETATM    6  C1  UNL     1     -34.280  16.060  -2.349  1.00 20.00     0.236 C 
HETATM    7  O6  UNL     1     -34.693  16.170  -1.199  1.00 20.00    -0.306 OA
ENDBRANCH   4   6
TORSDOF 1
ENDMDL
MODEL 7
REMARK VINA RESULT:      -3.0     12.461     13.035
REMARK  1 active torsions:
REMARK  status: ('A' for Active; 'I' for Inactive)
REMARK    1  A    between atoms: C1_1  and  C5_5 
ROOT
HETATM    1  C2  UNL     1     -34.673  15.380  -2.828  1.00 20.00     0.022 C 
HETATM    2  C3  UNL     1     -33.285  15.521  -3.429  1.00 20.00     0.075 C 
HETATM    3  C4  UNL     1     -35.340  15.997  -5.094  1.00 20.00     0.085 C 
HETATM    4  C5  UNL     1     -35.603  15.000  -3.975  1.00 20.00     0.057 C 
HETATM    5  S7  UNL     1     -33.552  16.310  -5.040  1.00 20.00    -0.168 SA
ENDROOT
BRANCH   4   6
HETATM    6  C1  UNL     1     -37.035  15.064  -3.548  1.00 20.00     0.236 C 
HETATM    7  O6  UNL     1     -37.846  14.171  -3.769  1.00 20.00    -0.306 OA
ENDBRANCH   4   6
TORSDOF 1
ENDMDL
MODEL 8
REMARK VINA RESULT:      -3.0      2.288      2.812
REMARK  1 active torsions:
REMARK  status: ('A' for Active; 'I' for Inactive)
REMARK    1  A    between atoms: C1_1  and  C5_5 
ROOT
HETATM    1  C2  UNL     1     -34.492   4.919   6.030  1.00 20.00     0.022 C 
HETATM    2  C3  UNL     1     -35.277   4.360   4.855  1.00 20.00     0.075 C 
HETATM    3  C4  UNL     1     -33.705   6.473   4.319  1.00 20.00     0.085 C 
HETATM    4  C5  UNL     1     -34.265   6.396   5.733  1.00 20.00     0.057 C 
HETATM    5  S7  UNL     1     -34.573   5.173   3.395  1.00 20.00    -0.168 SA
ENDROOT
BRANCH   4   6
HETATM    6  C1  UNL     1     -33.301   6.997   6.707  1.00 20.00     0.236 C 
HETATM    7  O6  UNL     1     -33.587   7.927   7.453  1.00 20.00    -0.306 OA
ENDBRANCH   4   6
TORSDOF 1
ENDMDL
MODEL 9
REMARK VINA RESULT:      -3.0     11.588     12.001
REMARK  1 active torsions:
REMARK  status: ('A' for Active; 'I' for Inactive)
REMARK    1  A    between atoms: C1_1  and  C5_5 
ROOT
HETATM    1  C2  UNL     1     -34.846  15.634  -2.727  1.00 20.00     0.022 C 
HETATM    2  C3  UNL     1     -36.256  16.110  -3.030  1.00 20.00     0.075 C 
HETATM    3  C4  UNL     1     -35.473  13.873  -4.296  1.00 20.00     0.085 C 
HETATM    4  C5  UNL     1     -34.374  14.870  -3.958  1.00 20.00     0.057 C 
HETATM    5  S7  UNL     1     -37.027  14.738  -3.932  1.00 20.00    -0.168 SA
ENDROOT
BRANCH   4   6
HETATM    6  C1  UNL     1     -33.089  14.155  -3.686  1.00 20.00     0.236 C 
HETATM    7  O6  UNL     1     -32.964  12.938  -3.765  1.00 20.00    -0.306 OA
ENDBRANCH   4   6
TORSDOF 1
ENDMDL
