MODEL 1
REMARK VINA RESULT:      -4.1      0.000      0.000
REMARK  1 active torsions:
REMARK  status: ('A' for Active; 'I' for Inactive)
REMARK    1  A    between atoms: C4_4  and  C6_6 
ROOT
HETATM    1  C1  UNL     1     -35.154  13.190  -4.534  1.00 20.00     0.135 A 
HETATM    2  C2  UNL     1     -36.035  14.153  -4.097  1.00 20.00     0.136 A 
HETATM    3  C3  UNL     1     -33.434  14.297  -3.513  1.00 20.00     0.144 A 
HETATM    4  C4  UNL     1     -34.315  15.262  -3.076  1.00 20.00     0.069 A 
HETATM    5  N7  UNL     1     -33.838  13.244  -4.251  1.00 20.00    -0.270 NA
HETATM    6  N8  UNL     1     -35.631  15.207  -3.360  1.00 20.00    -0.261 NA
ENDROOT
BRANCH   4   7
HETATM    7  C6  UNL     1     -33.833  16.413  -2.263  1.00 20.00     0.131 C 
HETATM    8  C5  UNL     1     -34.590  16.623  -0.945  1.00 20.00     0.033 C 
HETATM    9 CL9  UNL     1     -33.902  17.927  -3.228  1.00 20.00    -0.119 Cl
ENDBRANCH   4   7
TORSDOF 1
ENDMDL
MODEL 2
REMARK VINA RESULT:      -3.8      0.938      1.615
REMARK  1 active torsions:
REMARK  status: ('A' for Active; 'I' for Inactive)
REMARK    1  A    between atoms: C4_4  and  C6_6 
ROOT
HETATM    1  C1  UNL     1     -35.187  13.423  -4.404  1.00 20.00     0.135 A 
HETATM    2  C2  UNL     1     -33.851  13.622  -4.137  1.00 20.00     0.136 A 
HETATM    3  C3  UNL     1     -35.708  15.302  -3.211  1.00 20.00     0.144 A 
HETATM    4  C4  UNL     1     -34.371  15.502  -2.943  1.00 20.00     0.069 A 
HETATM    5  N7  UNL     1     -36.140  14.259  -3.946  1.00 20.00    -0.270 NA
HETATM    6  N8  UNL     1     -33.419  14.666  -3.402  1.00 20.00    -0.261 NA
ENDROOT
BRANCH   4   7
HETATM    7  C6  UNL     1     -33.930  16.666  -2.126  1.00 20.00     0.131 C 
HETATM    8  C5  UNL     1     -34.583  16.756  -0.740  1.00 20.00     0.033 C 
HETATM    9 CL9  UNL     1     -34.230  18.199  -3.016  1.00 20.00    -0.119 Cl
ENDBRANCH   4   7
TORSDOF 1
ENDMDL
MODEL 3
REMARK VINA RESULT:      -3.7      1.250      1.400
REMARK  1 active torsions:
REMARK  status: ('A' for Active; 'I' for Inactive)
REMARK    1  A    between atoms: C4_4  and  C6_6 
ROOT
HETATM    1  C1  UNL     1     -34.898  13.171  -4.399  1.00 20.00     0.135 A 
HETATM    2  C2  UNL     1     -36.050  13.911  -4.257  1.00 20.00     0.136 A 
HETATM    3  C3  UNL     1     -33.726  14.775  -3.267  1.00 20.00     0.144 A 
HETATM    4  C4  UNL     1     -34.879  15.516  -3.126  1.00 20.00     0.069 A 
HETATM    5  N7  UNL     1     -33.715  13.590  -3.907  1.00 20.00    -0.270 NA
HETATM    6  N8  UNL     1     -36.062  15.097  -3.617  1.00 20.00    -0.261 NA
ENDROOT
BRANCH   4   7
HETATM    7  C6  UNL     1     -34.854  16.824  -2.413  1.00 20.00     0.131 C 
HETATM    8  C5  UNL     1     -33.791  17.807  -2.924  1.00 20.00     0.033 C 
HETATM    9 CL9  UNL     1     -34.616  16.567  -0.651  1.00 20.00    -0.119 Cl
ENDBRANCH   4   7
TORSDOF 1
ENDMDL
MODEL 4
REMARK VINA RESULT:      -3.6      3.011      3.836
REMARK  1 active torsions:
REMARK  status: ('A' for Active; 'I' for Inactive)
REMARK    1  A    between atoms: C4_4  and  C6_6 
ROOT
HETATM    1  C1  UNL     1     -34.048  13.640  -3.433  1.00 20.00     0.135 A 
HETATM    2  C2  UNL     1     -33.629  14.926  -3.689  1.00 20.00     0.136 A 
HETATM    3  C3  UNL     1     -34.836  13.469  -5.572  1.00 20.00     0.144 A 
HETATM    4  C4  UNL     1     -34.417  14.756  -5.829  1.00 20.00     0.069 A 
HETATM    5  N7  UNL     1     -34.660  12.888  -4.370  1.00 20.00    -0.270 NA
HETATM    6  N8  UNL     1     -33.805  15.507  -4.892  1.00 20.00    -0.261 NA
ENDROOT
BRANCH   4   7
HETATM    7  C6  UNL     1     -34.630  15.367  -7.170  1.00 20.00     0.131 C 
HETATM    8  C5  UNL     1     -34.694  16.901  -7.169  1.00 20.00     0.033 C 
HETATM    9 CL9  UNL     1     -36.130  14.717  -7.918  1.00 20.00    -0.119 Cl
ENDBRANCH   4   7
TORSDOF 1
ENDMDL
MODEL 5
REMARK VINA RESULT:      -3.6     11.983     12.396
REMARK  1 active torsions:
REMARK  status: ('A' for Active; 'I' for Inactive)
REMARK    1  A    between atoms: C4_4  and  C6_6 
ROOT
HETATM    1  C1  UNL     1     -35.187   4.805   6.092  1.00 20.00     0.135 A 
HETATM    2  C2  UNL     1     -34.351   5.830   6.476  1.00 20.00     0.136 A 
HETATM    3  C3  UNL     1     -34.554   5.101   3.915  1.00 20.00     0.144 A 
HETATM    4  C4  UNL     1     -33.718   6.128   4.299  1.00 20.00     0.069 A 
HETATM    5  N7  UNL     1     -35.304   4.422   4.805  1.00 20.00    -0.270 NA
HETATM    6  N8  UNL     1     -33.601   6.510   5.585  1.00 20.00    -0.261 NA
ENDROOT
BRANCH   4   7
HETATM    7  C6  UNL     1     -32.905   6.857   3.286  1.00 20.00     0.131 C 
HETATM    8  C5  UNL     1     -32.386   5.983   2.136  1.00 20.00     0.033 C 
HETATM    9 CL9  UNL     1     -31.512   7.672   4.078  1.00 20.00    -0.119 Cl
ENDBRANCH   4   7
TORSDOF 1
ENDMDL
MODEL 6
REMARK VINA RESULT:      -3.6     11.725     12.725
REMARK  1 active torsions:
REMARK  status: ('A' for Active; 'I' for Inactive)
REMARK    1  A    between atoms: C4_4  and  C6_6 
ROOT
HETATM    1  C1  UNL     1     -42.800   3.247  -3.488  1.00 20.00     0.135 A 
HETATM    2  C2  UNL     1     -41.735   3.104  -2.627  1.00 20.00     0.136 A 
HETATM    3  C3  UNL     1     -42.930   5.468  -2.964  1.00 20.00     0.144 A 
HETATM    4  C4  UNL     1     -41.865   5.326  -2.101  1.00 20.00     0.069 A 
HETATM    5  N7  UNL     1     -43.417   4.431  -3.672  1.00 20.00    -0.270 NA
HETATM    6  N8  UNL     1     -41.248   4.143  -1.918  1.00 20.00    -0.261 NA
ENDROOT
BRANCH   4   7
HETATM    7  C6  UNL     1     -41.354   6.496  -1.334  1.00 20.00     0.131 C 
HETATM    8  C5  UNL     1     -40.642   6.135  -0.022  1.00 20.00     0.033 C 
HETATM    9 CL9  UNL     1     -42.693   7.640  -0.979  1.00 20.00    -0.119 Cl
ENDBRANCH   4   7
TORSDOF 1
ENDMDL
MODEL 7
REMARK VINA RESULT:      -3.6     11.990     12.400
REMARK  1 active torsions:
REMARK  status: ('A' for Active; 'I' for Inactive)
REMARK    1  A    between atoms: C4_4  and  C6_6 
ROOT
HETATM    1  C1  UNL     1     -35.168   4.857   6.153  1.00 20.00     0.135 A 
HETATM    2  C2  UNL     1     -35.188   4.476   4.830  1.00 20.00     0.136 A 
HETATM    3  C3  UNL     1     -33.688   6.526   5.653  1.00 20.00     0.144 A 
HETATM    4  C4  UNL     1     -33.707   6.145   4.329  1.00 20.00     0.069 A 
HETATM    5  N7  UNL     1     -34.418   5.889   6.588  1.00 20.00    -0.270 NA
HETATM    6  N8  UNL     1     -34.457   5.114   3.894  1.00 20.00    -0.261 NA
ENDROOT
BRANCH   4   7
HETATM    7  C6  UNL     1     -32.886   6.873   3.321  1.00 20.00     0.131 C 
HETATM    8  C5  UNL     1     -32.376   6.001   2.165  1.00 20.00     0.033 C 
HETATM    9 CL9  UNL     1     -31.486   7.668   4.118  1.00 20.00    -0.119 Cl
ENDBRANCH   4   7
TORSDOF 1
ENDMDL
MODEL 8
REMARK VINA RESULT:      -3.5     12.370     13.592
REMARK  1 active torsions:
REMARK  status: ('A' for Active; 'I' for Inactive)
REMARK    1  A    between atoms: C4_4  and  C6_6 
ROOT
HETATM    1  C1  UNL     1     -41.364   6.578  -1.581  1.00 20.00     0.135 A 
HETATM    2  C2  UNL     1     -42.378   6.519  -2.511  1.00 20.00     0.136 A 
HETATM    3  C3  UNL     1     -41.155   4.302  -1.663  1.00 20.00     0.144 A 
HETATM    4  C4  UNL     1     -42.170   4.243  -2.593  1.00 20.00     0.069 A 
HETATM    5  N7  UNL     1     -40.735   5.470  -1.140  1.00 20.00    -0.270 NA
HETATM    6  N8  UNL     1     -42.798   5.351  -3.035  1.00 20.00    -0.261 NA
ENDROOT
BRANCH   4   7
HETATM    7  C6  UNL     1     -42.610   2.934  -3.150  1.00 20.00     0.131 C 
HETATM    8  C5  UNL     1     -43.417   2.066  -2.174  1.00 20.00     0.033 C 
HETATM    9 CL9  UNL     1     -41.190   1.997  -3.731  1.00 20.00    -0.119 Cl
ENDBRANCH   4   7
TORSDOF 1
ENDMDL
MODEL 9
REMARK VINA RESULT:      -3.5      2.407      3.092
REMARK  1 active torsions:
REMARK  status: ('A' for Active; 'I' for Inactive)
REMARK    1  A    between atoms: C4_4  and  C6_6 
ROOT
HETATM    1  C1  UNL     1     -38.089  15.495  -3.608  1.00 20.00     0.135 A 
HETATM    2  C2  UNL     1     -37.337  16.604  -3.290  1.00 20.00     0.136 A 
HETATM    3  C3  UNL     1     -36.175  14.273  -3.878  1.00 20.00     0.144 A 
HETATM    4  C4  UNL     1     -35.423  15.382  -3.561  1.00 20.00     0.069 A 
HETATM    5  N7  UNL     1     -37.521  14.309  -3.908  1.00 20.00    -0.270 NA
HETATM    6  N8  UNL     1     -35.990  16.567  -3.260  1.00 20.00    -0.261 NA
ENDROOT
BRANCH   4   7
HETATM    7  C6  UNL     1     -33.935  15.305  -3.539  1.00 20.00     0.131 C 
HETATM    8  C5  UNL     1     -33.234  16.232  -4.542  1.00 20.00     0.033 C 
HETATM    9 CL9  UNL     1     -33.396  13.615  -3.826  1.00 20.00    -0.119 Cl
ENDBRANCH   4   7
TORSDOF 1
ENDMDL
