MODEL 1
REMARK VINA RESULT:      -4.3      0.000      0.000
REMARK  3 active torsions:
REMARK  status: ('A' for Active; 'I' for Inactive)
REMARK    1  A    between atoms: C2_2  and  C5_5 
REMARK    2  A    between atoms: C5_5  and  N7_7 
REMARK    3  A    between atoms: C6_6  and  N7_7 
ROOT
HETATM    1  C1  UNL     1     -33.925   6.589   5.287  1.00 20.00     0.052 A 
HETATM    2  C2  UNL     1     -33.188   5.804   4.236  1.00 20.00     0.055 A 
HETATM    3  C3  UNL     1     -34.567   5.367   4.677  1.00 20.00     0.119 A 
HETATM    4 CL8  UNL     1     -34.684   3.917   5.674  1.00 20.00    -0.101 Cl
HETATM    5 CL9  UNL     1     -35.957   5.602   3.627  1.00 20.00    -0.101 Cl
ENDROOT
BRANCH   2   6
HETATM    6  C5  UNL     1     -32.923   6.415   2.901  1.00 20.00     0.277 C 
BRANCH   6   7
HETATM    7  N7  UNL     1     -32.073   7.567   3.019  1.00 20.00     0.083 N 
HETATM    8  H20 UNL     1     -31.158   7.297   3.394  1.00 20.00     0.315 HD
BRANCH   7   9
HETATM    9  C6  UNL     1     -31.867   8.222   1.727  1.00 20.00     0.265 C 
HETATM   10  C4  UNL     1     -32.543   9.549   1.681  1.00 20.00     0.037 C 
ENDBRANCH   7   9
ENDBRANCH   6   7
ENDBRANCH   2   6
TORSDOF 3
ENDMDL
MODEL 2
REMARK VINA RESULT:      -3.9      1.448      1.794
REMARK  3 active torsions:
REMARK  status: ('A' for Active; 'I' for Inactive)
REMARK    1  A    between atoms: C2_2  and  C5_5 
REMARK    2  A    between atoms: C5_5  and  N7_7 
REMARK    3  A    between atoms: C6_6  and  N7_7 
ROOT
HETATM    1  C1  UNL     1     -35.689   5.753   4.097  1.00 20.00     0.052 A 
HETATM    2  C2  UNL     1     -34.217   6.039   3.969  1.00 20.00     0.055 A 
HETATM    3  C3  UNL     1     -34.725   5.190   5.112  1.00 20.00     0.119 A 
HETATM    4 CL8  UNL     1     -34.722   5.903   6.725  1.00 20.00    -0.101 Cl
HETATM    5 CL9  UNL     1     -34.458   3.452   5.121  1.00 20.00    -0.101 Cl
ENDROOT
BRANCH   2   6
HETATM    6  C5  UNL     1     -33.447   5.475   2.824  1.00 20.00     0.277 C 
BRANCH   6   7
HETATM    7  N7  UNL     1     -32.114   6.011   2.782  1.00 20.00     0.083 N 
HETATM    8  H20 UNL     1     -31.710   5.885   1.848  1.00 20.00     0.315 HD
BRANCH   7   9
HETATM    9  C6  UNL     1     -32.094   7.439   3.105  1.00 20.00     0.265 C 
HETATM   10  C4  UNL     1     -32.011   8.268   1.870  1.00 20.00     0.037 C 
ENDBRANCH   7   9
ENDBRANCH   6   7
ENDBRANCH   2   6
TORSDOF 3
ENDMDL
MODEL 3
REMARK VINA RESULT:      -3.7     11.041     11.886
REMARK  3 active torsions:
REMARK  status: ('A' for Active; 'I' for Inactive)
REMARK    1  A    between atoms: C2_2  and  C5_5 
REMARK    2  A    between atoms: C5_5  and  N7_7 
REMARK    3  A    between atoms: C6_6  and  N7_7 
ROOT
HETATM    1  C1  UNL     1     -33.735  16.171  -3.432  1.00 20.00     0.052 A 
HETATM    2  C2  UNL     1     -34.180  14.816  -2.953  1.00 20.00     0.055 A 
HETATM    3  C3  UNL     1     -34.887  16.060  -2.465  1.00 20.00     0.119 A 
HETATM    4 CL8  UNL     1     -34.610  16.556  -0.795  1.00 20.00    -0.101 Cl
HETATM    5 CL9  UNL     1     -36.497  16.461  -3.049  1.00 20.00    -0.101 Cl
ENDROOT
BRANCH   2   6
HETATM    6  C5  UNL     1     -34.801  13.857  -3.911  1.00 20.00     0.277 C 
BRANCH   6   7
HETATM    7  N7  UNL     1     -34.113  13.865  -5.172  1.00 20.00     0.083 N 
HETATM    8  H20 UNL     1     -33.699  12.945  -5.356  1.00 20.00     0.315 HD
BRANCH   7   9
HETATM    9  C6  UNL     1     -35.012  14.195  -6.278  1.00 20.00     0.265 C 
HETATM   10  C4  UNL     1     -34.404  15.212  -7.181  1.00 20.00     0.037 C 
ENDBRANCH   7   9
ENDBRANCH   6   7
ENDBRANCH   2   6
TORSDOF 3
ENDMDL
MODEL 4
REMARK VINA RESULT:      -3.6     11.303     12.250
REMARK  3 active torsions:
REMARK  status: ('A' for Active; 'I' for Inactive)
REMARK    1  A    between atoms: C2_2  and  C5_5 
REMARK    2  A    between atoms: C5_5  and  N7_7 
REMARK    3  A    between atoms: C6_6  and  N7_7 
ROOT
HETATM    1  C1  UNL     1     -33.241  15.737  -4.202  1.00 20.00     0.052 A 
HETATM    2  C2  UNL     1     -34.728  15.930  -4.079  1.00 20.00     0.055 A 
HETATM    3  C3  UNL     1     -34.176  14.927  -5.066  1.00 20.00     0.119 A 
HETATM    4 CL8  UNL     1     -34.269  15.332  -6.780  1.00 20.00    -0.101 Cl
HETATM    5 CL9  UNL     1     -34.304  13.202  -4.754  1.00 20.00    -0.101 Cl
ENDROOT
BRANCH   2   6
HETATM    6  C5  UNL     1     -35.428  15.528  -2.825  1.00 20.00     0.277 C 
BRANCH   6   7
HETATM    7  N7  UNL     1     -35.602  16.651  -1.946  1.00 20.00     0.083 N 
HETATM    8  H20 UNL     1     -36.561  16.670  -1.580  1.00 20.00     0.315 HD
BRANCH   7   9
HETATM    9  C6  UNL     1     -34.678  16.601  -0.813  1.00 20.00     0.265 C 
HETATM   10  C4  UNL     1     -33.607  17.628  -0.947  1.00 20.00     0.037 C 
ENDBRANCH   7   9
ENDBRANCH   6   7
ENDBRANCH   2   6
TORSDOF 3
ENDMDL
MODEL 5
REMARK VINA RESULT:      -3.6      3.102      4.487
REMARK  3 active torsions:
REMARK  status: ('A' for Active; 'I' for Inactive)
REMARK    1  A    between atoms: C2_2  and  C5_5 
REMARK    2  A    between atoms: C5_5  and  N7_7 
REMARK    3  A    between atoms: C6_6  and  N7_7 
ROOT
HETATM    1  C1  UNL     1     -31.939   5.735   3.033  1.00 20.00     0.052 A 
HETATM    2  C2  UNL     1     -33.140   6.255   3.775  1.00 20.00     0.055 A 
HETATM    3  C3  UNL     1     -32.099   7.219   3.252  1.00 20.00     0.119 A 
HETATM    4 CL8  UNL     1     -31.040   7.996   4.429  1.00 20.00    -0.101 Cl
HETATM    5 CL9  UNL     1     -32.438   8.228   1.853  1.00 20.00    -0.101 Cl
ENDROOT
BRANCH   2   6
HETATM    6  C5  UNL     1     -34.498   6.128   3.172  1.00 20.00     0.277 C 
BRANCH   6   7
HETATM    7  N7  UNL     1     -35.364   5.343   4.007  1.00 20.00     0.083 N 
HETATM    8  H20 UNL     1     -35.411   4.378   3.662  1.00 20.00     0.315 HD
BRANCH   7   9
HETATM    9  C6  UNL     1     -34.898   5.314   5.394  1.00 20.00     0.265 C 
HETATM   10  C4  UNL     1     -34.867   3.921   5.923  1.00 20.00     0.037 C 
ENDBRANCH   7   9
ENDBRANCH   6   7
ENDBRANCH   2   6
TORSDOF 3
ENDMDL
MODEL 6
REMARK VINA RESULT:      -3.6     10.798     11.835
REMARK  3 active torsions:
REMARK  status: ('A' for Active; 'I' for Inactive)
REMARK    1  A    between atoms: C2_2  and  C5_5 
REMARK    2  A    between atoms: C5_5  and  N7_7 
REMARK    3  A    between atoms: C6_6  and  N7_7 
ROOT
HETATM    1  C1  UNL     1     -34.517  17.927  -3.007  1.00 20.00     0.052 A 
HETATM    2  C2  UNL     1     -33.586  16.746  -3.015  1.00 20.00     0.055 A 
HETATM    3  C3  UNL     1     -34.890  16.674  -2.255  1.00 20.00     0.119 A 
HETATM    4 CL8  UNL     1     -34.813  16.719  -0.494  1.00 20.00    -0.101 Cl
HETATM    5 CL9  UNL     1     -36.229  15.712  -2.866  1.00 20.00    -0.101 Cl
ENDROOT
BRANCH   2   6
HETATM    6  C5  UNL     1     -33.347  15.996  -4.282  1.00 20.00     0.277 C 
BRANCH   6   7
HETATM    7  N7  UNL     1     -32.527  14.839  -4.053  1.00 20.00     0.083 N 
HETATM    8  H20 UNL     1     -31.877  15.012  -3.278  1.00 20.00     0.315 HD
BRANCH   7   9
HETATM    9  C6  UNL     1     -33.331  13.661  -3.725  1.00 20.00     0.265 C 
HETATM   10  C4  UNL     1     -34.358  13.403  -4.774  1.00 20.00     0.037 C 
ENDBRANCH   7   9
ENDBRANCH   6   7
ENDBRANCH   2   6
TORSDOF 3
ENDMDL
MODEL 7
REMARK VINA RESULT:      -3.6     11.261     12.044
REMARK  3 active torsions:
REMARK  status: ('A' for Active; 'I' for Inactive)
REMARK    1  A    between atoms: C2_2  and  C5_5 
REMARK    2  A    between atoms: C5_5  and  N7_7 
REMARK    3  A    between atoms: C6_6  and  N7_7 
ROOT
HETATM    1  C1  UNL     1     -35.093  14.160  -5.345  1.00 20.00     0.052 A 
HETATM    2  C2  UNL     1     -35.501  14.652  -3.983  1.00 20.00     0.055 A 
HETATM    3  C3  UNL     1     -34.046  14.684  -4.393  1.00 20.00     0.119 A 
HETATM    4 CL8  UNL     1     -32.961  13.515  -3.642  1.00 20.00    -0.101 Cl
HETATM    5 CL9  UNL     1     -33.261  16.207  -4.786  1.00 20.00    -0.101 Cl
ENDROOT
BRANCH   2   6
HETATM    6  C5  UNL     1     -36.331  15.885  -3.856  1.00 20.00     0.277 C 
BRANCH   6   7
HETATM    7  N7  UNL     1     -36.505  16.252  -2.478  1.00 20.00     0.083 N 
HETATM    8  H20 UNL     1     -36.461  15.420  -1.881  1.00 20.00     0.315 HD
BRANCH   7   9
HETATM    9  C6  UNL     1     -35.477  17.193  -2.035  1.00 20.00     0.265 C 
HETATM   10  C4  UNL     1     -34.613  16.590  -0.981  1.00 20.00     0.037 C 
ENDBRANCH   7   9
ENDBRANCH   6   7
ENDBRANCH   2   6
TORSDOF 3
ENDMDL
MODEL 8
REMARK VINA RESULT:      -3.6     11.531     12.161
REMARK  3 active torsions:
REMARK  status: ('A' for Active; 'I' for Inactive)
REMARK    1  A    between atoms: C2_2  and  C5_5 
REMARK    2  A    between atoms: C5_5  and  N7_7 
REMARK    3  A    between atoms: C6_6  and  N7_7 
ROOT
HETATM    1  C1  UNL     1     -33.821  16.655  -1.981  1.00 20.00     0.052 A 
HETATM    2  C2  UNL     1     -34.282  15.523  -2.857  1.00 20.00     0.055 A 
HETATM    3  C3  UNL     1     -34.561  16.953  -3.261  1.00 20.00     0.119 A 
HETATM    4 CL8  UNL     1     -36.223  17.528  -3.134  1.00 20.00    -0.101 Cl
HETATM    5 CL9  UNL     1     -33.668  17.700  -4.578  1.00 20.00    -0.101 Cl
ENDROOT
BRANCH   2   6
HETATM    6  C5  UNL     1     -33.280  14.667  -3.555  1.00 20.00     0.277 C 
BRANCH   6   7
HETATM    7  N7  UNL     1     -33.795  13.345  -3.780  1.00 20.00     0.083 N 
HETATM    8  H20 UNL     1     -33.924  12.858  -2.886  1.00 20.00     0.315 HD
BRANCH   7   9
HETATM    9  C6  UNL     1     -35.081  13.376  -4.478  1.00 20.00     0.265 C 
HETATM   10  C4  UNL     1     -34.930  13.908  -5.861  1.00 20.00     0.037 C 
ENDBRANCH   7   9
ENDBRANCH   6   7
ENDBRANCH   2   6
TORSDOF 3
ENDMDL
MODEL 9
REMARK VINA RESULT:      -3.5     10.929     11.837
REMARK  3 active torsions:
REMARK  status: ('A' for Active; 'I' for Inactive)
REMARK    1  A    between atoms: C2_2  and  C5_5 
REMARK    2  A    between atoms: C5_5  and  N7_7 
REMARK    3  A    between atoms: C6_6  and  N7_7 
ROOT
HETATM    1  C1  UNL     1     -33.639  17.606  -0.775  1.00 20.00     0.052 A 
HETATM    2  C2  UNL     1     -34.624  16.535  -1.155  1.00 20.00     0.055 A 
HETATM    3  C3  UNL     1     -35.062  17.687  -0.279  1.00 20.00     0.119 A 
HETATM    4 CL8  UNL     1     -35.358  17.349   1.426  1.00 20.00    -0.101 Cl
HETATM    5 CL9  UNL     1     -36.089  18.960  -0.923  1.00 20.00    -0.101 Cl
ENDROOT
BRANCH   2   6
HETATM    6  C5  UNL     1     -35.055  16.392  -2.576  1.00 20.00     0.277 C 
BRANCH   6   7
HETATM    7  N7  UNL     1     -36.077  15.391  -2.709  1.00 20.00     0.083 N 
HETATM    8  H20 UNL     1     -36.995  15.834  -2.827  1.00 20.00     0.315 HD
BRANCH   7   9
HETATM    9  C6  UNL     1     -35.835  14.520  -3.860  1.00 20.00     0.265 C 
HETATM   10  C4  UNL     1     -34.547  13.784  -3.716  1.00 20.00     0.037 C 
ENDBRANCH   7   9
ENDBRANCH   6   7
ENDBRANCH   2   6
TORSDOF 3
ENDMDL
