MODEL 1
REMARK VINA RESULT:      -4.7      0.000      0.000
REMARK  3 active torsions:
REMARK  status: ('A' for Active; 'I' for Inactive)
REMARK    1  A    between atoms: C2_2  and  C5_5 
REMARK    2  A    between atoms: C5_5  and  N7_7 
REMARK    3  A    between atoms: C6_6  and  N7_7 
ROOT
HETATM    1  C1  UNL     1     -34.957   6.075   3.884  1.00 20.00     0.052 A 
HETATM    2  C2  UNL     1     -33.516   5.644   3.870  1.00 20.00     0.055 A 
HETATM    3  C3  UNL     1     -34.335   5.506   5.134  1.00 20.00     0.119 A 
HETATM    4 CL8  UNL     1     -34.071   6.590   6.493  1.00 20.00    -0.101 Cl
HETATM    5 CL9  UNL     1     -34.816   3.880   5.624  1.00 20.00    -0.101 Cl
ENDROOT
BRANCH   2   6
HETATM    6  C5  UNL     1     -32.438   6.660   3.715  1.00 20.00     0.277 C 
BRANCH   6   7
HETATM    7  N7  UNL     1     -32.296   7.061   2.343  1.00 20.00     0.083 N 
HETATM    8  H20 UNL     1     -31.471   6.616   1.925  1.00 20.00     0.315 HD
BRANCH   7   9
HETATM    9  C6  UNL     1     -32.148   8.512   2.215  1.00 20.00     0.265 C 
HETATM   10  C4  UNL     1     -32.025   8.916   0.785  1.00 20.00     0.037 C 
ENDBRANCH   7   9
ENDBRANCH   6   7
ENDBRANCH   2   6
TORSDOF 3
ENDMDL
MODEL 2
REMARK VINA RESULT:      -4.2      2.809      4.608
REMARK  3 active torsions:
REMARK  status: ('A' for Active; 'I' for Inactive)
REMARK    1  A    between atoms: C2_2  and  C5_5 
REMARK    2  A    between atoms: C5_5  and  N7_7 
REMARK    3  A    between atoms: C6_6  and  N7_7 
ROOT
HETATM    1  C1  UNL     1     -32.093   5.787   2.790  1.00 20.00     0.052 A 
HETATM    2  C2  UNL     1     -33.402   6.480   3.052  1.00 20.00     0.055 A 
HETATM    3  C3  UNL     1     -32.122   7.282   2.989  1.00 20.00     0.119 A 
HETATM    4 CL8  UNL     1     -31.403   7.935   4.456  1.00 20.00    -0.101 Cl
HETATM    5 CL9  UNL     1     -31.866   8.304   1.575  1.00 20.00    -0.101 Cl
ENDROOT
BRANCH   2   6
HETATM    6  C5  UNL     1     -34.135   6.228   4.325  1.00 20.00     0.277 C 
BRANCH   6   7
HETATM    7  N7  UNL     1     -35.145   5.221   4.152  1.00 20.00     0.083 N 
HETATM    8  H20 UNL     1     -36.076   5.652   4.132  1.00 20.00     0.315 HD
BRANCH   7   9
HETATM    9  C6  UNL     1     -35.119   4.236   5.236  1.00 20.00     0.265 C 
HETATM   10  C4  UNL     1     -34.522   4.815   6.473  1.00 20.00     0.037 C 
ENDBRANCH   7   9
ENDBRANCH   6   7
ENDBRANCH   2   6
TORSDOF 3
ENDMDL
MODEL 3
REMARK VINA RESULT:      -3.8     11.496     12.176
REMARK  3 active torsions:
REMARK  status: ('A' for Active; 'I' for Inactive)
REMARK    1  A    between atoms: C2_2  and  C5_5 
REMARK    2  A    between atoms: C5_5  and  N7_7 
REMARK    3  A    between atoms: C6_6  and  N7_7 
ROOT
HETATM    1  C1  UNL     1     -33.178  14.235  -3.670  1.00 20.00     0.052 A 
HETATM    2  C2  UNL     1     -34.329  15.056  -3.157  1.00 20.00     0.055 A 
HETATM    3  C3  UNL     1     -33.995  15.060  -4.632  1.00 20.00     0.119 A 
HETATM    4 CL8  UNL     1     -33.232  16.462  -5.372  1.00 20.00    -0.101 Cl
HETATM    5 CL9  UNL     1     -35.090  14.208  -5.721  1.00 20.00    -0.101 Cl
ENDROOT
BRANCH   2   6
HETATM    6  C5  UNL     1     -34.071  16.224  -2.268  1.00 20.00     0.277 C 
BRANCH   6   7
HETATM    7  N7  UNL     1     -34.942  16.208  -1.125  1.00 20.00     0.083 N 
HETATM    8  H20 UNL     1     -35.917  16.336  -1.420  1.00 20.00     0.315 HD
BRANCH   7   9
HETATM    9  C6  UNL     1     -34.607  17.271  -0.175  1.00 20.00     0.265 C 
HETATM   10  C4  UNL     1     -33.390  18.015  -0.609  1.00 20.00     0.037 C 
ENDBRANCH   7   9
ENDBRANCH   6   7
ENDBRANCH   2   6
TORSDOF 3
ENDMDL
MODEL 4
REMARK VINA RESULT:      -3.7     11.139     11.853
REMARK  3 active torsions:
REMARK  status: ('A' for Active; 'I' for Inactive)
REMARK    1  A    between atoms: C2_2  and  C5_5 
REMARK    2  A    between atoms: C5_5  and  N7_7 
REMARK    3  A    between atoms: C6_6  and  N7_7 
ROOT
HETATM    1  C1  UNL     1     -35.625  16.233  -2.784  1.00 20.00     0.052 A 
HETATM    2  C2  UNL     1     -34.339  15.471  -2.617  1.00 20.00     0.055 A 
HETATM    3  C3  UNL     1     -34.508  16.822  -1.959  1.00 20.00     0.119 A 
HETATM    4 CL8  UNL     1     -33.671  18.234  -2.590  1.00 20.00    -0.101 Cl
HETATM    5 CL9  UNL     1     -34.711  16.858  -0.207  1.00 20.00    -0.101 Cl
ENDROOT
BRANCH   2   6
HETATM    6  C5  UNL     1     -33.448  15.251  -3.792  1.00 20.00     0.277 C 
BRANCH   6   7
HETATM    7  N7  UNL     1     -33.316  13.851  -4.088  1.00 20.00     0.083 N 
HETATM    8  H20 UNL     1     -32.503  13.692  -4.694  1.00 20.00     0.315 HD
BRANCH   7   9
HETATM    9  C6  UNL     1     -34.503  13.327  -4.765  1.00 20.00     0.265 C 
HETATM   10  C4  UNL     1     -34.832  14.134  -5.975  1.00 20.00     0.037 C 
ENDBRANCH   7   9
ENDBRANCH   6   7
ENDBRANCH   2   6
TORSDOF 3
ENDMDL
MODEL 5
REMARK VINA RESULT:      -3.7     11.324     12.541
REMARK  3 active torsions:
REMARK  status: ('A' for Active; 'I' for Inactive)
REMARK    1  A    between atoms: C2_2  and  C5_5 
REMARK    2  A    between atoms: C5_5  and  N7_7 
REMARK    3  A    between atoms: C6_6  and  N7_7 
ROOT
HETATM    1  C1  UNL     1     -34.293  14.895  -3.083  1.00 20.00     0.052 A 
HETATM    2  C2  UNL     1     -33.525  16.161  -3.345  1.00 20.00     0.055 A 
HETATM    3  C3  UNL     1     -34.800  16.205  -2.534  1.00 20.00     0.119 A 
HETATM    4 CL8  UNL     1     -36.274  16.875  -3.221  1.00 20.00    -0.101 Cl
HETATM    5 CL9  UNL     1     -34.656  16.479  -0.797  1.00 20.00    -0.101 Cl
ENDROOT
BRANCH   2   6
HETATM    6  C5  UNL     1     -33.431  16.701  -4.731  1.00 20.00     0.277 C 
BRANCH   6   7
HETATM    7  N7  UNL     1     -33.297  15.641  -5.692  1.00 20.00     0.083 N 
HETATM    8  H20 UNL     1     -32.374  15.681  -6.138  1.00 20.00     0.315 HD
BRANCH   7   9
HETATM    9  C6  UNL     1     -34.316  15.729  -6.740  1.00 20.00     0.265 C 
HETATM   10  C4  UNL     1     -35.103  14.465  -6.831  1.00 20.00     0.037 C 
ENDBRANCH   7   9
ENDBRANCH   6   7
ENDBRANCH   2   6
TORSDOF 3
ENDMDL
MODEL 6
REMARK VINA RESULT:      -3.7     11.332     11.944
REMARK  3 active torsions:
REMARK  status: ('A' for Active; 'I' for Inactive)
REMARK    1  A    between atoms: C2_2  and  C5_5 
REMARK    2  A    between atoms: C5_5  and  N7_7 
REMARK    3  A    between atoms: C6_6  and  N7_7 
ROOT
HETATM    1  C1  UNL     1     -35.681  14.704  -3.601  1.00 20.00     0.052 A 
HETATM    2  C2  UNL     1     -34.747  15.883  -3.595  1.00 20.00     0.055 A 
HETATM    3  C3  UNL     1     -34.375  14.628  -4.352  1.00 20.00     0.119 A 
HETATM    4 CL8  UNL     1     -33.130  13.549  -3.738  1.00 20.00    -0.101 Cl
HETATM    5 CL9  UNL     1     -34.436  14.688  -6.115  1.00 20.00    -0.101 Cl
ENDROOT
BRANCH   2   6
HETATM    6  C5  UNL     1     -34.074  16.291  -2.329  1.00 20.00     0.277 C 
BRANCH   6   7
HETATM    7  N7  UNL     1     -34.974  16.208  -1.213  1.00 20.00     0.083 N 
HETATM    8  H20 UNL     1     -35.938  16.377  -1.521  1.00 20.00     0.315 HD
BRANCH   7   9
HETATM    9  C6  UNL     1     -34.644  17.190  -0.178  1.00 20.00     0.265 C 
HETATM   10  C4  UNL     1     -33.447  17.992  -0.560  1.00 20.00     0.037 C 
ENDBRANCH   7   9
ENDBRANCH   6   7
ENDBRANCH   2   6
TORSDOF 3
ENDMDL
MODEL 7
REMARK VINA RESULT:      -3.6      9.916     11.017
REMARK  3 active torsions:
REMARK  status: ('A' for Active; 'I' for Inactive)
REMARK    1  A    between atoms: C2_2  and  C5_5 
REMARK    2  A    between atoms: C5_5  and  N7_7 
REMARK    3  A    between atoms: C6_6  and  N7_7 
ROOT
HETATM    1  C1  UNL     1     -40.697   4.556  -1.077  1.00 20.00     0.052 A 
HETATM    2  C2  UNL     1     -41.861   4.907  -1.962  1.00 20.00     0.055 A 
HETATM    3  C3  UNL     1     -41.628   5.674  -0.680  1.00 20.00     0.119 A 
HETATM    4 CL8  UNL     1     -42.673   5.426   0.712  1.00 20.00    -0.101 Cl
HETATM    5 CL9  UNL     1     -41.029   7.328  -0.814  1.00 20.00    -0.101 Cl
ENDROOT
BRANCH   2   6
HETATM    6  C5  UNL     1     -42.983   3.942  -2.133  1.00 20.00     0.277 C 
BRANCH   6   7
HETATM    7  N7  UNL     1     -42.532   2.588  -1.969  1.00 20.00     0.083 N 
HETATM    8  H20 UNL     1     -41.550   2.574  -1.671  1.00 20.00     0.315 HD
BRANCH   7   9
HETATM    9  C6  UNL     1     -42.643   1.827  -3.215  1.00 20.00     0.265 C 
HETATM   10  C4  UNL     1     -41.332   1.758  -3.921  1.00 20.00     0.037 C 
ENDBRANCH   7   9
ENDBRANCH   6   7
ENDBRANCH   2   6
TORSDOF 3
ENDMDL
MODEL 8
REMARK VINA RESULT:      -3.6     11.162     12.117
REMARK  3 active torsions:
REMARK  status: ('A' for Active; 'I' for Inactive)
REMARK    1  A    between atoms: C2_2  and  C5_5 
REMARK    2  A    between atoms: C5_5  and  N7_7 
REMARK    3  A    between atoms: C6_6  and  N7_7 
ROOT
HETATM    1  C1  UNL     1     -35.877  15.669  -3.126  1.00 20.00     0.052 A 
HETATM    2  C2  UNL     1     -34.598  14.879  -3.073  1.00 20.00     0.055 A 
HETATM    3  C3  UNL     1     -34.636  16.292  -2.535  1.00 20.00     0.119 A 
HETATM    4 CL8  UNL     1     -33.870  17.605  -3.418  1.00 20.00    -0.101 Cl
HETATM    5 CL9  UNL     1     -34.576  16.502  -0.785  1.00 20.00    -0.101 Cl
ENDROOT
BRANCH   2   6
HETATM    6  C5  UNL     1     -33.897  14.515  -4.337  1.00 20.00     0.277 C 
BRANCH   6   7
HETATM    7  N7  UNL     1     -34.665  13.575  -5.104  1.00 20.00     0.083 N 
HETATM    8  H20 UNL     1     -34.109  12.734  -5.297  1.00 20.00     0.315 HD
BRANCH   7   9
HETATM    9  C6  UNL     1     -35.094  14.143  -6.384  1.00 20.00     0.265 C 
HETATM   10  C4  UNL     1     -34.268  15.330  -6.748  1.00 20.00     0.037 C 
ENDBRANCH   7   9
ENDBRANCH   6   7
ENDBRANCH   2   6
TORSDOF 3
ENDMDL
MODEL 9
REMARK VINA RESULT:      -3.6     11.283     11.896
REMARK  3 active torsions:
REMARK  status: ('A' for Active; 'I' for Inactive)
REMARK    1  A    between atoms: C2_2  and  C5_5 
REMARK    2  A    between atoms: C5_5  and  N7_7 
REMARK    3  A    between atoms: C6_6  and  N7_7 
ROOT
HETATM    1  C1  UNL     1     -33.632  16.318  -4.051  1.00 20.00     0.052 A 
HETATM    2  C2  UNL     1     -33.854  16.058  -2.586  1.00 20.00     0.055 A 
HETATM    3  C3  UNL     1     -34.158  14.978  -3.599  1.00 20.00     0.119 A 
HETATM    4 CL8  UNL     1     -35.821  14.566  -3.996  1.00 20.00    -0.101 Cl
HETATM    5 CL9  UNL     1     -33.062  13.597  -3.676  1.00 20.00    -0.101 Cl
ENDROOT
BRANCH   2   6
HETATM    6  C5  UNL     1     -34.919  16.799  -1.853  1.00 20.00     0.277 C 
BRANCH   6   7
HETATM    7  N7  UNL     1     -34.868  16.522  -0.444  1.00 20.00     0.083 N 
HETATM    8  H20 UNL     1     -35.719  16.030  -0.148  1.00 20.00     0.315 HD
BRANCH   7   9
HETATM    9  C6  UNL     1     -34.751  17.750   0.345  1.00 20.00     0.265 C 
HETATM   10  C4  UNL     1     -35.408  17.599   1.674  1.00 20.00     0.037 C 
ENDBRANCH   7   9
ENDBRANCH   6   7
ENDBRANCH   2   6
TORSDOF 3
ENDMDL
