MODEL 1
REMARK VINA RESULT:      -4.1      0.000      0.000
REMARK  6 active torsions:
REMARK  status: ('A' for Active; 'I' for Inactive)
REMARK    1  A    between atoms: C5_5  and  C8_8 
REMARK    2  A    between atoms: C6_6  and  C9_9 
REMARK    3  A    between atoms: C7_7  and  C10_10 
REMARK    4  A    between atoms: C8_8  and  N11_11 
REMARK    5  A    between atoms: C9_9  and  N11_11 
REMARK    6  A    between atoms: C10_10  and  N11_11 
ROOT
HETATM    1  C1  UNL     1     -34.641  17.882   0.482  1.00 20.00     0.012 C 
HETATM    2  C2  UNL     1     -34.582  17.141  -0.460  1.00 20.00    -0.116 C 
HETATM    3  C5  UNL     1     -34.512  16.229  -1.614  1.00 20.00     0.123 C 
ENDROOT
BRANCH   3   4
HETATM    4  C8  UNL     1     -34.059  16.947  -2.882  1.00 20.00     0.284 C 
BRANCH   4   5
HETATM    5  N11 UNL     1     -33.862  15.997  -3.976  1.00 20.00     0.089 N 
BRANCH   5   6
HETATM    6  C9  UNL     1     -32.953  14.927  -3.567  1.00 20.00     0.272 C 
BRANCH   6   7
HETATM    7  C6  UNL     1     -33.465  13.547  -3.965  1.00 20.00     0.026 C 
HETATM    8  C3  UNL     1     -34.984  13.479  -4.023  1.00 20.00     0.007 C 
ENDBRANCH   6   7
ENDBRANCH   5   6
BRANCH   5   9
HETATM    9  C10 UNL     1     -33.343  16.682  -5.160  1.00 20.00     0.272 C 
BRANCH   9  10
HETATM   10  C7  UNL     1     -34.339  16.682  -6.314  1.00 20.00     0.026 C 
HETATM   11  C4  UNL     1     -34.290  15.398  -7.132  1.00 20.00     0.007 C 
ENDBRANCH   9  10
ENDBRANCH   5   9
ENDBRANCH   4   5
ENDBRANCH   3   4
TORSDOF 6
ENDMDL
MODEL 2
REMARK VINA RESULT:      -4.1      0.462      4.591
REMARK  6 active torsions:
REMARK  status: ('A' for Active; 'I' for Inactive)
REMARK    1  A    between atoms: C5_5  and  C8_8 
REMARK    2  A    between atoms: C6_6  and  C9_9 
REMARK    3  A    between atoms: C7_7  and  C10_10 
REMARK    4  A    between atoms: C8_8  and  N11_11 
REMARK    5  A    between atoms: C9_9  and  N11_11 
REMARK    6  A    between atoms: C10_10  and  N11_11 
ROOT
HETATM    1  C1  UNL     1     -34.785  14.913  -7.769  1.00 20.00     0.012 C 
HETATM    2  C2  UNL     1     -34.562  15.881  -7.095  1.00 20.00    -0.116 C 
HETATM    3  C5  UNL     1     -34.292  17.069  -6.269  1.00 20.00     0.123 C 
ENDROOT
BRANCH   3   4
HETATM    4  C8  UNL     1     -33.335  16.761  -5.122  1.00 20.00     0.284 C 
BRANCH   4   5
HETATM    5  N11 UNL     1     -34.012  16.011  -4.065  1.00 20.00     0.089 N 
BRANCH   5   6
HETATM    6  C9  UNL     1     -34.488  16.916  -3.020  1.00 20.00     0.272 C 
BRANCH   6   7
HETATM    7  C6  UNL     1     -34.643  16.218  -1.674  1.00 20.00     0.026 C 
HETATM    8  C3  UNL     1     -34.430  17.160  -0.497  1.00 20.00     0.007 C 
ENDBRANCH   6   7
ENDBRANCH   5   6
BRANCH   5   9
HETATM    9  C10 UNL     1     -33.115  15.004  -3.497  1.00 20.00     0.272 C 
BRANCH   9  10
HETATM   10  C7  UNL     1     -33.503  13.587  -3.902  1.00 20.00     0.026 C 
HETATM   11  C4  UNL     1     -34.991  13.446  -4.194  1.00 20.00     0.007 C 
ENDBRANCH   9  10
ENDBRANCH   5   9
ENDBRANCH   4   5
ENDBRANCH   3   4
TORSDOF 6
ENDMDL
MODEL 3
REMARK VINA RESULT:      -4.1      0.891      4.280
REMARK  6 active torsions:
REMARK  status: ('A' for Active; 'I' for Inactive)
REMARK    1  A    between atoms: C5_5  and  C8_8 
REMARK    2  A    between atoms: C6_6  and  C9_9 
REMARK    3  A    between atoms: C7_7  and  C10_10 
REMARK    4  A    between atoms: C8_8  and  N11_11 
REMARK    5  A    between atoms: C9_9  and  N11_11 
REMARK    6  A    between atoms: C10_10  and  N11_11 
ROOT
HETATM    1  C1  UNL     1     -37.006  14.507  -4.050  1.00 20.00     0.012 C 
HETATM    2  C2  UNL     1     -35.911  14.030  -4.168  1.00 20.00    -0.116 C 
HETATM    3  C5  UNL     1     -34.569  13.443  -4.316  1.00 20.00     0.123 C 
ENDROOT
BRANCH   3   4
HETATM    4  C8  UNL     1     -33.487  14.336  -3.718  1.00 20.00     0.284 C 
BRANCH   4   5
HETATM    5  N11 UNL     1     -33.880  15.743  -3.775  1.00 20.00     0.089 N 
BRANCH   5   6
HETATM    6  C9  UNL     1     -33.189  16.424  -4.869  1.00 20.00     0.272 C 
BRANCH   6   7
HETATM    7  C6  UNL     1     -34.148  16.903  -5.953  1.00 20.00     0.026 C 
HETATM    8  C3  UNL     1     -34.339  15.880  -7.063  1.00 20.00     0.007 C 
ENDBRANCH   6   7
ENDBRANCH   5   6
BRANCH   5   9
HETATM    9  C10 UNL     1     -33.597  16.406  -2.502  1.00 20.00     0.272 C 
BRANCH   9  10
HETATM   10  C7  UNL     1     -34.743  16.266  -1.508  1.00 20.00     0.026 C 
HETATM   11  C4  UNL     1     -34.572  17.157  -0.284  1.00 20.00     0.007 C 
ENDBRANCH   9  10
ENDBRANCH   5   9
ENDBRANCH   4   5
ENDBRANCH   3   4
TORSDOF 6
ENDMDL
MODEL 4
REMARK VINA RESULT:      -4.0      0.918      2.816
REMARK  6 active torsions:
REMARK  status: ('A' for Active; 'I' for Inactive)
REMARK    1  A    between atoms: C5_5  and  C8_8 
REMARK    2  A    between atoms: C6_6  and  C9_9 
REMARK    3  A    between atoms: C7_7  and  C10_10 
REMARK    4  A    between atoms: C8_8  and  N11_11 
REMARK    5  A    between atoms: C9_9  and  N11_11 
REMARK    6  A    between atoms: C10_10  and  N11_11 
ROOT
HETATM    1  C1  UNL     1     -35.096  17.586   0.711  1.00 20.00     0.012 C 
HETATM    2  C2  UNL     1     -34.804  17.017  -0.305  1.00 20.00    -0.116 C 
HETATM    3  C5  UNL     1     -34.445  16.319  -1.549  1.00 20.00     0.123 C 
ENDROOT
BRANCH   3   4
HETATM    4  C8  UNL     1     -35.475  16.549  -2.651  1.00 20.00     0.284 C 
BRANCH   4   5
HETATM    5  N11 UNL     1     -35.139  15.778  -3.848  1.00 20.00     0.089 N 
BRANCH   5   6
HETATM    6  C9  UNL     1     -35.373  16.575  -5.051  1.00 20.00     0.272 C 
BRANCH   6   7
HETATM    7  C6  UNL     1     -34.184  16.549  -6.005  1.00 20.00     0.026 C 
HETATM    8  C3  UNL     1     -34.395  15.605  -7.181  1.00 20.00     0.007 C 
ENDBRANCH   6   7
ENDBRANCH   5   6
BRANCH   5   9
HETATM    9  C10 UNL     1     -35.918  14.541  -3.895  1.00 20.00     0.272 C 
BRANCH   9  10
HETATM   10  C7  UNL     1     -35.068  13.334  -4.272  1.00 20.00     0.026 C 
HETATM   11  C4  UNL     1     -33.611  13.488  -3.856  1.00 20.00     0.007 C 
ENDBRANCH   9  10
ENDBRANCH   5   9
ENDBRANCH   4   5
ENDBRANCH   3   4
TORSDOF 6
ENDMDL
MODEL 5
REMARK VINA RESULT:      -3.9      0.863      4.707
REMARK  6 active torsions:
REMARK  status: ('A' for Active; 'I' for Inactive)
REMARK    1  A    between atoms: C5_5  and  C8_8 
REMARK    2  A    between atoms: C6_6  and  C9_9 
REMARK    3  A    between atoms: C7_7  and  C10_10 
REMARK    4  A    between atoms: C8_8  and  N11_11 
REMARK    5  A    between atoms: C9_9  and  N11_11 
REMARK    6  A    between atoms: C10_10  and  N11_11 
ROOT
HETATM    1  C1  UNL     1     -34.712  14.854  -7.670  1.00 20.00     0.012 C 
HETATM    2  C2  UNL     1     -34.339  15.715  -6.922  1.00 20.00    -0.116 C 
HETATM    3  C5  UNL     1     -33.879  16.772  -6.007  1.00 20.00     0.123 C 
ENDROOT
BRANCH   3   4
HETATM    4  C8  UNL     1     -34.838  16.973  -4.838  1.00 20.00     0.284 C 
BRANCH   4   5
HETATM    5  N11 UNL     1     -34.408  16.202  -3.672  1.00 20.00     0.089 N 
BRANCH   5   6
HETATM    6  C9  UNL     1     -35.369  15.140  -3.378  1.00 20.00     0.272 C 
BRANCH   6   7
HETATM    7  C6  UNL     1     -34.915  13.783  -3.906  1.00 20.00     0.026 C 
HETATM    8  C3  UNL     1     -33.414  13.573  -3.771  1.00 20.00     0.007 C 
ENDBRANCH   6   7
ENDBRANCH   5   6
BRANCH   5   9
HETATM    9  C10 UNL     1     -34.244  17.077  -2.512  1.00 20.00     0.272 C 
BRANCH   9  10
HETATM   10  C7  UNL     1     -34.628  16.390  -1.207  1.00 20.00     0.026 C 
HETATM   11  C4  UNL     1     -34.576  17.329  -0.010  1.00 20.00     0.007 C 
ENDBRANCH   9  10
ENDBRANCH   5   9
ENDBRANCH   4   5
ENDBRANCH   3   4
TORSDOF 6
ENDMDL
MODEL 6
REMARK VINA RESULT:      -3.9      1.867      2.788
REMARK  6 active torsions:
REMARK  status: ('A' for Active; 'I' for Inactive)
REMARK    1  A    between atoms: C5_5  and  C8_8 
REMARK    2  A    between atoms: C6_6  and  C9_9 
REMARK    3  A    between atoms: C7_7  and  C10_10 
REMARK    4  A    between atoms: C8_8  and  N11_11 
REMARK    5  A    between atoms: C9_9  and  N11_11 
REMARK    6  A    between atoms: C10_10  and  N11_11 
ROOT
HETATM    1  C1  UNL     1     -34.744  16.842  -0.771  1.00 20.00     0.012 C 
HETATM    2  C2  UNL     1     -34.258  16.353  -1.753  1.00 20.00    -0.116 C 
HETATM    3  C5  UNL     1     -33.658  15.755  -2.957  1.00 20.00     0.123 C 
ENDROOT
BRANCH   3   4
HETATM    4  C8  UNL     1     -34.371  14.472  -3.373  1.00 20.00     0.284 C 
BRANCH   4   5
HETATM    5  N11 UNL     1     -35.287  14.721  -4.486  1.00 20.00     0.089 N 
BRANCH   5   6
HETATM    6  C9  UNL     1     -36.668  14.470  -4.078  1.00 20.00     0.272 C 
BRANCH   6   7
HETATM    7  C6  UNL     1     -37.359  15.727  -3.562  1.00 20.00     0.026 C 
HETATM    8  C3  UNL     1     -37.273  16.888  -4.543  1.00 20.00     0.007 C 
ENDBRANCH   6   7
ENDBRANCH   5   6
BRANCH   5   9
HETATM    9  C10 UNL     1     -34.934  13.888  -5.635  1.00 20.00     0.272 C 
BRANCH   9  10
HETATM   10  C7  UNL     1     -34.909  14.677  -6.938  1.00 20.00     0.026 C 
HETATM   11  C4  UNL     1     -34.249  16.041  -6.787  1.00 20.00     0.007 C 
ENDBRANCH   9  10
ENDBRANCH   5   9
ENDBRANCH   4   5
ENDBRANCH   3   4
TORSDOF 6
ENDMDL
MODEL 7
REMARK VINA RESULT:      -3.9      1.090      3.504
REMARK  6 active torsions:
REMARK  status: ('A' for Active; 'I' for Inactive)
REMARK    1  A    between atoms: C5_5  and  C8_8 
REMARK    2  A    between atoms: C6_6  and  C9_9 
REMARK    3  A    between atoms: C7_7  and  C10_10 
REMARK    4  A    between atoms: C8_8  and  N11_11 
REMARK    5  A    between atoms: C9_9  and  N11_11 
REMARK    6  A    between atoms: C10_10  and  N11_11 
ROOT
HETATM    1  C1  UNL     1     -33.258  13.575  -3.668  1.00 20.00     0.012 C 
HETATM    2  C2  UNL     1     -34.436  13.715  -3.847  1.00 20.00    -0.116 C 
HETATM    3  C5  UNL     1     -35.882  13.883  -4.065  1.00 20.00     0.123 C 
ENDROOT
BRANCH   3   4
HETATM    4  C8  UNL     1     -36.308  15.345  -3.971  1.00 20.00     0.284 C 
BRANCH   4   5
HETATM    5  N11 UNL     1     -35.195  16.234  -4.302  1.00 20.00     0.089 N 
BRANCH   5   6
HETATM    6  C9  UNL     1     -35.112  17.330  -3.337  1.00 20.00     0.272 C 
BRANCH   6   7
HETATM    7  C6  UNL     1     -34.024  17.101  -2.292  1.00 20.00     0.026 C 
HETATM    8  C3  UNL     1     -34.577  16.579  -0.974  1.00 20.00     0.007 C 
ENDBRANCH   6   7
ENDBRANCH   5   6
BRANCH   5   9
HETATM    9  C10 UNL     1     -35.347  16.760  -5.659  1.00 20.00     0.272 C 
BRANCH   9  10
HETATM   10  C7  UNL     1     -34.215  16.322  -6.581  1.00 20.00     0.026 C 
HETATM   11  C4  UNL     1     -34.543  15.049  -7.350  1.00 20.00     0.007 C 
ENDBRANCH   9  10
ENDBRANCH   5   9
ENDBRANCH   4   5
ENDBRANCH   3   4
TORSDOF 6
ENDMDL
MODEL 8
REMARK VINA RESULT:      -3.9      1.132      2.667
REMARK  6 active torsions:
REMARK  status: ('A' for Active; 'I' for Inactive)
REMARK    1  A    between atoms: C5_5  and  C8_8 
REMARK    2  A    between atoms: C6_6  and  C9_9 
REMARK    3  A    between atoms: C7_7  and  C10_10 
REMARK    4  A    between atoms: C8_8  and  N11_11 
REMARK    5  A    between atoms: C9_9  and  N11_11 
REMARK    6  A    between atoms: C10_10  and  N11_11 
ROOT
HETATM    1  C1  UNL     1     -32.971  18.546  -0.586  1.00 20.00     0.012 C 
HETATM    2  C2  UNL     1     -33.714  17.628  -0.801  1.00 20.00    -0.116 C 
HETATM    3  C5  UNL     1     -34.625  16.502  -1.060  1.00 20.00     0.123 C 
ENDROOT
BRANCH   3   4
HETATM    4  C8  UNL     1     -34.806  16.246  -2.554  1.00 20.00     0.284 C 
BRANCH   4   5
HETATM    5  N11 UNL     1     -33.517  16.255  -3.243  1.00 20.00     0.089 N 
BRANCH   5   6
HETATM    6  C9  UNL     1     -33.558  17.157  -4.393  1.00 20.00     0.272 C 
BRANCH   6   7
HETATM    7  C6  UNL     1     -34.980  17.407  -4.884  1.00 20.00     0.026 C 
HETATM    8  C3  UNL     1     -35.253  16.775  -6.241  1.00 20.00     0.007 C 
ENDBRANCH   6   7
ENDBRANCH   5   6
BRANCH   5   9
HETATM    9  C10 UNL     1     -33.155  14.903  -3.669  1.00 20.00     0.272 C 
BRANCH   9  10
HETATM   10  C7  UNL     1     -34.323  13.930  -3.565  1.00 20.00     0.026 C 
HETATM   11  C4  UNL     1     -34.594  13.196  -4.872  1.00 20.00     0.007 C 
ENDBRANCH   9  10
ENDBRANCH   5   9
ENDBRANCH   4   5
ENDBRANCH   3   4
TORSDOF 6
ENDMDL
MODEL 9
REMARK VINA RESULT:      -3.8      1.620      4.294
REMARK  6 active torsions:
REMARK  status: ('A' for Active; 'I' for Inactive)
REMARK    1  A    between atoms: C5_5  and  C8_8 
REMARK    2  A    between atoms: C6_6  and  C9_9 
REMARK    3  A    between atoms: C7_7  and  C10_10 
REMARK    4  A    between atoms: C8_8  and  N11_11 
REMARK    5  A    between atoms: C9_9  and  N11_11 
REMARK    6  A    between atoms: C10_10  and  N11_11 
ROOT
HETATM    1  C1  UNL     1     -34.838  13.218  -4.359  1.00 20.00     0.012 C 
HETATM    2  C2  UNL     1     -34.002  14.026  -4.060  1.00 20.00    -0.116 C 
HETATM    3  C5  UNL     1     -32.975  15.013  -3.693  1.00 20.00     0.123 C 
ENDROOT
BRANCH   3   4
HETATM    4  C8  UNL     1     -33.267  16.388  -4.285  1.00 20.00     0.284 C 
BRANCH   4   5
HETATM    5  N11 UNL     1     -34.382  17.029  -3.591  1.00 20.00     0.089 N 
BRANCH   5   6
HETATM    6  C9  UNL     1     -35.337  17.577  -4.553  1.00 20.00     0.272 C 
BRANCH   6   7
HETATM    7  C6  UNL     1     -36.512  16.639  -4.804  1.00 20.00     0.026 C 
HETATM    8  C3  UNL     1     -37.118  16.099  -3.517  1.00 20.00     0.007 C 
ENDBRANCH   6   7
ENDBRANCH   5   6
BRANCH   5   9
HETATM    9  C10 UNL     1     -33.894  18.082  -2.700  1.00 20.00     0.272 C 
BRANCH   9  10
HETATM   10  C7  UNL     1     -33.602  17.565  -1.296  1.00 20.00     0.026 C 
HETATM   11  C4  UNL     1     -34.702  16.658  -0.763  1.00 20.00     0.007 C 
ENDBRANCH   9  10
ENDBRANCH   5   9
ENDBRANCH   4   5
ENDBRANCH   3   4
TORSDOF 6
ENDMDL
