MODEL 1
REMARK VINA RESULT:      -4.9      0.000      0.000
REMARK  3 active torsions:
REMARK  status: ('A' for Active; 'I' for Inactive)
REMARK    1  A    between atoms: C1_1  and  C3_3 
REMARK       I    between atoms: C1_1  and  N9_9 
REMARK    2  A    between atoms: C7_7  and  C8_8 
REMARK    3  A    between atoms: C8_8  and  N9_9 
ROOT
HETATM    1  C1  UNL     1     -33.340   6.416   3.883  1.00 20.00     0.222 C 
HETATM    2  N9  UNL     1     -34.310   5.604   3.326  1.00 20.00    -0.361 N 
HETATM    3  O10 UNL     1     -33.306   6.818   5.040  1.00 20.00    -0.273 OA
HETATM    4  H25 UNL     1     -34.218   5.342   2.348  1.00 20.00     0.162 HD
ENDROOT
BRANCH   1   5
HETATM    5  C3  UNL     1     -32.273   6.798   2.952  1.00 20.00     0.082 A 
HETATM    6  C2  UNL     1     -31.192   7.739   3.415  1.00 20.00     0.019 A 
HETATM    7  C4  UNL     1     -32.225   8.221   2.431  1.00 20.00    -0.005 A 
HETATM    8  C5  UNL     1     -31.846   8.485   1.014  1.00 20.00     0.011 C 
ENDBRANCH   1   5
BRANCH   2   9
HETATM    9  C8  UNL     1     -35.449   5.110   4.066  1.00 20.00     0.122 C 
BRANCH   9  10
HETATM   10  C7  UNL     1     -35.077   3.982   5.020  1.00 20.00     0.015 C 
HETATM   11  C6  UNL     1     -35.100   4.415   6.480  1.00 20.00     0.006 C 
ENDBRANCH   9  10
ENDBRANCH   2   9
TORSDOF 3
ENDMDL
MODEL 2
REMARK VINA RESULT:      -4.8      1.286      1.467
REMARK  3 active torsions:
REMARK  status: ('A' for Active; 'I' for Inactive)
REMARK    1  A    between atoms: C1_1  and  C3_3 
REMARK       I    between atoms: C1_1  and  N9_9 
REMARK    2  A    between atoms: C7_7  and  C8_8 
REMARK    3  A    between atoms: C8_8  and  N9_9 
ROOT
HETATM    1  C1  UNL     1     -33.496   6.328   3.649  1.00 20.00     0.222 C 
HETATM    2  N9  UNL     1     -33.369   6.592   4.999  1.00 20.00    -0.361 N 
HETATM    3  O10 UNL     1     -34.449   5.789   3.100  1.00 20.00    -0.273 OA
HETATM    4  H25 UNL     1     -32.522   7.048   5.325  1.00 20.00     0.162 HD
ENDROOT
BRANCH   1   5
HETATM    5  C3  UNL     1     -32.349   6.763   2.845  1.00 20.00     0.082 A 
HETATM    6  C2  UNL     1     -31.346   7.714   3.443  1.00 20.00     0.019 A 
HETATM    7  C4  UNL     1     -32.284   8.202   2.371  1.00 20.00    -0.005 A 
HETATM    8  C5  UNL     1     -31.768   8.518   1.010  1.00 20.00     0.011 C 
ENDBRANCH   1   5
BRANCH   2   9
HETATM    9  C8  UNL     1     -34.383   6.250   5.971  1.00 20.00     0.122 C 
BRANCH   9  10
HETATM   10  C7  UNL     1     -34.248   4.816   6.470  1.00 20.00     0.015 C 
HETATM   11  C6  UNL     1     -35.062   3.828   5.646  1.00 20.00     0.006 C 
ENDBRANCH   9  10
ENDBRANCH   2   9
TORSDOF 3
ENDMDL
MODEL 3
REMARK VINA RESULT:      -4.8      1.572      5.033
REMARK  3 active torsions:
REMARK  status: ('A' for Active; 'I' for Inactive)
REMARK    1  A    between atoms: C1_1  and  C3_3 
REMARK       I    between atoms: C1_1  and  N9_9 
REMARK    2  A    between atoms: C7_7  and  C8_8 
REMARK    3  A    between atoms: C8_8  and  N9_9 
ROOT
HETATM    1  C1  UNL     1     -33.717   6.159   3.474  1.00 20.00     0.222 C 
HETATM    2  N9  UNL     1     -32.831   7.217   3.546  1.00 20.00    -0.361 N 
HETATM    3  O10 UNL     1     -33.849   5.385   2.533  1.00 20.00    -0.273 OA
HETATM    4  H25 UNL     1     -32.823   7.784   4.389  1.00 20.00     0.162 HD
ENDROOT
BRANCH   1   5
HETATM    5  C3  UNL     1     -34.548   5.993   4.670  1.00 20.00     0.082 A 
HETATM    6  C2  UNL     1     -33.993   6.382   6.015  1.00 20.00     0.019 A 
HETATM    7  C4  UNL     1     -34.179   4.926   5.682  1.00 20.00    -0.005 A 
HETATM    8  C5  UNL     1     -35.246   4.133   6.355  1.00 20.00     0.011 C 
ENDBRANCH   1   5
BRANCH   2   9
HETATM    9  C8  UNL     1     -31.917   7.558   2.479  1.00 20.00     0.122 C 
BRANCH   9  10
HETATM   10  C7  UNL     1     -32.206   8.931   1.883  1.00 20.00     0.015 C 
HETATM   11  C6  UNL     1     -32.169   8.931   0.361  1.00 20.00     0.006 C 
ENDBRANCH   9  10
ENDBRANCH   2   9
TORSDOF 3
ENDMDL
MODEL 4
REMARK VINA RESULT:      -4.6      1.152      4.995
REMARK  3 active torsions:
REMARK  status: ('A' for Active; 'I' for Inactive)
REMARK    1  A    between atoms: C1_1  and  C3_3 
REMARK       I    between atoms: C1_1  and  N9_9 
REMARK    2  A    between atoms: C7_7  and  C8_8 
REMARK    3  A    between atoms: C8_8  and  N9_9 
ROOT
HETATM    1  C1  UNL     1     -32.945   6.591   3.912  1.00 20.00     0.222 C 
HETATM    2  N9  UNL     1     -32.625   6.952   2.617  1.00 20.00    -0.361 N 
HETATM    3  O10 UNL     1     -32.576   7.155   4.935  1.00 20.00    -0.273 OA
HETATM    4  H25 UNL     1     -33.000   6.396   1.854  1.00 20.00     0.162 HD
ENDROOT
BRANCH   1   5
HETATM    5  C3  UNL     1     -33.817   5.416   4.007  1.00 20.00     0.082 A 
HETATM    6  C2  UNL     1     -35.292   5.569   3.744  1.00 20.00     0.019 A 
HETATM    7  C4  UNL     1     -34.810   5.326   5.149  1.00 20.00    -0.005 A 
HETATM    8  C5  UNL     1     -35.066   4.018   5.815  1.00 20.00     0.011 C 
ENDBRANCH   1   5
BRANCH   2   9
HETATM    9  C8  UNL     1     -31.780   8.080   2.295  1.00 20.00     0.122 C 
BRANCH   9  10
HETATM   10  C7  UNL     1     -32.561   9.232   1.676  1.00 20.00     0.015 C 
HETATM   11  C6  UNL     1     -32.489   9.242   0.155  1.00 20.00     0.006 C 
ENDBRANCH   9  10
ENDBRANCH   2   9
TORSDOF 3
ENDMDL
MODEL 5
REMARK VINA RESULT:      -4.2     11.502     12.775
REMARK  3 active torsions:
REMARK  status: ('A' for Active; 'I' for Inactive)
REMARK    1  A    between atoms: C1_1  and  C3_3 
REMARK       I    between atoms: C1_1  and  N9_9 
REMARK    2  A    between atoms: C7_7  and  C8_8 
REMARK    3  A    between atoms: C8_8  and  N9_9 
ROOT
HETATM    1  C1  UNL     1     -34.573  13.826  -5.240  1.00 20.00     0.222 C 
HETATM    2  N9  UNL     1     -33.710  14.841  -4.873  1.00 20.00    -0.361 N 
HETATM    3  O10 UNL     1     -34.895  12.862  -4.555  1.00 20.00    -0.273 OA
HETATM    4  H25 UNL     1     -33.528  15.585  -5.541  1.00 20.00     0.162 HD
ENDROOT
BRANCH   1   5
HETATM    5  C3  UNL     1     -35.128  13.972  -6.590  1.00 20.00     0.082 A 
HETATM    6  C2  UNL     1     -34.645  15.096  -7.468  1.00 20.00     0.019 A 
HETATM    7  C4  UNL     1     -36.033  15.152  -6.890  1.00 20.00    -0.005 A 
HETATM    8  C5  UNL     1     -37.222  14.976  -7.772  1.00 20.00     0.011 C 
ENDBRANCH   1   5
BRANCH   2   9
HETATM    9  C8  UNL     1     -33.053  14.894  -3.587  1.00 20.00     0.122 C 
BRANCH   9  10
HETATM   10  C7  UNL     1     -33.495  16.093  -2.758  1.00 20.00     0.015 C 
HETATM   11  C6  UNL     1     -34.861  15.893  -2.116  1.00 20.00     0.006 C 
ENDBRANCH   9  10
ENDBRANCH   2   9
TORSDOF 3
ENDMDL
MODEL 6
REMARK VINA RESULT:      -4.2     11.570     12.435
REMARK  3 active torsions:
REMARK  status: ('A' for Active; 'I' for Inactive)
REMARK    1  A    between atoms: C1_1  and  C3_3 
REMARK       I    between atoms: C1_1  and  N9_9 
REMARK    2  A    between atoms: C7_7  and  C8_8 
REMARK    3  A    between atoms: C8_8  and  N9_9 
ROOT
HETATM    1  C1  UNL     1     -35.666  15.312  -3.351  1.00 20.00     0.222 C 
HETATM    2  N9  UNL     1     -34.658  14.872  -4.187  1.00 20.00    -0.361 N 
HETATM    3  O10 UNL     1     -36.777  14.809  -3.224  1.00 20.00    -0.273 OA
HETATM    4  H25 UNL     1     -33.779  15.382  -4.195  1.00 20.00     0.162 HD
ENDROOT
BRANCH   1   5
HETATM    5  C3  UNL     1     -35.313  16.496  -2.560  1.00 20.00     0.082 A 
HETATM    6  C2  UNL     1     -33.870  16.913  -2.463  1.00 20.00     0.019 A 
HETATM    7  C4  UNL     1     -34.551  16.314  -1.262  1.00 20.00    -0.005 A 
HETATM    8  C5  UNL     1     -34.875  17.163  -0.081  1.00 20.00     0.011 C 
ENDBRANCH   1   5
BRANCH   2   9
HETATM    9  C8  UNL     1     -34.792  13.721  -5.051  1.00 20.00     0.122 C 
BRANCH   9  10
HETATM   10  C7  UNL     1     -35.117  14.109  -6.489  1.00 20.00     0.015 C 
HETATM   11  C6  UNL     1     -34.334  15.327  -6.960  1.00 20.00     0.006 C 
ENDBRANCH   9  10
ENDBRANCH   2   9
TORSDOF 3
ENDMDL
MODEL 7
REMARK VINA RESULT:      -4.2     11.603     13.182
REMARK  3 active torsions:
REMARK  status: ('A' for Active; 'I' for Inactive)
REMARK    1  A    between atoms: C1_1  and  C3_3 
REMARK       I    between atoms: C1_1  and  N9_9 
REMARK    2  A    between atoms: C7_7  and  C8_8 
REMARK    3  A    between atoms: C8_8  and  N9_9 
ROOT
HETATM    1  C1  UNL     1     -33.540  15.971  -4.843  1.00 20.00     0.222 C 
HETATM    2  N9  UNL     1     -34.075  15.032  -5.704  1.00 20.00    -0.361 N 
HETATM    3  O10 UNL     1     -33.043  17.046  -5.157  1.00 20.00    -0.273 OA
HETATM    4  H25 UNL     1     -34.458  14.177  -5.310  1.00 20.00     0.162 HD
ENDROOT
BRANCH   1   5
HETATM    5  C3  UNL     1     -33.605  15.589  -3.428  1.00 20.00     0.082 A 
HETATM    6  C2  UNL     1     -34.662  14.617  -2.974  1.00 20.00     0.019 A 
HETATM    7  C4  UNL     1     -34.775  16.068  -2.589  1.00 20.00    -0.005 A 
HETATM    8  C5  UNL     1     -34.558  16.489  -1.177  1.00 20.00     0.011 C 
ENDBRANCH   1   5
BRANCH   2   9
HETATM    9  C8  UNL     1     -34.115  15.206  -7.139  1.00 20.00     0.122 C 
BRANCH   9  10
HETATM   10  C7  UNL     1     -35.427  14.724  -7.746  1.00 20.00     0.015 C 
HETATM   11  C6  UNL     1     -36.633  15.052  -6.878  1.00 20.00     0.006 C 
ENDBRANCH   9  10
ENDBRANCH   2   9
TORSDOF 3
ENDMDL
MODEL 8
REMARK VINA RESULT:      -4.1     11.256     12.141
REMARK  3 active torsions:
REMARK  status: ('A' for Active; 'I' for Inactive)
REMARK    1  A    between atoms: C1_1  and  C3_3 
REMARK       I    between atoms: C1_1  and  N9_9 
REMARK    2  A    between atoms: C7_7  and  C8_8 
REMARK    3  A    between atoms: C8_8  and  N9_9 
ROOT
HETATM    1  C1  UNL     1     -34.887  16.641  -2.673  1.00 20.00     0.222 C 
HETATM    2  N9  UNL     1     -33.651  16.244  -3.147  1.00 20.00    -0.361 N 
HETATM    3  O10 UNL     1     -35.978  16.287  -3.102  1.00 20.00    -0.273 OA
HETATM    4  H25 UNL     1     -32.818  16.615  -2.698  1.00 20.00     0.162 HD
ENDROOT
BRANCH   1   5
HETATM    5  C3  UNL     1     -34.821  17.576  -1.544  1.00 20.00     0.082 A 
HETATM    6  C2  UNL     1     -33.528  17.727  -0.786  1.00 20.00     0.019 A 
HETATM    7  C4  UNL     1     -34.691  17.024  -0.138  1.00 20.00    -0.005 A 
HETATM    8  C5  UNL     1     -35.425  17.668   0.988  1.00 20.00     0.011 C 
ENDBRANCH   1   5
BRANCH   2   9
HETATM    9  C8  UNL     1     -33.485  15.326  -4.252  1.00 20.00     0.122 C 
BRANCH   9  10
HETATM   10  C7  UNL     1     -33.650  13.872  -3.828  1.00 20.00     0.015 C 
HETATM   11  C6  UNL     1     -34.871  13.212  -4.452  1.00 20.00     0.006 C 
ENDBRANCH   9  10
ENDBRANCH   2   9
TORSDOF 3
ENDMDL
MODEL 9
REMARK VINA RESULT:      -4.0     11.726     12.560
REMARK  3 active torsions:
REMARK  status: ('A' for Active; 'I' for Inactive)
REMARK    1  A    between atoms: C1_1  and  C3_3 
REMARK       I    between atoms: C1_1  and  N9_9 
REMARK    2  A    between atoms: C7_7  and  C8_8 
REMARK    3  A    between atoms: C8_8  and  N9_9 
ROOT
HETATM    1  C1  UNL     1     -33.787  16.319  -3.780  1.00 20.00     0.222 C 
HETATM    2  N9  UNL     1     -34.991  15.731  -4.120  1.00 20.00    -0.361 N 
HETATM    3  O10 UNL     1     -32.940  16.741  -4.557  1.00 20.00    -0.273 OA
HETATM    4  H25 UNL     1     -35.606  15.423  -3.373  1.00 20.00     0.162 HD
ENDROOT
BRANCH   1   5
HETATM    5  C3  UNL     1     -33.560  16.421  -2.335  1.00 20.00     0.082 A 
HETATM    6  C2  UNL     1     -34.737  16.370  -1.397  1.00 20.00     0.019 A 
HETATM    7  C4  UNL     1     -34.010  17.672  -1.605  1.00 20.00    -0.005 A 
HETATM    8  C5  UNL     1     -33.171  18.245  -0.516  1.00 20.00     0.011 C 
ENDBRANCH   1   5
BRANCH   2   9
HETATM    9  C8  UNL     1     -35.416  15.533  -5.488  1.00 20.00     0.122 C 
BRANCH   9  10
HETATM   10  C7  UNL     1     -35.061  14.147  -6.011  1.00 20.00     0.015 C 
HETATM   11  C6  UNL     1     -34.775  13.152  -4.895  1.00 20.00     0.006 C 
ENDBRANCH   9  10
ENDBRANCH   2   9
TORSDOF 3
ENDMDL
