MODEL 1
REMARK VINA RESULT:      -4.4      0.000      0.000
REMARK  1 active torsions:
REMARK  status: ('A' for Active; 'I' for Inactive)
REMARK       I    between atoms: C1_1  and  N9_9 
REMARK    1  A    between atoms: C6_6  and  N9_9 
ROOT
HETATM    1  C2  UNL     1     -41.969   6.839  -1.605  1.00 20.00     0.002 C 
HETATM    2  C3  UNL     1     -41.004   6.466  -0.480  1.00 20.00     0.002 C 
HETATM    3  C4  UNL     1     -42.128   5.586  -2.462  1.00 20.00     0.031 C 
HETATM    4  C5  UNL     1     -40.627   5.006  -0.710  1.00 20.00     0.031 C 
HETATM    5  C6  UNL     1     -41.782   4.419  -1.530  1.00 20.00     0.029 C 
HETATM    6  C8  UNL     1     -42.968   4.028  -0.643  1.00 20.00     0.038 C 
ENDROOT
BRANCH   5   7
HETATM    7  N9  UNL     1     -41.349   3.264  -2.284  1.00 20.00    -0.353 N 
HETATM    8  C1  UNL     1     -42.104   2.701  -3.291  1.00 20.00     0.214 C 
HETATM    9  C7  UNL     1     -41.461   1.517  -3.934  1.00 20.00     0.117 C 
HETATM   10  O10 UNL     1     -43.203   3.078  -3.679  1.00 20.00    -0.274 OA
HETATM   11  H25 UNL     1     -40.452   2.850  -2.062  1.00 20.00     0.163 HD
ENDBRANCH   5   7
TORSDOF 1
ENDMDL
MODEL 2
REMARK VINA RESULT:      -4.4     12.212     13.492
REMARK  1 active torsions:
REMARK  status: ('A' for Active; 'I' for Inactive)
REMARK       I    between atoms: C1_1  and  N9_9 
REMARK    1  A    between atoms: C6_6  and  N9_9 
ROOT
HETATM    1  C2  UNL     1     -34.752  13.584  -5.341  1.00 20.00     0.002 C 
HETATM    2  C3  UNL     1     -34.992  14.940  -6.005  1.00 20.00     0.002 C 
HETATM    3  C4  UNL     1     -34.984  13.795  -3.847  1.00 20.00     0.031 C 
HETATM    4  C5  UNL     1     -35.358  15.905  -4.881  1.00 20.00     0.031 C 
HETATM    5  C6  UNL     1     -35.903  15.018  -3.755  1.00 20.00     0.029 C 
HETATM    6  C8  UNL     1     -37.371  14.645  -3.985  1.00 20.00     0.038 C 
ENDROOT
BRANCH   5   7
HETATM    7  N9  UNL     1     -35.773  15.670  -2.471  1.00 20.00    -0.353 N 
HETATM    8  C1  UNL     1     -34.571  16.144  -1.990  1.00 20.00     0.214 C 
HETATM    9  C7  UNL     1     -34.672  16.781  -0.644  1.00 20.00     0.117 C 
HETATM   10  O10 UNL     1     -33.484  16.085  -2.552  1.00 20.00    -0.274 OA
HETATM   11  H25 UNL     1     -36.601  15.783  -1.900  1.00 20.00     0.163 HD
ENDBRANCH   5   7
TORSDOF 1
ENDMDL
MODEL 3
REMARK VINA RESULT:      -4.4      2.696      4.031
REMARK  1 active torsions:
REMARK  status: ('A' for Active; 'I' for Inactive)
REMARK       I    between atoms: C1_1  and  N9_9 
REMARK    1  A    between atoms: C6_6  and  N9_9 
ROOT
HETATM    1  C2  UNL     1     -40.892   5.741  -0.052  1.00 20.00     0.002 C 
HETATM    2  C3  UNL     1     -41.546   4.764  -1.029  1.00 20.00     0.002 C 
HETATM    3  C4  UNL     1     -40.884   7.098  -0.749  1.00 20.00     0.031 C 
HETATM    4  C5  UNL     1     -41.902   5.579  -2.269  1.00 20.00     0.031 C 
HETATM    5  C6  UNL     1     -42.018   7.026  -1.778  1.00 20.00     0.029 C 
HETATM    6  C8  UNL     1     -43.384   7.301  -1.139  1.00 20.00     0.038 C 
ENDROOT
BRANCH   5   7
HETATM    7  N9  UNL     1     -41.800   7.961  -2.859  1.00 20.00    -0.353 N 
HETATM    8  C1  UNL     1     -42.520   7.929  -4.034  1.00 20.00     0.214 C 
HETATM    9  C7  UNL     1     -42.127   8.990  -5.008  1.00 20.00     0.117 C 
HETATM   10  O10 UNL     1     -43.410   7.139  -4.325  1.00 20.00    -0.274 OA
HETATM   11  H25 UNL     1     -41.087   8.671  -2.746  1.00 20.00     0.163 HD
ENDBRANCH   5   7
TORSDOF 1
ENDMDL
MODEL 4
REMARK VINA RESULT:      -4.3     12.957     13.726
REMARK  1 active torsions:
REMARK  status: ('A' for Active; 'I' for Inactive)
REMARK       I    between atoms: C1_1  and  N9_9 
REMARK    1  A    between atoms: C6_6  and  N9_9 
ROOT
HETATM    1  C2  UNL     1     -34.686  16.199  -1.584  1.00 20.00     0.002 C 
HETATM    2  C3  UNL     1     -33.815  17.363  -2.056  1.00 20.00     0.002 C 
HETATM    3  C4  UNL     1     -35.067  15.418  -2.838  1.00 20.00     0.031 C 
HETATM    4  C5  UNL     1     -33.711  17.228  -3.573  1.00 20.00     0.031 C 
HETATM    5  C6  UNL     1     -33.974  15.746  -3.861  1.00 20.00     0.029 C 
HETATM    6  C8  UNL     1     -32.719  14.893  -3.646  1.00 20.00     0.038 C 
ENDROOT
BRANCH   5   7
HETATM    7  N9  UNL     1     -34.454  15.556  -5.212  1.00 20.00    -0.353 N 
HETATM    8  C1  UNL     1     -34.807  14.323  -5.715  1.00 20.00     0.214 C 
HETATM    9  C7  UNL     1     -35.275  14.363  -7.132  1.00 20.00     0.117 C 
HETATM   10  O10 UNL     1     -34.769  13.252  -5.121  1.00 20.00    -0.274 OA
HETATM   11  H25 UNL     1     -34.533  16.366  -5.815  1.00 20.00     0.163 HD
ENDBRANCH   5   7
TORSDOF 1
ENDMDL
MODEL 5
REMARK VINA RESULT:      -4.3      9.811     11.088
REMARK  1 active torsions:
REMARK  status: ('A' for Active; 'I' for Inactive)
REMARK       I    between atoms: C1_1  and  N9_9 
REMARK    1  A    between atoms: C6_6  and  N9_9 
ROOT
HETATM    1  C2  UNL     1     -35.179   4.729   4.721  1.00 20.00     0.002 C 
HETATM    2  C3  UNL     1     -34.393   5.482   5.793  1.00 20.00     0.002 C 
HETATM    3  C4  UNL     1     -34.876   5.432   3.400  1.00 20.00     0.031 C 
HETATM    4  C5  UNL     1     -33.651   6.602   5.069  1.00 20.00     0.031 C 
HETATM    5  C6  UNL     1     -33.527   6.126   3.618  1.00 20.00     0.029 C 
HETATM    6  C8  UNL     1     -32.353   5.159   3.435  1.00 20.00     0.038 C 
ENDROOT
BRANCH   5   7
HETATM    7  N9  UNL     1     -33.367   7.245   2.716  1.00 20.00    -0.353 N 
HETATM    8  C1  UNL     1     -32.223   8.011   2.667  1.00 20.00     0.214 C 
HETATM    9  C7  UNL     1     -32.278   9.112   1.660  1.00 20.00     0.117 C 
HETATM   10  O10 UNL     1     -31.216   7.865   3.349  1.00 20.00    -0.274 OA
HETATM   11  H25 UNL     1     -34.131   7.476   2.092  1.00 20.00     0.163 HD
ENDBRANCH   5   7
TORSDOF 1
ENDMDL
MODEL 6
REMARK VINA RESULT:      -4.3     12.701     14.113
REMARK  1 active torsions:
REMARK  status: ('A' for Active; 'I' for Inactive)
REMARK       I    between atoms: C1_1  and  N9_9 
REMARK    1  A    between atoms: C6_6  and  N9_9 
ROOT
HETATM    1  C2  UNL     1     -34.910  14.963  -5.915  1.00 20.00     0.002 C 
HETATM    2  C3  UNL     1     -34.846  13.525  -5.401  1.00 20.00     0.002 C 
HETATM    3  C4  UNL     1     -34.885  15.857  -4.678  1.00 20.00     0.031 C 
HETATM    4  C5  UNL     1     -34.783  13.619  -3.879  1.00 20.00     0.031 C 
HETATM    5  C6  UNL     1     -34.215  15.013  -3.588  1.00 20.00     0.029 C 
HETATM    6  C8  UNL     1     -32.687  15.039  -3.706  1.00 20.00     0.038 C 
ENDROOT
BRANCH   5   7
HETATM    7  N9  UNL     1     -34.600  15.466  -2.270  1.00 20.00    -0.353 N 
HETATM    8  C1  UNL     1     -34.261  16.707  -1.776  1.00 20.00     0.214 C 
HETATM    9  C7  UNL     1     -34.764  16.963  -0.395  1.00 20.00     0.117 C 
HETATM   10  O10 UNL     1     -33.612  17.572  -2.354  1.00 20.00    -0.274 OA
HETATM   11  H25 UNL     1     -35.142  14.843  -1.684  1.00 20.00     0.163 HD
ENDBRANCH   5   7
TORSDOF 1
ENDMDL
MODEL 7
REMARK VINA RESULT:      -4.2     11.749     13.206
REMARK  1 active torsions:
REMARK  status: ('A' for Active; 'I' for Inactive)
REMARK       I    between atoms: C1_1  and  N9_9 
REMARK    1  A    between atoms: C6_6  and  N9_9 
ROOT
HETATM    1  C2  UNL     1     -33.256  16.328  -4.327  1.00 20.00     0.002 C 
HETATM    2  C3  UNL     1     -33.031  14.905  -3.818  1.00 20.00     0.002 C 
HETATM    3  C4  UNL     1     -34.721  16.653  -4.046  1.00 20.00     0.031 C 
HETATM    4  C5  UNL     1     -34.369  14.439  -3.252  1.00 20.00     0.031 C 
HETATM    5  C6  UNL     1     -35.122  15.725  -2.894  1.00 20.00     0.029 C 
HETATM    6  C8  UNL     1     -34.681  16.281  -1.536  1.00 20.00     0.038 C 
ENDROOT
BRANCH   5   7
HETATM    7  N9  UNL     1     -36.550  15.504  -2.878  1.00 20.00    -0.353 N 
HETATM    8  C1  UNL     1     -37.251  15.052  -3.975  1.00 20.00     0.214 C 
HETATM    9  C7  UNL     1     -38.715  14.895  -3.731  1.00 20.00     0.117 C 
HETATM   10  O10 UNL     1     -36.789  14.784  -5.078  1.00 20.00    -0.274 OA
HETATM   11  H25 UNL     1     -37.059  15.690  -2.022  1.00 20.00     0.163 HD
ENDBRANCH   5   7
TORSDOF 1
ENDMDL
MODEL 8
REMARK VINA RESULT:      -4.2     12.451     13.738
REMARK  1 active torsions:
REMARK  status: ('A' for Active; 'I' for Inactive)
REMARK       I    between atoms: C1_1  and  N9_9 
REMARK    1  A    between atoms: C6_6  and  N9_9 
ROOT
HETATM    1  C2  UNL     1     -34.450  15.135  -7.256  1.00 20.00     0.002 C 
HETATM    2  C3  UNL     1     -35.921  14.719  -7.254  1.00 20.00     0.002 C 
HETATM    3  C4  UNL     1     -34.109  15.495  -5.812  1.00 20.00     0.031 C 
HETATM    4  C5  UNL     1     -36.397  14.847  -5.810  1.00 20.00     0.031 C 
HETATM    5  C6  UNL     1     -35.128  14.733  -4.959  1.00 20.00     0.029 C 
HETATM    6  C8  UNL     1     -34.715  13.272  -4.748  1.00 20.00     0.038 C 
ENDROOT
BRANCH   5   7
HETATM    7  N9  UNL     1     -35.306  15.367  -3.672  1.00 20.00    -0.353 N 
HETATM    8  C1  UNL     1     -34.255  15.675  -2.836  1.00 20.00     0.214 C 
HETATM    9  C7  UNL     1     -34.671  16.328  -1.560  1.00 20.00     0.117 C 
HETATM   10  O10 UNL     1     -33.066  15.465  -3.049  1.00 20.00    -0.274 OA
HETATM   11  H25 UNL     1     -36.246  15.596  -3.372  1.00 20.00     0.163 HD
ENDBRANCH   5   7
TORSDOF 1
ENDMDL
MODEL 9
REMARK VINA RESULT:      -3.9     11.767     12.732
REMARK  1 active torsions:
REMARK  status: ('A' for Active; 'I' for Inactive)
REMARK       I    between atoms: C1_1  and  N9_9 
REMARK    1  A    between atoms: C6_6  and  N9_9 
ROOT
HETATM    1  C2  UNL     1     -33.732  13.636  -3.835  1.00 20.00     0.002 C 
HETATM    2  C3  UNL     1     -33.613  15.119  -3.485  1.00 20.00     0.002 C 
HETATM    3  C4  UNL     1     -35.017  13.491  -4.645  1.00 20.00     0.031 C 
HETATM    4  C5  UNL     1     -34.832  15.800  -4.102  1.00 20.00     0.031 C 
HETATM    5  C6  UNL     1     -35.267  14.878  -5.248  1.00 20.00     0.029 C 
HETATM    6  C8  UNL     1     -34.432  15.109  -6.511  1.00 20.00     0.038 C 
ENDROOT
BRANCH   5   7
HETATM    7  N9  UNL     1     -36.666  15.064  -5.561  1.00 20.00    -0.353 N 
HETATM    8  C1  UNL     1     -37.678  14.773  -4.671  1.00 20.00     0.214 C 
HETATM    9  C7  UNL     1     -39.045  15.043  -5.206  1.00 20.00     0.117 C 
HETATM   10  O10 UNL     1     -37.549  14.333  -3.535  1.00 20.00    -0.274 OA
HETATM   11  H25 UNL     1     -36.913  15.423  -6.475  1.00 20.00     0.163 HD
ENDBRANCH   5   7
TORSDOF 1
ENDMDL
