MODEL 1
REMARK VINA RESULT:      -4.7      0.000      0.000
REMARK  3 active torsions:
REMARK  status: ('A' for Active; 'I' for Inactive)
REMARK    1  A    between atoms: C5_5  and  S11_11 
REMARK    2  A    between atoms: C8_8  and  C9_9 
REMARK    3  A    between atoms: C8_8  and  S11_11 
ROOT
HETATM    1  C1  UNL     1     -34.696  13.604  -4.026  1.00 20.00     0.128 C 
HETATM    2  C2  UNL     1     -33.256  13.877  -3.672  1.00 20.00     0.079 C 
HETATM    3  C3  UNL     1     -35.583  14.798  -3.779  1.00 20.00     0.093 C 
HETATM    4  C4  UNL     1     -33.265  15.390  -3.476  1.00 20.00     0.023 C 
HETATM    5  C5  UNL     1     -34.664  15.682  -2.938  1.00 20.00     0.054 C 
HETATM    6  O10 UNL     1     -35.098  12.534  -4.468  1.00 20.00    -0.298 OA
ENDROOT
BRANCH   5   7
HETATM    7  S11 UNL     1     -35.104  17.435  -3.059  1.00 20.00    -0.164 SA
BRANCH   7   8
HETATM    8  C8  UNL     1     -35.658  17.671  -1.357  1.00 20.00     0.078 C 
BRANCH   8   9
HETATM    9  C9  UNL     1     -34.632  17.304  -0.272  1.00 20.00    -0.013 C 
HETATM   10  C6  UNL     1     -33.297  18.033  -0.451  1.00 20.00     0.010 C 
HETATM   11  C7  UNL     1     -35.170  17.508   1.145  1.00 20.00     0.010 C 
ENDBRANCH   8   9
ENDBRANCH   7   8
ENDBRANCH   5   7
TORSDOF 3
ENDMDL
MODEL 2
REMARK VINA RESULT:      -4.6      0.876      1.490
REMARK  3 active torsions:
REMARK  status: ('A' for Active; 'I' for Inactive)
REMARK    1  A    between atoms: C5_5  and  S11_11 
REMARK    2  A    between atoms: C8_8  and  C9_9 
REMARK    3  A    between atoms: C8_8  and  S11_11 
ROOT
HETATM    1  C1  UNL     1     -33.672  13.860  -3.758  1.00 20.00     0.128 C 
HETATM    2  C2  UNL     1     -35.149  13.678  -3.999  1.00 20.00     0.079 C 
HETATM    3  C3  UNL     1     -33.300  15.306  -3.550  1.00 20.00     0.093 C 
HETATM    4  C4  UNL     1     -35.697  15.054  -3.634  1.00 20.00     0.023 C 
HETATM    5  C5  UNL     1     -34.572  16.011  -4.020  1.00 20.00     0.054 C 
HETATM    6  O10 UNL     1     -32.866  12.937  -3.731  1.00 20.00    -0.298 OA
ENDROOT
BRANCH   5   7
HETATM    7  S11 UNL     1     -34.763  17.648  -3.270  1.00 20.00    -0.164 SA
BRANCH   7   8
HETATM    8  C8  UNL     1     -35.498  17.124  -1.706  1.00 20.00     0.078 C 
BRANCH   8   9
HETATM    9  C9  UNL     1     -34.540  17.099  -0.503  1.00 20.00    -0.013 C 
HETATM   10  C6  UNL     1     -33.277  17.933  -0.736  1.00 20.00     0.010 C 
HETATM   11  C7  UNL     1     -35.221  17.508   0.804  1.00 20.00     0.010 C 
ENDBRANCH   8   9
ENDBRANCH   7   8
ENDBRANCH   5   7
TORSDOF 3
ENDMDL
MODEL 3
REMARK VINA RESULT:      -4.5      1.247      1.424
REMARK  3 active torsions:
REMARK  status: ('A' for Active; 'I' for Inactive)
REMARK    1  A    between atoms: C5_5  and  S11_11 
REMARK    2  A    between atoms: C8_8  and  C9_9 
REMARK    3  A    between atoms: C8_8  and  S11_11 
ROOT
HETATM    1  C1  UNL     1     -34.650  13.697  -4.649  1.00 20.00     0.128 C 
HETATM    2  C2  UNL     1     -34.579  14.439  -5.959  1.00 20.00     0.079 C 
HETATM    3  C3  UNL     1     -34.330  14.583  -3.471  1.00 20.00     0.093 C 
HETATM    4  C4  UNL     1     -34.489  15.889  -5.492  1.00 20.00     0.023 C 
HETATM    5  C5  UNL     1     -33.731  15.802  -4.171  1.00 20.00     0.054 C 
HETATM    6  O10 UNL     1     -34.937  12.510  -4.551  1.00 20.00    -0.298 OA
ENDROOT
BRANCH   5   7
HETATM    7  S11 UNL     1     -33.891  17.308  -3.176  1.00 20.00    -0.164 SA
BRANCH   7   8
HETATM    8  C8  UNL     1     -34.702  16.575  -1.740  1.00 20.00     0.078 C 
BRANCH   8   9
HETATM    9  C9  UNL     1     -34.295  17.165  -0.380  1.00 20.00    -0.013 C 
HETATM   10  C6  UNL     1     -33.189  18.217  -0.499  1.00 20.00     0.010 C 
HETATM   11  C7  UNL     1     -35.484  17.723   0.404  1.00 20.00     0.010 C 
ENDBRANCH   8   9
ENDBRANCH   7   8
ENDBRANCH   5   7
TORSDOF 3
ENDMDL
MODEL 4
REMARK VINA RESULT:      -4.4      2.132      3.346
REMARK  3 active torsions:
REMARK  status: ('A' for Active; 'I' for Inactive)
REMARK    1  A    between atoms: C5_5  and  S11_11 
REMARK    2  A    between atoms: C8_8  and  C9_9 
REMARK    3  A    between atoms: C8_8  and  S11_11 
ROOT
HETATM    1  C1  UNL     1     -34.670  13.584  -3.990  1.00 20.00     0.128 C 
HETATM    2  C2  UNL     1     -33.210  13.823  -3.701  1.00 20.00     0.079 C 
HETATM    3  C3  UNL     1     -35.523  14.782  -3.657  1.00 20.00     0.093 C 
HETATM    4  C4  UNL     1     -33.183  15.328  -3.454  1.00 20.00     0.023 C 
HETATM    5  C5  UNL     1     -34.547  15.623  -2.836  1.00 20.00     0.054 C 
HETATM    6  O10 UNL     1     -35.113  12.537  -4.446  1.00 20.00    -0.298 OA
ENDROOT
BRANCH   5   7
HETATM    7  S11 UNL     1     -34.962  17.386  -2.874  1.00 20.00    -0.164 SA
BRANCH   7   8
HETATM    8  C8  UNL     1     -35.710  17.431  -4.517  1.00 20.00     0.078 C 
BRANCH   8   9
HETATM    9  C9  UNL     1     -34.790  17.924  -5.646  1.00 20.00    -0.013 C 
HETATM   10  C6  UNL     1     -33.536  18.629  -5.122  1.00 20.00     0.010 C 
HETATM   11  C7  UNL     1     -34.412  16.814  -6.628  1.00 20.00     0.010 C 
ENDBRANCH   8   9
ENDBRANCH   7   8
ENDBRANCH   5   7
TORSDOF 3
ENDMDL
MODEL 5
REMARK VINA RESULT:      -4.2     10.957     11.787
REMARK  3 active torsions:
REMARK  status: ('A' for Active; 'I' for Inactive)
REMARK    1  A    between atoms: C5_5  and  S11_11 
REMARK    2  A    between atoms: C8_8  and  C9_9 
REMARK    3  A    between atoms: C8_8  and  S11_11 
ROOT
HETATM    1  C1  UNL     1     -34.843   4.977   5.853  1.00 20.00     0.128 C 
HETATM    2  C2  UNL     1     -34.315   6.261   6.441  1.00 20.00     0.079 C 
HETATM    3  C3  UNL     1     -34.388   4.771   4.430  1.00 20.00     0.093 C 
HETATM    4  C4  UNL     1     -33.278   6.677   5.403  1.00 20.00     0.023 C 
HETATM    5  C5  UNL     1     -33.848   6.158   4.086  1.00 20.00     0.054 C 
HETATM    6  O10 UNL     1     -35.557   4.190   6.462  1.00 20.00    -0.298 OA
ENDROOT
BRANCH   5   7
HETATM    7  S11 UNL     1     -32.609   6.101   2.765  1.00 20.00    -0.164 SA
BRANCH   7   8
HETATM    8  C8  UNL     1     -32.074   7.824   2.850  1.00 20.00     0.078 C 
BRANCH   8   9
HETATM    9  C9  UNL     1     -32.462   8.695   1.644  1.00 20.00    -0.013 C 
HETATM   10  C6  UNL     1     -32.707  10.157   2.025  1.00 20.00     0.010 C 
HETATM   11  C7  UNL     1     -31.455   8.600   0.497  1.00 20.00     0.010 C 
ENDBRANCH   8   9
ENDBRANCH   7   8
ENDBRANCH   5   7
TORSDOF 3
ENDMDL
MODEL 6
REMARK VINA RESULT:      -4.2      1.998      2.681
REMARK  3 active torsions:
REMARK  status: ('A' for Active; 'I' for Inactive)
REMARK    1  A    between atoms: C5_5  and  S11_11 
REMARK    2  A    between atoms: C8_8  and  C9_9 
REMARK    3  A    between atoms: C8_8  and  S11_11 
ROOT
HETATM    1  C1  UNL     1     -37.246  14.872  -4.031  1.00 20.00     0.128 C 
HETATM    2  C2  UNL     1     -37.434  16.247  -4.618  1.00 20.00     0.079 C 
HETATM    3  C3  UNL     1     -35.791  14.533  -3.823  1.00 20.00     0.093 C 
HETATM    4  C4  UNL     1     -36.035  16.840  -4.480  1.00 20.00     0.023 C 
HETATM    5  C5  UNL     1     -35.110  15.635  -4.632  1.00 20.00     0.054 C 
HETATM    6  O10 UNL     1     -38.169  14.116  -3.752  1.00 20.00    -0.298 OA
ENDROOT
BRANCH   5   7
HETATM    7  S11 UNL     1     -33.428  15.972  -4.050  1.00 20.00    -0.164 SA
BRANCH   7   8
HETATM    8  C8  UNL     1     -33.795  17.432  -3.053  1.00 20.00     0.078 C 
BRANCH   8   9
HETATM    9  C9  UNL     1     -33.577  17.269  -1.540  1.00 20.00    -0.013 C 
HETATM   10  C6  UNL     1     -33.259  18.595  -0.842  1.00 20.00     0.010 C 
HETATM   11  C7  UNL     1     -34.742  16.563  -0.846  1.00 20.00     0.010 C 
ENDBRANCH   8   9
ENDBRANCH   7   8
ENDBRANCH   5   7
TORSDOF 3
ENDMDL
MODEL 7
REMARK VINA RESULT:      -4.1     10.467     11.364
REMARK  3 active torsions:
REMARK  status: ('A' for Active; 'I' for Inactive)
REMARK    1  A    between atoms: C5_5  and  S11_11 
REMARK    2  A    between atoms: C8_8  and  C9_9 
REMARK    3  A    between atoms: C8_8  and  S11_11 
ROOT
HETATM    1  C1  UNL     1     -34.731   5.347   5.413  1.00 20.00     0.128 C 
HETATM    2  C2  UNL     1     -35.025   5.004   3.974  1.00 20.00     0.079 C 
HETATM    3  C3  UNL     1     -33.538   6.259   5.551  1.00 20.00     0.093 C 
HETATM    4  C4  UNL     1     -34.131   5.991   3.229  1.00 20.00     0.023 C 
HETATM    5  C5  UNL     1     -32.929   6.166   4.153  1.00 20.00     0.054 C 
HETATM    6  O10 UNL     1     -35.387   4.934   6.361  1.00 20.00    -0.298 OA
ENDROOT
BRANCH   5   7
HETATM    7  S11 UNL     1     -31.940   7.627   3.739  1.00 20.00    -0.164 SA
BRANCH   7   8
HETATM    8  C8  UNL     1     -32.122   7.551   1.944  1.00 20.00     0.078 C 
BRANCH   8   9
HETATM    9  C9  UNL     1     -32.018   8.900   1.214  1.00 20.00    -0.013 C 
HETATM   10  C6  UNL     1     -32.531   8.834  -0.227  1.00 20.00     0.010 C 
HETATM   11  C7  UNL     1     -32.700  10.039   1.974  1.00 20.00     0.010 C 
ENDBRANCH   8   9
ENDBRANCH   7   8
ENDBRANCH   5   7
TORSDOF 3
ENDMDL
MODEL 8
REMARK VINA RESULT:      -4.0      2.919      4.851
REMARK  3 active torsions:
REMARK  status: ('A' for Active; 'I' for Inactive)
REMARK    1  A    between atoms: C5_5  and  S11_11 
REMARK    2  A    between atoms: C8_8  and  C9_9 
REMARK    3  A    between atoms: C8_8  and  S11_11 
ROOT
HETATM    1  C1  UNL     1     -33.571  13.892  -3.817  1.00 20.00     0.128 C 
HETATM    2  C2  UNL     1     -33.060  15.302  -3.661  1.00 20.00     0.079 C 
HETATM    3  C3  UNL     1     -35.041  13.850  -4.150  1.00 20.00     0.093 C 
HETATM    4  C4  UNL     1     -34.227  16.118  -4.208  1.00 20.00     0.023 C 
HETATM    5  C5  UNL     1     -35.456  15.288  -3.847  1.00 20.00     0.054 C 
HETATM    6  O10 UNL     1     -32.871  12.894  -3.689  1.00 20.00    -0.298 OA
ENDROOT
BRANCH   5   7
HETATM    7  S11 UNL     1     -36.929  15.785  -4.778  1.00 20.00    -0.164 SA
BRANCH   7   8
HETATM    8  C8  UNL     1     -36.091  16.571  -6.171  1.00 20.00     0.078 C 
BRANCH   8   9
HETATM    9  C9  UNL     1     -36.142  15.792  -7.496  1.00 20.00    -0.013 C 
HETATM   10  C6  UNL     1     -34.949  14.849  -7.672  1.00 20.00     0.010 C 
HETATM   11  C7  UNL     1     -37.458  15.037  -7.688  1.00 20.00     0.010 C 
ENDBRANCH   8   9
ENDBRANCH   7   8
ENDBRANCH   5   7
TORSDOF 3
ENDMDL
MODEL 9
REMARK VINA RESULT:      -3.9      3.062      4.172
REMARK  3 active torsions:
REMARK  status: ('A' for Active; 'I' for Inactive)
REMARK    1  A    between atoms: C5_5  and  S11_11 
REMARK    2  A    between atoms: C8_8  and  C9_9 
REMARK    3  A    between atoms: C8_8  and  S11_11 
ROOT
HETATM    1  C1  UNL     1     -34.920  16.477  -7.323  1.00 20.00     0.128 C 
HETATM    2  C2  UNL     1     -34.815  15.056  -7.817  1.00 20.00     0.079 C 
HETATM    3  C3  UNL     1     -35.677  16.575  -6.023  1.00 20.00     0.093 C 
HETATM    4  C4  UNL     1     -35.289  14.267  -6.601  1.00 20.00     0.023 C 
HETATM    5  C5  UNL     1     -36.312  15.188  -5.942  1.00 20.00     0.054 C 
HETATM    6  O10 UNL     1     -34.443  17.441  -7.910  1.00 20.00    -0.298 OA
ENDROOT
BRANCH   5   7
HETATM    7  S11 UNL     1     -36.686  14.705  -4.237  1.00 20.00    -0.164 SA
BRANCH   7   8
HETATM    8  C8  UNL     1     -35.105  13.926  -3.844  1.00 20.00     0.078 C 
BRANCH   8   9
HETATM    9  C9  UNL     1     -34.131  14.789  -3.025  1.00 20.00    -0.013 C 
HETATM   10  C6  UNL     1     -32.960  15.313  -3.860  1.00 20.00     0.010 C 
HETATM   11  C7  UNL     1     -34.828  15.939  -2.296  1.00 20.00     0.010 C 
ENDBRANCH   8   9
ENDBRANCH   7   8
ENDBRANCH   5   7
TORSDOF 3
ENDMDL
