MODEL 1
REMARK VINA RESULT:      -4.1      0.000      0.000
REMARK  4 active torsions:
REMARK  status: ('A' for Active; 'I' for Inactive)
REMARK    1  A    between atoms: C1_1  and  C6_6 
REMARK       I    between atoms: C1_1  and  N10_10 
REMARK    2  A    between atoms: C7_7  and  C8_8 
REMARK    3  A    between atoms: C7_7  and  C9_9 
REMARK    4  A    between atoms: C8_8  and  N10_10 
ROOT
HETATM    1  C1  UNL     1     -35.532  14.040  -4.730  1.00 20.00     0.218 C 
HETATM    2  C5  UNL     1     -37.814  14.693  -3.887  1.00 20.00     0.152 C 
HETATM    3  N10 UNL     1     -36.428  15.019  -4.244  1.00 20.00    -0.356 N 
HETATM    4  O11 UNL     1     -35.579  12.844  -4.429  1.00 20.00    -0.273 OA
ENDROOT
BRANCH   3   5
HETATM    5  C8  UNL     1     -36.037  16.389  -4.069  1.00 20.00     0.125 C 
BRANCH   5   6
HETATM    6  C7  UNL     1     -35.988  16.799  -2.598  1.00 20.00     0.024 C 
BRANCH   6   7
HETATM    7  C9  UNL     1     -34.806  16.217  -1.798  1.00 20.00    -0.021 C 
HETATM    8  C3  UNL     1     -34.694  16.933  -0.449  1.00 20.00     0.009 C 
HETATM    9  C4  UNL     1     -33.479  16.328  -2.551  1.00 20.00     0.009 C 
ENDBRANCH   6   7
ENDBRANCH   5   6
ENDBRANCH   3   5
BRANCH   1  10
HETATM   10  C6  UNL     1     -34.460  14.554  -5.682  1.00 20.00     0.098 C 
HETATM   11  C2  UNL     1     -34.931  14.594  -7.127  1.00 20.00     0.014 C 
ENDBRANCH   1  10
TORSDOF 4
ENDMDL
MODEL 2
REMARK VINA RESULT:      -4.1      1.406      2.032
REMARK  4 active torsions:
REMARK  status: ('A' for Active; 'I' for Inactive)
REMARK    1  A    between atoms: C1_1  and  C6_6 
REMARK       I    between atoms: C1_1  and  N10_10 
REMARK    2  A    between atoms: C7_7  and  C8_8 
REMARK    3  A    between atoms: C7_7  and  C9_9 
REMARK    4  A    between atoms: C8_8  and  N10_10 
ROOT
HETATM    1  C1  UNL     1     -36.372  14.489  -3.751  1.00 20.00     0.218 C 
HETATM    2  C5  UNL     1     -36.662  16.920  -3.157  1.00 20.00     0.152 C 
HETATM    3  N10 UNL     1     -35.883  15.677  -3.160  1.00 20.00    -0.356 N 
HETATM    4  O11 UNL     1     -37.568  14.192  -3.826  1.00 20.00    -0.273 OA
ENDROOT
BRANCH   3   5
HETATM    5  C8  UNL     1     -34.596  15.736  -2.527  1.00 20.00     0.125 C 
BRANCH   5   6
HETATM    6  C7  UNL     1     -34.188  17.164  -2.166  1.00 20.00     0.024 C 
BRANCH   6   7
HETATM    7  C9  UNL     1     -33.764  17.369  -0.699  1.00 20.00    -0.021 C 
HETATM    8  C3  UNL     1     -35.004  17.388   0.199  1.00 20.00     0.009 C 
HETATM    9  C4  UNL     1     -32.963  18.656  -0.497  1.00 20.00     0.009 C 
ENDBRANCH   6   7
ENDBRANCH   5   6
ENDBRANCH   3   5
BRANCH   1  10
HETATM   10  C6  UNL     1     -35.309  13.555  -4.313  1.00 20.00     0.098 C 
HETATM   11  C2  UNL     1     -34.916  13.905  -5.739  1.00 20.00     0.014 C 
ENDBRANCH   1  10
TORSDOF 4
ENDMDL
MODEL 3
REMARK VINA RESULT:      -4.0      2.658      4.526
REMARK  4 active torsions:
REMARK  status: ('A' for Active; 'I' for Inactive)
REMARK    1  A    between atoms: C1_1  and  C6_6 
REMARK       I    between atoms: C1_1  and  N10_10 
REMARK    2  A    between atoms: C7_7  and  C8_8 
REMARK    3  A    between atoms: C7_7  and  C9_9 
REMARK    4  A    between atoms: C8_8  and  N10_10 
ROOT
HETATM    1  C1  UNL     1     -33.875  17.832  -3.039  1.00 20.00     0.218 C 
HETATM    2  C5  UNL     1     -34.792  18.173  -5.361  1.00 20.00     0.152 C 
HETATM    3  N10 UNL     1     -33.976  17.432  -4.391  1.00 20.00    -0.356 N 
HETATM    4  O11 UNL     1     -33.962  19.001  -2.652  1.00 20.00    -0.273 OA
ENDROOT
BRANCH   3   5
HETATM    5  C8  UNL     1     -33.287  16.278  -4.895  1.00 20.00     0.125 C 
BRANCH   5   6
HETATM    6  C7  UNL     1     -34.223  15.305  -5.610  1.00 20.00     0.024 C 
BRANCH   6   7
HETATM    7  C9  UNL     1     -34.613  14.058  -4.794  1.00 20.00    -0.021 C 
HETATM    8  C3  UNL     1     -35.888  14.342  -3.995  1.00 20.00     0.009 C 
HETATM    9  C4  UNL     1     -33.501  13.607  -3.846  1.00 20.00     0.009 C 
ENDBRANCH   6   7
ENDBRANCH   5   6
ENDBRANCH   3   5
BRANCH   1  10
HETATM   10  C6  UNL     1     -33.642  16.706  -2.042  1.00 20.00     0.098 C 
HETATM   11  C2  UNL     1     -34.744  16.609  -0.999  1.00 20.00     0.014 C 
ENDBRANCH   1  10
TORSDOF 4
ENDMDL
MODEL 4
REMARK VINA RESULT:      -4.0      1.272      1.857
REMARK  4 active torsions:
REMARK  status: ('A' for Active; 'I' for Inactive)
REMARK    1  A    between atoms: C1_1  and  C6_6 
REMARK       I    between atoms: C1_1  and  N10_10 
REMARK    2  A    between atoms: C7_7  and  C8_8 
REMARK    3  A    between atoms: C7_7  and  C9_9 
REMARK    4  A    between atoms: C8_8  and  N10_10 
ROOT
HETATM    1  C1  UNL     1     -35.310  14.309  -5.233  1.00 20.00     0.218 C 
HETATM    2  C5  UNL     1     -35.775  16.782  -5.365  1.00 20.00     0.152 C 
HETATM    3  N10 UNL     1     -35.843  15.491  -4.670  1.00 20.00    -0.356 N 
HETATM    4  O11 UNL     1     -35.239  14.088  -6.445  1.00 20.00    -0.273 OA
ENDROOT
BRANCH   3   5
HETATM    5  C8  UNL     1     -36.484  15.499  -3.385  1.00 20.00     0.125 C 
BRANCH   5   6
HETATM    6  C7  UNL     1     -36.001  16.645  -2.498  1.00 20.00     0.024 C 
BRANCH   6   7
HETATM    7  C9  UNL     1     -34.724  16.347  -1.688  1.00 20.00    -0.021 C 
HETATM    8  C3  UNL     1     -34.855  16.939  -0.281  1.00 20.00     0.009 C 
HETATM    9  C4  UNL     1     -33.464  16.895  -2.360  1.00 20.00     0.009 C 
ENDBRANCH   6   7
ENDBRANCH   5   6
ENDBRANCH   3   5
BRANCH   1  10
HETATM   10  C6  UNL     1     -34.806  13.280  -4.231  1.00 20.00     0.098 C 
HETATM   11  C2  UNL     1     -33.367  13.529  -3.808  1.00 20.00     0.014 C 
ENDBRANCH   1  10
TORSDOF 4
ENDMDL
MODEL 5
REMARK VINA RESULT:      -4.0      2.067      2.560
REMARK  4 active torsions:
REMARK  status: ('A' for Active; 'I' for Inactive)
REMARK    1  A    between atoms: C1_1  and  C6_6 
REMARK       I    between atoms: C1_1  and  N10_10 
REMARK    2  A    between atoms: C7_7  and  C8_8 
REMARK    3  A    between atoms: C7_7  and  C9_9 
REMARK    4  A    between atoms: C8_8  and  N10_10 
ROOT
HETATM    1  C1  UNL     1     -34.088  15.490  -6.104  1.00 20.00     0.218 C 
HETATM    2  C5  UNL     1     -34.843  13.506  -4.747  1.00 20.00     0.152 C 
HETATM    3  N10 UNL     1     -34.109  14.769  -4.888  1.00 20.00    -0.356 N 
HETATM    4  O11 UNL     1     -34.177  14.971  -7.221  1.00 20.00    -0.273 OA
ENDROOT
BRANCH   3   5
HETATM    5  C8  UNL     1     -33.412  15.229  -3.720  1.00 20.00     0.125 C 
BRANCH   5   6
HETATM    6  C7  UNL     1     -34.363  15.639  -2.597  1.00 20.00     0.024 C 
BRANCH   6   7
HETATM    7  C9  UNL     1     -33.846  16.770  -1.686  1.00 20.00    -0.021 C 
HETATM    8  C3  UNL     1     -34.736  16.880  -0.444  1.00 20.00     0.009 C 
HETATM    9  C4  UNL     1     -33.793  18.120  -2.402  1.00 20.00     0.009 C 
ENDBRANCH   6   7
ENDBRANCH   5   6
ENDBRANCH   3   5
BRANCH   1  10
HETATM   10  C6  UNL     1     -33.945  16.999  -5.964  1.00 20.00     0.098 C 
HETATM   11  C2  UNL     1     -35.279  17.697  -5.752  1.00 20.00     0.014 C 
ENDBRANCH   1  10
TORSDOF 4
ENDMDL
MODEL 6
REMARK VINA RESULT:      -4.0      2.562      3.546
REMARK  4 active torsions:
REMARK  status: ('A' for Active; 'I' for Inactive)
REMARK    1  A    between atoms: C1_1  and  C6_6 
REMARK       I    between atoms: C1_1  and  N10_10 
REMARK    2  A    between atoms: C7_7  and  C8_8 
REMARK    3  A    between atoms: C7_7  and  C9_9 
REMARK    4  A    between atoms: C8_8  and  N10_10 
ROOT
HETATM    1  C1  UNL     1     -34.648  16.688  -6.533  1.00 20.00     0.218 C 
HETATM    2  C5  UNL     1     -33.551  18.577  -5.279  1.00 20.00     0.152 C 
HETATM    3  N10 UNL     1     -33.788  17.147  -5.509  1.00 20.00    -0.356 N 
HETATM    4  O11 UNL     1     -35.630  17.310  -6.946  1.00 20.00    -0.273 OA
ENDROOT
BRANCH   3   5
HETATM    5  C8  UNL     1     -33.096  16.243  -4.634  1.00 20.00     0.125 C 
BRANCH   5   6
HETATM    6  C7  UNL     1     -33.758  16.138  -3.262  1.00 20.00     0.024 C 
BRANCH   6   7
HETATM    7  C9  UNL     1     -34.594  14.862  -3.037  1.00 20.00    -0.021 C 
HETATM    8  C3  UNL     1     -33.953  13.688  -3.783  1.00 20.00     0.009 C 
HETATM    9  C4  UNL     1     -36.046  15.027  -3.488  1.00 20.00     0.009 C 
ENDBRANCH   6   7
ENDBRANCH   5   6
ENDBRANCH   3   5
BRANCH   1  10
HETATM   10  C6  UNL     1     -34.290  15.331  -7.123  1.00 20.00     0.098 C 
HETATM   11  C2  UNL     1     -35.480  14.386  -7.184  1.00 20.00     0.014 C 
ENDBRANCH   1  10
TORSDOF 4
ENDMDL
MODEL 7
REMARK VINA RESULT:      -3.9      1.721      4.348
REMARK  4 active torsions:
REMARK  status: ('A' for Active; 'I' for Inactive)
REMARK    1  A    between atoms: C1_1  and  C6_6 
REMARK       I    between atoms: C1_1  and  N10_10 
REMARK    2  A    between atoms: C7_7  and  C8_8 
REMARK    3  A    between atoms: C7_7  and  C9_9 
REMARK    4  A    between atoms: C8_8  and  N10_10 
ROOT
HETATM    1  C1  UNL     1     -35.670  16.290  -2.623  1.00 20.00     0.218 C 
HETATM    2  C5  UNL     1     -37.275  14.725  -3.773  1.00 20.00     0.152 C 
HETATM    3  N10 UNL     1     -35.922  15.101  -3.345  1.00 20.00    -0.356 N 
HETATM    4  O11 UNL     1     -36.340  17.321  -2.728  1.00 20.00    -0.273 OA
ENDROOT
BRANCH   3   5
HETATM    5  C8  UNL     1     -34.871  14.192  -3.704  1.00 20.00     0.125 C 
BRANCH   5   6
HETATM    6  C7  UNL     1     -34.726  14.033  -5.216  1.00 20.00     0.024 C 
BRANCH   6   7
HETATM    7  C9  UNL     1     -34.611  15.354  -6.002  1.00 20.00    -0.021 C 
HETATM    8  C3  UNL     1     -34.495  15.055  -7.500  1.00 20.00     0.009 C 
HETATM    9  C4  UNL     1     -33.419  16.201  -5.552  1.00 20.00     0.009 C 
ENDBRANCH   6   7
ENDBRANCH   5   6
ENDBRANCH   3   5
BRANCH   1  10
HETATM   10  C6  UNL     1     -34.484  16.233  -1.670  1.00 20.00     0.098 C 
HETATM   11  C2  UNL     1     -34.747  16.963  -0.363  1.00 20.00     0.014 C 
ENDBRANCH   1  10
TORSDOF 4
ENDMDL
MODEL 8
REMARK VINA RESULT:      -3.9      1.463      1.818
REMARK  4 active torsions:
REMARK  status: ('A' for Active; 'I' for Inactive)
REMARK    1  A    between atoms: C1_1  and  C6_6 
REMARK       I    between atoms: C1_1  and  N10_10 
REMARK    2  A    between atoms: C7_7  and  C8_8 
REMARK    3  A    between atoms: C7_7  and  C9_9 
REMARK    4  A    between atoms: C8_8  and  N10_10 
ROOT
HETATM    1  C1  UNL     1     -37.212  14.989  -4.089  1.00 20.00     0.218 C 
HETATM    2  C5  UNL     1     -38.699  16.987  -3.707  1.00 20.00     0.152 C 
HETATM    3  N10 UNL     1     -37.374  16.364  -3.802  1.00 20.00    -0.356 N 
HETATM    4  O11 UNL     1     -38.025  14.115  -3.776  1.00 20.00    -0.273 OA
ENDROOT
BRANCH   3   5
HETATM    5  C8  UNL     1     -36.251  17.232  -3.586  1.00 20.00     0.125 C 
BRANCH   5   6
HETATM    6  C7  UNL     1     -36.007  17.515  -2.105  1.00 20.00     0.024 C 
BRANCH   6   7
HETATM    7  C9  UNL     1     -34.939  16.625  -1.439  1.00 20.00    -0.021 C 
HETATM    8  C3  UNL     1     -34.476  17.269  -0.128  1.00 20.00     0.009 C 
HETATM    9  C4  UNL     1     -33.733  16.381  -2.347  1.00 20.00     0.009 C 
ENDBRANCH   6   7
ENDBRANCH   5   6
ENDBRANCH   3   5
BRANCH   1  10
HETATM   10  C6  UNL     1     -35.935  14.624  -4.832  1.00 20.00     0.098 C 
HETATM   11  C2  UNL     1     -35.226  13.424  -4.224  1.00 20.00     0.014 C 
ENDBRANCH   1  10
TORSDOF 4
ENDMDL
MODEL 9
REMARK VINA RESULT:      -3.8      1.890      3.149
REMARK  4 active torsions:
REMARK  status: ('A' for Active; 'I' for Inactive)
REMARK    1  A    between atoms: C1_1  and  C6_6 
REMARK       I    between atoms: C1_1  and  N10_10 
REMARK    2  A    between atoms: C7_7  and  C8_8 
REMARK    3  A    between atoms: C7_7  and  C9_9 
REMARK    4  A    between atoms: C8_8  and  N10_10 
ROOT
HETATM    1  C1  UNL     1     -34.871  13.755  -4.722  1.00 20.00     0.218 C 
HETATM    2  C5  UNL     1     -35.494  14.393  -7.078  1.00 20.00     0.152 C 
HETATM    3  N10 UNL     1     -35.533  14.616  -5.628  1.00 20.00    -0.356 N 
HETATM    4  O11 UNL     1     -34.681  12.552  -4.920  1.00 20.00    -0.273 OA
ENDROOT
BRANCH   3   5
HETATM    5  C8  UNL     1     -36.281  15.757  -5.184  1.00 20.00     0.125 C 
BRANCH   5   6
HETATM    6  C7  UNL     1     -36.002  17.002  -6.024  1.00 20.00     0.024 C 
BRANCH   6   7
HETATM    7  C9  UNL     1     -35.107  18.059  -5.347  1.00 20.00    -0.021 C 
HETATM    8  C3  UNL     1     -33.646  17.825  -5.740  1.00 20.00     0.009 C 
HETATM    9  C4  UNL     1     -35.239  18.047  -3.824  1.00 20.00     0.009 C 
ENDBRANCH   6   7
ENDBRANCH   5   6
ENDBRANCH   3   5
BRANCH   1  10
HETATM   10  C6  UNL     1     -34.386  14.412  -3.437  1.00 20.00     0.098 C 
HETATM   11  C2  UNL     1     -32.974  14.962  -3.557  1.00 20.00     0.014 C 
ENDBRANCH   1  10
TORSDOF 4
ENDMDL
