MODEL 1
REMARK VINA RESULT:      -4.1      0.000      0.000
REMARK  2 active torsions:
REMARK  status: ('A' for Active; 'I' for Inactive)
REMARK    1  A    between atoms: C1_1  and  C3_3 
REMARK       I    between atoms: C1_1  and  N9_9 
REMARK    2  A    between atoms: C8_8  and  N9_9 
ROOT
HETATM    1  C1  UNL     1     -35.588  15.121  -3.266  1.00 20.00     0.222 C 
HETATM    2  N9  UNL     1     -34.607  15.786  -2.555  1.00 20.00    -0.357 N 
HETATM    3  O10 UNL     1     -36.740  15.499  -3.444  1.00 20.00    -0.273 OA
HETATM    4  H25 UNL     1     -33.689  15.358  -2.484  1.00 20.00     0.162 HD
ENDROOT
BRANCH   1   5
HETATM    5  C3  UNL     1     -35.149  13.845  -3.841  1.00 20.00     0.082 A 
HETATM    6  C2  UNL     1     -33.677  13.595  -4.049  1.00 20.00     0.019 A 
HETATM    7  C4  UNL     1     -34.578  13.777  -5.237  1.00 20.00    -0.005 A 
HETATM    8  C5  UNL     1     -34.440  14.986  -6.098  1.00 20.00     0.011 C 
ENDBRANCH   1   5
BRANCH   2   9
HETATM    9  C8  UNL     1     -34.825  17.059  -1.909  1.00 20.00     0.076 C 
HETATM   10  C6  UNL     1     -33.829  18.073  -2.453  1.00 20.00     0.032 C 
HETATM   11  C7  UNL     1     -34.682  16.880  -0.405  1.00 20.00     0.032 C 
ENDBRANCH   2   9
TORSDOF 2
ENDMDL
MODEL 2
REMARK VINA RESULT:      -4.0      1.442      1.856
REMARK  2 active torsions:
REMARK  status: ('A' for Active; 'I' for Inactive)
REMARK    1  A    between atoms: C1_1  and  C3_3 
REMARK       I    between atoms: C1_1  and  N9_9 
REMARK    2  A    between atoms: C8_8  and  N9_9 
ROOT
HETATM    1  C1  UNL     1     -34.077  14.990  -3.177  1.00 20.00     0.222 C 
HETATM    2  N9  UNL     1     -34.692  15.839  -2.277  1.00 20.00    -0.357 N 
HETATM    3  O10 UNL     1     -32.883  14.961  -3.451  1.00 20.00    -0.273 OA
HETATM    4  H25 UNL     1     -35.695  15.759  -2.144  1.00 20.00     0.162 HD
ENDROOT
BRANCH   1   5
HETATM    5  C3  UNL     1     -34.993  14.054  -3.838  1.00 20.00     0.082 A 
HETATM    6  C2  UNL     1     -34.478  13.174  -4.948  1.00 20.00     0.019 A 
HETATM    7  C4  UNL     1     -35.444  14.281  -5.260  1.00 20.00    -0.005 A 
HETATM    8  C5  UNL     1     -34.995  15.459  -6.057  1.00 20.00     0.011 C 
ENDBRANCH   1   5
BRANCH   2   9
HETATM    9  C8  UNL     1     -33.975  16.837  -1.516  1.00 20.00     0.076 C 
HETATM   10  C6  UNL     1     -34.709  17.089  -0.207  1.00 20.00     0.032 C 
HETATM   11  C7  UNL     1     -33.861  18.104  -2.350  1.00 20.00     0.032 C 
ENDBRANCH   2   9
TORSDOF 2
ENDMDL
MODEL 3
REMARK VINA RESULT:      -4.0     12.305     13.907
REMARK  2 active torsions:
REMARK  status: ('A' for Active; 'I' for Inactive)
REMARK    1  A    between atoms: C1_1  and  C3_3 
REMARK       I    between atoms: C1_1  and  N9_9 
REMARK    2  A    between atoms: C8_8  and  N9_9 
ROOT
HETATM    1  C1  UNL     1     -41.796   4.042  -1.334  1.00 20.00     0.222 C 
HETATM    2  N9  UNL     1     -41.437   3.354  -2.478  1.00 20.00    -0.357 N 
HETATM    3  O10 UNL     1     -42.821   3.885  -0.682  1.00 20.00    -0.273 OA
HETATM    4  H25 UNL     1     -40.554   3.585  -2.923  1.00 20.00     0.162 HD
ENDROOT
BRANCH   1   5
HETATM    5  C3  UNL     1     -40.813   5.044  -0.906  1.00 20.00     0.082 A 
HETATM    6  C2  UNL     1     -41.202   6.064   0.134  1.00 20.00     0.019 A 
HETATM    7  C4  UNL     1     -40.969   6.497  -1.285  1.00 20.00    -0.005 A 
HETATM    8  C5  UNL     1     -42.110   6.983  -2.112  1.00 20.00     0.011 C 
ENDBRANCH   1   5
BRANCH   2   9
HETATM    9  C8  UNL     1     -42.259   2.324  -3.070  1.00 20.00     0.076 C 
HETATM   10  C6  UNL     1     -41.380   1.404  -3.905  1.00 20.00     0.032 C 
HETATM   11  C7  UNL     1     -43.344   2.980  -3.909  1.00 20.00     0.032 C 
ENDBRANCH   2   9
TORSDOF 2
ENDMDL
MODEL 4
REMARK VINA RESULT:      -3.9     10.132     11.148
REMARK  2 active torsions:
REMARK  status: ('A' for Active; 'I' for Inactive)
REMARK    1  A    between atoms: C1_1  and  C3_3 
REMARK       I    between atoms: C1_1  and  N9_9 
REMARK    2  A    between atoms: C8_8  and  N9_9 
ROOT
HETATM    1  C1  UNL     1     -32.329   6.946   3.308  1.00 20.00     0.222 C 
HETATM    2  N9  UNL     1     -32.719   7.612   2.162  1.00 20.00    -0.357 N 
HETATM    3  O10 UNL     1     -31.402   7.252   4.049  1.00 20.00    -0.273 OA
HETATM    4  H25 UNL     1     -33.508   7.249   1.636  1.00 20.00     0.162 HD
ENDROOT
BRANCH   1   5
HETATM    5  C3  UNL     1     -33.141   5.764   3.618  1.00 20.00     0.082 A 
HETATM    6  C2  UNL     1     -34.644   5.882   3.629  1.00 20.00     0.019 A 
HETATM    7  C4  UNL     1     -33.903   5.664   4.917  1.00 20.00    -0.005 A 
HETATM    8  C5  UNL     1     -33.863   6.742   5.946  1.00 20.00     0.011 C 
ENDBRANCH   1   5
BRANCH   2   9
HETATM    9  C8  UNL     1     -32.056   8.801   1.675  1.00 20.00     0.076 C 
HETATM   10  C6  UNL     1     -32.835  10.027   2.130  1.00 20.00     0.032 C 
HETATM   11  C7  UNL     1     -31.960   8.726   0.159  1.00 20.00     0.032 C 
ENDBRANCH   2   9
TORSDOF 2
ENDMDL
MODEL 5
REMARK VINA RESULT:      -3.9      1.777      2.496
REMARK  2 active torsions:
REMARK  status: ('A' for Active; 'I' for Inactive)
REMARK    1  A    between atoms: C1_1  and  C3_3 
REMARK       I    between atoms: C1_1  and  N9_9 
REMARK    2  A    between atoms: C8_8  and  N9_9 
ROOT
HETATM    1  C1  UNL     1     -33.830  16.132  -4.606  1.00 20.00     0.222 C 
HETATM    2  N9  UNL     1     -34.517  16.505  -3.466  1.00 20.00    -0.357 N 
HETATM    3  O10 UNL     1     -32.616  16.178  -4.771  1.00 20.00    -0.273 OA
HETATM    4  H25 UNL     1     -35.529  16.416  -3.462  1.00 20.00     0.162 HD
ENDROOT
BRANCH   1   5
HETATM    5  C3  UNL     1     -34.689  15.640  -5.688  1.00 20.00     0.082 A 
HETATM    6  C2  UNL     1     -36.083  15.165  -5.368  1.00 20.00     0.019 A 
HETATM    7  C4  UNL     1     -35.039  14.176  -5.799  1.00 20.00    -0.005 A 
HETATM    8  C5  UNL     1     -34.528  13.163  -4.831  1.00 20.00     0.011 C 
ENDBRANCH   1   5
BRANCH   2   9
HETATM    9  C8  UNL     1     -33.866  17.015  -2.282  1.00 20.00     0.076 C 
HETATM   10  C6  UNL     1     -34.630  16.547  -1.051  1.00 20.00     0.032 C 
HETATM   11  C7  UNL     1     -33.809  18.532  -2.365  1.00 20.00     0.032 C 
ENDBRANCH   2   9
TORSDOF 2
ENDMDL
MODEL 6
REMARK VINA RESULT:      -3.9      1.224      4.431
REMARK  2 active torsions:
REMARK  status: ('A' for Active; 'I' for Inactive)
REMARK    1  A    between atoms: C1_1  and  C3_3 
REMARK       I    between atoms: C1_1  and  N9_9 
REMARK    2  A    between atoms: C8_8  and  N9_9 
ROOT
HETATM    1  C1  UNL     1     -35.016  16.372  -2.086  1.00 20.00     0.222 C 
HETATM    2  N9  UNL     1     -34.156  15.527  -2.762  1.00 20.00    -0.357 N 
HETATM    3  O10 UNL     1     -36.026  16.897  -2.540  1.00 20.00    -0.273 OA
HETATM    4  H25 UNL     1     -33.350  15.160  -2.264  1.00 20.00     0.162 HD
ENDROOT
BRANCH   1   5
HETATM    5  C3  UNL     1     -34.633  16.626  -0.693  1.00 20.00     0.082 A 
HETATM    6  C2  UNL     1     -35.254  17.784   0.046  1.00 20.00     0.019 A 
HETATM    7  C4  UNL     1     -33.799  17.830  -0.324  1.00 20.00    -0.005 A 
HETATM    8  C5  UNL     1     -33.320  18.806  -1.343  1.00 20.00     0.011 C 
ENDBRANCH   1   5
BRANCH   2   9
HETATM    9  C8  UNL     1     -34.347  15.143  -4.141  1.00 20.00     0.076 C 
HETATM   10  C6  UNL     1     -33.972  13.677  -4.308  1.00 20.00     0.032 C 
HETATM   11  C7  UNL     1     -33.500  16.044  -5.026  1.00 20.00     0.032 C 
ENDBRANCH   2   9
TORSDOF 2
ENDMDL
MODEL 7
REMARK VINA RESULT:      -3.9     11.690     12.615
REMARK  2 active torsions:
REMARK  status: ('A' for Active; 'I' for Inactive)
REMARK    1  A    between atoms: C1_1  and  C3_3 
REMARK       I    between atoms: C1_1  and  N9_9 
REMARK    2  A    between atoms: C8_8  and  N9_9 
ROOT
HETATM    1  C1  UNL     1     -34.050   5.879   3.824  1.00 20.00     0.222 C 
HETATM    2  N9  UNL     1     -33.036   6.762   4.143  1.00 20.00    -0.357 N 
HETATM    3  O10 UNL     1     -34.170   5.257   2.774  1.00 20.00    -0.273 OA
HETATM    4  H25 UNL     1     -33.057   7.213   5.053  1.00 20.00     0.162 HD
ENDROOT
BRANCH   1   5
HETATM    5  C3  UNL     1     -35.051   5.709   4.883  1.00 20.00     0.082 A 
HETATM    6  C2  UNL     1     -34.627   5.821   6.326  1.00 20.00     0.019 A 
HETATM    7  C4  UNL     1     -35.042   4.488   5.772  1.00 20.00    -0.005 A 
HETATM    8  C5  UNL     1     -34.036   3.400   5.616  1.00 20.00     0.011 C 
ENDBRANCH   1   5
BRANCH   2   9
HETATM    9  C8  UNL     1     -31.948   7.073   3.245  1.00 20.00     0.076 C 
HETATM   10  C6  UNL     1     -30.805   7.688   4.040  1.00 20.00     0.032 C 
HETATM   11  C7  UNL     1     -32.455   8.018   2.166  1.00 20.00     0.032 C 
ENDBRANCH   2   9
TORSDOF 2
ENDMDL
MODEL 8
REMARK VINA RESULT:      -3.9      2.307      3.441
REMARK  2 active torsions:
REMARK  status: ('A' for Active; 'I' for Inactive)
REMARK    1  A    between atoms: C1_1  and  C3_3 
REMARK       I    between atoms: C1_1  and  N9_9 
REMARK    2  A    between atoms: C8_8  and  N9_9 
ROOT
HETATM    1  C1  UNL     1     -35.316  14.066  -3.916  1.00 20.00     0.222 C 
HETATM    2  N9  UNL     1     -36.405  14.901  -3.745  1.00 20.00    -0.357 N 
HETATM    3  O10 UNL     1     -35.281  13.047  -4.596  1.00 20.00    -0.273 OA
HETATM    4  H25 UNL     1     -36.299  15.717  -3.150  1.00 20.00     0.162 HD
ENDROOT
BRANCH   1   5
HETATM    5  C3  UNL     1     -34.116  14.493  -3.189  1.00 20.00     0.082 A 
HETATM    6  C2  UNL     1     -34.049  15.890  -2.625  1.00 20.00     0.019 A 
HETATM    7  C4  UNL     1     -33.168  15.509  -3.781  1.00 20.00    -0.005 A 
HETATM    8  C5  UNL     1     -33.395  16.117  -5.123  1.00 20.00     0.011 C 
ENDBRANCH   1   5
BRANCH   2   9
HETATM    9  C8  UNL     1     -37.685  14.668  -4.372  1.00 20.00     0.076 C 
HETATM   10  C6  UNL     1     -37.712  15.361  -5.726  1.00 20.00     0.032 C 
HETATM   11  C7  UNL     1     -38.784  15.182  -3.454  1.00 20.00     0.032 C 
ENDBRANCH   2   9
TORSDOF 2
ENDMDL
MODEL 9
REMARK VINA RESULT:      -3.9      1.616      4.337
REMARK  2 active torsions:
REMARK  status: ('A' for Active; 'I' for Inactive)
REMARK    1  A    between atoms: C1_1  and  C3_3 
REMARK       I    between atoms: C1_1  and  N9_9 
REMARK    2  A    between atoms: C8_8  and  N9_9 
ROOT
HETATM    1  C1  UNL     1     -34.112  16.298  -2.998  1.00 20.00     0.222 C 
HETATM    2  N9  UNL     1     -35.131  15.366  -2.947  1.00 20.00    -0.357 N 
HETATM    3  O10 UNL     1     -33.533  16.689  -4.005  1.00 20.00    -0.273 OA
HETATM    4  H25 UNL     1     -35.524  15.130  -2.041  1.00 20.00     0.162 HD
ENDROOT
BRANCH   1   5
HETATM    5  C3  UNL     1     -33.728  16.837  -1.689  1.00 20.00     0.082 A 
HETATM    6  C2  UNL     1     -34.707  16.766  -0.544  1.00 20.00     0.019 A 
HETATM    7  C4  UNL     1     -34.363  18.096  -1.150  1.00 20.00    -0.005 A 
HETATM    8  C5  UNL     1     -35.393  18.855  -1.914  1.00 20.00     0.011 C 
ENDBRANCH   1   5
BRANCH   2   9
HETATM    9  C8  UNL     1     -35.663  14.712  -4.121  1.00 20.00     0.076 C 
HETATM   10  C6  UNL     1     -37.178  14.632  -4.004  1.00 20.00     0.032 C 
HETATM   11  C7  UNL     1     -35.034  13.333  -4.243  1.00 20.00     0.032 C 
ENDBRANCH   2   9
TORSDOF 2
ENDMDL
