MODEL 1
REMARK VINA RESULT:      -3.7      0.000      0.000
REMARK  0 active torsions:
REMARK  status: ('A' for Active; 'I' for Inactive)
ROOT
HETATM    1  C1  UNL     1     -34.077  18.088  -6.426  1.00 20.00     0.003 C 
HETATM    2  C2  UNL     1     -34.378  16.715  -7.039  1.00 20.00     0.037 C 
HETATM    3  C3  UNL     1     -33.610  17.827  -4.984  1.00 20.00     0.017 C 
HETATM    4  C4  UNL     1     -34.524  13.559  -4.933  1.00 20.00     0.280 C 
HETATM    5  C5  UNL     1     -33.489  13.838  -3.839  1.00 20.00     0.104 C 
HETATM    6  C6  UNL     1     -34.506  15.792  -5.830  1.00 20.00     0.234 C 
HETATM    7  C7  UNL     1     -33.391  16.319  -4.932  1.00 20.00     0.080 C 
HETATM    8  N8  UNL     1     -34.352  14.376  -6.140  1.00 20.00     0.089 N 
HETATM    9  S9  UNL     1     -33.498  15.576  -3.289  1.00 20.00    -0.160 SA
HETATM   10  H22 UNL     1     -33.424  14.209  -6.530  1.00 20.00     0.316 HD
ENDROOT
TORSDOF 0
ENDMDL
MODEL 2
REMARK VINA RESULT:      -3.7      2.870      3.815
REMARK  0 active torsions:
REMARK  status: ('A' for Active; 'I' for Inactive)
ROOT
HETATM    1  C1  UNL     1     -34.090  13.364  -4.438  1.00 20.00     0.003 C 
HETATM    2  C2  UNL     1     -35.575  13.657  -4.188  1.00 20.00     0.037 C 
HETATM    3  C3  UNL     1     -33.305  14.512  -3.782  1.00 20.00     0.017 C 
HETATM    4  C4  UNL     1     -36.765  16.992  -2.815  1.00 20.00     0.280 C 
HETATM    5  C5  UNL     1     -35.608  17.410  -1.902  1.00 20.00     0.104 C 
HETATM    6  C6  UNL     1     -35.600  15.136  -3.813  1.00 20.00     0.234 C 
HETATM    7  C7  UNL     1     -34.348  15.247  -2.948  1.00 20.00     0.080 C 
HETATM    8  N8  UNL     1     -36.805  15.553  -3.107  1.00 20.00     0.089 N 
HETATM    9  S9  UNL     1     -33.976  16.978  -2.591  1.00 20.00    -0.160 SA
HETATM   10  H22 UNL     1     -36.887  15.035  -2.232  1.00 20.00     0.316 HD
ENDROOT
TORSDOF 0
ENDMDL
MODEL 3
REMARK VINA RESULT:      -3.7      1.308      1.904
REMARK  0 active torsions:
REMARK  status: ('A' for Active; 'I' for Inactive)
ROOT
HETATM    1  C1  UNL     1     -35.414  15.794  -7.918  1.00 20.00     0.003 C 
HETATM    2  C2  UNL     1     -35.188  14.407  -7.301  1.00 20.00     0.037 C 
HETATM    3  C3  UNL     1     -34.754  16.805  -6.966  1.00 20.00     0.017 C 
HETATM    4  C4  UNL     1     -33.856  13.968  -3.773  1.00 20.00     0.280 C 
HETATM    5  C5  UNL     1     -32.929  15.177  -3.612  1.00 20.00     0.104 C 
HETATM    6  C6  UNL     1     -34.823  14.706  -5.850  1.00 20.00     0.234 C 
HETATM    7  C7  UNL     1     -33.940  15.940  -6.010  1.00 20.00     0.080 C 
HETATM    8  N8  UNL     1     -34.138  13.614  -5.169  1.00 20.00     0.089 N 
HETATM    9  S9  UNL     1     -33.591  16.681  -4.400  1.00 20.00    -0.160 SA
HETATM   10  H22 UNL     1     -33.261  13.408  -5.648  1.00 20.00     0.316 HD
ENDROOT
TORSDOF 0
ENDMDL
MODEL 4
REMARK VINA RESULT:      -3.7      1.973      3.795
REMARK  0 active torsions:
REMARK  status: ('A' for Active; 'I' for Inactive)
ROOT
HETATM    1  C1  UNL     1     -34.709  13.202  -4.888  1.00 20.00     0.003 C 
HETATM    2  C2  UNL     1     -34.196  13.859  -3.600  1.00 20.00     0.037 C 
HETATM    3  C3  UNL     1     -34.791  14.317  -5.942  1.00 20.00     0.017 C 
HETATM    4  C4  UNL     1     -33.955  17.630  -3.225  1.00 20.00     0.280 C 
HETATM    5  C5  UNL     1     -33.630  18.088  -4.651  1.00 20.00     0.104 C 
HETATM    6  C6  UNL     1     -34.432  15.350  -3.830  1.00 20.00     0.234 C 
HETATM    7  C7  UNL     1     -34.056  15.490  -5.301  1.00 20.00     0.080 C 
HETATM    8  N8  UNL     1     -33.643  16.219  -2.966  1.00 20.00     0.089 N 
HETATM    9  S9  UNL     1     -34.515  17.124  -5.919  1.00 20.00    -0.160 SA
HETATM   10  H22 UNL     1     -32.650  16.058  -3.133  1.00 20.00     0.316 HD
ENDROOT
TORSDOF 0
ENDMDL
MODEL 5
REMARK VINA RESULT:      -3.7      1.447      3.342
REMARK  0 active torsions:
REMARK  status: ('A' for Active; 'I' for Inactive)
ROOT
HETATM    1  C1  UNL     1     -34.726  13.292  -4.999  1.00 20.00     0.003 C 
HETATM    2  C2  UNL     1     -34.674  14.482  -5.966  1.00 20.00     0.037 C 
HETATM    3  C3  UNL     1     -34.520  13.869  -3.589  1.00 20.00     0.017 C 
HETATM    4  C4  UNL     1     -33.538  17.930  -4.852  1.00 20.00     0.280 C 
HETATM    5  C5  UNL     1     -34.012  17.984  -3.396  1.00 20.00     0.104 C 
HETATM    6  C6  UNL     1     -34.010  15.589  -5.150  1.00 20.00     0.234 C 
HETATM    7  C7  UNL     1     -34.648  15.376  -3.781  1.00 20.00     0.080 C 
HETATM    8  N8  UNL     1     -34.238  16.931  -5.670  1.00 20.00     0.089 N 
HETATM    9  S9  UNL     1     -33.823  16.389  -2.534  1.00 20.00    -0.160 SA
HETATM   10  H22 UNL     1     -35.237  17.136  -5.668  1.00 20.00     0.316 HD
ENDROOT
TORSDOF 0
ENDMDL
MODEL 6
REMARK VINA RESULT:      -3.7      2.090      2.668
REMARK  0 active torsions:
REMARK  status: ('A' for Active; 'I' for Inactive)
ROOT
HETATM    1  C1  UNL     1     -35.886  14.902  -7.449  1.00 20.00     0.003 C 
HETATM    2  C2  UNL     1     -34.399  15.106  -7.130  1.00 20.00     0.037 C 
HETATM    3  C3  UNL     1     -36.642  15.068  -6.121  1.00 20.00     0.017 C 
HETATM    4  C4  UNL     1     -33.112  15.265  -3.561  1.00 20.00     0.280 C 
HETATM    5  C5  UNL     1     -34.282  15.912  -2.811  1.00 20.00     0.104 C 
HETATM    6  C6  UNL     1     -34.322  14.934  -5.615  1.00 20.00     0.234 C 
HETATM    7  C7  UNL     1     -35.598  15.639  -5.167  1.00 20.00     0.080 C 
HETATM    8  N8  UNL     1     -33.126  15.505  -5.009  1.00 20.00     0.089 N 
HETATM    9  S9  UNL     1     -35.905  15.339  -3.413  1.00 20.00    -0.160 SA
HETATM   10  H22 UNL     1     -33.099  16.510  -5.184  1.00 20.00     0.316 HD
ENDROOT
TORSDOF 0
ENDMDL
MODEL 7
REMARK VINA RESULT:      -3.6      2.126      2.933
REMARK  0 active torsions:
REMARK  status: ('A' for Active; 'I' for Inactive)
ROOT
HETATM    1  C1  UNL     1     -34.025  17.395  -2.114  1.00 20.00     0.003 C 
HETATM    2  C2  UNL     1     -34.503  15.945  -1.960  1.00 20.00     0.037 C 
HETATM    3  C3  UNL     1     -33.871  17.644  -3.623  1.00 20.00     0.017 C 
HETATM    4  C4  UNL     1     -34.516  13.512  -4.875  1.00 20.00     0.280 C 
HETATM    5  C5  UNL     1     -34.807  14.424  -6.071  1.00 20.00     0.104 C 
HETATM    6  C6  UNL     1     -34.175  15.306  -3.307  1.00 20.00     0.234 C 
HETATM    7  C7  UNL     1     -34.536  16.433  -4.269  1.00 20.00     0.080 C 
HETATM    8  N8  UNL     1     -34.914  14.080  -3.581  1.00 20.00     0.089 N 
HETATM    9  S9  UNL     1     -33.976  16.042  -5.941  1.00 20.00    -0.160 SA
HETATM   10  H22 UNL     1     -35.915  14.277  -3.594  1.00 20.00     0.316 HD
ENDROOT
TORSDOF 0
ENDMDL
MODEL 8
REMARK VINA RESULT:      -3.6      1.921      3.881
REMARK  0 active torsions:
REMARK  status: ('A' for Active; 'I' for Inactive)
ROOT
HETATM    1  C1  UNL     1     -33.955  13.657  -3.487  1.00 20.00     0.003 C 
HETATM    2  C2  UNL     1     -33.295  15.010  -3.779  1.00 20.00     0.037 C 
HETATM    3  C3  UNL     1     -34.877  13.357  -4.680  1.00 20.00     0.017 C 
HETATM    4  C4  UNL     1     -34.458  17.245  -6.619  1.00 20.00     0.280 C 
HETATM    5  C5  UNL     1     -34.921  16.234  -7.673  1.00 20.00     0.104 C 
HETATM    6  C6  UNL     1     -34.176  15.622  -4.864  1.00 20.00     0.234 C 
HETATM    7  C7  UNL     1     -34.488  14.400  -5.722  1.00 20.00     0.080 C 
HETATM    8  N8  UNL     1     -33.534  16.688  -5.623  1.00 20.00     0.089 N 
HETATM    9  S9  UNL     1     -35.762  14.791  -6.941  1.00 20.00    -0.160 SA
HETATM   10  H22 UNL     1     -32.708  16.322  -6.098  1.00 20.00     0.316 HD
ENDROOT
TORSDOF 0
ENDMDL
MODEL 9
REMARK VINA RESULT:      -3.6      2.267      3.310
REMARK  0 active torsions:
REMARK  status: ('A' for Active; 'I' for Inactive)
ROOT
HETATM    1  C1  UNL     1     -34.361  15.879  -2.370  1.00 20.00     0.003 C 
HETATM    2  C2  UNL     1     -33.352  15.709  -3.513  1.00 20.00     0.037 C 
HETATM    3  C3  UNL     1     -35.750  15.614  -2.974  1.00 20.00     0.017 C 
HETATM    4  C4  UNL     1     -34.448  15.399  -7.135  1.00 20.00     0.280 C 
HETATM    5  C5  UNL     1     -35.792  14.672  -7.017  1.00 20.00     0.104 C 
HETATM    6  C6  UNL     1     -34.207  15.801  -4.774  1.00 20.00     0.234 C 
HETATM    7  C7  UNL     1     -35.451  15.028  -4.350  1.00 20.00     0.080 C 
HETATM    8  N8  UNL     1     -33.579  15.239  -5.963  1.00 20.00     0.089 N 
HETATM    9  S9  UNL     1     -36.764  15.220  -5.576  1.00 20.00    -0.160 SA
HETATM   10  H22 UNL     1     -33.391  14.246  -5.816  1.00 20.00     0.316 HD
ENDROOT
TORSDOF 0
ENDMDL
