MODEL 1
REMARK VINA RESULT:      -4.5      0.000      0.000
REMARK  3 active torsions:
REMARK  status: ('A' for Active; 'I' for Inactive)
REMARK    1  A    between atoms: C1_1  and  C7_7 
REMARK       I    between atoms: C1_1  and  N9_9 
REMARK    2  A    between atoms: C4_4  and  C8_8 
REMARK    3  A    between atoms: C8_8  and  N9_9 
ROOT
HETATM    1  C1  UNL     1     -32.080   7.325   3.236  1.00 20.00     0.219 C 
HETATM    2  C6  UNL     1     -33.780   5.601   2.599  1.00 20.00     0.152 C 
HETATM    3  N9  UNL     1     -33.131   6.466   3.576  1.00 20.00    -0.356 N 
HETATM    4  O10 UNL     1     -31.186   7.649   4.021  1.00 20.00    -0.273 OA
ENDROOT
BRANCH   3   5
HETATM    5  C8  UNL     1     -33.655   6.372   4.937  1.00 20.00     0.130 C 
BRANCH   5   6
HETATM    6  C4  UNL     1     -34.713   5.326   5.034  1.00 20.00     0.004 A 
HETATM    7  C2  UNL     1     -34.387   3.967   5.588  1.00 20.00     0.007 A 
HETATM    8  C3  UNL     1     -35.248   4.913   6.378  1.00 20.00     0.007 A 
ENDBRANCH   5   6
ENDBRANCH   3   5
BRANCH   1   9
HETATM    9  C7  UNL     1     -32.087   7.862   1.812  1.00 20.00     0.098 C 
HETATM   10  C5  UNL     1     -32.407   9.346   1.746  1.00 20.00     0.014 C 
ENDBRANCH   1   9
TORSDOF 3
ENDMDL
MODEL 2
REMARK VINA RESULT:      -4.3     11.352     12.220
REMARK  3 active torsions:
REMARK  status: ('A' for Active; 'I' for Inactive)
REMARK    1  A    between atoms: C1_1  and  C7_7 
REMARK       I    between atoms: C1_1  and  N9_9 
REMARK    2  A    between atoms: C4_4  and  C8_8 
REMARK    3  A    between atoms: C8_8  and  N9_9 
ROOT
HETATM    1  C1  UNL     1     -35.092  13.883  -5.000  1.00 20.00     0.219 C 
HETATM    2  C6  UNL     1     -36.416  15.877  -4.265  1.00 20.00     0.152 C 
HETATM    3  N9  UNL     1     -35.344  14.907  -4.081  1.00 20.00    -0.356 N 
HETATM    4  O10 UNL     1     -34.618  12.789  -4.685  1.00 20.00    -0.273 OA
ENDROOT
BRANCH   3   5
HETATM    5  C8  UNL     1     -34.550  15.080  -2.866  1.00 20.00     0.130 C 
BRANCH   5   6
HETATM    6  C4  UNL     1     -34.809  16.408  -2.239  1.00 20.00     0.004 A 
HETATM    7  C2  UNL     1     -34.701  16.578  -0.749  1.00 20.00     0.007 A 
HETATM    8  C3  UNL     1     -33.675  17.203  -1.653  1.00 20.00     0.007 A 
ENDBRANCH   5   6
ENDBRANCH   3   5
BRANCH   1   9
HETATM    9  C7  UNL     1     -35.437  14.185  -6.452  1.00 20.00     0.098 C 
HETATM   10  C5  UNL     1     -34.362  14.999  -7.153  1.00 20.00     0.014 C 
ENDBRANCH   1   9
TORSDOF 3
ENDMDL
MODEL 3
REMARK VINA RESULT:      -4.2     11.362     12.213
REMARK  3 active torsions:
REMARK  status: ('A' for Active; 'I' for Inactive)
REMARK    1  A    between atoms: C1_1  and  C7_7 
REMARK       I    between atoms: C1_1  and  N9_9 
REMARK    2  A    between atoms: C4_4  and  C8_8 
REMARK    3  A    between atoms: C8_8  and  N9_9 
ROOT
HETATM    1  C1  UNL     1     -36.103  14.642  -4.214  1.00 20.00     0.219 C 
HETATM    2  C6  UNL     1     -34.883  16.726  -4.879  1.00 20.00     0.152 C 
HETATM    3  N9  UNL     1     -35.644  15.931  -3.922  1.00 20.00    -0.356 N 
HETATM    4  O10 UNL     1     -37.129  14.160  -3.729  1.00 20.00    -0.273 OA
ENDROOT
BRANCH   3   5
HETATM    5  C8  UNL     1     -35.893  16.577  -2.635  1.00 20.00     0.130 C 
BRANCH   5   6
HETATM    6  C4  UNL     1     -34.836  16.228  -1.644  1.00 20.00     0.004 A 
HETATM    7  C2  UNL     1     -33.696  17.174  -1.387  1.00 20.00     0.007 A 
HETATM    8  C3  UNL     1     -34.751  16.965  -0.336  1.00 20.00     0.007 A 
ENDBRANCH   5   6
ENDBRANCH   3   5
BRANCH   1   9
HETATM    9  C7  UNL     1     -35.256  13.833  -5.186  1.00 20.00     0.098 C 
HETATM   10  C5  UNL     1     -34.054  13.186  -4.518  1.00 20.00     0.014 C 
ENDBRANCH   1   9
TORSDOF 3
ENDMDL
MODEL 4
REMARK VINA RESULT:      -4.1     11.011     12.560
REMARK  3 active torsions:
REMARK  status: ('A' for Active; 'I' for Inactive)
REMARK    1  A    between atoms: C1_1  and  C7_7 
REMARK       I    between atoms: C1_1  and  N9_9 
REMARK    2  A    between atoms: C4_4  and  C8_8 
REMARK    3  A    between atoms: C8_8  and  N9_9 
ROOT
HETATM    1  C1  UNL     1     -35.115  15.247  -3.137  1.00 20.00     0.219 C 
HETATM    2  C6  UNL     1     -33.198  13.739  -3.702  1.00 20.00     0.152 C 
HETATM    3  N9  UNL     1     -34.527  14.280  -3.959  1.00 20.00    -0.356 N 
HETATM    4  O10 UNL     1     -36.333  15.345  -2.968  1.00 20.00    -0.273 OA
ENDROOT
BRANCH   3   5
HETATM    5  C8  UNL     1     -35.201  13.740  -5.138  1.00 20.00     0.130 C 
BRANCH   5   6
HETATM    6  C4  UNL     1     -35.422  14.799  -6.163  1.00 20.00     0.004 A 
HETATM    7  C2  UNL     1     -34.283  15.272  -7.023  1.00 20.00     0.007 A 
HETATM    8  C3  UNL     1     -35.391  14.454  -7.627  1.00 20.00     0.007 A 
ENDBRANCH   5   6
ENDBRANCH   3   5
BRANCH   1   9
HETATM    9  C7  UNL     1     -34.160  16.205  -2.438  1.00 20.00     0.098 C 
HETATM   10  C5  UNL     1     -34.605  16.552  -1.027  1.00 20.00     0.014 C 
ENDBRANCH   1   9
TORSDOF 3
ENDMDL
MODEL 5
REMARK VINA RESULT:      -4.0      1.616      4.976
REMARK  3 active torsions:
REMARK  status: ('A' for Active; 'I' for Inactive)
REMARK    1  A    between atoms: C1_1  and  C7_7 
REMARK       I    between atoms: C1_1  and  N9_9 
REMARK    2  A    between atoms: C4_4  and  C8_8 
REMARK    3  A    between atoms: C8_8  and  N9_9 
ROOT
HETATM    1  C1  UNL     1     -33.878   6.010   4.126  1.00 20.00     0.219 C 
HETATM    2  C6  UNL     1     -31.684   7.211   4.253  1.00 20.00     0.152 C 
HETATM    3  N9  UNL     1     -32.894   6.816   3.542  1.00 20.00    -0.356 N 
HETATM    4  O10 UNL     1     -34.594   5.239   3.483  1.00 20.00    -0.273 OA
ENDROOT
BRANCH   3   5
HETATM    5  C8  UNL     1     -33.007   7.322   2.176  1.00 20.00     0.130 C 
BRANCH   5   6
HETATM    6  C4  UNL     1     -31.997   8.387   1.911  1.00 20.00     0.004 A 
HETATM    7  C2  UNL     1     -31.715   8.831   0.503  1.00 20.00     0.007 A 
HETATM    8  C3  UNL     1     -32.436   9.749   1.450  1.00 20.00     0.007 A 
ENDBRANCH   5   6
ENDBRANCH   3   5
BRANCH   1   9
HETATM    9  C7  UNL     1     -34.034   6.130   5.636  1.00 20.00     0.098 C 
HETATM   10  C5  UNL     1     -34.783   4.955   6.242  1.00 20.00     0.014 C 
ENDBRANCH   1   9
TORSDOF 3
ENDMDL
MODEL 6
REMARK VINA RESULT:      -4.0     11.565     12.545
REMARK  3 active torsions:
REMARK  status: ('A' for Active; 'I' for Inactive)
REMARK    1  A    between atoms: C1_1  and  C7_7 
REMARK       I    between atoms: C1_1  and  N9_9 
REMARK    2  A    between atoms: C4_4  and  C8_8 
REMARK    3  A    between atoms: C8_8  and  N9_9 
ROOT
HETATM    1  C1  UNL     1     -34.262  15.611  -5.440  1.00 20.00     0.219 C 
HETATM    2  C6  UNL     1     -35.106  13.620  -4.179  1.00 20.00     0.152 C 
HETATM    3  N9  UNL     1     -34.893  15.054  -4.322  1.00 20.00    -0.356 N 
HETATM    4  O10 UNL     1     -33.601  16.652  -5.399  1.00 20.00    -0.273 OA
ENDROOT
BRANCH   3   5
HETATM    5  C8  UNL     1     -35.385  15.870  -3.215  1.00 20.00     0.130 C 
BRANCH   5   6
HETATM    6  C4  UNL     1     -34.409  15.894  -2.089  1.00 20.00     0.004 A 
HETATM    7  C2  UNL     1     -33.686  17.165  -1.738  1.00 20.00     0.007 A 
HETATM    8  C3  UNL     1     -34.740  16.621  -0.814  1.00 20.00     0.007 A 
ENDBRANCH   5   6
ENDBRANCH   3   5
BRANCH   1   9
HETATM    9  C7  UNL     1     -34.431  14.856  -6.752  1.00 20.00     0.098 C 
HETATM   10  C5  UNL     1     -35.704  15.239  -7.489  1.00 20.00     0.014 C 
ENDBRANCH   1   9
TORSDOF 3
ENDMDL
MODEL 7
REMARK VINA RESULT:      -3.9      1.134      4.726
REMARK  3 active torsions:
REMARK  status: ('A' for Active; 'I' for Inactive)
REMARK    1  A    between atoms: C1_1  and  C7_7 
REMARK       I    between atoms: C1_1  and  N9_9 
REMARK    2  A    between atoms: C4_4  and  C8_8 
REMARK    3  A    between atoms: C8_8  and  N9_9 
ROOT
HETATM    1  C1  UNL     1     -33.805   5.997   4.910  1.00 20.00     0.219 C 
HETATM    2  C6  UNL     1     -34.092   5.569   2.460  1.00 20.00     0.152 C 
HETATM    3  N9  UNL     1     -33.426   6.220   3.582  1.00 20.00    -0.356 N 
HETATM    4  O10 UNL     1     -33.687   6.842   5.801  1.00 20.00    -0.273 OA
ENDROOT
BRANCH   3   5
HETATM    5  C8  UNL     1     -32.335   7.122   3.220  1.00 20.00     0.130 C 
BRANCH   5   6
HETATM    6  C4  UNL     1     -32.667   7.904   1.995  1.00 20.00     0.004 A 
HETATM    7  C2  UNL     1     -32.492   9.397   1.978  1.00 20.00     0.007 A 
HETATM    8  C3  UNL     1     -31.571   8.523   1.172  1.00 20.00     0.007 A 
ENDBRANCH   5   6
ENDBRANCH   3   5
BRANCH   1   9
HETATM    9  C7  UNL     1     -34.387   4.625   5.221  1.00 20.00     0.098 C 
HETATM   10  C5  UNL     1     -35.169   4.600   6.524  1.00 20.00     0.014 C 
ENDBRANCH   1   9
TORSDOF 3
ENDMDL
MODEL 8
REMARK VINA RESULT:      -3.8     11.589     12.691
REMARK  3 active torsions:
REMARK  status: ('A' for Active; 'I' for Inactive)
REMARK    1  A    between atoms: C1_1  and  C7_7 
REMARK       I    between atoms: C1_1  and  N9_9 
REMARK    2  A    between atoms: C4_4  and  C8_8 
REMARK    3  A    between atoms: C8_8  and  N9_9 
ROOT
HETATM    1  C1  UNL     1     -34.454  15.806  -2.667  1.00 20.00     0.219 C 
HETATM    2  C6  UNL     1     -36.791  16.476  -3.268  1.00 20.00     0.152 C 
HETATM    3  N9  UNL     1     -35.618  15.625  -3.423  1.00 20.00    -0.356 N 
HETATM    4  O10 UNL     1     -33.326  15.522  -3.078  1.00 20.00    -0.273 OA
ENDROOT
BRANCH   3   5
HETATM    5  C8  UNL     1     -35.744  14.568  -4.423  1.00 20.00     0.130 C 
BRANCH   5   6
HETATM    6  C4  UNL     1     -35.710  15.128  -5.805  1.00 20.00     0.004 A 
HETATM    7  C2  UNL     1     -34.395  15.419  -6.473  1.00 20.00     0.007 A 
HETATM    8  C3  UNL     1     -35.246  14.278  -6.955  1.00 20.00     0.007 A 
ENDBRANCH   5   6
ENDBRANCH   3   5
BRANCH   1   9
HETATM    9  C7  UNL     1     -34.643  16.385  -1.272  1.00 20.00     0.098 C 
HETATM   10  C5  UNL     1     -33.679  17.521  -0.972  1.00 20.00     0.014 C 
ENDBRANCH   1   9
TORSDOF 3
ENDMDL
MODEL 9
REMARK VINA RESULT:      -3.8     11.586     12.675
REMARK  3 active torsions:
REMARK  status: ('A' for Active; 'I' for Inactive)
REMARK    1  A    between atoms: C1_1  and  C7_7 
REMARK       I    between atoms: C1_1  and  N9_9 
REMARK    2  A    between atoms: C4_4  and  C8_8 
REMARK    3  A    between atoms: C8_8  and  N9_9 
ROOT
HETATM    1  C1  UNL     1     -33.825  15.985  -5.087  1.00 20.00     0.219 C 
HETATM    2  C6  UNL     1     -35.815  14.504  -4.748  1.00 20.00     0.152 C 
HETATM    3  N9  UNL     1     -34.673  15.258  -4.245  1.00 20.00    -0.356 N 
HETATM    4  O10 UNL     1     -32.630  16.176  -4.848  1.00 20.00    -0.273 OA
ENDROOT
BRANCH   3   5
HETATM    5  C8  UNL     1     -34.478  15.201  -2.798  1.00 20.00     0.130 C 
BRANCH   5   6
HETATM    6  C4  UNL     1     -34.797  16.510  -2.160  1.00 20.00     0.004 A 
HETATM    7  C2  UNL     1     -34.711  16.667  -0.667  1.00 20.00     0.007 A 
HETATM    8  C3  UNL     1     -33.702  17.343  -1.553  1.00 20.00     0.007 A 
ENDBRANCH   5   6
ENDBRANCH   3   5
BRANCH   1   9
HETATM    9  C7  UNL     1     -34.458  16.551  -6.351  1.00 20.00     0.098 C 
HETATM   10  C5  UNL     1     -34.875  18.005  -6.198  1.00 20.00     0.014 C 
ENDBRANCH   1   9
TORSDOF 3
ENDMDL
