MODEL 1
REMARK VINA RESULT:      -4.9      0.000      0.000
REMARK  4 active torsions:
REMARK  status: ('A' for Active; 'I' for Inactive)
REMARK    1  A    between atoms: C1_1  and  C7_7 
REMARK    2  A    between atoms: C1_1  and  O10_10 
REMARK    3  A    between atoms: C4_4  and  C7_7 
REMARK    4  A    between atoms: C8_8  and  O10_10 
ROOT
HETATM    1  C1  UNL     1     -32.428   6.441   3.496  1.00 20.00     0.259 C 
HETATM    2  O9  UNL     1     -32.058   5.365   3.049  1.00 20.00    -0.265 OA
ENDROOT
BRANCH   1   3
HETATM    3  C7  UNL     1     -31.863   7.787   3.109  1.00 20.00     0.115 C 
BRANCH   3   4
HETATM    4  C4  UNL     1     -32.521   8.347   1.861  1.00 20.00    -0.005 A 
HETATM    5  C2  UNL     1     -32.433   9.815   1.551  1.00 20.00     0.005 A 
HETATM    6  C3  UNL     1     -31.679   8.824   0.710  1.00 20.00     0.005 A 
ENDBRANCH   3   4
ENDBRANCH   1   3
BRANCH   1   7
HETATM    7  O10 UNL     1     -33.415   6.625   4.423  1.00 20.00    -0.317 OA
BRANCH   7   8
HETATM    8  C8  UNL     1     -34.163   5.455   4.768  1.00 20.00     0.123 C 
HETATM    9  C5  UNL     1     -34.520   5.507   6.246  1.00 20.00     0.040 C 
HETATM   10  C6  UNL     1     -35.402   5.375   3.889  1.00 20.00     0.040 C 
ENDBRANCH   7   8
ENDBRANCH   1   7
TORSDOF 4
ENDMDL
MODEL 2
REMARK VINA RESULT:      -4.6      1.060      1.388
REMARK  4 active torsions:
REMARK  status: ('A' for Active; 'I' for Inactive)
REMARK    1  A    between atoms: C1_1  and  C7_7 
REMARK    2  A    between atoms: C1_1  and  O10_10 
REMARK    3  A    between atoms: C4_4  and  C7_7 
REMARK    4  A    between atoms: C8_8  and  O10_10 
ROOT
HETATM    1  C1  UNL     1     -33.178   6.084   3.291  1.00 20.00     0.259 C 
HETATM    2  O9  UNL     1     -33.918   5.566   2.467  1.00 20.00    -0.265 OA
ENDROOT
BRANCH   1   3
HETATM    3  C7  UNL     1     -32.223   7.221   3.012  1.00 20.00     0.115 C 
BRANCH   3   4
HETATM    4  C4  UNL     1     -32.679   8.078   1.845  1.00 20.00    -0.005 A 
HETATM    5  C2  UNL     1     -32.459   9.565   1.867  1.00 20.00     0.005 A 
HETATM    6  C3  UNL     1     -31.669   8.703   0.924  1.00 20.00     0.005 A 
ENDBRANCH   3   4
ENDBRANCH   1   3
BRANCH   1   7
HETATM    7  O10 UNL     1     -33.076   5.734   4.608  1.00 20.00    -0.317 OA
BRANCH   7   8
HETATM    8  C8  UNL     1     -34.280   5.858   5.373  1.00 20.00     0.123 C 
HETATM    9  C5  UNL     1     -34.768   4.472   5.766  1.00 20.00     0.040 C 
HETATM   10  C6  UNL     1     -34.012   6.730   6.590  1.00 20.00     0.040 C 
ENDBRANCH   7   8
ENDBRANCH   1   7
TORSDOF 4
ENDMDL
MODEL 3
REMARK VINA RESULT:      -4.5      1.320      4.794
REMARK  4 active torsions:
REMARK  status: ('A' for Active; 'I' for Inactive)
REMARK    1  A    between atoms: C1_1  and  C7_7 
REMARK    2  A    between atoms: C1_1  and  O10_10 
REMARK    3  A    between atoms: C4_4  and  C7_7 
REMARK    4  A    between atoms: C8_8  and  O10_10 
ROOT
HETATM    1  C1  UNL     1     -32.212   7.093   3.327  1.00 20.00     0.259 C 
HETATM    2  O9  UNL     1     -31.293   7.543   3.996  1.00 20.00    -0.265 OA
ENDROOT
BRANCH   1   3
HETATM    3  C7  UNL     1     -32.999   5.846   3.653  1.00 20.00     0.115 C 
BRANCH   3   4
HETATM    4  C4  UNL     1     -34.216   6.144   4.510  1.00 20.00    -0.005 A 
HETATM    5  C2  UNL     1     -34.899   5.039   5.266  1.00 20.00     0.005 A 
HETATM    6  C3  UNL     1     -34.119   6.088   6.008  1.00 20.00     0.005 A 
ENDBRANCH   3   4
ENDBRANCH   1   3
BRANCH   1   7
HETATM    7  O10 UNL     1     -32.695   7.631   2.167  1.00 20.00    -0.317 OA
BRANCH   7   8
HETATM    8  C8  UNL     1     -31.955   8.739   1.646  1.00 20.00     0.123 C 
HETATM    9  C5  UNL     1     -31.694   8.514   0.164  1.00 20.00     0.040 C 
HETATM   10  C6  UNL     1     -32.732  10.022   1.895  1.00 20.00     0.040 C 
ENDBRANCH   7   8
ENDBRANCH   1   7
TORSDOF 4
ENDMDL
MODEL 4
REMARK VINA RESULT:      -4.4      1.017      4.670
REMARK  4 active torsions:
REMARK  status: ('A' for Active; 'I' for Inactive)
REMARK    1  A    between atoms: C1_1  and  C7_7 
REMARK    2  A    between atoms: C1_1  and  O10_10 
REMARK    3  A    between atoms: C4_4  and  C7_7 
REMARK    4  A    between atoms: C8_8  and  O10_10 
ROOT
HETATM    1  C1  UNL     1     -32.407   6.666   3.263  1.00 20.00     0.259 C 
HETATM    2  O9  UNL     1     -31.885   5.634   2.866  1.00 20.00    -0.265 OA
ENDROOT
BRANCH   1   3
HETATM    3  C7  UNL     1     -33.654   6.742   4.111  1.00 20.00     0.115 C 
BRANCH   3   4
HETATM    4  C4  UNL     1     -33.885   5.468   4.905  1.00 20.00    -0.005 A 
HETATM    5  C2  UNL     1     -34.691   5.501   6.173  1.00 20.00     0.005 A 
HETATM    6  C3  UNL     1     -35.249   4.838   4.945  1.00 20.00     0.005 A 
ENDBRANCH   3   4
ENDBRANCH   1   3
BRANCH   1   7
HETATM    7  O10 UNL     1     -31.963   7.935   3.014  1.00 20.00    -0.317 OA
BRANCH   7   8
HETATM    8  C8  UNL     1     -32.497   8.555   1.840  1.00 20.00     0.123 C 
HETATM    9  C5  UNL     1     -32.765  10.025   2.128  1.00 20.00     0.040 C 
HETATM   10  C6  UNL     1     -31.521   8.372   0.688  1.00 20.00     0.040 C 
ENDBRANCH   7   8
ENDBRANCH   1   7
TORSDOF 4
ENDMDL
MODEL 5
REMARK VINA RESULT:      -4.4     10.255     11.949
REMARK  4 active torsions:
REMARK  status: ('A' for Active; 'I' for Inactive)
REMARK    1  A    between atoms: C1_1  and  C7_7 
REMARK    2  A    between atoms: C1_1  and  O10_10 
REMARK    3  A    between atoms: C4_4  and  C7_7 
REMARK    4  A    between atoms: C8_8  and  O10_10 
ROOT
HETATM    1  C1  UNL     1     -34.895  13.758  -4.348  1.00 20.00     0.259 C 
HETATM    2  O9  UNL     1     -35.054  12.549  -4.445  1.00 20.00    -0.265 OA
ENDROOT
BRANCH   1   3
HETATM    3  C7  UNL     1     -34.153  14.453  -3.231  1.00 20.00     0.115 C 
BRANCH   3   4
HETATM    4  C4  UNL     1     -34.826  15.748  -2.815  1.00 20.00    -0.005 A 
HETATM    5  C2  UNL     1     -34.596  16.314  -1.441  1.00 20.00     0.005 A 
HETATM    6  C3  UNL     1     -34.016  17.003  -2.645  1.00 20.00     0.005 A 
ENDBRANCH   3   4
ENDBRANCH   1   3
BRANCH   1   7
HETATM    7  O10 UNL     1     -35.356  14.699  -5.225  1.00 20.00    -0.317 OA
BRANCH   7   8
HETATM    8  C8  UNL     1     -34.585  14.858  -6.421  1.00 20.00     0.123 C 
HETATM    9  C5  UNL     1     -35.437  14.470  -7.620  1.00 20.00     0.040 C 
HETATM   10  C6  UNL     1     -34.096  16.294  -6.515  1.00 20.00     0.040 C 
ENDBRANCH   7   8
ENDBRANCH   1   7
TORSDOF 4
ENDMDL
MODEL 6
REMARK VINA RESULT:      -4.4      1.121      4.752
REMARK  4 active torsions:
REMARK  status: ('A' for Active; 'I' for Inactive)
REMARK    1  A    between atoms: C1_1  and  C7_7 
REMARK    2  A    between atoms: C1_1  and  O10_10 
REMARK    3  A    between atoms: C4_4  and  C7_7 
REMARK    4  A    between atoms: C8_8  and  O10_10 
ROOT
HETATM    1  C1  UNL     1     -34.017   5.757   2.927  1.00 20.00     0.259 C 
HETATM    2  O9  UNL     1     -33.695   5.064   1.973  1.00 20.00    -0.265 OA
ENDROOT
BRANCH   1   3
HETATM    3  C7  UNL     1     -35.014   5.364   3.993  1.00 20.00     0.115 C 
BRANCH   3   4
HETATM    4  C4  UNL     1     -34.336   4.959   5.289  1.00 20.00    -0.005 A 
HETATM    5  C2  UNL     1     -34.412   5.854   6.495  1.00 20.00     0.005 A 
HETATM    6  C3  UNL     1     -35.159   4.550   6.479  1.00 20.00     0.005 A 
ENDBRANCH   3   4
ENDBRANCH   1   3
BRANCH   1   7
HETATM    7  O10 UNL     1     -33.539   7.006   3.207  1.00 20.00    -0.317 OA
BRANCH   7   8
HETATM    8  C8  UNL     1     -32.194   7.259   2.789  1.00 20.00     0.123 C 
HETATM    9  C5  UNL     1     -32.189   8.401   1.784  1.00 20.00     0.040 C 
HETATM   10  C6  UNL     1     -31.341   7.575   4.009  1.00 20.00     0.040 C 
ENDBRANCH   7   8
ENDBRANCH   1   7
TORSDOF 4
ENDMDL
MODEL 7
REMARK VINA RESULT:      -4.3     10.532     11.969
REMARK  4 active torsions:
REMARK  status: ('A' for Active; 'I' for Inactive)
REMARK    1  A    between atoms: C1_1  and  C7_7 
REMARK    2  A    between atoms: C1_1  and  O10_10 
REMARK    3  A    between atoms: C4_4  and  C7_7 
REMARK    4  A    between atoms: C8_8  and  O10_10 
ROOT
HETATM    1  C1  UNL     1     -34.942  13.770  -4.404  1.00 20.00     0.259 C 
HETATM    2  O9  UNL     1     -35.138  12.568  -4.299  1.00 20.00    -0.265 OA
ENDROOT
BRANCH   1   3
HETATM    3  C7  UNL     1     -35.440  14.822  -3.441  1.00 20.00     0.115 C 
BRANCH   3   4
HETATM    4  C4  UNL     1     -34.309  15.458  -2.653  1.00 20.00    -0.005 A 
HETATM    5  C2  UNL     1     -34.060  16.938  -2.743  1.00 20.00     0.005 A 
HETATM    6  C3  UNL     1     -34.610  16.344  -1.477  1.00 20.00     0.005 A 
ENDBRANCH   3   4
ENDBRANCH   1   3
BRANCH   1   7
HETATM    7  O10 UNL     1     -34.243  14.383  -5.405  1.00 20.00    -0.317 OA
BRANCH   7   8
HETATM    8  C8  UNL     1     -35.012  15.228  -6.267  1.00 20.00     0.123 C 
HETATM    9  C5  UNL     1     -34.228  16.500  -6.552  1.00 20.00     0.040 C 
HETATM   10  C6  UNL     1     -35.346  14.471  -7.543  1.00 20.00     0.040 C 
ENDBRANCH   7   8
ENDBRANCH   1   7
TORSDOF 4
ENDMDL
MODEL 8
REMARK VINA RESULT:      -4.2     10.126     11.541
REMARK  4 active torsions:
REMARK  status: ('A' for Active; 'I' for Inactive)
REMARK    1  A    between atoms: C1_1  and  C7_7 
REMARK    2  A    between atoms: C1_1  and  O10_10 
REMARK    3  A    between atoms: C4_4  and  C7_7 
REMARK    4  A    between atoms: C8_8  and  O10_10 
ROOT
HETATM    1  C1  UNL     1     -34.189  13.699  -3.978  1.00 20.00     0.259 C 
HETATM    2  O9  UNL     1     -33.256  13.101  -3.463  1.00 20.00    -0.265 OA
ENDROOT
BRANCH   1   3
HETATM    3  C7  UNL     1     -34.845  13.331  -5.288  1.00 20.00     0.115 C 
BRANCH   3   4
HETATM    4  C4  UNL     1     -35.242  14.554  -6.094  1.00 20.00    -0.005 A 
HETATM    5  C2  UNL     1     -34.333  15.083  -7.168  1.00 20.00     0.005 A 
HETATM    6  C3  UNL     1     -35.628  14.417  -7.541  1.00 20.00     0.005 A 
ENDBRANCH   3   4
ENDBRANCH   1   3
BRANCH   1   7
HETATM    7  O10 UNL     1     -34.810  14.806  -3.470  1.00 20.00    -0.317 OA
BRANCH   7   8
HETATM    8  C8  UNL     1     -33.951  15.751  -2.823  1.00 20.00     0.123 C 
HETATM    9  C5  UNL     1     -33.620  16.873  -3.796  1.00 20.00     0.040 C 
HETATM   10  C6  UNL     1     -34.634  16.272  -1.568  1.00 20.00     0.040 C 
ENDBRANCH   7   8
ENDBRANCH   1   7
TORSDOF 4
ENDMDL
MODEL 9
REMARK VINA RESULT:      -4.1     10.899     11.952
REMARK  4 active torsions:
REMARK  status: ('A' for Active; 'I' for Inactive)
REMARK    1  A    between atoms: C1_1  and  C7_7 
REMARK    2  A    between atoms: C1_1  and  O10_10 
REMARK    3  A    between atoms: C4_4  and  C7_7 
REMARK    4  A    between atoms: C8_8  and  O10_10 
ROOT
HETATM    1  C1  UNL     1     -33.791  16.426  -4.397  1.00 20.00     0.259 C 
HETATM    2  O9  UNL     1     -32.684  16.363  -4.913  1.00 20.00    -0.265 OA
ENDROOT
BRANCH   1   3
HETATM    3  C7  UNL     1     -34.170  17.342  -3.257  1.00 20.00     0.115 C 
BRANCH   3   4
HETATM    4  C4  UNL     1     -33.721  16.799  -1.912  1.00 20.00    -0.005 A 
HETATM    5  C2  UNL     1     -33.690  17.694  -0.705  1.00 20.00     0.005 A 
HETATM    6  C3  UNL     1     -34.717  16.602  -0.804  1.00 20.00     0.005 A 
ENDBRANCH   3   4
ENDBRANCH   1   3
BRANCH   1   7
HETATM    7  O10 UNL     1     -34.883  15.685  -4.750  1.00 20.00    -0.317 OA
BRANCH   7   8
HETATM    8  C8  UNL     1     -34.600  14.398  -5.309  1.00 20.00     0.123 C 
HETATM    9  C5  UNL     1     -35.086  13.320  -4.353  1.00 20.00     0.040 C 
HETATM   10  C6  UNL     1     -35.265  14.287  -6.673  1.00 20.00     0.040 C 
ENDBRANCH   7   8
ENDBRANCH   1   7
TORSDOF 4
ENDMDL
