MODEL 1
REMARK VINA RESULT:      -4.9      0.000      0.000
REMARK  1 active torsions:
REMARK  status: ('A' for Active; 'I' for Inactive)
REMARK    1  A    between atoms: C6_6  and  C9_9 
ROOT
HETATM    1  C1  UNL     1     -36.499  14.490  -4.001  1.00 20.00     0.085 C 
HETATM    2  C2  UNL     1     -35.350  17.060  -5.183  1.00 20.00     0.003 C 
HETATM    3  C3  UNL     1     -35.128  17.425  -3.714  1.00 20.00     0.005 C 
HETATM    4  C4  UNL     1     -34.930  15.628  -5.538  1.00 20.00     0.041 C 
HETATM    5  C5  UNL     1     -34.246  15.106  -3.144  1.00 20.00     0.045 C 
HETATM    6  C6  UNL     1     -33.981  16.627  -3.094  1.00 20.00    -0.012 C 
HETATM    7  C7  UNL     1     -35.078  14.656  -4.363  1.00 20.00     0.125 C 
HETATM    8  N10 UNL     1     -37.617  14.360  -3.716  1.00 20.00    -0.195 NA
HETATM    9 CL11 UNL     1     -34.535  13.020  -4.880  1.00 20.00    -0.103 Cl
ENDROOT
BRANCH   6  10
HETATM   10  C9  UNL     1     -33.703  17.080  -1.662  1.00 20.00     0.000 C 
HETATM   11  C8  UNL     1     -34.774  16.627  -0.723  1.00 20.00     0.005 C 
ENDBRANCH   6  10
TORSDOF 1
ENDMDL
MODEL 2
REMARK VINA RESULT:      -4.9      2.141      3.961
REMARK  1 active torsions:
REMARK  status: ('A' for Active; 'I' for Inactive)
REMARK    1  A    between atoms: C6_6  and  C9_9 
ROOT
HETATM    1  C1  UNL     1     -37.098  14.961  -3.707  1.00 20.00     0.085 C 
HETATM    2  C2  UNL     1     -34.293  13.758  -3.606  1.00 20.00     0.003 C 
HETATM    3  C3  UNL     1     -34.439  13.740  -5.129  1.00 20.00     0.005 C 
HETATM    4  C4  UNL     1     -34.744  15.072  -2.954  1.00 20.00     0.041 C 
HETATM    5  C5  UNL     1     -35.438  16.082  -5.183  1.00 20.00     0.045 C 
HETATM    6  C6  UNL     1     -34.339  15.143  -5.729  1.00 20.00    -0.012 C 
HETATM    7  C7  UNL     1     -35.863  15.770  -3.733  1.00 20.00     0.125 C 
HETATM    8  N10 UNL     1     -38.069  14.326  -3.687  1.00 20.00    -0.195 NA
HETATM    9 CL11 UNL     1     -36.294  17.305  -2.899  1.00 20.00    -0.103 Cl
ENDROOT
BRANCH   6  10
HETATM   10  C9  UNL     1     -34.379  15.094  -7.256  1.00 20.00     0.000 C 
HETATM   11  C8  UNL     1     -35.622  14.432  -7.753  1.00 20.00     0.005 C 
ENDBRANCH   6  10
TORSDOF 1
ENDMDL
MODEL 3
REMARK VINA RESULT:      -4.9      1.912      2.461
REMARK  1 active torsions:
REMARK  status: ('A' for Active; 'I' for Inactive)
REMARK    1  A    between atoms: C6_6  and  C9_9 
ROOT
HETATM    1  C1  UNL     1     -35.975  15.656  -5.442  1.00 20.00     0.085 C 
HETATM    2  C2  UNL     1     -33.867  13.862  -4.154  1.00 20.00     0.003 C 
HETATM    3  C3  UNL     1     -33.431  15.164  -3.477  1.00 20.00     0.005 C 
HETATM    4  C4  UNL     1     -35.384  13.635  -4.144  1.00 20.00     0.041 C 
HETATM    5  C5  UNL     1     -35.831  15.844  -2.965  1.00 20.00     0.045 C 
HETATM    6  C6  UNL     1     -34.417  15.601  -2.393  1.00 20.00    -0.012 C 
HETATM    7  C7  UNL     1     -36.183  14.942  -4.167  1.00 20.00     0.125 C 
HETATM    8  N10 UNL     1     -35.813  16.218  -6.445  1.00 20.00    -0.195 NA
HETATM    9 CL11 UNL     1     -37.941  14.560  -4.126  1.00 20.00    -0.103 Cl
ENDROOT
BRANCH   6  10
HETATM   10  C9  UNL     1     -33.912  16.841  -1.655  1.00 20.00     0.000 C 
HETATM   11  C8  UNL     1     -34.627  17.039  -0.358  1.00 20.00     0.005 C 
ENDBRANCH   6  10
TORSDOF 1
ENDMDL
MODEL 4
REMARK VINA RESULT:      -4.8      1.739      1.972
REMARK  1 active torsions:
REMARK  status: ('A' for Active; 'I' for Inactive)
REMARK    1  A    between atoms: C6_6  and  C9_9 
ROOT
HETATM    1  C1  UNL     1     -34.764  13.736  -5.018  1.00 20.00     0.085 C 
HETATM    2  C2  UNL     1     -36.901  15.656  -3.981  1.00 20.00     0.003 C 
HETATM    3  C3  UNL     1     -35.941  15.802  -2.799  1.00 20.00     0.005 C 
HETATM    4  C4  UNL     1     -36.212  15.715  -5.351  1.00 20.00     0.041 C 
HETATM    5  C5  UNL     1     -33.902  15.962  -4.315  1.00 20.00     0.045 C 
HETATM    6  C6  UNL     1     -34.701  16.617  -3.166  1.00 20.00    -0.012 C 
HETATM    7  C7  UNL     1     -34.776  15.181  -5.319  1.00 20.00     0.125 C 
HETATM    8  N10 UNL     1     -34.754  12.600  -4.781  1.00 20.00    -0.195 NA
HETATM    9 CL11 UNL     1     -34.058  15.321  -6.963  1.00 20.00    -0.103 Cl
ENDROOT
BRANCH   6  10
HETATM   10  C9  UNL     1     -33.808  16.844  -1.948  1.00 20.00     0.000 C 
HETATM   11  C8  UNL     1     -34.580  16.745  -0.673  1.00 20.00     0.005 C 
ENDBRANCH   6  10
TORSDOF 1
ENDMDL
MODEL 5
REMARK VINA RESULT:      -4.8      2.054      3.738
REMARK  1 active torsions:
REMARK  status: ('A' for Active; 'I' for Inactive)
REMARK    1  A    between atoms: C6_6  and  C9_9 
ROOT
HETATM    1  C1  UNL     1     -36.597  14.962  -3.464  1.00 20.00     0.085 C 
HETATM    2  C2  UNL     1     -34.537  13.224  -4.899  1.00 20.00     0.003 C 
HETATM    3  C3  UNL     1     -34.810  14.176  -6.065  1.00 20.00     0.005 C 
HETATM    4  C4  UNL     1     -34.350  13.931  -3.550  1.00 20.00     0.041 C 
HETATM    5  C5  UNL     1     -34.758  16.229  -4.560  1.00 20.00     0.045 C 
HETATM    6  C6  UNL     1     -34.195  15.556  -5.831  1.00 20.00    -0.012 C 
HETATM    7  C7  UNL     1     -35.147  15.235  -3.446  1.00 20.00     0.125 C 
HETATM    8  N10 UNL     1     -37.738  14.747  -3.478  1.00 20.00    -0.195 NA
HETATM    9 CL11 UNL     1     -34.835  15.991  -1.843  1.00 20.00    -0.103 Cl
ENDROOT
BRANCH   6  10
HETATM   10  C9  UNL     1     -34.383  16.458  -7.050  1.00 20.00     0.000 C 
HETATM   11  C8  UNL     1     -35.504  15.985  -7.918  1.00 20.00     0.005 C 
ENDBRANCH   6  10
TORSDOF 1
ENDMDL
MODEL 6
REMARK VINA RESULT:      -4.6      1.239      1.351
REMARK  1 active torsions:
REMARK  status: ('A' for Active; 'I' for Inactive)
REMARK    1  A    between atoms: C6_6  and  C9_9 
ROOT
HETATM    1  C1  UNL     1     -35.901  15.422  -4.950  1.00 20.00     0.085 C 
HETATM    2  C2  UNL     1     -33.593  17.381  -4.548  1.00 20.00     0.003 C 
HETATM    3  C3  UNL     1     -34.245  17.591  -3.180  1.00 20.00     0.005 C 
HETATM    4  C4  UNL     1     -33.475  15.907  -4.960  1.00 20.00     0.041 C 
HETATM    5  C5  UNL     1     -34.623  15.096  -2.840  1.00 20.00     0.045 C 
HETATM    6  C6  UNL     1     -34.027  16.395  -2.253  1.00 20.00    -0.012 C 
HETATM    7  C7  UNL     1     -34.595  15.036  -4.382  1.00 20.00     0.125 C 
HETATM    8  N10 UNL     1     -36.928  15.725  -5.397  1.00 20.00    -0.195 NA
HETATM    9 CL11 UNL     1     -34.344  13.332  -4.904  1.00 20.00    -0.103 Cl
ENDROOT
BRANCH   6  10
HETATM   10  C9  UNL     1     -34.591  16.666  -0.859  1.00 20.00     0.000 C 
HETATM   11  C8  UNL     1     -33.918  17.830  -0.210  1.00 20.00     0.005 C 
ENDBRANCH   6  10
TORSDOF 1
ENDMDL
MODEL 7
REMARK VINA RESULT:      -4.3      2.409      3.630
REMARK  1 active torsions:
REMARK  status: ('A' for Active; 'I' for Inactive)
REMARK    1  A    between atoms: C6_6  and  C9_9 
ROOT
HETATM    1  C1  UNL     1     -35.596  17.666  -4.626  1.00 20.00     0.085 C 
HETATM    2  C2  UNL     1     -34.479  17.008  -1.861  1.00 20.00     0.003 C 
HETATM    3  C3  UNL     1     -34.549  15.567  -2.372  1.00 20.00     0.005 C 
HETATM    4  C4  UNL     1     -33.883  17.997  -2.872  1.00 20.00     0.041 C 
HETATM    5  C5  UNL     1     -33.587  16.197  -4.644  1.00 20.00     0.045 C 
HETATM    6  C6  UNL     1     -33.464  15.276  -3.410  1.00 20.00    -0.012 C 
HETATM    7  C7  UNL     1     -34.152  17.598  -4.326  1.00 20.00     0.125 C 
HETATM    8  N10 UNL     1     -36.731  17.720  -4.862  1.00 20.00    -0.195 NA
HETATM    9 CL11 UNL     1     -33.391  18.806  -5.420  1.00 20.00    -0.103 Cl
ENDROOT
BRANCH   6  10
HETATM   10  C9  UNL     1     -33.481  13.807  -3.829  1.00 20.00     0.000 C 
HETATM   11  C8  UNL     1     -34.852  13.361  -4.220  1.00 20.00     0.005 C 
ENDBRANCH   6  10
TORSDOF 1
ENDMDL
MODEL 8
REMARK VINA RESULT:      -4.3      2.402      3.988
REMARK  1 active torsions:
REMARK  status: ('A' for Active; 'I' for Inactive)
REMARK    1  A    between atoms: C6_6  and  C9_9 
ROOT
HETATM    1  C1  UNL     1     -33.837  14.267  -3.636  1.00 20.00     0.085 C 
HETATM    2  C2  UNL     1     -33.355  16.504  -5.658  1.00 20.00     0.003 C 
HETATM    3  C3  UNL     1     -34.501  15.826  -6.412  1.00 20.00     0.005 C 
HETATM    4  C4  UNL     1     -33.616  16.676  -4.155  1.00 20.00     0.041 C 
HETATM    5  C5  UNL     1     -35.880  15.525  -4.293  1.00 20.00     0.045 C 
HETATM    6  C6  UNL     1     -35.852  16.070  -5.738  1.00 20.00    -0.012 C 
HETATM    7  C7  UNL     1     -34.514  15.577  -3.578  1.00 20.00     0.125 C 
HETATM    8  N10 UNL     1     -33.304  13.237  -3.682  1.00 20.00    -0.195 NA
HETATM    9 CL11 UNL     1     -34.775  15.889  -1.825  1.00 20.00    -0.103 Cl
ENDROOT
BRANCH   6  10
HETATM   10  C9  UNL     1     -36.994  15.478  -6.562  1.00 20.00     0.000 C 
HETATM   11  C8  UNL     1     -36.498  14.860  -7.828  1.00 20.00     0.005 C 
ENDBRANCH   6  10
TORSDOF 1
ENDMDL
MODEL 9
REMARK VINA RESULT:      -4.3      2.517      3.590
REMARK  1 active torsions:
REMARK  status: ('A' for Active; 'I' for Inactive)
REMARK    1  A    between atoms: C6_6  and  C9_9 
ROOT
HETATM    1  C1  UNL     1     -33.751  14.221  -3.785  1.00 20.00     0.085 C 
HETATM    2  C2  UNL     1     -34.075  15.798  -6.380  1.00 20.00     0.003 C 
HETATM    3  C3  UNL     1     -35.478  15.188  -6.366  1.00 20.00     0.005 C 
HETATM    4  C4  UNL     1     -33.628  16.359  -5.023  1.00 20.00     0.041 C 
HETATM    5  C5  UNL     1     -35.787  15.648  -3.881  1.00 20.00     0.045 C 
HETATM    6  C6  UNL     1     -36.369  15.828  -5.301  1.00 20.00    -0.012 C 
HETATM    7  C7  UNL     1     -34.245  15.611  -3.837  1.00 20.00     0.125 C 
HETATM    8  N10 UNL     1     -33.363  13.128  -3.744  1.00 20.00    -0.195 NA
HETATM    9 CL11 UNL     1     -33.677  16.365  -2.305  1.00 20.00    -0.103 Cl
ENDROOT
BRANCH   6  10
HETATM   10  C9  UNL     1     -37.794  15.283  -5.373  1.00 20.00     0.000 C 
HETATM   11  C8  UNL     1     -38.262  14.786  -4.045  1.00 20.00     0.005 C 
ENDBRANCH   6  10
TORSDOF 1
ENDMDL
