MODEL 1
REMARK VINA RESULT:      -4.7      0.000      0.000
REMARK  3 active torsions:
REMARK  status: ('A' for Active; 'I' for Inactive)
REMARK    1  A    between atoms: C5_5  and  C8_8 
REMARK    2  A    between atoms: C6_6  and  C9_9 
REMARK    3  A    between atoms: C9_9  and  C10_10 
ROOT
HETATM    1  C1  UNL     1     -34.704  13.494  -4.773  1.00 20.00     0.001 C 
HETATM    2  C2  UNL     1     -34.646  14.367  -6.023  1.00 20.00     0.005 C 
HETATM    3  C3  UNL     1     -33.515  13.750  -3.850  1.00 20.00     0.005 C 
HETATM    4  C4  UNL     1     -33.328  16.107  -4.746  1.00 20.00     0.009 C 
HETATM    5  C5  UNL     1     -34.526  15.855  -5.675  1.00 20.00    -0.014 C 
HETATM    6  C6  UNL     1     -33.346  15.231  -3.484  1.00 20.00    -0.013 C 
ENDROOT
BRANCH   6   7
HETATM    7  C9  UNL     1     -34.414  15.694  -2.489  1.00 20.00     0.020 C 
BRANCH   7   8
HETATM    8  C10 UNL     1     -33.976  16.890  -1.657  1.00 20.00     0.115 C 
HETATM    9 CL11 UNL     1     -34.809  16.957  -0.088  1.00 20.00    -0.130 Cl
ENDBRANCH   7   8
ENDBRANCH   6   7
BRANCH   5  10
HETATM   10  C8  UNL     1     -34.406  16.696  -6.947  1.00 20.00     0.000 C 
HETATM   11  C7  UNL     1     -34.075  18.118  -6.636  1.00 20.00     0.005 C 
ENDBRANCH   5  10
TORSDOF 3
ENDMDL
MODEL 2
REMARK VINA RESULT:      -4.5      1.074      1.703
REMARK  3 active torsions:
REMARK  status: ('A' for Active; 'I' for Inactive)
REMARK    1  A    between atoms: C5_5  and  C8_8 
REMARK    2  A    between atoms: C6_6  and  C9_9 
REMARK    3  A    between atoms: C9_9  and  C10_10 
ROOT
HETATM    1  C1  UNL     1     -34.018  13.810  -3.623  1.00 20.00     0.001 C 
HETATM    2  C2  UNL     1     -34.747  13.652  -4.954  1.00 20.00     0.005 C 
HETATM    3  C3  UNL     1     -32.935  14.883  -3.696  1.00 20.00     0.005 C 
HETATM    4  C4  UNL     1     -34.226  16.059  -5.525  1.00 20.00     0.009 C 
HETATM    5  C5  UNL     1     -35.320  14.983  -5.453  1.00 20.00    -0.014 C 
HETATM    6  C6  UNL     1     -33.460  16.233  -4.204  1.00 20.00    -0.013 C 
ENDROOT
BRANCH   6   7
HETATM    7  C9  UNL     1     -34.308  16.945  -3.147  1.00 20.00     0.020 C 
BRANCH   7   8
HETATM    8  C10 UNL     1     -33.616  17.048  -1.796  1.00 20.00     0.115 C 
HETATM    9 CL11 UNL     1     -34.718  16.688  -0.448  1.00 20.00    -0.130 Cl
ENDBRANCH   7   8
ENDBRANCH   6   7
BRANCH   5  10
HETATM   10  C8  UNL     1     -35.987  14.803  -6.817  1.00 20.00     0.000 C 
HETATM   11  C7  UNL     1     -34.979  14.746  -7.917  1.00 20.00     0.005 C 
ENDBRANCH   5  10
TORSDOF 3
ENDMDL
MODEL 3
REMARK VINA RESULT:      -4.5      1.326      3.309
REMARK  3 active torsions:
REMARK  status: ('A' for Active; 'I' for Inactive)
REMARK    1  A    between atoms: C5_5  and  C8_8 
REMARK    2  A    between atoms: C6_6  and  C9_9 
REMARK    3  A    between atoms: C9_9  and  C10_10 
ROOT
HETATM    1  C1  UNL     1     -33.626  17.538  -4.367  1.00 20.00     0.001 C 
HETATM    2  C2  UNL     1     -33.558  16.056  -4.728  1.00 20.00     0.005 C 
HETATM    3  C3  UNL     1     -34.784  17.834  -3.417  1.00 20.00     0.005 C 
HETATM    4  C4  UNL     1     -34.661  15.469  -2.531  1.00 20.00     0.009 C 
HETATM    5  C5  UNL     1     -33.493  15.166  -3.482  1.00 20.00    -0.014 C 
HETATM    6  C6  UNL     1     -34.770  16.956  -2.158  1.00 20.00    -0.013 C 
ENDROOT
BRANCH   6   7
HETATM    7  C9  UNL     1     -33.664  17.378  -1.187  1.00 20.00     0.020 C 
BRANCH   7   8
HETATM    8  C10 UNL     1     -34.164  18.285  -0.071  1.00 20.00     0.115 C 
HETATM    9 CL11 UNL     1     -35.208  17.419   1.079  1.00 20.00    -0.130 Cl
ENDBRANCH   7   8
ENDBRANCH   6   7
BRANCH   5  10
HETATM   10  C8  UNL     1     -33.491  13.689  -3.877  1.00 20.00     0.000 C 
HETATM   11  C7  UNL     1     -34.744  13.310  -4.593  1.00 20.00     0.005 C 
ENDBRANCH   5  10
TORSDOF 3
ENDMDL
MODEL 4
REMARK VINA RESULT:      -4.5      2.915      4.415
REMARK  3 active torsions:
REMARK  status: ('A' for Active; 'I' for Inactive)
REMARK    1  A    between atoms: C5_5  and  C8_8 
REMARK    2  A    between atoms: C6_6  and  C9_9 
REMARK    3  A    between atoms: C9_9  and  C10_10 
ROOT
HETATM    1  C1  UNL     1     -33.915  13.809  -4.355  1.00 20.00     0.001 C 
HETATM    2  C2  UNL     1     -33.439  14.647  -3.172  1.00 20.00     0.005 C 
HETATM    3  C3  UNL     1     -35.425  13.584  -4.316  1.00 20.00     0.005 C 
HETATM    4  C4  UNL     1     -35.712  15.745  -3.035  1.00 20.00     0.009 C 
HETATM    5  C5  UNL     1     -34.194  15.978  -3.074  1.00 20.00    -0.014 C 
HETATM    6  C6  UNL     1     -36.224  14.889  -4.204  1.00 20.00    -0.013 C 
ENDROOT
BRANCH   6   7
HETATM    7  C9  UNL     1     -36.221  15.670  -5.521  1.00 20.00     0.020 C 
BRANCH   7   8
HETATM    8  C10 UNL     1     -36.338  14.775  -6.746  1.00 20.00     0.115 C 
HETATM    9 CL11 UNL     1     -34.851  14.772  -7.720  1.00 20.00    -0.130 Cl
ENDBRANCH   7   8
ENDBRANCH   6   7
BRANCH   5  10
HETATM   10  C8  UNL     1     -33.739  16.764  -1.844  1.00 20.00     0.000 C 
HETATM   11  C7  UNL     1     -34.722  16.653  -0.727  1.00 20.00     0.005 C 
ENDBRANCH   5  10
TORSDOF 3
ENDMDL
MODEL 5
REMARK VINA RESULT:      -4.4      2.703      4.089
REMARK  3 active torsions:
REMARK  status: ('A' for Active; 'I' for Inactive)
REMARK    1  A    between atoms: C5_5  and  C8_8 
REMARK    2  A    between atoms: C6_6  and  C9_9 
REMARK    3  A    between atoms: C9_9  and  C10_10 
ROOT
HETATM    1  C1  UNL     1     -33.784  13.885  -4.494  1.00 20.00     0.001 C 
HETATM    2  C2  UNL     1     -33.312  14.840  -3.401  1.00 20.00     0.005 C 
HETATM    3  C3  UNL     1     -35.186  13.353  -4.211  1.00 20.00     0.005 C 
HETATM    4  C4  UNL     1     -35.713  15.446  -2.893  1.00 20.00     0.009 C 
HETATM    5  C5  UNL     1     -34.304  15.987  -3.178  1.00 20.00    -0.014 C 
HETATM    6  C6  UNL     1     -36.214  14.466  -3.967  1.00 20.00    -0.013 C 
ENDROOT
BRANCH   6   7
HETATM    7  C9  UNL     1     -36.584  15.190  -5.264  1.00 20.00     0.020 C 
BRANCH   7   8
HETATM    8  C10 UNL     1     -38.050  15.591  -5.326  1.00 20.00     0.115 C 
HETATM    9 CL11 UNL     1     -39.055  14.637  -4.212  1.00 20.00    -0.130 Cl
ENDBRANCH   7   8
ENDBRANCH   6   7
BRANCH   5  10
HETATM   10  C8  UNL     1     -33.834  16.888  -2.035  1.00 20.00     0.000 C 
HETATM   11  C7  UNL     1     -34.621  16.651  -0.789  1.00 20.00     0.005 C 
ENDBRANCH   5  10
TORSDOF 3
ENDMDL
MODEL 6
REMARK VINA RESULT:      -4.3     12.232     13.701
REMARK  3 active torsions:
REMARK  status: ('A' for Active; 'I' for Inactive)
REMARK    1  A    between atoms: C5_5  and  C8_8 
REMARK    2  A    between atoms: C6_6  and  C9_9 
REMARK    3  A    between atoms: C9_9  and  C10_10 
ROOT
HETATM    1  C1  UNL     1     -40.588   5.893  -0.251  1.00 20.00     0.001 C 
HETATM    2  C2  UNL     1     -41.189   7.131  -0.912  1.00 20.00     0.005 C 
HETATM    3  C3  UNL     1     -41.630   4.794  -0.059  1.00 20.00     0.005 C 
HETATM    4  C4  UNL     1     -42.931   5.684  -2.036  1.00 20.00     0.009 C 
HETATM    5  C5  UNL     1     -41.884   6.790  -2.236  1.00 20.00    -0.014 C 
HETATM    6  C6  UNL     1     -42.364   4.428  -1.357  1.00 20.00    -0.013 C 
ENDROOT
BRANCH   6   7
HETATM    7  C9  UNL     1     -41.469   3.626  -2.306  1.00 20.00     0.020 C 
BRANCH   7   8
HETATM    8  C10 UNL     1     -42.212   2.512  -3.028  1.00 20.00     0.115 C 
HETATM    9 CL11 UNL     1     -41.156   1.615  -4.143  1.00 20.00    -0.130 Cl
ENDBRANCH   7   8
ENDBRANCH   6   7
BRANCH   5  10
HETATM   10  C8  UNL     1     -42.530   8.038  -2.839  1.00 20.00     0.000 C 
HETATM   11  C7  UNL     1     -42.907   7.825  -4.268  1.00 20.00     0.005 C 
ENDBRANCH   5  10
TORSDOF 3
ENDMDL
MODEL 7
REMARK VINA RESULT:      -4.3      2.773      4.752
REMARK  3 active torsions:
REMARK  status: ('A' for Active; 'I' for Inactive)
REMARK    1  A    between atoms: C5_5  and  C8_8 
REMARK    2  A    between atoms: C6_6  and  C9_9 
REMARK    3  A    between atoms: C9_9  and  C10_10 
ROOT
HETATM    1  C1  UNL     1     -33.790  17.866  -4.461  1.00 20.00     0.001 C 
HETATM    2  C2  UNL     1     -33.859  17.864  -2.936  1.00 20.00     0.005 C 
HETATM    3  C3  UNL     1     -33.188  16.572  -5.001  1.00 20.00     0.005 C 
HETATM    4  C4  UNL     1     -33.999  15.340  -2.947  1.00 20.00     0.009 C 
HETATM    5  C5  UNL     1     -34.609  16.640  -2.400  1.00 20.00    -0.014 C 
HETATM    6  C6  UNL     1     -33.900  15.315  -4.480  1.00 20.00    -0.013 C 
ENDROOT
BRANCH   6   7
HETATM    7  C9  UNL     1     -35.272  15.129  -5.133  1.00 20.00     0.020 C 
BRANCH   7   8
HETATM    8  C10 UNL     1     -35.250  14.153  -6.300  1.00 20.00     0.115 C 
HETATM    9 CL11 UNL     1     -34.787  14.940  -7.825  1.00 20.00    -0.130 Cl
ENDBRANCH   7   8
ENDBRANCH   6   7
BRANCH   5  10
HETATM   10  C8  UNL     1     -34.604  16.634  -0.871  1.00 20.00     0.000 C 
HETATM   11  C7  UNL     1     -33.800  17.765  -0.321  1.00 20.00     0.005 C 
ENDBRANCH   5  10
TORSDOF 3
ENDMDL
MODEL 8
REMARK VINA RESULT:      -4.2      2.170      3.052
REMARK  3 active torsions:
REMARK  status: ('A' for Active; 'I' for Inactive)
REMARK    1  A    between atoms: C5_5  and  C8_8 
REMARK    2  A    between atoms: C6_6  and  C9_9 
REMARK    3  A    between atoms: C9_9  and  C10_10 
ROOT
HETATM    1  C1  UNL     1     -33.978  14.046  -3.446  1.00 20.00     0.001 C 
HETATM    2  C2  UNL     1     -35.323  13.933  -4.157  1.00 20.00     0.005 C 
HETATM    3  C3  UNL     1     -33.483  15.490  -3.398  1.00 20.00     0.005 C 
HETATM    4  C4  UNL     1     -35.874  16.309  -3.491  1.00 20.00     0.009 C 
HETATM    5  C5  UNL     1     -36.377  14.858  -3.536  1.00 20.00    -0.014 C 
HETATM    6  C6  UNL     1     -34.511  16.457  -2.796  1.00 20.00    -0.013 C 
ENDROOT
BRANCH   6   7
HETATM    7  C9  UNL     1     -34.629  16.286  -1.279  1.00 20.00     0.020 C 
BRANCH   7   8
HETATM    8  C10 UNL     1     -34.589  17.607  -0.524  1.00 20.00     0.115 C 
HETATM    9 CL11 UNL     1     -32.939  18.260  -0.401  1.00 20.00    -0.130 Cl
ENDBRANCH   7   8
ENDBRANCH   6   7
BRANCH   5  10
HETATM   10  C8  UNL     1     -37.692  14.769  -4.310  1.00 20.00     0.000 C 
HETATM   11  C7  UNL     1     -38.851  15.202  -3.475  1.00 20.00     0.005 C 
ENDBRANCH   5  10
TORSDOF 3
ENDMDL
MODEL 9
REMARK VINA RESULT:      -4.2      1.262      1.647
REMARK  3 active torsions:
REMARK  status: ('A' for Active; 'I' for Inactive)
REMARK    1  A    between atoms: C5_5  and  C8_8 
REMARK    2  A    between atoms: C6_6  and  C9_9 
REMARK    3  A    between atoms: C9_9  and  C10_10 
ROOT
HETATM    1  C1  UNL     1     -35.967  15.168  -3.570  1.00 20.00     0.001 C 
HETATM    2  C2  UNL     1     -35.655  15.179  -5.063  1.00 20.00     0.005 C 
HETATM    3  C3  UNL     1     -34.706  14.983  -2.730  1.00 20.00     0.005 C 
HETATM    4  C4  UNL     1     -33.328  16.036  -4.571  1.00 20.00     0.009 C 
HETATM    5  C5  UNL     1     -34.595  16.228  -5.418  1.00 20.00    -0.014 C 
HETATM    6  C6  UNL     1     -33.609  16.004  -3.060  1.00 20.00    -0.013 C 
ENDROOT
BRANCH   6   7
HETATM    7  C9  UNL     1     -33.949  17.395  -2.518  1.00 20.00     0.020 C 
BRANCH   7   8
HETATM    8  C10 UNL     1     -33.558  17.580  -1.059  1.00 20.00     0.115 C 
HETATM    9 CL11 UNL     1     -34.856  17.086   0.050  1.00 20.00    -0.130 Cl
ENDBRANCH   7   8
ENDBRANCH   6   7
BRANCH   5  10
HETATM   10  C8  UNL     1     -34.259  16.168  -6.909  1.00 20.00     0.000 C 
HETATM   11  C7  UNL     1     -34.700  14.881  -7.520  1.00 20.00     0.005 C 
ENDBRANCH   5  10
TORSDOF 3
ENDMDL
