MODEL 1
REMARK VINA RESULT:      -5.2      0.000      0.000
REMARK  1 active torsions:
REMARK  status: ('A' for Active; 'I' for Inactive)
REMARK    1  A    between atoms: C8_8  and  C10_10 
ROOT
HETATM    1  C1  UNL     1     -31.812   8.373   1.613  1.00 20.00     0.088 C 
HETATM    2  C2  UNL     1     -32.588   6.894   3.349  1.00 20.00    -0.070 C 
HETATM    3  C3  UNL     1     -32.042   8.061   2.976  1.00 20.00     0.096 C 
HETATM    4  C4  UNL     1     -32.995   5.838   2.355  1.00 20.00     0.035 C 
HETATM    5  C5  UNL     1     -32.860   6.553   4.791  1.00 20.00     0.039 C 
HETATM    6  C6  UNL     1     -34.456   5.439   2.560  1.00 20.00     0.005 C 
HETATM    7  C7  UNL     1     -34.742   5.044   4.010  1.00 20.00     0.005 C 
HETATM    8  C8  UNL     1     -34.333   6.157   4.990  1.00 20.00    -0.011 C 
HETATM    9  N11 UNL     1     -31.622   8.635   0.499  1.00 20.00    -0.192 NA
ENDROOT
BRANCH   8  10
HETATM   10  C10 UNL     1     -34.583   5.721   6.433  1.00 20.00     0.000 C 
HETATM   11  C9  UNL     1     -35.096   4.321   6.506  1.00 20.00     0.005 C 
ENDBRANCH   8  10
TORSDOF 1
ENDMDL
MODEL 2
REMARK VINA RESULT:      -4.7     10.696     12.112
REMARK  1 active torsions:
REMARK  status: ('A' for Active; 'I' for Inactive)
REMARK    1  A    between atoms: C8_8  and  C10_10 
ROOT
HETATM    1  C1  UNL     1     -34.680  13.422  -4.483  1.00 20.00     0.088 C 
HETATM    2  C2  UNL     1     -34.783  15.401  -3.113  1.00 20.00    -0.070 C 
HETATM    3  C3  UNL     1     -34.709  14.067  -3.221  1.00 20.00     0.096 C 
HETATM    4  C4  UNL     1     -34.842  16.307  -4.315  1.00 20.00     0.035 C 
HETATM    5  C5  UNL     1     -34.793  16.105  -1.781  1.00 20.00     0.039 C 
HETATM    6  C6  UNL     1     -33.743  17.367  -4.245  1.00 20.00     0.005 C 
HETATM    7  C7  UNL     1     -33.765  18.126  -2.917  1.00 20.00     0.005 C 
HETATM    8  C8  UNL     1     -33.682  17.167  -1.716  1.00 20.00    -0.011 C 
HETATM    9  N11 UNL     1     -34.656  12.889  -5.513  1.00 20.00    -0.192 NA
ENDROOT
BRANCH   8  10
HETATM   10  C10 UNL     1     -33.754  17.943  -0.402  1.00 20.00     0.000 C 
HETATM   11  C9  UNL     1     -34.910  17.502   0.435  1.00 20.00     0.005 C 
ENDBRANCH   8  10
TORSDOF 1
ENDMDL
MODEL 3
REMARK VINA RESULT:      -4.6     11.177     12.647
REMARK  1 active torsions:
REMARK  status: ('A' for Active; 'I' for Inactive)
REMARK    1  A    between atoms: C8_8  and  C10_10 
ROOT
HETATM    1  C1  UNL     1     -37.440  15.298  -7.127  1.00 20.00     0.088 C 
HETATM    2  C2  UNL     1     -35.626  15.518  -5.558  1.00 20.00    -0.070 C 
HETATM    3  C3  UNL     1     -36.706  16.032  -6.164  1.00 20.00     0.096 C 
HETATM    4  C4  UNL     1     -35.117  14.131  -5.856  1.00 20.00     0.035 C 
HETATM    5  C5  UNL     1     -34.845  16.275  -4.515  1.00 20.00     0.039 C 
HETATM    6  C6  UNL     1     -34.985  13.317  -4.569  1.00 20.00     0.005 C 
HETATM    7  C7  UNL     1     -34.156  14.050  -3.512  1.00 20.00     0.005 C 
HETATM    8  C8  UNL     1     -34.720  15.452  -3.222  1.00 20.00    -0.011 C 
HETATM    9  N11 UNL     1     -38.046  14.702  -7.918  1.00 20.00    -0.192 NA
ENDROOT
BRANCH   8  10
HETATM   10  C10 UNL     1     -33.850  16.182  -2.201  1.00 20.00     0.000 C 
HETATM   11  C9  UNL     1     -34.637  16.601  -1.004  1.00 20.00     0.005 C 
ENDBRANCH   8  10
TORSDOF 1
ENDMDL
MODEL 4
REMARK VINA RESULT:      -4.6     11.347     12.083
REMARK  1 active torsions:
REMARK  status: ('A' for Active; 'I' for Inactive)
REMARK    1  A    between atoms: C8_8  and  C10_10 
ROOT
HETATM    1  C1  UNL     1     -33.850  16.017  -2.670  1.00 20.00     0.088 C 
HETATM    2  C2  UNL     1     -34.408  17.382  -0.765  1.00 20.00    -0.070 C 
HETATM    3  C3  UNL     1     -34.595  16.271  -1.492  1.00 20.00     0.096 C 
HETATM    4  C4  UNL     1     -33.401  18.435  -1.145  1.00 20.00     0.035 C 
HETATM    5  C5  UNL     1     -35.176  17.658   0.501  1.00 20.00     0.039 C 
HETATM    6  C6  UNL     1     -32.453  18.720   0.020  1.00 20.00     0.005 C 
HETATM    7  C7  UNL     1     -33.213  19.049   1.307  1.00 20.00     0.005 C 
HETATM    8  C8  UNL     1     -34.216  17.940   1.671  1.00 20.00    -0.011 C 
HETATM    9  N11 UNL     1     -33.243  15.804  -3.636  1.00 20.00    -0.192 NA
ENDROOT
BRANCH   8  10
HETATM   10  C10 UNL     1     -34.996  18.312   2.930  1.00 20.00     0.000 C 
HETATM   11  C9  UNL     1     -34.161  18.170   4.159  1.00 20.00     0.005 C 
ENDBRANCH   8  10
TORSDOF 1
ENDMDL
MODEL 5
REMARK VINA RESULT:      -4.6     11.685     12.651
REMARK  1 active torsions:
REMARK  status: ('A' for Active; 'I' for Inactive)
REMARK    1  A    between atoms: C8_8  and  C10_10 
ROOT
HETATM    1  C1  UNL     1     -31.790  18.992   3.019  1.00 20.00     0.088 C 
HETATM    2  C2  UNL     1     -32.938  18.744   0.916  1.00 20.00    -0.070 C 
HETATM    3  C3  UNL     1     -31.796  18.868   1.608  1.00 20.00     0.096 C 
HETATM    4  C4  UNL     1     -34.289  18.728   1.584  1.00 20.00     0.035 C 
HETATM    5  C5  UNL     1     -32.964  18.589  -0.582  1.00 20.00     0.039 C 
HETATM    6  C6  UNL     1     -35.079  17.485   1.173  1.00 20.00     0.005 C 
HETATM    7  C7  UNL     1     -35.156  17.335  -0.348  1.00 20.00     0.005 C 
HETATM    8  C8  UNL     1     -33.757  17.335  -0.988  1.00 20.00    -0.011 C 
HETATM    9  N11 UNL     1     -31.778  19.094   4.175  1.00 20.00    -0.192 NA
ENDROOT
BRANCH   8  10
HETATM   10  C10 UNL     1     -33.861  17.232  -2.509  1.00 20.00     0.000 C 
HETATM   11  C9  UNL     1     -33.778  15.816  -2.973  1.00 20.00     0.005 C 
ENDBRANCH   8  10
TORSDOF 1
ENDMDL
MODEL 6
REMARK VINA RESULT:      -4.4     11.305     12.161
REMARK  1 active torsions:
REMARK  status: ('A' for Active; 'I' for Inactive)
REMARK    1  A    between atoms: C8_8  and  C10_10 
ROOT
HETATM    1  C1  UNL     1     -35.628  17.897   0.533  1.00 20.00     0.088 C 
HETATM    2  C2  UNL     1     -34.878  16.873  -1.514  1.00 20.00    -0.070 C 
HETATM    3  C3  UNL     1     -34.742  17.065  -0.194  1.00 20.00     0.096 C 
HETATM    4  C4  UNL     1     -35.975  17.524  -2.316  1.00 20.00     0.035 C 
HETATM    5  C5  UNL     1     -33.959  15.974  -2.301  1.00 20.00     0.039 C 
HETATM    6  C6  UNL     1     -36.767  16.476  -3.097  1.00 20.00     0.005 C 
HETATM    7  C7  UNL     1     -35.855  15.581  -3.939  1.00 20.00     0.005 C 
HETATM    8  C8  UNL     1     -34.763  14.919  -3.081  1.00 20.00    -0.011 C 
HETATM    9  N11 UNL     1     -36.350  18.578   1.134  1.00 20.00    -0.192 NA
ENDROOT
BRANCH   8  10
HETATM   10  C10 UNL     1     -33.836  14.070  -3.949  1.00 20.00     0.000 C 
HETATM   11  C9  UNL     1     -34.603  13.217  -4.904  1.00 20.00     0.005 C 
ENDBRANCH   8  10
TORSDOF 1
ENDMDL
MODEL 7
REMARK VINA RESULT:      -4.4     11.378     12.269
REMARK  1 active torsions:
REMARK  status: ('A' for Active; 'I' for Inactive)
REMARK    1  A    between atoms: C8_8  and  C10_10 
ROOT
HETATM    1  C1  UNL     1     -39.152  14.740  -4.183  1.00 20.00     0.088 C 
HETATM    2  C2  UNL     1     -36.997  15.678  -3.652  1.00 20.00    -0.070 C 
HETATM    3  C3  UNL     1     -38.325  15.641  -3.467  1.00 20.00     0.096 C 
HETATM    4  C4  UNL     1     -36.292  14.771  -4.628  1.00 20.00     0.035 C 
HETATM    5  C5  UNL     1     -36.099  16.613  -2.885  1.00 20.00     0.039 C 
HETATM    6  C6  UNL     1     -35.165  14.006  -3.935  1.00 20.00     0.005 C 
HETATM    7  C7  UNL     1     -34.214  14.944  -3.188  1.00 20.00     0.005 C 
HETATM    8  C8  UNL     1     -34.969  15.836  -2.188  1.00 20.00    -0.011 C 
HETATM    9  N11 UNL     1     -39.835  14.005  -4.766  1.00 20.00    -0.192 NA
ENDROOT
BRANCH   8  10
HETATM   10  C10 UNL     1     -34.008  16.796  -1.489  1.00 20.00     0.000 C 
HETATM   11  C9  UNL     1     -34.547  17.257  -0.176  1.00 20.00     0.005 C 
ENDBRANCH   8  10
TORSDOF 1
ENDMDL
MODEL 8
REMARK VINA RESULT:      -4.4     10.884     12.848
REMARK  1 active torsions:
REMARK  status: ('A' for Active; 'I' for Inactive)
REMARK    1  A    between atoms: C8_8  and  C10_10 
ROOT
HETATM    1  C1  UNL     1     -34.540  17.050  -1.552  1.00 20.00     0.088 C 
HETATM    2  C2  UNL     1     -35.006  16.160  -3.742  1.00 20.00    -0.070 C 
HETATM    3  C3  UNL     1     -34.574  17.163  -2.964  1.00 20.00     0.096 C 
HETATM    4  C4  UNL     1     -35.484  14.848  -3.175  1.00 20.00     0.035 C 
HETATM    5  C5  UNL     1     -35.029  16.253  -5.245  1.00 20.00     0.039 C 
HETATM    6  C6  UNL     1     -34.730  13.680  -3.810  1.00 20.00     0.005 C 
HETATM    7  C7  UNL     1     -34.781  13.731  -5.338  1.00 20.00     0.005 C 
HETATM    8  C8  UNL     1     -34.265  15.077  -5.877  1.00 20.00    -0.011 C 
HETATM    9  N11 UNL     1     -34.510  16.964  -0.395  1.00 20.00    -0.192 NA
ENDROOT
BRANCH   8  10
HETATM   10  C10 UNL     1     -34.370  15.123  -7.400  1.00 20.00     0.000 C 
HETATM   11  C9  UNL     1     -35.655  14.534  -7.883  1.00 20.00     0.005 C 
ENDBRANCH   8  10
TORSDOF 1
ENDMDL
MODEL 9
REMARK VINA RESULT:      -4.3     11.679     12.503
REMARK  1 active torsions:
REMARK  status: ('A' for Active; 'I' for Inactive)
REMARK    1  A    between atoms: C8_8  and  C10_10 
ROOT
HETATM    1  C1  UNL     1     -34.831  16.923  -1.059  1.00 20.00     0.088 C 
HETATM    2  C2  UNL     1     -34.098  18.204   0.845  1.00 20.00    -0.070 C 
HETATM    3  C3  UNL     1     -34.898  17.268   0.314  1.00 20.00     0.096 C 
HETATM    4  C4  UNL     1     -33.078  18.953   0.028  1.00 20.00     0.035 C 
HETATM    5  C5  UNL     1     -34.139  18.568   2.307  1.00 20.00     0.039 C 
HETATM    6  C6  UNL     1     -31.692  18.841   0.662  1.00 20.00     0.005 C 
HETATM    7  C7  UNL     1     -31.703  19.251   2.136  1.00 20.00     0.005 C 
HETATM    8  C8  UNL     1     -32.742  18.449   2.939  1.00 20.00    -0.011 C 
HETATM    9  N11 UNL     1     -34.781  16.637  -2.182  1.00 20.00    -0.192 NA
ENDROOT
BRANCH   8  10
HETATM   10  C10 UNL     1     -32.769  18.909   4.395  1.00 20.00     0.000 C 
HETATM   11  C9  UNL     1     -31.399  19.223   4.900  1.00 20.00     0.005 C 
ENDBRANCH   8  10
TORSDOF 1
ENDMDL
