MODEL 1
REMARK VINA RESULT:      -4.7      0.000      0.000
REMARK  3 active torsions:
REMARK  status: ('A' for Active; 'I' for Inactive)
REMARK    1  A    between atoms: C5_5  and  C8_8 
REMARK    2  A    between atoms: C6_6  and  C9_9 
REMARK    3  A    between atoms: C9_9  and  C10_10 
ROOT
HETATM    1  C1  UNL     1     -34.505   5.445   2.473  1.00 20.00     0.001 C 
HETATM    2  C2  UNL     1     -34.864   5.174   3.931  1.00 20.00     0.005 C 
HETATM    3  C3  UNL     1     -32.993   5.498   2.264  1.00 20.00     0.005 C 
HETATM    4  C4  UNL     1     -32.689   6.234   4.665  1.00 20.00     0.009 C 
HETATM    5  C5  UNL     1     -34.210   6.188   4.879  1.00 20.00    -0.014 C 
HETATM    6  C6  UNL     1     -32.292   6.490   3.202  1.00 20.00    -0.013 C 
ENDROOT
BRANCH   6   7
HETATM    7  C9  UNL     1     -32.552   7.941   2.789  1.00 20.00     0.020 C 
BRANCH   7   8
HETATM    8  C10 UNL     1     -31.811   8.344   1.524  1.00 20.00     0.115 C 
HETATM    9 CL11 UNL     1     -32.443   9.854   0.827  1.00 20.00    -0.130 Cl
ENDBRANCH   7   8
ENDBRANCH   6   7
BRANCH   5  10
HETATM   10  C8  UNL     1     -34.535   5.848   6.334  1.00 20.00     0.000 C 
HETATM   11  C7  UNL     1     -35.055   4.456   6.472  1.00 20.00     0.005 C 
ENDBRANCH   5  10
TORSDOF 3
ENDMDL
MODEL 2
REMARK VINA RESULT:      -4.5     10.658     12.144
REMARK  3 active torsions:
REMARK  status: ('A' for Active; 'I' for Inactive)
REMARK    1  A    between atoms: C5_5  and  C8_8 
REMARK    2  A    between atoms: C6_6  and  C9_9 
REMARK    3  A    between atoms: C9_9  and  C10_10 
ROOT
HETATM    1  C1  UNL     1     -34.033  18.179  -3.776  1.00 20.00     0.001 C 
HETATM    2  C2  UNL     1     -34.075  18.628  -2.318  1.00 20.00     0.005 C 
HETATM    3  C3  UNL     1     -34.928  16.966  -4.019  1.00 20.00     0.005 C 
HETATM    4  C4  UNL     1     -34.632  16.267  -1.606  1.00 20.00     0.009 C 
HETATM    5  C5  UNL     1     -33.727  17.484  -1.357  1.00 20.00    -0.014 C 
HETATM    6  C6  UNL     1     -34.627  15.798  -3.069  1.00 20.00    -0.013 C 
ENDROOT
BRANCH   6   7
HETATM    7  C9  UNL     1     -33.316  15.095  -3.434  1.00 20.00     0.020 C 
BRANCH   7   8
HETATM    8  C10 UNL     1     -33.512  13.643  -3.845  1.00 20.00     0.115 C 
HETATM    9 CL11 UNL     1     -35.207  13.283  -4.250  1.00 20.00    -0.130 Cl
ENDBRANCH   7   8
ENDBRANCH   6   7
BRANCH   5  10
HETATM   10  C8  UNL     1     -33.842  17.949   0.095  1.00 20.00     0.000 C 
HETATM   11  C7  UNL     1     -35.105  17.467   0.729  1.00 20.00     0.005 C 
ENDBRANCH   5  10
TORSDOF 3
ENDMDL
MODEL 3
REMARK VINA RESULT:      -4.4     11.141     12.709
REMARK  3 active torsions:
REMARK  status: ('A' for Active; 'I' for Inactive)
REMARK    1  A    between atoms: C5_5  and  C8_8 
REMARK    2  A    between atoms: C6_6  and  C9_9 
REMARK    3  A    between atoms: C9_9  and  C10_10 
ROOT
HETATM    1  C1  UNL     1     -33.166  16.275  -4.922  1.00 20.00     0.001 C 
HETATM    2  C2  UNL     1     -34.062  15.761  -6.045  1.00 20.00     0.005 C 
HETATM    3  C3  UNL     1     -33.035  15.255  -3.793  1.00 20.00     0.005 C 
HETATM    4  C4  UNL     1     -35.302  14.305  -4.393  1.00 20.00     0.009 C 
HETATM    5  C5  UNL     1     -35.441  15.333  -5.526  1.00 20.00    -0.014 C 
HETATM    6  C6  UNL     1     -34.392  14.783  -3.250  1.00 20.00    -0.013 C 
ENDROOT
BRANCH   6   7
HETATM    7  C9  UNL     1     -35.068  15.863  -2.400  1.00 20.00     0.020 C 
BRANCH   7   8
HETATM    8  C10 UNL     1     -34.090  16.638  -1.531  1.00 20.00     0.115 C 
HETATM    9 CL11 UNL     1     -34.793  17.074   0.044  1.00 20.00    -0.130 Cl
ENDBRANCH   7   8
ENDBRANCH   6   7
BRANCH   5  10
HETATM   10  C8  UNL     1     -36.288  14.763  -6.664  1.00 20.00     0.000 C 
HETATM   11  C7  UNL     1     -35.470  14.507  -7.886  1.00 20.00     0.005 C 
ENDBRANCH   5  10
TORSDOF 3
ENDMDL
MODEL 4
REMARK VINA RESULT:      -4.4     11.435     12.088
REMARK  3 active torsions:
REMARK  status: ('A' for Active; 'I' for Inactive)
REMARK    1  A    between atoms: C5_5  and  C8_8 
REMARK    2  A    between atoms: C6_6  and  C9_9 
REMARK    3  A    between atoms: C9_9  and  C10_10 
ROOT
HETATM    1  C1  UNL     1     -36.450  14.693  -3.796  1.00 20.00     0.001 C 
HETATM    2  C2  UNL     1     -35.760  15.465  -2.675  1.00 20.00     0.005 C 
HETATM    3  C3  UNL     1     -35.517  13.660  -4.426  1.00 20.00     0.005 C 
HETATM    4  C4  UNL     1     -33.520  15.071  -3.777  1.00 20.00     0.009 C 
HETATM    5  C5  UNL     1     -34.454  16.116  -3.147  1.00 20.00    -0.014 C 
HETATM    6  C6  UNL     1     -34.187  14.262  -4.902  1.00 20.00    -0.013 C 
ENDROOT
BRANCH   6   7
HETATM    7  C9  UNL     1     -34.367  15.098  -6.172  1.00 20.00     0.020 C 
BRANCH   7   8
HETATM    8  C10 UNL     1     -35.159  14.379  -7.253  1.00 20.00     0.115 C 
HETATM    9 CL11 UNL     1     -36.780  15.078  -7.473  1.00 20.00    -0.130 Cl
ENDBRANCH   7   8
ENDBRANCH   6   7
BRANCH   5  10
HETATM   10  C8  UNL     1     -33.757  16.824  -1.985  1.00 20.00     0.000 C 
HETATM   11  C7  UNL     1     -34.559  16.741  -0.728  1.00 20.00     0.005 C 
ENDBRANCH   5  10
TORSDOF 3
ENDMDL
MODEL 5
REMARK VINA RESULT:      -4.4     10.842     12.039
REMARK  3 active torsions:
REMARK  status: ('A' for Active; 'I' for Inactive)
REMARK    1  A    between atoms: C5_5  and  C8_8 
REMARK    2  A    between atoms: C6_6  and  C9_9 
REMARK    3  A    between atoms: C9_9  and  C10_10 
ROOT
HETATM    1  C1  UNL     1     -36.348  16.655  -3.278  1.00 20.00     0.001 C 
HETATM    2  C2  UNL     1     -35.732  15.443  -3.971  1.00 20.00     0.005 C 
HETATM    3  C3  UNL     1     -35.292  17.701  -2.925  1.00 20.00     0.005 C 
HETATM    4  C4  UNL     1     -33.539  15.882  -2.794  1.00 20.00     0.009 C 
HETATM    5  C5  UNL     1     -34.598  14.826  -3.143  1.00 20.00    -0.014 C 
HETATM    6  C6  UNL     1     -34.127  17.125  -2.107  1.00 20.00    -0.013 C 
ENDROOT
BRANCH   6   7
HETATM    7  C9  UNL     1     -34.539  16.834  -0.662  1.00 20.00     0.020 C 
BRANCH   7   8
HETATM    8  C10 UNL     1     -34.172  17.952   0.301  1.00 20.00     0.115 C 
HETATM    9 CL11 UNL     1     -32.543  18.596  -0.009  1.00 20.00    -0.130 Cl
ENDBRANCH   7   8
ENDBRANCH   6   7
BRANCH   5  10
HETATM   10  C8  UNL     1     -33.961  13.657  -3.895  1.00 20.00     0.000 C 
HETATM   11  C7  UNL     1     -34.756  13.277  -5.100  1.00 20.00     0.005 C 
ENDBRANCH   5  10
TORSDOF 3
ENDMDL
MODEL 6
REMARK VINA RESULT:      -4.2     10.967     12.315
REMARK  3 active torsions:
REMARK  status: ('A' for Active; 'I' for Inactive)
REMARK    1  A    between atoms: C5_5  and  C8_8 
REMARK    2  A    between atoms: C6_6  and  C9_9 
REMARK    3  A    between atoms: C9_9  and  C10_10 
ROOT
HETATM    1  C1  UNL     1     -34.727  13.267  -4.614  1.00 20.00     0.001 C 
HETATM    2  C2  UNL     1     -33.978  14.072  -3.556  1.00 20.00     0.005 C 
HETATM    3  C3  UNL     1     -34.913  14.064  -5.903  1.00 20.00     0.005 C 
HETATM    4  C4  UNL     1     -34.837  16.218  -4.579  1.00 20.00     0.009 C 
HETATM    5  C5  UNL     1     -34.655  15.421  -3.279  1.00 20.00    -0.014 C 
HETATM    6  C6  UNL     1     -35.575  15.430  -5.674  1.00 20.00    -0.013 C 
ENDROOT
BRANCH   6   7
HETATM    7  C9  UNL     1     -37.068  15.292  -5.365  1.00 20.00     0.020 C 
BRANCH   7   8
HETATM    8  C10 UNL     1     -37.712  16.601  -4.935  1.00 20.00     0.115 C 
HETATM    9 CL11 UNL     1     -38.145  16.601  -3.210  1.00 20.00    -0.130 Cl
ENDBRANCH   7   8
ENDBRANCH   6   7
BRANCH   5  10
HETATM   10  C8  UNL     1     -33.844  16.229  -2.265  1.00 20.00     0.000 C 
HETATM   11  C7  UNL     1     -34.653  16.568  -1.057  1.00 20.00     0.005 C 
ENDBRANCH   5  10
TORSDOF 3
ENDMDL
MODEL 7
REMARK VINA RESULT:      -4.2     11.450     13.105
REMARK  3 active torsions:
REMARK  status: ('A' for Active; 'I' for Inactive)
REMARK    1  A    between atoms: C5_5  and  C8_8 
REMARK    2  A    between atoms: C6_6  and  C9_9 
REMARK    3  A    between atoms: C9_9  and  C10_10 
ROOT
HETATM    1  C1  UNL     1     -33.564  16.781  -3.893  1.00 20.00     0.001 C 
HETATM    2  C2  UNL     1     -33.386  16.381  -5.355  1.00 20.00     0.005 C 
HETATM    3  C3  UNL     1     -33.812  15.565  -3.002  1.00 20.00     0.005 C 
HETATM    4  C4  UNL     1     -34.812  14.330  -4.970  1.00 20.00     0.009 C 
HETATM    5  C5  UNL     1     -34.569  15.552  -5.870  1.00 20.00    -0.014 C 
HETATM    6  C6  UNL     1     -34.980  14.695  -3.486  1.00 20.00    -0.013 C 
ENDROOT
BRANCH   6   7
HETATM    7  C9  UNL     1     -36.333  15.360  -3.215  1.00 20.00     0.020 C 
BRANCH   7   8
HETATM    8  C10 UNL     1     -37.492  14.660  -3.908  1.00 20.00     0.115 C 
HETATM    9 CL11 UNL     1     -38.148  15.621  -5.254  1.00 20.00    -0.130 Cl
ENDBRANCH   7   8
ENDBRANCH   6   7
BRANCH   5  10
HETATM   10  C8  UNL     1     -34.329  15.114  -7.314  1.00 20.00     0.000 C 
HETATM   11  C7  UNL     1     -35.548  14.494  -7.913  1.00 20.00     0.005 C 
ENDBRANCH   5  10
TORSDOF 3
ENDMDL
MODEL 8
REMARK VINA RESULT:      -4.1      9.590     11.368
REMARK  3 active torsions:
REMARK  status: ('A' for Active; 'I' for Inactive)
REMARK    1  A    between atoms: C5_5  and  C8_8 
REMARK    2  A    between atoms: C6_6  and  C9_9 
REMARK    3  A    between atoms: C9_9  and  C10_10 
ROOT
HETATM    1  C1  UNL     1     -40.983   5.687  -0.155  1.00 20.00     0.001 C 
HETATM    2  C2  UNL     1     -41.417   6.980  -0.840  1.00 20.00     0.005 C 
HETATM    3  C3  UNL     1     -40.711   4.577  -1.168  1.00 20.00     0.005 C 
HETATM    4  C4  UNL     1     -42.345   5.646  -2.776  1.00 20.00     0.009 C 
HETATM    5  C5  UNL     1     -42.626   6.763  -1.759  1.00 20.00    -0.014 C 
HETATM    6  C6  UNL     1     -41.889   4.332  -2.122  1.00 20.00    -0.013 C 
ENDROOT
BRANCH   6   7
HETATM    7  C9  UNL     1     -43.046   3.616  -1.420  1.00 20.00     0.020 C 
BRANCH   7   8
HETATM    8  C10 UNL     1     -43.415   2.294  -2.074  1.00 20.00     0.115 C 
HETATM    9 CL11 UNL     1     -42.217   1.790  -3.289  1.00 20.00    -0.130 Cl
ENDBRANCH   7   8
ENDBRANCH   6   7
BRANCH   5  10
HETATM   10  C8  UNL     1     -42.993   8.061  -2.478  1.00 20.00     0.000 C 
HETATM   11  C7  UNL     1     -42.729   7.973  -3.945  1.00 20.00     0.005 C 
ENDBRANCH   5  10
TORSDOF 3
ENDMDL
MODEL 9
REMARK VINA RESULT:      -4.1     11.310     12.363
REMARK  3 active torsions:
REMARK  status: ('A' for Active; 'I' for Inactive)
REMARK    1  A    between atoms: C5_5  and  C8_8 
REMARK    2  A    between atoms: C6_6  and  C9_9 
REMARK    3  A    between atoms: C9_9  and  C10_10 
ROOT
HETATM    1  C1  UNL     1     -33.383  16.283  -5.134  1.00 20.00     0.001 C 
HETATM    2  C2  UNL     1     -34.766  15.875  -5.634  1.00 20.00     0.005 C 
HETATM    3  C3  UNL     1     -32.947  15.444  -3.934  1.00 20.00     0.005 C 
HETATM    4  C4  UNL     1     -35.372  15.074  -3.314  1.00 20.00     0.009 C 
HETATM    5  C5  UNL     1     -35.816  15.921  -4.517  1.00 20.00    -0.014 C 
HETATM    6  C6  UNL     1     -33.975  15.448  -2.793  1.00 20.00    -0.013 C 
ENDROOT
BRANCH   6   7
HETATM    7  C9  UNL     1     -33.987  16.785  -2.047  1.00 20.00     0.020 C 
BRANCH   7   8
HETATM    8  C10 UNL     1     -34.679  16.707  -0.694  1.00 20.00     0.115 C 
HETATM    9 CL11 UNL     1     -34.093  17.954   0.431  1.00 20.00    -0.130 Cl
ENDBRANCH   7   8
ENDBRANCH   6   7
BRANCH   5  10
HETATM   10  C8  UNL     1     -37.172  15.444  -5.035  1.00 20.00     0.000 C 
HETATM   11  C7  UNL     1     -37.976  14.793  -3.959  1.00 20.00     0.005 C 
ENDBRANCH   5  10
TORSDOF 3
ENDMDL
