MODEL 1
REMARK VINA RESULT:      -4.8      0.000      0.000
REMARK  2 active torsions:
REMARK  status: ('A' for Active; 'I' for Inactive)
REMARK    1  A    between atoms: C8_8  and  C12_12 
REMARK    2  A    between atoms: C11_11  and  N13_13 
ROOT
HETATM    1  C1  UNL     1     -34.841  14.380  -6.856  1.00 20.00     0.013 C 
HETATM    2  C2  UNL     1     -35.087  14.122  -5.710  1.00 20.00    -0.087 C 
HETATM    3  C11 UNL     1     -35.387  13.800  -4.313  1.00 20.00     0.364 C 
ENDROOT
BRANCH   3   4
HETATM    4  N13 UNL     1     -35.339  15.005  -3.484  1.00 20.00     0.099 N 
HETATM    5  C6  UNL     1     -36.334  15.979  -3.950  1.00 20.00     0.273 C 
HETATM    6  C3  UNL     1     -36.200  17.401  -3.397  1.00 20.00     0.031 C 
HETATM    7  C4  UNL     1     -36.061  17.503  -1.880  1.00 20.00     0.007 C 
HETATM    8  C8  UNL     1     -34.932  16.664  -1.250  1.00 20.00    -0.010 C 
HETATM    9  C5  UNL     1     -33.728  16.459  -2.187  1.00 20.00     0.035 C 
HETATM   10  C7  UNL     1     -33.979  15.543  -3.405  1.00 20.00     0.274 C 
BRANCH   8  11
HETATM   11  C12 UNL     1     -34.481  17.309   0.065  1.00 20.00    -0.019 C 
HETATM   12  C9  UNL     1     -33.388  18.339  -0.197  1.00 20.00     0.010 C 
HETATM   13  C10 UNL     1     -35.669  17.948   0.776  1.00 20.00     0.010 C 
ENDBRANCH   8  11
ENDBRANCH   3   4
TORSDOF 2
ENDMDL
MODEL 2
REMARK VINA RESULT:      -4.7      1.744      2.419
REMARK  2 active torsions:
REMARK  status: ('A' for Active; 'I' for Inactive)
REMARK    1  A    between atoms: C8_8  and  C12_12 
REMARK    2  A    between atoms: C11_11  and  N13_13 
ROOT
HETATM    1  C1  UNL     1     -34.578  16.263  -6.627  1.00 20.00     0.013 C 
HETATM    2  C2  UNL     1     -33.818  16.085  -5.715  1.00 20.00    -0.087 C 
HETATM    3  C11 UNL     1     -32.887  15.866  -4.606  1.00 20.00     0.364 C 
ENDROOT
BRANCH   3   4
HETATM    4  N13 UNL     1     -33.409  16.450  -3.370  1.00 20.00     0.099 N 
HETATM    5  C6  UNL     1     -34.531  15.647  -2.867  1.00 20.00     0.273 C 
HETATM    6  C3  UNL     1     -35.383  16.289  -1.768  1.00 20.00     0.031 C 
HETATM    7  C4  UNL     1     -34.604  16.867  -0.589  1.00 20.00     0.007 C 
HETATM    8  C8  UNL     1     -33.493  17.874  -0.946  1.00 20.00    -0.010 C 
HETATM    9  C5  UNL     1     -33.783  18.674  -2.229  1.00 20.00     0.035 C 
HETATM   10  C7  UNL     1     -33.730  17.868  -3.545  1.00 20.00     0.274 C 
BRANCH   8  11
HETATM   11  C12 UNL     1     -33.257  18.822   0.234  1.00 20.00    -0.019 C 
HETATM   12  C9  UNL     1     -34.045  18.360   1.454  1.00 20.00     0.010 C 
HETATM   13  C10 UNL     1     -31.768  18.912   0.552  1.00 20.00     0.010 C 
ENDBRANCH   8  11
ENDBRANCH   3   4
TORSDOF 2
ENDMDL
MODEL 3
REMARK VINA RESULT:      -4.7      1.704      2.958
REMARK  2 active torsions:
REMARK  status: ('A' for Active; 'I' for Inactive)
REMARK    1  A    between atoms: C8_8  and  C12_12 
REMARK    2  A    between atoms: C11_11  and  N13_13 
ROOT
HETATM    1  C1  UNL     1     -38.012  16.900  -6.748  1.00 20.00     0.013 C 
HETATM    2  C2  UNL     1     -37.265  15.964  -6.658  1.00 20.00    -0.087 C 
HETATM    3  C11 UNL     1     -36.355  14.821  -6.553  1.00 20.00     0.364 C 
ENDROOT
BRANCH   3   4
HETATM    4  N13 UNL     1     -35.528  14.928  -5.351  1.00 20.00     0.099 N 
HETATM    5  C6  UNL     1     -34.497  13.882  -5.353  1.00 20.00     0.273 C 
HETATM    6  C3  UNL     1     -33.757  13.659  -4.031  1.00 20.00     0.031 C 
HETATM    7  C4  UNL     1     -33.200  14.919  -3.372  1.00 20.00     0.007 C 
HETATM    8  C8  UNL     1     -34.211  16.059  -3.138  1.00 20.00    -0.010 C 
HETATM    9  C5  UNL     1     -35.649  15.561  -2.907  1.00 20.00     0.035 C 
HETATM   10  C7  UNL     1     -36.349  14.946  -4.139  1.00 20.00     0.274 C 
BRANCH   8  11
HETATM   11  C12 UNL     1     -33.750  16.924  -1.961  1.00 20.00    -0.019 C 
HETATM   12  C9  UNL     1     -33.778  18.400  -2.344  1.00 20.00     0.010 C 
HETATM   13  C10 UNL     1     -34.624  16.665  -0.738  1.00 20.00     0.010 C 
ENDBRANCH   8  11
ENDBRANCH   3   4
TORSDOF 2
ENDMDL
MODEL 4
REMARK VINA RESULT:      -4.6      1.565      5.583
REMARK  2 active torsions:
REMARK  status: ('A' for Active; 'I' for Inactive)
REMARK    1  A    between atoms: C8_8  and  C12_12 
REMARK    2  A    between atoms: C11_11  and  N13_13 
ROOT
HETATM    1  C1  UNL     1     -34.782  17.019  -0.126  1.00 20.00     0.013 C 
HETATM    2  C2  UNL     1     -34.260  17.214  -1.189  1.00 20.00    -0.087 C 
HETATM    3  C11 UNL     1     -33.621  17.458  -2.484  1.00 20.00     0.364 C 
ENDROOT
BRANCH   3   4
HETATM    4  N13 UNL     1     -34.060  16.470  -3.471  1.00 20.00     0.099 N 
HETATM    5  C6  UNL     1     -33.750  15.114  -3.000  1.00 20.00     0.273 C 
HETATM    6  C3  UNL     1     -33.855  13.995  -4.040  1.00 20.00     0.031 C 
HETATM    7  C4  UNL     1     -35.154  13.969  -4.844  1.00 20.00     0.007 C 
HETATM    8  C8  UNL     1     -35.533  15.284  -5.553  1.00 20.00    -0.010 C 
HETATM    9  C5  UNL     1     -34.314  16.130  -5.963  1.00 20.00     0.035 C 
HETATM   10  C7  UNL     1     -33.524  16.770  -4.800  1.00 20.00     0.274 C 
BRANCH   8  11
HETATM   11  C12 UNL     1     -36.406  14.980  -6.774  1.00 20.00    -0.019 C 
HETATM   12  C9  UNL     1     -37.171  16.226  -7.204  1.00 20.00     0.010 C 
HETATM   13  C10 UNL     1     -35.550  14.446  -7.918  1.00 20.00     0.010 C 
ENDBRANCH   8  11
ENDBRANCH   3   4
TORSDOF 2
ENDMDL
MODEL 5
REMARK VINA RESULT:      -4.6      1.602      5.362
REMARK  2 active torsions:
REMARK  status: ('A' for Active; 'I' for Inactive)
REMARK    1  A    between atoms: C8_8  and  C12_12 
REMARK    2  A    between atoms: C11_11  and  N13_13 
ROOT
HETATM    1  C1  UNL     1     -31.783  18.968   0.352  1.00 20.00     0.013 C 
HETATM    2  C2  UNL     1     -32.832  18.445   0.091  1.00 20.00    -0.087 C 
HETATM    3  C11 UNL     1     -34.113  17.809  -0.221  1.00 20.00     0.364 C 
ENDROOT
BRANCH   3   4
HETATM    4  N13 UNL     1     -34.126  17.325  -1.602  1.00 20.00     0.099 N 
HETATM    5  C6  UNL     1     -33.677  18.386  -2.513  1.00 20.00     0.273 C 
HETATM    6  C3  UNL     1     -33.930  18.149  -4.005  1.00 20.00     0.031 C 
HETATM    7  C4  UNL     1     -33.472  16.794  -4.540  1.00 20.00     0.007 C 
HETATM    8  C8  UNL     1     -34.006  15.559  -3.788  1.00 20.00    -0.010 C 
HETATM    9  C5  UNL     1     -35.392  15.783  -3.154  1.00 20.00     0.035 C 
HETATM   10  C7  UNL     1     -35.428  16.756  -1.956  1.00 20.00     0.274 C 
BRANCH   8  11
HETATM   11  C12 UNL     1     -34.040  14.354  -4.733  1.00 20.00    -0.019 C 
HETATM   12  C9  UNL     1     -35.020  13.304  -4.221  1.00 20.00     0.010 C 
HETATM   13  C10 UNL     1     -34.410  14.798  -6.145  1.00 20.00     0.010 C 
ENDBRANCH   8  11
ENDBRANCH   3   4
TORSDOF 2
ENDMDL
MODEL 6
REMARK VINA RESULT:      -4.5      1.615      5.526
REMARK  2 active torsions:
REMARK  status: ('A' for Active; 'I' for Inactive)
REMARK    1  A    between atoms: C8_8  and  C12_12 
REMARK    2  A    between atoms: C11_11  and  N13_13 
ROOT
HETATM    1  C1  UNL     1     -34.810  17.019  -0.121  1.00 20.00     0.013 C 
HETATM    2  C2  UNL     1     -34.294  17.272  -1.175  1.00 20.00    -0.087 C 
HETATM    3  C11 UNL     1     -33.661  17.586  -2.458  1.00 20.00     0.364 C 
ENDROOT
BRANCH   3   4
HETATM    4  N13 UNL     1     -34.114  16.660  -3.497  1.00 20.00     0.099 N 
HETATM    5  C6  UNL     1     -34.091  15.282  -2.990  1.00 20.00     0.273 C 
HETATM    6  C3  UNL     1     -34.232  14.173  -4.037  1.00 20.00     0.031 C 
HETATM    7  C4  UNL     1     -35.397  14.337  -5.011  1.00 20.00     0.007 C 
HETATM    8  C8  UNL     1     -35.461  15.681  -5.763  1.00 20.00    -0.010 C 
HETATM    9  C5  UNL     1     -34.078  16.315  -6.000  1.00 20.00     0.035 C 
HETATM   10  C7  UNL     1     -33.361  16.845  -4.739  1.00 20.00     0.274 C 
BRANCH   8  11
HETATM   11  C12 UNL     1     -36.198  15.494  -7.093  1.00 20.00    -0.019 C 
HETATM   12  C9  UNL     1     -35.543  14.388  -7.912  1.00 20.00     0.010 C 
HETATM   13  C10 UNL     1     -37.671  15.185  -6.844  1.00 20.00     0.010 C 
ENDBRANCH   8  11
ENDBRANCH   3   4
TORSDOF 2
ENDMDL
MODEL 7
REMARK VINA RESULT:      -4.5      1.775      5.372
REMARK  2 active torsions:
REMARK  status: ('A' for Active; 'I' for Inactive)
REMARK    1  A    between atoms: C8_8  and  C12_12 
REMARK    2  A    between atoms: C11_11  and  N13_13 
ROOT
HETATM    1  C1  UNL     1     -35.372  18.126   1.848  1.00 20.00     0.013 C 
HETATM    2  C2  UNL     1     -34.410  18.173   1.132  1.00 20.00    -0.087 C 
HETATM    3  C11 UNL     1     -33.232  18.233   0.263  1.00 20.00     0.364 C 
ENDROOT
BRANCH   3   4
HETATM    4  N13 UNL     1     -33.546  17.712  -1.068  1.00 20.00     0.099 N 
HETATM    5  C6  UNL     1     -33.780  18.822  -2.002  1.00 20.00     0.273 C 
HETATM    6  C3  UNL     1     -34.422  18.453  -3.342  1.00 20.00     0.031 C 
HETATM    7  C4  UNL     1     -33.763  17.293  -4.087  1.00 20.00     0.007 C 
HETATM    8  C8  UNL     1     -33.603  15.986  -3.287  1.00 20.00    -0.010 C 
HETATM    9  C5  UNL     1     -34.698  15.782  -2.224  1.00 20.00     0.035 C 
HETATM   10  C7  UNL     1     -34.642  16.743  -1.016  1.00 20.00     0.274 C 
BRANCH   8  11
HETATM   11  C12 UNL     1     -33.565  14.794  -4.249  1.00 20.00    -0.019 C 
HETATM   12  C9  UNL     1     -34.316  13.608  -3.655  1.00 20.00     0.010 C 
HETATM   13  C10 UNL     1     -34.151  15.185  -5.601  1.00 20.00     0.010 C 
ENDBRANCH   8  11
ENDBRANCH   3   4
TORSDOF 2
ENDMDL
MODEL 8
REMARK VINA RESULT:      -4.4      1.407      1.660
REMARK  2 active torsions:
REMARK  status: ('A' for Active; 'I' for Inactive)
REMARK    1  A    between atoms: C8_8  and  C12_12 
REMARK    2  A    between atoms: C11_11  and  N13_13 
ROOT
HETATM    1  C1  UNL     1     -35.454  14.405  -7.381  1.00 20.00     0.013 C 
HETATM    2  C2  UNL     1     -36.008  14.999  -6.496  1.00 20.00    -0.087 C 
HETATM    3  C11 UNL     1     -36.689  15.721  -5.419  1.00 20.00     0.364 C 
ENDROOT
BRANCH   3   4
HETATM    4  N13 UNL     1     -35.718  16.271  -4.472  1.00 20.00     0.099 N 
HETATM    5  C6  UNL     1     -34.892  17.291  -5.130  1.00 20.00     0.273 C 
HETATM    6  C3  UNL     1     -33.635  17.734  -4.377  1.00 20.00     0.031 C 
HETATM    7  C4  UNL     1     -33.850  18.121  -2.915  1.00 20.00     0.007 C 
HETATM    8  C8  UNL     1     -34.557  17.069  -2.038  1.00 20.00    -0.010 C 
HETATM    9  C5  UNL     1     -34.292  15.620  -2.489  1.00 20.00     0.035 C 
HETATM   10  C7  UNL     1     -34.942  15.209  -3.828  1.00 20.00     0.274 C 
BRANCH   8  11
HETATM   11  C12 UNL     1     -34.145  17.255  -0.574  1.00 20.00    -0.019 C 
HETATM   12  C9  UNL     1     -33.080  18.340  -0.456  1.00 20.00     0.010 C 
HETATM   13  C10 UNL     1     -35.362  17.595   0.279  1.00 20.00     0.010 C 
ENDBRANCH   8  11
ENDBRANCH   3   4
TORSDOF 2
ENDMDL
MODEL 9
REMARK VINA RESULT:      -4.4      1.692      2.499
REMARK  2 active torsions:
REMARK  status: ('A' for Active; 'I' for Inactive)
REMARK    1  A    between atoms: C8_8  and  C12_12 
REMARK    2  A    between atoms: C11_11  and  N13_13 
ROOT
HETATM    1  C1  UNL     1     -39.109  14.936  -3.797  1.00 20.00     0.013 C 
HETATM    2  C2  UNL     1     -38.141  15.036  -4.500  1.00 20.00    -0.087 C 
HETATM    3  C11 UNL     1     -36.964  15.156  -5.363  1.00 20.00     0.364 C 
ENDROOT
BRANCH   3   4
HETATM    4  N13 UNL     1     -35.850  15.765  -4.634  1.00 20.00     0.099 N 
HETATM    5  C6  UNL     1     -35.010  16.543  -5.555  1.00 20.00     0.273 C 
HETATM    6  C3  UNL     1     -33.644  16.980  -5.019  1.00 20.00     0.031 C 
HETATM    7  C4  UNL     1     -33.663  17.660  -3.652  1.00 20.00     0.007 C 
HETATM    8  C8  UNL     1     -34.364  16.880  -2.522  1.00 20.00    -0.010 C 
HETATM    9  C5  UNL     1     -34.283  15.352  -2.694  1.00 20.00     0.035 C 
HETATM   10  C7  UNL     1     -35.109  14.767  -3.861  1.00 20.00     0.274 C 
BRANCH   8  11
HETATM   11  C12 UNL     1     -33.781  17.296  -1.168  1.00 20.00    -0.019 C 
HETATM   12  C9  UNL     1     -33.270  18.731  -1.229  1.00 20.00     0.010 C 
HETATM   13  C10 UNL     1     -34.828  17.140  -0.070  1.00 20.00     0.010 C 
ENDBRANCH   8  11
ENDBRANCH   3   4
TORSDOF 2
ENDMDL
