MODEL 1
REMARK VINA RESULT:      -4.8      0.000      0.000
REMARK  3 active torsions:
REMARK  status: ('A' for Active; 'I' for Inactive)
REMARK    1  A    between atoms: C1_1  and  C9_9 
REMARK    2  A    between atoms: C6_6  and  C9_9 
REMARK    3  A    between atoms: C7_7  and  C10_10 
ROOT
HETATM    1  C2  UNL     1     -33.489  17.601  -4.898  1.00 20.00     0.001 C 
HETATM    2  C3  UNL     1     -33.533  16.078  -4.972  1.00 20.00     0.005 C 
HETATM    3  C4  UNL     1     -34.333  18.134  -3.744  1.00 20.00     0.005 C 
HETATM    4  C5  UNL     1     -33.973  15.972  -2.486  1.00 20.00     0.009 C 
HETATM    5  C6  UNL     1     -33.118  15.435  -3.643  1.00 20.00    -0.008 C 
HETATM    6  C7  UNL     1     -33.924  17.505  -2.406  1.00 20.00    -0.014 C 
ENDROOT
BRANCH   5   7
HETATM    7  C9  UNL     1     -33.218  13.913  -3.726  1.00 20.00     0.074 C 
BRANCH   7   8
HETATM    8  C1  UNL     1     -34.294  13.461  -4.675  1.00 20.00     0.231 C 
HETATM    9  O11 UNL     1     -35.148  12.617  -4.424  1.00 20.00    -0.307 OA
ENDBRANCH   7   8
ENDBRANCH   5   7
BRANCH   6  10
HETATM   10  C10 UNL     1     -34.815  18.015  -1.276  1.00 20.00     0.000 C 
HETATM   11  C8  UNL     1     -34.733  17.138  -0.069  1.00 20.00     0.005 C 
ENDBRANCH   6  10
TORSDOF 3
ENDMDL
MODEL 2
REMARK VINA RESULT:      -4.6      1.065      1.288
REMARK  3 active torsions:
REMARK  status: ('A' for Active; 'I' for Inactive)
REMARK    1  A    between atoms: C1_1  and  C9_9 
REMARK    2  A    between atoms: C6_6  and  C9_9 
REMARK    3  A    between atoms: C7_7  and  C10_10 
ROOT
HETATM    1  C2  UNL     1     -33.687  18.125  -3.749  1.00 20.00     0.001 C 
HETATM    2  C3  UNL     1     -34.481  16.856  -4.045  1.00 20.00     0.005 C 
HETATM    3  C4  UNL     1     -33.940  18.630  -2.331  1.00 20.00     0.005 C 
HETATM    4  C5  UNL     1     -34.458  16.271  -1.587  1.00 20.00     0.009 C 
HETATM    5  C6  UNL     1     -34.199  15.759  -3.011  1.00 20.00    -0.008 C 
HETATM    6  C7  UNL     1     -33.655  17.544  -1.285  1.00 20.00    -0.014 C 
ENDROOT
BRANCH   5   7
HETATM    7  C9  UNL     1     -35.041  14.517  -3.299  1.00 20.00     0.074 C 
BRANCH   7   8
HETATM    8  C1  UNL     1     -34.393  13.608  -4.308  1.00 20.00     0.231 C 
HETATM    9  O11 UNL     1     -34.864  12.549  -4.710  1.00 20.00    -0.307 OA
ENDBRANCH   7   8
ENDBRANCH   5   7
BRANCH   6  10
HETATM   10  C10 UNL     1     -33.963  18.057   0.120  1.00 20.00     0.000 C 
HETATM   11  C8  UNL     1     -35.144  17.360   0.715  1.00 20.00     0.005 C 
ENDBRANCH   6  10
TORSDOF 3
ENDMDL
MODEL 3
REMARK VINA RESULT:      -4.6      1.677      1.839
REMARK  3 active torsions:
REMARK  status: ('A' for Active; 'I' for Inactive)
REMARK    1  A    between atoms: C1_1  and  C9_9 
REMARK    2  A    between atoms: C6_6  and  C9_9 
REMARK    3  A    between atoms: C7_7  and  C10_10 
ROOT
HETATM    1  C2  UNL     1     -33.358  16.651  -5.145  1.00 20.00     0.001 C 
HETATM    2  C3  UNL     1     -34.494  15.641  -5.273  1.00 20.00     0.005 C 
HETATM    3  C4  UNL     1     -33.489  17.488  -3.875  1.00 20.00     0.005 C 
HETATM    4  C5  UNL     1     -34.733  15.593  -2.758  1.00 20.00     0.009 C 
HETATM    5  C6  UNL     1     -34.598  14.746  -4.031  1.00 20.00    -0.008 C 
HETATM    6  C7  UNL     1     -33.586  16.605  -2.624  1.00 20.00    -0.014 C 
ENDROOT
BRANCH   5   7
HETATM    7  C9  UNL     1     -35.772  13.777  -4.162  1.00 20.00     0.074 C 
BRANCH   7   8
HETATM    8  C1  UNL     1     -37.089  14.490  -4.302  1.00 20.00     0.231 C 
HETATM    9  O11 UNL     1     -38.106  14.226  -3.668  1.00 20.00    -0.307 OA
ENDBRANCH   7   8
ENDBRANCH   5   7
BRANCH   6  10
HETATM   10  C10 UNL     1     -33.767  17.463  -1.373  1.00 20.00     0.000 C 
HETATM   11  C8  UNL     1     -34.713  16.832  -0.404  1.00 20.00     0.005 C 
ENDBRANCH   6  10
TORSDOF 3
ENDMDL
MODEL 4
REMARK VINA RESULT:      -4.5     10.827     12.332
REMARK  3 active torsions:
REMARK  status: ('A' for Active; 'I' for Inactive)
REMARK    1  A    between atoms: C1_1  and  C9_9 
REMARK    2  A    between atoms: C6_6  and  C9_9 
REMARK    3  A    between atoms: C7_7  and  C10_10 
ROOT
HETATM    1  C2  UNL     1     -34.562   5.098   2.615  1.00 20.00     0.001 C 
HETATM    2  C3  UNL     1     -33.247   5.789   2.269  1.00 20.00     0.005 C 
HETATM    3  C4  UNL     1     -34.663   4.794   4.107  1.00 20.00     0.005 C 
HETATM    4  C5  UNL     1     -33.136   6.745   4.605  1.00 20.00     0.009 C 
HETATM    5  C6  UNL     1     -33.037   7.057   3.105  1.00 20.00    -0.008 C 
HETATM    6  C7  UNL     1     -34.462   6.056   4.956  1.00 20.00    -0.014 C 
ENDROOT
BRANCH   5   7
HETATM    7  C9  UNL     1     -31.692   7.704   2.776  1.00 20.00     0.074 C 
BRANCH   7   8
HETATM    8  C1  UNL     1     -31.765   8.589   1.562  1.00 20.00     0.231 C 
HETATM    9  O11 UNL     1     -32.437   9.611   1.473  1.00 20.00    -0.307 OA
ENDBRANCH   7   8
ENDBRANCH   5   7
BRANCH   6  10
HETATM   10  C10 UNL     1     -34.517   5.717   6.445  1.00 20.00     0.000 C 
HETATM   11  C8  UNL     1     -35.083   4.355   6.681  1.00 20.00     0.005 C 
ENDBRANCH   6  10
TORSDOF 3
ENDMDL
MODEL 5
REMARK VINA RESULT:      -4.5      2.367      3.212
REMARK  3 active torsions:
REMARK  status: ('A' for Active; 'I' for Inactive)
REMARK    1  A    between atoms: C1_1  and  C9_9 
REMARK    2  A    between atoms: C6_6  and  C9_9 
REMARK    3  A    between atoms: C7_7  and  C10_10 
ROOT
HETATM    1  C2  UNL     1     -33.825  13.635  -4.233  1.00 20.00     0.001 C 
HETATM    2  C3  UNL     1     -34.961  14.044  -5.165  1.00 20.00     0.005 C 
HETATM    3  C4  UNL     1     -33.314  14.818  -3.415  1.00 20.00     0.005 C 
HETATM    4  C5  UNL     1     -35.586  15.911  -3.581  1.00 20.00     0.009 C 
HETATM    5  C6  UNL     1     -36.105  14.719  -4.399  1.00 20.00    -0.008 C 
HETATM    6  C7  UNL     1     -34.447  15.499  -2.638  1.00 20.00    -0.014 C 
ENDROOT
BRANCH   5   7
HETATM    7  C9  UNL     1     -37.208  15.163  -5.359  1.00 20.00     0.074 C 
BRANCH   7   8
HETATM    8  C1  UNL     1     -38.582  14.985  -4.773  1.00 20.00     0.231 C 
HETATM    9  O11 UNL     1     -38.871  14.197  -3.879  1.00 20.00    -0.307 OA
ENDBRANCH   7   8
ENDBRANCH   5   7
BRANCH   6  10
HETATM   10  C10 UNL     1     -33.921  16.709  -1.868  1.00 20.00     0.000 C 
HETATM   11  C8  UNL     1     -34.608  16.867  -0.551  1.00 20.00     0.005 C 
ENDBRANCH   6  10
TORSDOF 3
ENDMDL
MODEL 6
REMARK VINA RESULT:      -4.4      2.451      4.751
REMARK  3 active torsions:
REMARK  status: ('A' for Active; 'I' for Inactive)
REMARK    1  A    between atoms: C1_1  and  C9_9 
REMARK    2  A    between atoms: C6_6  and  C9_9 
REMARK    3  A    between atoms: C7_7  and  C10_10 
ROOT
HETATM    1  C2  UNL     1     -34.414  13.436  -4.134  1.00 20.00     0.001 C 
HETATM    2  C3  UNL     1     -34.470  14.535  -3.078  1.00 20.00     0.005 C 
HETATM    3  C4  UNL     1     -34.894  13.936  -5.493  1.00 20.00     0.005 C 
HETATM    4  C5  UNL     1     -34.177  16.280  -4.881  1.00 20.00     0.009 C 
HETATM    5  C6  UNL     1     -33.688  15.779  -3.515  1.00 20.00    -0.008 C 
HETATM    6  C7  UNL     1     -34.114  15.177  -5.947  1.00 20.00    -0.014 C 
ENDROOT
BRANCH   5   7
HETATM    7  C9  UNL     1     -33.799  16.883  -2.464  1.00 20.00     0.074 C 
BRANCH   7   8
HETATM    8  C1  UNL     1     -34.727  16.511  -1.340  1.00 20.00     0.231 C 
HETATM    9  O11 UNL     1     -34.577  16.831  -0.165  1.00 20.00    -0.307 OA
ENDBRANCH   7   8
ENDBRANCH   5   7
BRANCH   6  10
HETATM   10  C10 UNL     1     -34.646  15.688  -7.284  1.00 20.00     0.000 C 
HETATM   11  C8  UNL     1     -35.581  14.709  -7.917  1.00 20.00     0.005 C 
ENDBRANCH   6  10
TORSDOF 3
ENDMDL
MODEL 7
REMARK VINA RESULT:      -4.3     12.081     13.603
REMARK  3 active torsions:
REMARK  status: ('A' for Active; 'I' for Inactive)
REMARK    1  A    between atoms: C1_1  and  C9_9 
REMARK    2  A    between atoms: C6_6  and  C9_9 
REMARK    3  A    between atoms: C7_7  and  C10_10 
ROOT
HETATM    1  C2  UNL     1     -40.774   5.823  -0.332  1.00 20.00     0.001 C 
HETATM    2  C3  UNL     1     -40.784   4.576  -1.210  1.00 20.00     0.005 C 
HETATM    3  C4  UNL     1     -41.188   7.067  -1.114  1.00 20.00     0.005 C 
HETATM    4  C5  UNL     1     -42.556   5.625  -2.676  1.00 20.00     0.009 C 
HETATM    5  C6  UNL     1     -42.145   4.373  -1.887  1.00 20.00    -0.008 C 
HETATM    6  C7  UNL     1     -42.552   6.880  -1.791  1.00 20.00    -0.014 C 
ENDROOT
BRANCH   5   7
HETATM    7  C9  UNL     1     -42.116   3.147  -2.798  1.00 20.00     0.074 C 
BRANCH   7   8
HETATM    8  C1  UNL     1     -43.278   3.117  -3.754  1.00 20.00     0.231 C 
HETATM    9  O11 UNL     1     -43.234   2.696  -4.906  1.00 20.00    -0.307 OA
ENDBRANCH   7   8
ENDBRANCH   5   7
BRANCH   6  10
HETATM   10  C10 UNL     1     -42.921   8.116  -2.608  1.00 20.00     0.000 C 
HETATM   11  C8  UNL     1     -42.423   8.019  -4.013  1.00 20.00     0.005 C 
ENDBRANCH   6  10
TORSDOF 3
ENDMDL
MODEL 8
REMARK VINA RESULT:      -4.3      2.888      4.589
REMARK  3 active torsions:
REMARK  status: ('A' for Active; 'I' for Inactive)
REMARK    1  A    between atoms: C1_1  and  C9_9 
REMARK    2  A    between atoms: C6_6  and  C9_9 
REMARK    3  A    between atoms: C7_7  and  C10_10 
ROOT
HETATM    1  C2  UNL     1     -34.332  18.051  -4.178  1.00 20.00     0.001 C 
HETATM    2  C3  UNL     1     -33.669  18.416  -2.853  1.00 20.00     0.005 C 
HETATM    3  C4  UNL     1     -34.273  16.549  -4.443  1.00 20.00     0.005 C 
HETATM    4  C5  UNL     1     -34.204  16.116  -1.954  1.00 20.00     0.009 C 
HETATM    5  C6  UNL     1     -34.270  17.626  -1.684  1.00 20.00    -0.008 C 
HETATM    6  C7  UNL     1     -34.877  15.746  -3.284  1.00 20.00    -0.014 C 
ENDROOT
BRANCH   5   7
HETATM    7  C9  UNL     1     -33.558  17.972  -0.377  1.00 20.00     0.074 C 
BRANCH   7   8
HETATM    8  C1  UNL     1     -32.662  19.173  -0.515  1.00 20.00     0.231 C 
HETATM    9  O11 UNL     1     -31.518  19.253  -0.080  1.00 20.00    -0.307 OA
ENDBRANCH   7   8
ENDBRANCH   5   7
BRANCH   6  10
HETATM   10  C10 UNL     1     -34.760  14.247  -3.549  1.00 20.00     0.000 C 
HETATM   11  C8  UNL     1     -33.338  13.828  -3.735  1.00 20.00     0.005 C 
ENDBRANCH   6  10
TORSDOF 3
ENDMDL
MODEL 9
REMARK VINA RESULT:      -4.1      2.185      3.618
REMARK  3 active torsions:
REMARK  status: ('A' for Active; 'I' for Inactive)
REMARK    1  A    between atoms: C1_1  and  C9_9 
REMARK    2  A    between atoms: C6_6  and  C9_9 
REMARK    3  A    between atoms: C7_7  and  C10_10 
ROOT
HETATM    1  C2  UNL     1     -33.040  19.263  -0.543  1.00 20.00     0.001 C 
HETATM    2  C3  UNL     1     -33.392  18.444  -1.781  1.00 20.00     0.005 C 
HETATM    3  C4  UNL     1     -34.147  19.202   0.506  1.00 20.00     0.005 C 
HETATM    4  C5  UNL     1     -34.846  16.936  -0.368  1.00 20.00     0.009 C 
HETATM    5  C6  UNL     1     -33.729  16.992  -1.420  1.00 20.00    -0.008 C 
HETATM    6  C7  UNL     1     -34.491  17.754   0.881  1.00 20.00    -0.014 C 
ENDROOT
BRANCH   5   7
HETATM    7  C9  UNL     1     -34.125  16.205  -2.669  1.00 20.00     0.074 C 
BRANCH   7   8
HETATM    8  C1  UNL     1     -33.626  16.849  -3.933  1.00 20.00     0.231 C 
HETATM    9  O11 UNL     1     -32.836  16.340  -4.722  1.00 20.00    -0.307 OA
ENDBRANCH   7   8
ENDBRANCH   5   7
BRANCH   6  10
HETATM   10  C10 UNL     1     -35.634  17.718   1.893  1.00 20.00     0.000 C 
HETATM   11  C8  UNL     1     -35.149  17.966   3.284  1.00 20.00     0.005 C 
ENDBRANCH   6  10
TORSDOF 3
ENDMDL
