MODEL 1
REMARK VINA RESULT:      -5.0      0.000      0.000
REMARK  4 active torsions:
REMARK  status: ('A' for Active; 'I' for Inactive)
REMARK    1  A    between atoms: C1_1  and  C6_6 
REMARK    2  A    between atoms: C1_1  and  C11_11 
REMARK    3  A    between atoms: C7_7  and  C12_12 
REMARK    4  A    between atoms: C11_11  and  C13_13 
ROOT
HETATM    1  C2  UNL     1     -33.910  13.879  -3.461  1.00 20.00     0.001 C 
HETATM    2  C3  UNL     1     -35.265  13.845  -4.159  1.00 20.00     0.012 C 
HETATM    3  C4  UNL     1     -33.278  15.269  -3.508  1.00 20.00     0.005 C 
HETATM    4  C5  UNL     1     -35.604  16.296  -3.653  1.00 20.00     0.016 C 
HETATM    5  C6  UNL     1     -36.222  14.892  -3.578  1.00 20.00     0.056 C 
HETATM    6  C7  UNL     1     -34.211  16.374  -3.028  1.00 20.00    -0.014 C 
ENDROOT
BRANCH   5   7
HETATM    7  C1  UNL     1     -37.565  14.856  -4.306  1.00 20.00     0.131 C 
HETATM    8  O14 UNL     1     -38.488  14.154  -3.896  1.00 20.00    -0.298 OA
BRANCH   7   9
HETATM    9  C11 UNL     1     -37.691  15.763  -5.520  1.00 20.00     0.082 C 
BRANCH   9  10
HETATM   10  C13 UNL     1     -37.217  15.117  -6.830  1.00 20.00    -0.016 C 
HETATM   11  C9  UNL     1     -35.967  15.811  -7.375  1.00 20.00     0.010 C 
HETATM   12  C10 UNL     1     -38.333  15.171  -7.876  1.00 20.00     0.010 C 
ENDBRANCH   9  10
ENDBRANCH   7   9
ENDBRANCH   5   7
BRANCH   6  13
HETATM   13  C12 UNL     1     -34.367  16.345  -1.516  1.00 20.00     0.000 C 
HETATM   14  C8  UNL     1     -33.734  17.536  -0.874  1.00 20.00     0.005 C 
ENDBRANCH   6  13
TORSDOF 4
ENDMDL
MODEL 2
REMARK VINA RESULT:      -4.8      2.133      5.272
REMARK  4 active torsions:
REMARK  status: ('A' for Active; 'I' for Inactive)
REMARK    1  A    between atoms: C1_1  and  C6_6 
REMARK    2  A    between atoms: C1_1  and  C11_11 
REMARK    3  A    between atoms: C7_7  and  C12_12 
REMARK    4  A    between atoms: C11_11  and  C13_13 
ROOT
HETATM    1  C2  UNL     1     -33.655  13.579  -4.061  1.00 20.00     0.001 C 
HETATM    2  C3  UNL     1     -34.053  14.665  -3.067  1.00 20.00     0.012 C 
HETATM    3  C4  UNL     1     -34.773  13.281  -5.058  1.00 20.00     0.005 C 
HETATM    4  C5  UNL     1     -35.640  15.657  -4.763  1.00 20.00     0.016 C 
HETATM    5  C6  UNL     1     -34.493  15.947  -3.782  1.00 20.00     0.056 C 
HETATM    6  C7  UNL     1     -35.323  14.527  -5.742  1.00 20.00    -0.014 C 
ENDROOT
BRANCH   5   7
HETATM    7  C1  UNL     1     -34.909  17.013  -2.769  1.00 20.00     0.131 C 
HETATM    8  O14 UNL     1     -35.369  18.091  -3.139  1.00 20.00    -0.298 OA
BRANCH   7   9
HETATM    9  C11 UNL     1     -34.759  16.636  -1.304  1.00 20.00     0.082 C 
BRANCH   9  10
HETATM   10  C13 UNL     1     -34.583  17.842  -0.368  1.00 20.00    -0.016 C 
HETATM   11  C9  UNL     1     -33.116  18.268  -0.277  1.00 20.00     0.010 C 
HETATM   12  C10 UNL     1     -35.109  17.503   1.029  1.00 20.00     0.010 C 
ENDBRANCH   9  10
ENDBRANCH   7   9
ENDBRANCH   5   7
BRANCH   6  13
HETATM   13  C12 UNL     1     -34.349  15.059  -6.781  1.00 20.00     0.000 C 
HETATM   14  C8  UNL     1     -34.895  16.258  -7.485  1.00 20.00     0.005 C 
ENDBRANCH   6  13
TORSDOF 4
ENDMDL
MODEL 3
REMARK VINA RESULT:      -4.8      1.980      5.526
REMARK  4 active torsions:
REMARK  status: ('A' for Active; 'I' for Inactive)
REMARK    1  A    between atoms: C1_1  and  C6_6 
REMARK    2  A    between atoms: C1_1  and  C11_11 
REMARK    3  A    between atoms: C7_7  and  C12_12 
REMARK    4  A    between atoms: C11_11  and  C13_13 
ROOT
HETATM    1  C2  UNL     1     -33.142  14.991  -3.886  1.00 20.00     0.001 C 
HETATM    2  C3  UNL     1     -33.616  15.824  -2.700  1.00 20.00     0.012 C 
HETATM    3  C4  UNL     1     -34.103  13.846  -4.199  1.00 20.00     0.005 C 
HETATM    4  C5  UNL     1     -36.013  15.205  -3.204  1.00 20.00     0.016 C 
HETATM    5  C6  UNL     1     -35.036  16.357  -2.920  1.00 20.00     0.056 C 
HETATM    6  C7  UNL     1     -35.553  14.294  -4.341  1.00 20.00    -0.014 C 
ENDROOT
BRANCH   5   7
HETATM    7  C1  UNL     1     -35.500  17.169  -1.711  1.00 20.00     0.131 C 
HETATM    8  O14 UNL     1     -36.483  17.905  -1.783  1.00 20.00    -0.298 OA
BRANCH   7   9
HETATM    9  C11 UNL     1     -34.705  16.973  -0.430  1.00 20.00     0.082 C 
BRANCH   9  10
HETATM   10  C13 UNL     1     -34.212  18.284   0.202  1.00 20.00    -0.016 C 
HETATM   11  C9  UNL     1     -32.742  18.546  -0.132  1.00 20.00     0.010 C 
HETATM   12  C10 UNL     1     -34.395  18.235   1.720  1.00 20.00     0.010 C 
ENDBRANCH   9  10
ENDBRANCH   7   9
ENDBRANCH   5   7
BRANCH   6  13
HETATM   13  C12 UNL     1     -35.776  15.025  -5.655  1.00 20.00     0.000 C 
HETATM   14  C8  UNL     1     -35.236  14.252  -6.814  1.00 20.00     0.005 C 
ENDBRANCH   6  13
TORSDOF 4
ENDMDL
MODEL 4
REMARK VINA RESULT:      -4.8      2.460      3.909
REMARK  4 active torsions:
REMARK  status: ('A' for Active; 'I' for Inactive)
REMARK    1  A    between atoms: C1_1  and  C6_6 
REMARK    2  A    between atoms: C1_1  and  C11_11 
REMARK    3  A    between atoms: C7_7  and  C12_12 
REMARK    4  A    between atoms: C11_11  and  C13_13 
ROOT
HETATM    1  C2  UNL     1     -35.593  18.765  -2.495  1.00 20.00     0.001 C 
HETATM    2  C3  UNL     1     -35.055  17.787  -3.534  1.00 20.00     0.012 C 
HETATM    3  C4  UNL     1     -36.014  18.056  -1.209  1.00 20.00     0.005 C 
HETATM    4  C5  UNL     1     -34.324  16.214  -1.697  1.00 20.00     0.016 C 
HETATM    5  C6  UNL     1     -33.896  16.955  -2.974  1.00 20.00     0.056 C 
HETATM    6  C7  UNL     1     -34.937  17.137  -0.644  1.00 20.00    -0.014 C 
ENDROOT
BRANCH   5   7
HETATM    7  C1  UNL     1     -33.386  15.967  -4.022  1.00 20.00     0.131 C 
HETATM    8  O14 UNL     1     -32.756  16.357  -5.004  1.00 20.00    -0.298 OA
BRANCH   7   9
HETATM    9  C11 UNL     1     -33.668  14.498  -3.750  1.00 20.00     0.082 C 
BRANCH   9  10
HETATM   10  C13 UNL     1     -34.770  13.902  -4.638  1.00 20.00    -0.016 C 
HETATM   11  C9  UNL     1     -34.663  14.410  -6.078  1.00 20.00     0.010 C 
HETATM   12  C10 UNL     1     -36.148  14.250  -4.070  1.00 20.00     0.010 C 
ENDBRANCH   9  10
ENDBRANCH   7   9
ENDBRANCH   5   7
BRANCH   6  13
HETATM   13  C12 UNL     1     -33.815  17.935  -0.001  1.00 20.00     0.000 C 
HETATM   14  C8  UNL     1     -34.175  18.377   1.380  1.00 20.00     0.005 C 
ENDBRANCH   6  13
TORSDOF 4
ENDMDL
MODEL 5
REMARK VINA RESULT:      -4.7      1.994      3.025
REMARK  4 active torsions:
REMARK  status: ('A' for Active; 'I' for Inactive)
REMARK    1  A    between atoms: C1_1  and  C6_6 
REMARK    2  A    between atoms: C1_1  and  C11_11 
REMARK    3  A    between atoms: C7_7  and  C12_12 
REMARK    4  A    between atoms: C11_11  and  C13_13 
ROOT
HETATM    1  C2  UNL     1     -33.580  17.905  -3.310  1.00 20.00     0.001 C 
HETATM    2  C3  UNL     1     -33.627  16.567  -4.040  1.00 20.00     0.012 C 
HETATM    3  C4  UNL     1     -34.888  18.202  -2.579  1.00 20.00     0.005 C 
HETATM    4  C5  UNL     1     -35.316  15.701  -2.373  1.00 20.00     0.016 C 
HETATM    5  C6  UNL     1     -33.985  15.421  -3.088  1.00 20.00     0.056 C 
HETATM    6  C7  UNL     1     -35.351  17.062  -1.680  1.00 20.00    -0.014 C 
ENDROOT
BRANCH   5   7
HETATM    7  C1  UNL     1     -34.049  14.094  -3.843  1.00 20.00     0.131 C 
HETATM    8  O14 UNL     1     -33.118  13.292  -3.793  1.00 20.00    -0.298 OA
BRANCH   7   9
HETATM    9  C11 UNL     1     -35.335  13.821  -4.608  1.00 20.00     0.082 C 
BRANCH   9  10
HETATM   10  C13 UNL     1     -35.623  14.840  -5.721  1.00 20.00    -0.016 C 
HETATM   11  C9  UNL     1     -37.092  15.270  -5.718  1.00 20.00     0.010 C 
HETATM   12  C10 UNL     1     -35.263  14.244  -7.084  1.00 20.00     0.010 C 
ENDBRANCH   9  10
ENDBRANCH   7   9
ENDBRANCH   5   7
BRANCH   6  13
HETATM   13  C12 UNL     1     -34.505  16.976  -0.420  1.00 20.00     0.000 C 
HETATM   14  C8  UNL     1     -35.209  17.565   0.758  1.00 20.00     0.005 C 
ENDBRANCH   6  13
TORSDOF 4
ENDMDL
MODEL 6
REMARK VINA RESULT:      -4.7      2.882      5.870
REMARK  4 active torsions:
REMARK  status: ('A' for Active; 'I' for Inactive)
REMARK    1  A    between atoms: C1_1  and  C6_6 
REMARK    2  A    between atoms: C1_1  and  C11_11 
REMARK    3  A    between atoms: C7_7  and  C12_12 
REMARK    4  A    between atoms: C11_11  and  C13_13 
ROOT
HETATM    1  C2  UNL     1     -33.768  17.149  -4.559  1.00 20.00     0.001 C 
HETATM    2  C3  UNL     1     -34.163  17.998  -3.355  1.00 20.00     0.012 C 
HETATM    3  C4  UNL     1     -33.142  15.821  -4.140  1.00 20.00     0.005 C 
HETATM    4  C5  UNL     1     -34.461  15.911  -1.963  1.00 20.00     0.016 C 
HETATM    5  C6  UNL     1     -35.100  17.233  -2.413  1.00 20.00     0.056 C 
HETATM    6  C7  UNL     1     -33.981  15.048  -3.130  1.00 20.00    -0.014 C 
ENDROOT
BRANCH   5   7
HETATM    7  C1  UNL     1     -35.465  18.093  -1.204  1.00 20.00     0.131 C 
HETATM    8  O14 UNL     1     -36.272  19.015  -1.304  1.00 20.00    -0.298 OA
BRANCH   7   9
HETATM    9  C11 UNL     1     -34.809  17.707   0.113  1.00 20.00     0.082 C 
BRANCH   9  10
HETATM   10  C13 UNL     1     -33.837  18.765   0.655  1.00 20.00    -0.016 C 
HETATM   11  C9  UNL     1     -32.470  18.669  -0.025  1.00 20.00     0.010 C 
HETATM   12  C10 UNL     1     -33.672  18.600   2.168  1.00 20.00     0.010 C 
ENDBRANCH   9  10
ENDBRANCH   7   9
ENDBRANCH   5   7
BRANCH   6  13
HETATM   13  C12 UNL     1     -35.200  14.423  -3.791  1.00 20.00     0.000 C 
HETATM   14  C8  UNL     1     -34.815  13.332  -4.735  1.00 20.00     0.005 C 
ENDBRANCH   6  13
TORSDOF 4
ENDMDL
MODEL 7
REMARK VINA RESULT:      -4.6      1.563      2.390
REMARK  4 active torsions:
REMARK  status: ('A' for Active; 'I' for Inactive)
REMARK    1  A    between atoms: C1_1  and  C6_6 
REMARK    2  A    between atoms: C1_1  and  C11_11 
REMARK    3  A    between atoms: C7_7  and  C12_12 
REMARK    4  A    between atoms: C11_11  and  C13_13 
ROOT
HETATM    1  C2  UNL     1     -33.585  13.638  -3.918  1.00 20.00     0.001 C 
HETATM    2  C3  UNL     1     -34.533  13.792  -5.103  1.00 20.00     0.012 C 
HETATM    3  C4  UNL     1     -32.944  14.967  -3.524  1.00 20.00     0.005 C 
HETATM    4  C5  UNL     1     -34.967  16.197  -4.462  1.00 20.00     0.016 C 
HETATM    5  C6  UNL     1     -35.608  14.849  -4.828  1.00 20.00     0.056 C 
HETATM    6  C7  UNL     1     -33.954  16.090  -3.323  1.00 20.00    -0.014 C 
ENDROOT
BRANCH   5   7
HETATM    7  C1  UNL     1     -36.532  15.004  -6.035  1.00 20.00     0.131 C 
HETATM    8  O14 UNL     1     -36.170  14.656  -7.158  1.00 20.00    -0.298 OA
BRANCH   7   9
HETATM    9  C11 UNL     1     -37.917  15.563  -5.749  1.00 20.00     0.082 C 
BRANCH   9  10
HETATM   10  C13 UNL     1     -38.544  15.036  -4.450  1.00 20.00    -0.016 C 
HETATM   11  C9  UNL     1     -39.914  14.404  -4.706  1.00 20.00     0.010 C 
HETATM   12  C10 UNL     1     -38.682  16.173  -3.435  1.00 20.00     0.010 C 
ENDBRANCH   9  10
ENDBRANCH   7   9
ENDBRANCH   5   7
BRANCH   6  13
HETATM   13  C12 UNL     1     -34.720  15.915  -2.021  1.00 20.00     0.000 C 
HETATM   14  C8  UNL     1     -34.286  16.904  -0.989  1.00 20.00     0.005 C 
ENDBRANCH   6  13
TORSDOF 4
ENDMDL
MODEL 8
REMARK VINA RESULT:      -4.5      2.345      5.298
REMARK  4 active torsions:
REMARK  status: ('A' for Active; 'I' for Inactive)
REMARK    1  A    between atoms: C1_1  and  C6_6 
REMARK    2  A    between atoms: C1_1  and  C11_11 
REMARK    3  A    between atoms: C7_7  and  C12_12 
REMARK    4  A    between atoms: C11_11  and  C13_13 
ROOT
HETATM    1  C2  UNL     1     -36.762  15.760  -5.627  1.00 20.00     0.001 C 
HETATM    2  C3  UNL     1     -36.048  17.026  -5.164  1.00 20.00     0.012 C 
HETATM    3  C4  UNL     1     -35.855  14.870  -6.474  1.00 20.00     0.005 C 
HETATM    4  C5  UNL     1     -33.827  15.827  -5.267  1.00 20.00     0.016 C 
HETATM    5  C6  UNL     1     -34.757  16.696  -4.407  1.00 20.00     0.056 C 
HETATM    6  C7  UNL     1     -34.511  14.576  -5.817  1.00 20.00    -0.014 C 
ENDROOT
BRANCH   5   7
HETATM    7  C1  UNL     1     -34.046  17.977  -3.972  1.00 20.00     0.131 C 
HETATM    8  O14 UNL     1     -33.342  18.607  -4.758  1.00 20.00    -0.298 OA
BRANCH   7   9
HETATM    9  C11 UNL     1     -34.301  18.430  -2.543  1.00 20.00     0.082 C 
BRANCH   9  10
HETATM   10  C13 UNL     1     -33.655  17.528  -1.481  1.00 20.00    -0.016 C 
HETATM   11  C9  UNL     1     -34.684  16.595  -0.839  1.00 20.00     0.010 C 
HETATM   12  C10 UNL     1     -32.991  18.384  -0.399  1.00 20.00     0.010 C 
ENDBRANCH   9  10
ENDBRANCH   7   9
ENDBRANCH   5   7
BRANCH   6  13
HETATM   13  C12 UNL     1     -34.662  13.578  -4.681  1.00 20.00     0.000 C 
HETATM   14  C8  UNL     1     -33.446  13.543  -3.813  1.00 20.00     0.005 C 
ENDBRANCH   6  13
TORSDOF 4
ENDMDL
MODEL 9
REMARK VINA RESULT:      -4.5      1.548      4.666
REMARK  4 active torsions:
REMARK  status: ('A' for Active; 'I' for Inactive)
REMARK    1  A    between atoms: C1_1  and  C6_6 
REMARK    2  A    between atoms: C1_1  and  C11_11 
REMARK    3  A    between atoms: C7_7  and  C12_12 
REMARK    4  A    between atoms: C11_11  and  C13_13 
ROOT
HETATM    1  C2  UNL     1     -35.387  15.155  -7.889  1.00 20.00     0.001 C 
HETATM    2  C3  UNL     1     -34.883  14.307  -6.727  1.00 20.00     0.012 C 
HETATM    3  C4  UNL     1     -36.909  15.287  -7.881  1.00 20.00     0.005 C 
HETATM    4  C5  UNL     1     -36.901  14.960  -5.355  1.00 20.00     0.016 C 
HETATM    5  C6  UNL     1     -35.368  14.856  -5.380  1.00 20.00     0.056 C 
HETATM    6  C7  UNL     1     -37.469  15.743  -6.538  1.00 20.00    -0.014 C 
ENDROOT
BRANCH   5   7
HETATM    7  C1  UNL     1     -34.871  13.980  -4.231  1.00 20.00     0.131 C 
HETATM    8  O14 UNL     1     -35.067  12.766  -4.231  1.00 20.00    -0.298 OA
BRANCH   7   9
HETATM    9  C11 UNL     1     -34.094  14.693  -3.135  1.00 20.00     0.082 C 
BRANCH   9  10
HETATM   10  C13 UNL     1     -34.605  16.110  -2.834  1.00 20.00    -0.016 C 
HETATM   11  C9  UNL     1     -33.725  17.174  -3.495  1.00 20.00     0.010 C 
HETATM   12  C10 UNL     1     -34.646  16.342  -1.322  1.00 20.00     0.010 C 
ENDBRANCH   9  10
ENDBRANCH   7   9
ENDBRANCH   5   7
BRANCH   6  13
HETATM   13  C12 UNL     1     -37.201  17.221  -6.304  1.00 20.00     0.000 C 
HETATM   14  C8  UNL     1     -37.615  17.645  -4.932  1.00 20.00     0.005 C 
ENDBRANCH   6  13
TORSDOF 4
ENDMDL
