MODEL 1
REMARK VINA RESULT:      -4.6      0.000      0.000
REMARK  3 active torsions:
REMARK  status: ('A' for Active; 'I' for Inactive)
REMARK    1  A    between atoms: C5_5  and  C9_9 
REMARK    2  A    between atoms: C6_6  and  C10_10 
REMARK    3  A    between atoms: C10_10  and  O11_11 
ROOT
HETATM    1  C1  UNL     1     -33.628  18.475  -3.279  1.00 20.00     0.001 C 
HETATM    2  C2  UNL     1     -34.189  18.481  -1.860  1.00 20.00     0.005 C 
HETATM    3  C3  UNL     1     -34.368  17.484  -4.175  1.00 20.00     0.007 C 
HETATM    4  C4  UNL     1     -34.944  16.085  -2.148  1.00 20.00     0.011 C 
HETATM    5  C5  UNL     1     -34.197  17.076  -1.242  1.00 20.00    -0.014 C 
HETATM    6  C6  UNL     1     -34.414  16.064  -3.590  1.00 20.00     0.014 C 
ENDROOT
BRANCH   6   7
HETATM    7  C10 UNL     1     -33.054  15.369  -3.686  1.00 20.00     0.118 C 
HETATM    8  C8  UNL     1     -33.199  13.858  -3.665  1.00 20.00     0.040 C 
BRANCH   7   9
HETATM    9  O11 UNL     1     -32.417  15.770  -4.891  1.00 20.00    -0.396 OA
HETATM   10  H31 UNL     1     -31.908  15.006  -5.207  1.00 20.00     0.210 HD
ENDBRANCH   7   9
ENDBRANCH   6   7
BRANCH   5  11
HETATM   11  C9  UNL     1     -34.824  17.106   0.151  1.00 20.00     0.000 C 
HETATM   12  C7  UNL     1     -34.283  18.230   0.973  1.00 20.00     0.005 C 
ENDBRANCH   5  11
TORSDOF 3
ENDMDL
MODEL 2
REMARK VINA RESULT:      -4.5      1.695      2.306
REMARK  3 active torsions:
REMARK  status: ('A' for Active; 'I' for Inactive)
REMARK    1  A    between atoms: C5_5  and  C9_9 
REMARK    2  A    between atoms: C6_6  and  C10_10 
REMARK    3  A    between atoms: C10_10  and  O11_11 
ROOT
HETATM    1  C1  UNL     1     -35.338  16.759  -5.083  1.00 20.00     0.001 C 
HETATM    2  C2  UNL     1     -34.855  17.470  -3.821  1.00 20.00     0.005 C 
HETATM    3  C3  UNL     1     -36.163  15.517  -4.750  1.00 20.00     0.007 C 
HETATM    4  C4  UNL     1     -34.917  15.278  -2.562  1.00 20.00     0.011 C 
HETATM    5  C5  UNL     1     -34.081  16.525  -2.893  1.00 20.00    -0.014 C 
HETATM    6  C6  UNL     1     -35.433  14.546  -3.811  1.00 20.00     0.014 C 
ENDROOT
BRANCH   6   7
HETATM    7  C10 UNL     1     -34.312  13.794  -4.532  1.00 20.00     0.118 C 
HETATM    8  C8  UNL     1     -33.089  13.636  -3.648  1.00 20.00     0.040 C 
BRANCH   7   9
HETATM    9  O11 UNL     1     -34.792  12.513  -4.917  1.00 20.00    -0.396 OA
HETATM   10  H31 UNL     1     -34.093  12.100  -5.450  1.00 20.00     0.210 HD
ENDBRANCH   7   9
ENDBRANCH   6   7
BRANCH   5  11
HETATM   11  C9  UNL     1     -33.668  17.249  -1.613  1.00 20.00     0.000 C 
HETATM   12  C7  UNL     1     -34.645  17.013  -0.508  1.00 20.00     0.005 C 
ENDBRANCH   5  11
TORSDOF 3
ENDMDL
MODEL 3
REMARK VINA RESULT:      -4.4      3.004      4.333
REMARK  3 active torsions:
REMARK  status: ('A' for Active; 'I' for Inactive)
REMARK    1  A    between atoms: C5_5  and  C9_9 
REMARK    2  A    between atoms: C6_6  and  C10_10 
REMARK    3  A    between atoms: C10_10  and  O11_11 
ROOT
HETATM    1  C1  UNL     1     -34.928  14.990  -7.575  1.00 20.00     0.001 C 
HETATM    2  C2  UNL     1     -34.470  16.426  -7.340  1.00 20.00     0.005 C 
HETATM    3  C3  UNL     1     -35.973  14.556  -6.548  1.00 20.00     0.007 C 
HETATM    4  C4  UNL     1     -35.017  16.200  -4.882  1.00 20.00     0.011 C 
HETATM    5  C5  UNL     1     -33.960  16.638  -5.909  1.00 20.00    -0.014 C 
HETATM    6  C6  UNL     1     -35.512  14.762  -5.098  1.00 20.00     0.014 C 
ENDROOT
BRANCH   6   7
HETATM    7  C10 UNL     1     -34.459  13.731  -4.686  1.00 20.00     0.118 C 
HETATM    8  C8  UNL     1     -33.575  14.253  -3.568  1.00 20.00     0.040 C 
BRANCH   7   9
HETATM    9  O11 UNL     1     -35.119  12.546  -4.259  1.00 20.00    -0.396 OA
HETATM   10  H31 UNL     1     -34.788  12.347  -3.368  1.00 20.00     0.210 HD
ENDBRANCH   7   9
ENDBRANCH   6   7
BRANCH   5  11
HETATM   11  C9  UNL     1     -33.571  18.099  -5.688  1.00 20.00     0.000 C 
HETATM   12  C7  UNL     1     -33.705  18.494  -4.254  1.00 20.00     0.005 C 
ENDBRANCH   5  11
TORSDOF 3
ENDMDL
MODEL 4
REMARK VINA RESULT:      -4.3      2.650      4.356
REMARK  3 active torsions:
REMARK  status: ('A' for Active; 'I' for Inactive)
REMARK    1  A    between atoms: C5_5  and  C9_9 
REMARK    2  A    between atoms: C6_6  and  C10_10 
REMARK    3  A    between atoms: C10_10  and  O11_11 
ROOT
HETATM    1  C1  UNL     1     -35.025  14.380  -6.374  1.00 20.00     0.001 C 
HETATM    2  C2  UNL     1     -36.439  14.887  -6.107  1.00 20.00     0.005 C 
HETATM    3  C3  UNL     1     -34.506  13.521  -5.223  1.00 20.00     0.007 C 
HETATM    4  C4  UNL     1     -36.012  14.766  -3.618  1.00 20.00     0.011 C 
HETATM    5  C5  UNL     1     -36.535  15.636  -4.771  1.00 20.00    -0.014 C 
HETATM    6  C6  UNL     1     -34.595  14.225  -3.861  1.00 20.00     0.014 C 
ENDROOT
BRANCH   6   7
HETATM    7  C10 UNL     1     -33.537  15.321  -3.720  1.00 20.00     0.118 C 
HETATM    8  C8  UNL     1     -33.735  16.126  -2.448  1.00 20.00     0.040 C 
BRANCH   7   9
HETATM    9  O11 UNL     1     -32.250  14.719  -3.708  1.00 20.00    -0.396 OA
HETATM   10  H31 UNL     1     -31.670  15.284  -4.244  1.00 20.00     0.210 HD
ENDBRANCH   7   9
ENDBRANCH   6   7
BRANCH   5  11
HETATM   11  C9  UNL     1     -37.975  16.073  -4.503  1.00 20.00     0.000 C 
HETATM   12  C7  UNL     1     -38.821  14.930  -4.048  1.00 20.00     0.005 C 
ENDBRANCH   5  11
TORSDOF 3
ENDMDL
MODEL 5
REMARK VINA RESULT:      -4.2      2.581      4.043
REMARK  3 active torsions:
REMARK  status: ('A' for Active; 'I' for Inactive)
REMARK    1  A    between atoms: C5_5  and  C9_9 
REMARK    2  A    between atoms: C6_6  and  C10_10 
REMARK    3  A    between atoms: C10_10  and  O11_11 
ROOT
HETATM    1  C1  UNL     1     -34.959  13.315  -4.530  1.00 20.00     0.001 C 
HETATM    2  C2  UNL     1     -34.198  14.075  -3.448  1.00 20.00     0.005 C 
HETATM    3  C3  UNL     1     -34.886  14.029  -5.879  1.00 20.00     0.007 C 
HETATM    4  C4  UNL     1     -34.596  16.242  -4.689  1.00 20.00     0.011 C 
HETATM    5  C5  UNL     1     -34.672  15.530  -3.329  1.00 20.00    -0.014 C 
HETATM    6  C6  UNL     1     -35.339  15.495  -5.807  1.00 20.00     0.014 C 
ENDROOT
BRANCH   6   7
HETATM    7  C10 UNL     1     -36.858  15.611  -5.655  1.00 20.00     0.118 C 
HETATM    8  C8  UNL     1     -37.291  17.056  -5.486  1.00 20.00     0.040 C 
BRANCH   7   9
HETATM    9  O11 UNL     1     -37.478  15.059  -6.809  1.00 20.00    -0.396 OA
HETATM   10  H31 UNL     1     -36.801  15.031  -7.505  1.00 20.00     0.210 HD
ENDBRANCH   7   9
ENDBRANCH   6   7
BRANCH   5  11
HETATM   11  C9  UNL     1     -33.848  16.279  -2.284  1.00 20.00     0.000 C 
HETATM   12  C7  UNL     1     -34.641  16.550  -1.048  1.00 20.00     0.005 C 
ENDBRANCH   5  11
TORSDOF 3
ENDMDL
MODEL 6
REMARK VINA RESULT:      -4.2      2.976      4.452
REMARK  3 active torsions:
REMARK  status: ('A' for Active; 'I' for Inactive)
REMARK    1  A    between atoms: C5_5  and  C9_9 
REMARK    2  A    between atoms: C6_6  and  C10_10 
REMARK    3  A    between atoms: C10_10  and  O11_11 
ROOT
HETATM    1  C1  UNL     1     -35.807  15.515  -6.794  1.00 20.00     0.001 C 
HETATM    2  C2  UNL     1     -37.098  15.205  -6.042  1.00 20.00     0.005 C 
HETATM    3  C3  UNL     1     -34.676  14.572  -6.387  1.00 20.00     0.007 C 
HETATM    4  C4  UNL     1     -35.752  14.261  -4.120  1.00 20.00     0.011 C 
HETATM    5  C5  UNL     1     -36.891  15.212  -4.522  1.00 20.00    -0.014 C 
HETATM    6  C6  UNL     1     -34.440  14.536  -4.870  1.00 20.00     0.014 C 
ENDROOT
BRANCH   6   7
HETATM    7  C10 UNL     1     -33.758  15.813  -4.373  1.00 20.00     0.118 C 
HETATM    8  C8  UNL     1     -33.674  15.845  -2.857  1.00 20.00     0.040 C 
BRANCH   7   9
HETATM    9  O11 UNL     1     -32.450  15.880  -4.924  1.00 20.00    -0.396 OA
HETATM   10  H31 UNL     1     -32.082  16.742  -4.670  1.00 20.00     0.210 HD
ENDBRANCH   7   9
ENDBRANCH   6   7
BRANCH   5  11
HETATM   11  C9  UNL     1     -38.185  14.835  -3.802  1.00 20.00     0.000 C 
HETATM   12  C7  UNL     1     -39.331  14.725  -4.753  1.00 20.00     0.005 C 
ENDBRANCH   5  11
TORSDOF 3
ENDMDL
MODEL 7
REMARK VINA RESULT:      -4.2     11.660     13.207
REMARK  3 active torsions:
REMARK  status: ('A' for Active; 'I' for Inactive)
REMARK    1  A    between atoms: C5_5  and  C9_9 
REMARK    2  A    between atoms: C6_6  and  C10_10 
REMARK    3  A    between atoms: C10_10  and  O11_11 
ROOT
HETATM    1  C1  UNL     1     -34.365   5.042   2.314  1.00 20.00     0.001 C 
HETATM    2  C2  UNL     1     -33.232   6.061   2.235  1.00 20.00     0.005 C 
HETATM    3  C3  UNL     1     -35.442   5.471   3.309  1.00 20.00     0.007 C 
HETATM    4  C4  UNL     1     -33.716   6.785   4.609  1.00 20.00     0.011 C 
HETATM    5  C5  UNL     1     -32.627   6.353   3.614  1.00 20.00    -0.014 C 
HETATM    6  C6  UNL     1     -34.881   5.788   4.702  1.00 20.00     0.014 C 
ENDROOT
BRANCH   6   7
HETATM    7  C10 UNL     1     -34.481   4.516   5.454  1.00 20.00     0.118 C 
HETATM    8  C8  UNL     1     -34.359   4.766   6.946  1.00 20.00     0.040 C 
BRANCH   7   9
HETATM    9  O11 UNL     1     -35.460   3.514   5.216  1.00 20.00    -0.396 OA
HETATM   10  H31 UNL     1     -35.633   3.083   6.069  1.00 20.00     0.210 HD
ENDBRANCH   7   9
ENDBRANCH   6   7
BRANCH   5  11
HETATM   11  C9  UNL     1     -31.542   7.424   3.509  1.00 20.00     0.000 C 
HETATM   12  C7  UNL     1     -31.761   8.315   2.330  1.00 20.00     0.005 C 
ENDBRANCH   5  11
TORSDOF 3
ENDMDL
MODEL 8
REMARK VINA RESULT:      -4.2      2.209      3.619
REMARK  3 active torsions:
REMARK  status: ('A' for Active; 'I' for Inactive)
REMARK    1  A    between atoms: C5_5  and  C9_9 
REMARK    2  A    between atoms: C6_6  and  C10_10 
REMARK    3  A    between atoms: C10_10  and  O11_11 
ROOT
HETATM    1  C1  UNL     1     -35.365  13.933  -4.252  1.00 20.00     0.001 C 
HETATM    2  C2  UNL     1     -34.756  14.622  -3.035  1.00 20.00     0.005 C 
HETATM    3  C3  UNL     1     -34.460  14.047  -5.477  1.00 20.00     0.007 C 
HETATM    4  C4  UNL     1     -33.489  16.194  -4.558  1.00 20.00     0.011 C 
HETATM    5  C5  UNL     1     -34.400  16.086  -3.325  1.00 20.00    -0.014 C 
HETATM    6  C6  UNL     1     -34.066  15.496  -5.799  1.00 20.00     0.014 C 
ENDROOT
BRANCH   6   7
HETATM    7  C10 UNL     1     -35.234  16.281  -6.400  1.00 20.00     0.118 C 
HETATM    8  C8  UNL     1     -34.800  17.660  -6.862  1.00 20.00     0.040 C 
BRANCH   7   9
HETATM    9  O11 UNL     1     -35.758  15.552  -7.502  1.00 20.00    -0.396 OA
HETATM   10  H31 UNL     1     -36.217  14.779  -7.134  1.00 20.00     0.210 HD
ENDBRANCH   7   9
ENDBRANCH   6   7
BRANCH   5  11
HETATM   11  C9  UNL     1     -33.733  16.728  -2.108  1.00 20.00     0.000 C 
HETATM   12  C7  UNL     1     -34.598  16.635  -0.894  1.00 20.00     0.005 C 
ENDBRANCH   5  11
TORSDOF 3
ENDMDL
MODEL 9
REMARK VINA RESULT:      -4.1     12.810     14.210
REMARK  3 active torsions:
REMARK  status: ('A' for Active; 'I' for Inactive)
REMARK    1  A    between atoms: C5_5  and  C9_9 
REMARK    2  A    between atoms: C6_6  and  C10_10 
REMARK    3  A    between atoms: C10_10  and  O11_11 
ROOT
HETATM    1  C1  UNL     1     -41.001   6.255  -0.050  1.00 20.00     0.001 C 
HETATM    2  C2  UNL     1     -41.500   7.410  -0.913  1.00 20.00     0.005 C 
HETATM    3  C3  UNL     1     -40.635   5.035  -0.894  1.00 20.00     0.007 C 
HETATM    4  C4  UNL     1     -42.295   5.762  -2.659  1.00 20.00     0.011 C 
HETATM    5  C5  UNL     1     -42.670   6.988  -1.812  1.00 20.00    -0.014 C 
HETATM    6  C6  UNL     1     -41.773   4.584  -1.822  1.00 20.00     0.014 C 
ENDROOT
BRANCH   6   7
HETATM    7  C10 UNL     1     -42.898   3.897  -1.044  1.00 20.00     0.118 C 
HETATM    8  C8  UNL     1     -43.417   2.675  -1.780  1.00 20.00     0.040 C 
BRANCH   7   9
HETATM    9  O11 UNL     1     -42.406   3.513   0.232  1.00 20.00    -0.396 OA
HETATM   10  H31 UNL     1     -43.178   3.419   0.814  1.00 20.00     0.210 HD
ENDBRANCH   7   9
ENDBRANCH   6   7
BRANCH   5  11
HETATM   11  C9  UNL     1     -43.102   8.147  -2.709  1.00 20.00     0.000 C 
HETATM   12  C7  UNL     1     -42.586   7.988  -4.101  1.00 20.00     0.005 C 
ENDBRANCH   5  11
TORSDOF 3
ENDMDL
