MODEL 1
REMARK VINA RESULT:      -4.9      0.000      0.000
REMARK  3 active torsions:
REMARK  status: ('A' for Active; 'I' for Inactive)
REMARK    1  A    between atoms: C5_5  and  C9_9 
REMARK    2  A    between atoms: C6_6  and  C10_10 
REMARK    3  A    between atoms: C6_6  and  O11_11 
ROOT
HETATM    1  C1  UNL     1     -33.493  17.281  -5.159  1.00 20.00     0.003 C 
HETATM    2  C2  UNL     1     -34.049  17.902  -3.882  1.00 20.00     0.005 C 
HETATM    3  C3  UNL     1     -33.785  15.783  -5.232  1.00 20.00     0.038 C 
HETATM    4  C4  UNL     1     -33.823  15.682  -2.693  1.00 20.00     0.042 C 
HETATM    5  C5  UNL     1     -33.526  17.189  -2.630  1.00 20.00    -0.012 C 
HETATM    6  C6  UNL     1     -33.313  15.020  -3.984  1.00 20.00     0.058 C 
ENDROOT
BRANCH   6   7
HETATM    7  C10 UNL     1     -33.745  13.554  -4.055  1.00 20.00     0.033 C 
HETATM    8  C8  UNL     1     -35.222  13.425  -4.223  1.00 20.00     0.008 C 
ENDBRANCH   6   7
BRANCH   6   9
HETATM    9  O11 UNL     1     -31.881  15.051  -3.978  1.00 20.00    -0.390 OA
HETATM   10  H31 UNL     1     -31.624  15.790  -4.548  1.00 20.00     0.210 HD
ENDBRANCH   6   9
BRANCH   5  11
HETATM   11  C9  UNL     1     -34.129  17.805  -1.368  1.00 20.00     0.000 C 
HETATM   12  C7  UNL     1     -34.763  16.771  -0.498  1.00 20.00     0.005 C 
ENDBRANCH   5  11
TORSDOF 3
ENDMDL
MODEL 2
REMARK VINA RESULT:      -4.8      1.669      4.292
REMARK  3 active torsions:
REMARK  status: ('A' for Active; 'I' for Inactive)
REMARK    1  A    between atoms: C5_5  and  C9_9 
REMARK    2  A    between atoms: C6_6  and  C10_10 
REMARK    3  A    between atoms: C6_6  and  O11_11 
ROOT
HETATM    1  C1  UNL     1     -34.413  13.296  -4.497  1.00 20.00     0.003 C 
HETATM    2  C2  UNL     1     -35.043  13.824  -5.782  1.00 20.00     0.005 C 
HETATM    3  C3  UNL     1     -34.322  14.382  -3.425  1.00 20.00     0.038 C 
HETATM    4  C4  UNL     1     -34.206  16.151  -5.246  1.00 20.00     0.042 C 
HETATM    5  C5  UNL     1     -34.296  15.051  -6.318  1.00 20.00    -0.012 C 
HETATM    6  C6  UNL     1     -33.611  15.652  -3.919  1.00 20.00     0.058 C 
ENDROOT
BRANCH   6   7
HETATM    7  C10 UNL     1     -33.664  16.746  -2.851  1.00 20.00     0.033 C 
HETATM    8  C8  UNL     1     -34.477  16.325  -1.672  1.00 20.00     0.008 C 
ENDBRANCH   6   7
BRANCH   6   9
HETATM    9  O11 UNL     1     -32.235  15.319  -4.132  1.00 20.00    -0.390 OA
HETATM   10  H31 UNL     1     -31.909  14.967  -3.291  1.00 20.00     0.210 HD
ENDBRANCH   6   9
BRANCH   5  11
HETATM   11  C9  UNL     1     -34.971  15.583  -7.582  1.00 20.00     0.000 C 
HETATM   12  C7  UNL     1     -36.201  14.808  -7.918  1.00 20.00     0.005 C 
ENDBRANCH   5  11
TORSDOF 3
ENDMDL
MODEL 3
REMARK VINA RESULT:      -4.6      2.393      3.196
REMARK  3 active torsions:
REMARK  status: ('A' for Active; 'I' for Inactive)
REMARK    1  A    between atoms: C5_5  and  C9_9 
REMARK    2  A    between atoms: C6_6  and  C10_10 
REMARK    3  A    between atoms: C6_6  and  O11_11 
ROOT
HETATM    1  C1  UNL     1     -34.138  13.470  -4.376  1.00 20.00     0.003 C 
HETATM    2  C2  UNL     1     -33.531  14.601  -3.552  1.00 20.00     0.005 C 
HETATM    3  C3  UNL     1     -35.179  13.990  -5.367  1.00 20.00     0.038 C 
HETATM    4  C4  UNL     1     -35.654  15.948  -3.819  1.00 20.00     0.042 C 
HETATM    5  C5  UNL     1     -34.607  15.417  -2.827  1.00 20.00    -0.012 C 
HETATM    6  C6  UNL     1     -36.267  14.845  -4.698  1.00 20.00     0.058 C 
ENDROOT
BRANCH   6   7
HETATM    7  C10 UNL     1     -37.203  15.442  -5.751  1.00 20.00     0.033 C 
HETATM    8  C8  UNL     1     -36.741  15.133  -7.136  1.00 20.00     0.008 C 
ENDBRANCH   6   7
BRANCH   6   9
HETATM    9  O11 UNL     1     -37.045  13.978  -3.867  1.00 20.00    -0.390 OA
HETATM   10  H31 UNL     1     -37.888  13.850  -4.324  1.00 20.00     0.210 HD
ENDBRANCH   6   9
BRANCH   5  11
HETATM   11  C9  UNL     1     -33.975  16.566  -2.042  1.00 20.00     0.000 C 
HETATM   12  C7  UNL     1     -34.597  16.723  -0.695  1.00 20.00     0.005 C 
ENDBRANCH   5  11
TORSDOF 3
ENDMDL
MODEL 4
REMARK VINA RESULT:      -4.4      1.089      1.139
REMARK  3 active torsions:
REMARK  status: ('A' for Active; 'I' for Inactive)
REMARK    1  A    between atoms: C5_5  and  C9_9 
REMARK    2  A    between atoms: C6_6  and  C10_10 
REMARK    3  A    between atoms: C6_6  and  O11_11 
ROOT
HETATM    1  C1  UNL     1     -35.549  17.224  -4.464  1.00 20.00     0.003 C 
HETATM    2  C2  UNL     1     -35.369  17.708  -3.029  1.00 20.00     0.005 C 
HETATM    3  C3  UNL     1     -35.269  15.727  -4.594  1.00 20.00     0.038 C 
HETATM    4  C4  UNL     1     -33.690  15.863  -2.608  1.00 20.00     0.042 C 
HETATM    5  C5  UNL     1     -33.976  17.369  -2.486  1.00 20.00    -0.012 C 
HETATM    6  C6  UNL     1     -33.896  15.324  -4.033  1.00 20.00     0.058 C 
ENDROOT
BRANCH   6   7
HETATM    7  C10 UNL     1     -33.726  13.804  -4.072  1.00 20.00     0.033 C 
HETATM    8  C8  UNL     1     -34.823  13.148  -4.841  1.00 20.00     0.008 C 
ENDBRANCH   6   7
BRANCH   6   9
HETATM    9  O11 UNL     1     -32.898  15.895  -4.887  1.00 20.00    -0.390 OA
HETATM   10  H31 UNL     1     -33.299  15.959  -5.764  1.00 20.00     0.210 HD
ENDBRANCH   6   9
BRANCH   5  11
HETATM   11  C9  UNL     1     -33.837  17.829  -1.035  1.00 20.00     0.000 C 
HETATM   12  C7  UNL     1     -34.760  17.084  -0.129  1.00 20.00     0.005 C 
ENDBRANCH   5  11
TORSDOF 3
ENDMDL
MODEL 5
REMARK VINA RESULT:      -4.4      2.368      2.936
REMARK  3 active torsions:
REMARK  status: ('A' for Active; 'I' for Inactive)
REMARK    1  A    between atoms: C5_5  and  C9_9 
REMARK    2  A    between atoms: C6_6  and  C10_10 
REMARK    3  A    between atoms: C6_6  and  O11_11 
ROOT
HETATM    1  C1  UNL     1     -34.403  14.935  -5.649  1.00 20.00     0.003 C 
HETATM    2  C2  UNL     1     -33.834  15.875  -4.591  1.00 20.00     0.005 C 
HETATM    3  C3  UNL     1     -35.928  14.867  -5.584  1.00 20.00     0.038 C 
HETATM    4  C4  UNL     1     -35.832  15.426  -3.106  1.00 20.00     0.042 C 
HETATM    5  C5  UNL     1     -34.297  15.489  -3.182  1.00 20.00    -0.012 C 
HETATM    6  C6  UNL     1     -36.452  14.517  -4.182  1.00 20.00     0.058 C 
ENDROOT
BRANCH   6   7
HETATM    7  C10 UNL     1     -37.979  14.591  -4.145  1.00 20.00     0.033 C 
HETATM    8  C8  UNL     1     -38.453  15.866  -3.530  1.00 20.00     0.008 C 
ENDBRANCH   6   7
BRANCH   6   9
HETATM    9  O11 UNL     1     -36.075  13.163  -3.908  1.00 20.00    -0.390 OA
HETATM   10  H31 UNL     1     -35.705  13.161  -3.014  1.00 20.00     0.210 HD
ENDBRANCH   6   9
BRANCH   5  11
HETATM   11  C9  UNL     1     -33.746  16.470  -2.147  1.00 20.00     0.000 C 
HETATM   12  C7  UNL     1     -34.640  16.575  -0.956  1.00 20.00     0.005 C 
ENDBRANCH   5  11
TORSDOF 3
ENDMDL
MODEL 6
REMARK VINA RESULT:      -4.3     12.279     13.705
REMARK  3 active torsions:
REMARK  status: ('A' for Active; 'I' for Inactive)
REMARK    1  A    between atoms: C5_5  and  C9_9 
REMARK    2  A    between atoms: C6_6  and  C10_10 
REMARK    3  A    between atoms: C6_6  and  O11_11 
ROOT
HETATM    1  C1  UNL     1     -40.719   5.866  -0.277  1.00 20.00     0.003 C 
HETATM    2  C2  UNL     1     -41.188   7.069  -1.087  1.00 20.00     0.005 C 
HETATM    3  C3  UNL     1     -40.700   4.590  -1.119  1.00 20.00     0.038 C 
HETATM    4  C4  UNL     1     -42.546   5.545  -2.581  1.00 20.00     0.042 C 
HETATM    5  C5  UNL     1     -42.560   6.824  -1.727  1.00 20.00    -0.012 C 
HETATM    6  C6  UNL     1     -42.042   4.312  -1.813  1.00 20.00     0.058 C 
ENDROOT
BRANCH   6   7
HETATM    7  C10 UNL     1     -41.926   3.101  -2.741  1.00 20.00     0.033 C 
HETATM    8  C8  UNL     1     -43.041   3.060  -3.733  1.00 20.00     0.008 C 
ENDBRANCH   6   7
BRANCH   6   9
HETATM    9  O11 UNL     1     -42.995   3.989  -0.793  1.00 20.00    -0.390 OA
HETATM   10  H31 UNL     1     -43.752   3.593  -1.247  1.00 20.00     0.210 HD
ENDBRANCH   6   9
BRANCH   5  11
HETATM   11  C9  UNL     1     -42.986   8.029  -2.565  1.00 20.00     0.000 C 
HETATM   12  C7  UNL     1     -42.532   7.904  -3.981  1.00 20.00     0.005 C 
ENDBRANCH   5  11
TORSDOF 3
ENDMDL
MODEL 7
REMARK VINA RESULT:      -4.2     12.007     13.916
REMARK  3 active torsions:
REMARK  status: ('A' for Active; 'I' for Inactive)
REMARK    1  A    between atoms: C5_5  and  C9_9 
REMARK    2  A    between atoms: C6_6  and  C10_10 
REMARK    3  A    between atoms: C6_6  and  O11_11 
ROOT
HETATM    1  C1  UNL     1     -41.982   5.600   0.205  1.00 20.00     0.003 C 
HETATM    2  C2  UNL     1     -42.227   4.294  -0.542  1.00 20.00     0.005 C 
HETATM    3  C3  UNL     1     -42.608   6.791  -0.520  1.00 20.00     0.038 C 
HETATM    4  C4  UNL     1     -42.360   5.558  -2.729  1.00 20.00     0.042 C 
HETATM    5  C5  UNL     1     -41.729   4.366  -1.990  1.00 20.00    -0.012 C 
HETATM    6  C6  UNL     1     -42.170   6.894  -1.990  1.00 20.00     0.058 C 
ENDROOT
BRANCH   6   7
HETATM    7  C10 UNL     1     -42.924   8.022  -2.698  1.00 20.00     0.033 C 
HETATM    8  C8  UNL     1     -42.644   8.033  -4.163  1.00 20.00     0.008 C 
ENDBRANCH   6   7
BRANCH   6   9
HETATM    9  O11 UNL     1     -40.777   7.228  -2.001  1.00 20.00    -0.390 OA
HETATM   10  H31 UNL     1     -40.591   7.637  -1.144  1.00 20.00     0.210 HD
ENDBRANCH   6   9
BRANCH   5  11
HETATM   11  C9  UNL     1     -42.023   3.059  -2.727  1.00 20.00     0.000 C 
HETATM   12  C7  UNL     1     -43.225   3.178  -3.604  1.00 20.00     0.005 C 
ENDBRANCH   5  11
TORSDOF 3
ENDMDL
MODEL 8
REMARK VINA RESULT:      -4.2      1.792      4.113
REMARK  3 active torsions:
REMARK  status: ('A' for Active; 'I' for Inactive)
REMARK    1  A    between atoms: C5_5  and  C9_9 
REMARK    2  A    between atoms: C6_6  and  C10_10 
REMARK    3  A    between atoms: C6_6  and  O11_11 
ROOT
HETATM    1  C1  UNL     1     -33.894  17.840  -3.939  1.00 20.00     0.003 C 
HETATM    2  C2  UNL     1     -33.410  16.445  -4.320  1.00 20.00     0.005 C 
HETATM    3  C3  UNL     1     -33.990  18.010  -2.423  1.00 20.00     0.038 C 
HETATM    4  C4  UNL     1     -34.389  15.512  -2.183  1.00 20.00     0.042 C 
HETATM    5  C5  UNL     1     -34.293  15.351  -3.709  1.00 20.00    -0.012 C 
HETATM    6  C6  UNL     1     -34.838  16.918  -1.751  1.00 20.00     0.058 C 
ENDROOT
BRANCH   6   7
HETATM    7  C10 UNL     1     -34.792  17.063  -0.229  1.00 20.00     0.033 C 
HETATM    8  C8  UNL     1     -33.836  18.128   0.193  1.00 20.00     0.008 C 
ENDBRANCH   6   7
BRANCH   6   9
HETATM    9  O11 UNL     1     -36.195  17.112  -2.166  1.00 20.00    -0.390 OA
HETATM   10  H31 UNL     1     -36.339  16.508  -2.908  1.00 20.00     0.210 HD
ENDBRANCH   6   9
BRANCH   5  11
HETATM   11  C9  UNL     1     -33.763  13.965  -4.074  1.00 20.00     0.000 C 
HETATM   12  C7  UNL     1     -34.764  13.178  -4.853  1.00 20.00     0.005 C 
ENDBRANCH   5  11
TORSDOF 3
ENDMDL
MODEL 9
REMARK VINA RESULT:      -4.0      2.647      3.583
REMARK  3 active torsions:
REMARK  status: ('A' for Active; 'I' for Inactive)
REMARK    1  A    between atoms: C5_5  and  C9_9 
REMARK    2  A    between atoms: C6_6  and  C10_10 
REMARK    3  A    between atoms: C6_6  and  O11_11 
ROOT
HETATM    1  C1  UNL     1     -34.310  15.265  -2.834  1.00 20.00     0.003 C 
HETATM    2  C2  UNL     1     -35.624  16.038  -2.784  1.00 20.00     0.005 C 
HETATM    3  C3  UNL     1     -33.969  14.821  -4.256  1.00 20.00     0.038 C 
HETATM    4  C4  UNL     1     -36.446  14.788  -4.824  1.00 20.00     0.042 C 
HETATM    5  C5  UNL     1     -36.779  15.232  -3.390  1.00 20.00    -0.012 C 
HETATM    6  C6  UNL     1     -35.108  14.037  -4.927  1.00 20.00     0.058 C 
ENDROOT
BRANCH   6   7
HETATM    7  C10 UNL     1     -34.764  13.732  -6.386  1.00 20.00     0.033 C 
HETATM    8  C8  UNL     1     -34.456  14.977  -7.149  1.00 20.00     0.008 C 
ENDBRANCH   6   7
BRANCH   6   9
HETATM    9  O11 UNL     1     -35.231  12.786  -4.239  1.00 20.00    -0.390 OA
HETATM   10  H31 UNL     1     -34.330  12.496  -4.044  1.00 20.00     0.210 HD
ENDBRANCH   6   9
BRANCH   5  11
HETATM   11  C9  UNL     1     -38.074  16.044  -3.364  1.00 20.00     0.000 C 
HETATM   12  C7  UNL     1     -39.268  15.187  -3.625  1.00 20.00     0.005 C 
ENDBRANCH   5  11
TORSDOF 3
ENDMDL
