MODEL 1
REMARK VINA RESULT:      -4.6      0.000      0.000
REMARK  3 active torsions:
REMARK  status: ('A' for Active; 'I' for Inactive)
REMARK    1  A    between atoms: C1_1  and  C9_9 
REMARK    2  A    between atoms: C6_6  and  C9_9 
REMARK    3  A    between atoms: C7_7  and  C10_10 
ROOT
HETATM    1  C2  UNL     1     -35.419  18.100  -3.352  1.00 20.00     0.001 C 
HETATM    2  C3  UNL     1     -35.880  16.861  -4.114  1.00 20.00     0.005 C 
HETATM    3  C4  UNL     1     -34.028  17.909  -2.752  1.00 20.00     0.005 C 
HETATM    4  C5  UNL     1     -34.420  15.413  -2.644  1.00 20.00     0.009 C 
HETATM    5  C6  UNL     1     -35.822  15.600  -3.243  1.00 20.00    -0.008 C 
HETATM    6  C7  UNL     1     -33.917  16.649  -1.882  1.00 20.00    -0.014 C 
ENDROOT
BRANCH   5   7
HETATM    7  C9  UNL     1     -36.227  14.369  -4.054  1.00 20.00     0.074 C 
BRANCH   7   8
HETATM    8  C1  UNL     1     -35.057  13.736  -4.754  1.00 20.00     0.231 C 
HETATM    9  O11 UNL     1     -34.811  12.535  -4.774  1.00 20.00    -0.307 OA
ENDBRANCH   7   8
ENDBRANCH   5   7
BRANCH   6  10
HETATM   10  C10 UNL     1     -34.636  16.821  -0.542  1.00 20.00     0.000 C 
HETATM   11  C8  UNL     1     -34.089  17.974   0.230  1.00 20.00     0.005 C 
ENDBRANCH   6  10
TORSDOF 3
ENDMDL
MODEL 2
REMARK VINA RESULT:      -4.6     11.368     12.397
REMARK  3 active torsions:
REMARK  status: ('A' for Active; 'I' for Inactive)
REMARK    1  A    between atoms: C1_1  and  C9_9 
REMARK    2  A    between atoms: C6_6  and  C9_9 
REMARK    3  A    between atoms: C7_7  and  C10_10 
ROOT
HETATM    1  C2  UNL     1     -34.367   4.925   2.844  1.00 20.00     0.001 C 
HETATM    2  C3  UNL     1     -33.302   5.945   2.453  1.00 20.00     0.005 C 
HETATM    3  C4  UNL     1     -35.359   5.502   3.852  1.00 20.00     0.005 C 
HETATM    4  C5  UNL     1     -33.580   7.094   4.688  1.00 20.00     0.009 C 
HETATM    5  C6  UNL     1     -32.577   6.514   3.679  1.00 20.00    -0.008 C 
HETATM    6  C7  UNL     1     -34.677   6.096   5.093  1.00 20.00    -0.014 C 
ENDROOT
BRANCH   5   7
HETATM    7  C9  UNL     1     -31.565   7.579   3.257  1.00 20.00     0.074 C 
BRANCH   7   8
HETATM    8  C1  UNL     1     -31.944   8.247   1.964  1.00 20.00     0.231 C 
HETATM    9  O11 UNL     1     -32.434   9.367   1.866  1.00 20.00    -0.307 OA
ENDBRANCH   7   8
ENDBRANCH   5   7
BRANCH   6  10
HETATM   10  C10 UNL     1     -34.137   5.005   6.020  1.00 20.00     0.000 C 
HETATM   11  C8  UNL     1     -35.069   3.844   6.101  1.00 20.00     0.005 C 
ENDBRANCH   6  10
TORSDOF 3
ENDMDL
MODEL 3
REMARK VINA RESULT:      -4.5      2.879      4.792
REMARK  3 active torsions:
REMARK  status: ('A' for Active; 'I' for Inactive)
REMARK    1  A    between atoms: C1_1  and  C9_9 
REMARK    2  A    between atoms: C6_6  and  C9_9 
REMARK    3  A    between atoms: C7_7  and  C10_10 
ROOT
HETATM    1  C2  UNL     1     -33.846  17.490  -4.158  1.00 20.00     0.001 C 
HETATM    2  C3  UNL     1     -33.723  18.222  -2.824  1.00 20.00     0.005 C 
HETATM    3  C4  UNL     1     -35.002  16.492  -4.151  1.00 20.00     0.005 C 
HETATM    4  C5  UNL     1     -34.772  16.247  -1.644  1.00 20.00     0.009 C 
HETATM    5  C6  UNL     1     -33.605  17.247  -1.646  1.00 20.00    -0.008 C 
HETATM    6  C7  UNL     1     -34.934  15.503  -2.979  1.00 20.00    -0.014 C 
ENDROOT
BRANCH   5   7
HETATM    7  C9  UNL     1     -33.551  18.010  -0.323  1.00 20.00     0.074 C 
BRANCH   7   8
HETATM    8  C1  UNL     1     -32.659  19.218  -0.396  1.00 20.00     0.231 C 
HETATM    9  O11 UNL     1     -31.466  19.233  -0.113  1.00 20.00    -0.307 OA
ENDBRANCH   7   8
ENDBRANCH   5   7
BRANCH   6  10
HETATM   10  C10 UNL     1     -33.834  14.458  -3.183  1.00 20.00     0.000 C 
HETATM   11  C8  UNL     1     -34.096  13.615  -4.385  1.00 20.00     0.005 C 
ENDBRANCH   6  10
TORSDOF 3
ENDMDL
MODEL 4
REMARK VINA RESULT:      -4.4      1.995      2.476
REMARK  3 active torsions:
REMARK  status: ('A' for Active; 'I' for Inactive)
REMARK    1  A    between atoms: C1_1  and  C9_9 
REMARK    2  A    between atoms: C6_6  and  C9_9 
REMARK    3  A    between atoms: C7_7  and  C10_10 
ROOT
HETATM    1  C2  UNL     1     -33.268  16.430  -5.134  1.00 20.00     0.001 C 
HETATM    2  C3  UNL     1     -34.648  16.034  -5.650  1.00 20.00     0.005 C 
HETATM    3  C4  UNL     1     -32.826  15.547  -3.969  1.00 20.00     0.005 C 
HETATM    4  C5  UNL     1     -35.247  15.137  -3.364  1.00 20.00     0.009 C 
HETATM    5  C6  UNL     1     -35.697  16.028  -4.531  1.00 20.00    -0.008 C 
HETATM    6  C7  UNL     1     -33.853  15.499  -2.829  1.00 20.00    -0.014 C 
ENDROOT
BRANCH   5   7
HETATM    7  C9  UNL     1     -37.051  15.564  -5.068  1.00 20.00     0.074 C 
BRANCH   7   8
HETATM    8  C1  UNL     1     -38.023  15.243  -3.967  1.00 20.00     0.231 C 
HETATM    9  O11 UNL     1     -38.576  14.160  -3.807  1.00 20.00    -0.307 OA
ENDBRANCH   7   8
ENDBRANCH   5   7
BRANCH   6  10
HETATM   10  C10 UNL     1     -33.873  16.804  -2.029  1.00 20.00     0.000 C 
HETATM   11  C8  UNL     1     -34.644  16.658  -0.761  1.00 20.00     0.005 C 
ENDBRANCH   6  10
TORSDOF 3
ENDMDL
MODEL 5
REMARK VINA RESULT:      -4.3      2.458      4.815
REMARK  3 active torsions:
REMARK  status: ('A' for Active; 'I' for Inactive)
REMARK    1  A    between atoms: C1_1  and  C9_9 
REMARK    2  A    between atoms: C6_6  and  C9_9 
REMARK    3  A    between atoms: C7_7  and  C10_10 
ROOT
HETATM    1  C2  UNL     1     -36.412  14.693  -3.845  1.00 20.00     0.001 C 
HETATM    2  C3  UNL     1     -35.749  15.430  -2.684  1.00 20.00     0.005 C 
HETATM    3  C4  UNL     1     -35.466  13.680  -4.485  1.00 20.00     0.005 C 
HETATM    4  C5  UNL     1     -33.484  15.066  -3.747  1.00 20.00     0.009 C 
HETATM    5  C6  UNL     1     -34.431  16.092  -3.105  1.00 20.00    -0.008 C 
HETATM    6  C7  UNL     1     -34.125  14.295  -4.911  1.00 20.00    -0.014 C 
ENDROOT
BRANCH   5   7
HETATM    7  C9  UNL     1     -33.761  16.763  -1.906  1.00 20.00     0.074 C 
BRANCH   7   8
HETATM    8  C1  UNL     1     -34.655  16.797  -0.698  1.00 20.00     0.231 C 
HETATM    9  O11 UNL     1     -34.437  17.439   0.324  1.00 20.00    -0.307 OA
ENDBRANCH   7   8
ENDBRANCH   5   7
BRANCH   6  10
HETATM   10  C10 UNL     1     -34.274  15.169  -6.158  1.00 20.00     0.000 C 
HETATM   11  C8  UNL     1     -35.018  14.461  -7.239  1.00 20.00     0.005 C 
ENDBRANCH   6  10
TORSDOF 3
ENDMDL
MODEL 6
REMARK VINA RESULT:      -4.2      2.601      4.520
REMARK  3 active torsions:
REMARK  status: ('A' for Active; 'I' for Inactive)
REMARK    1  A    between atoms: C1_1  and  C9_9 
REMARK    2  A    between atoms: C6_6  and  C9_9 
REMARK    3  A    between atoms: C7_7  and  C10_10 
ROOT
HETATM    1  C2  UNL     1     -33.842  17.451  -4.214  1.00 20.00     0.001 C 
HETATM    2  C3  UNL     1     -33.788  18.064  -2.817  1.00 20.00     0.005 C 
HETATM    3  C4  UNL     1     -35.024  16.496  -4.366  1.00 20.00     0.005 C 
HETATM    4  C5  UNL     1     -34.969  16.034  -1.881  1.00 20.00     0.009 C 
HETATM    5  C6  UNL     1     -33.777  16.990  -1.721  1.00 20.00    -0.008 C 
HETATM    6  C7  UNL     1     -35.062  15.410  -3.282  1.00 20.00    -0.014 C 
ENDROOT
BRANCH   5   7
HETATM    7  C9  UNL     1     -33.790  17.637  -0.337  1.00 20.00     0.074 C 
BRANCH   7   8
HETATM    8  C1  UNL     1     -35.134  17.534   0.330  1.00 20.00     0.231 C 
HETATM    9  O11 UNL     1     -35.316  17.358   1.530  1.00 20.00    -0.307 OA
ENDBRANCH   7   8
ENDBRANCH   5   7
BRANCH   6  10
HETATM   10  C10 UNL     1     -33.982  14.349  -3.504  1.00 20.00     0.000 C 
HETATM   11  C8  UNL     1     -34.369  13.389  -4.578  1.00 20.00     0.005 C 
ENDBRANCH   6  10
TORSDOF 3
ENDMDL
MODEL 7
REMARK VINA RESULT:      -4.2      2.475      3.146
REMARK  3 active torsions:
REMARK  status: ('A' for Active; 'I' for Inactive)
REMARK    1  A    between atoms: C1_1  and  C9_9 
REMARK    2  A    between atoms: C6_6  and  C9_9 
REMARK    3  A    between atoms: C7_7  and  C10_10 
ROOT
HETATM    1  C2  UNL     1     -33.279  16.616  -4.994  1.00 20.00     0.001 C 
HETATM    2  C3  UNL     1     -33.815  15.952  -6.260  1.00 20.00     0.005 C 
HETATM    3  C4  UNL     1     -32.978  15.591  -3.903  1.00 20.00     0.005 C 
HETATM    4  C5  UNL     1     -34.731  14.047  -4.872  1.00 20.00     0.009 C 
HETATM    5  C6  UNL     1     -35.041  15.076  -5.970  1.00 20.00    -0.008 C 
HETATM    6  C7  UNL     1     -34.174  14.681  -3.588  1.00 20.00    -0.014 C 
ENDROOT
BRANCH   5   7
HETATM    7  C9  UNL     1     -35.512  14.376  -7.245  1.00 20.00     0.074 C 
BRANCH   7   8
HETATM    8  C1  UNL     1     -36.813  14.931  -7.754  1.00 20.00     0.231 C 
HETATM    9  O11 UNL     1     -37.813  15.126  -7.072  1.00 20.00    -0.307 OA
ENDBRANCH   7   8
ENDBRANCH   5   7
BRANCH   6  10
HETATM   10  C10 UNL     1     -35.259  15.422  -2.804  1.00 20.00     0.000 C 
HETATM   11  C8  UNL     1     -34.682  16.194  -1.666  1.00 20.00     0.005 C 
ENDBRANCH   6  10
TORSDOF 3
ENDMDL
MODEL 8
REMARK VINA RESULT:      -4.0      1.890      3.431
REMARK  3 active torsions:
REMARK  status: ('A' for Active; 'I' for Inactive)
REMARK    1  A    between atoms: C1_1  and  C9_9 
REMARK    2  A    between atoms: C6_6  and  C9_9 
REMARK    3  A    between atoms: C7_7  and  C10_10 
ROOT
HETATM    1  C2  UNL     1     -34.558  16.241  -1.700  1.00 20.00     0.001 C 
HETATM    2  C3  UNL     1     -35.886  16.686  -2.308  1.00 20.00     0.005 C 
HETATM    3  C4  UNL     1     -33.433  16.254  -2.732  1.00 20.00     0.005 C 
HETATM    4  C5  UNL     1     -35.122  15.872  -4.576  1.00 20.00     0.009 C 
HETATM    5  C6  UNL     1     -36.258  15.854  -3.541  1.00 20.00    -0.008 C 
HETATM    6  C7  UNL     1     -33.766  15.444  -3.993  1.00 20.00    -0.014 C 
ENDROOT
BRANCH   5   7
HETATM    7  C9  UNL     1     -37.556  16.367  -4.163  1.00 20.00     0.074 C 
BRANCH   7   8
HETATM    8  C1  UNL     1     -38.590  15.284  -4.302  1.00 20.00     0.231 C 
HETATM    9  O11 UNL     1     -38.494  14.153  -3.840  1.00 20.00    -0.307 OA
ENDBRANCH   7   8
ENDBRANCH   5   7
BRANCH   6  10
HETATM   10  C10 UNL     1     -33.711  13.937  -3.730  1.00 20.00     0.000 C 
HETATM   11  C8  UNL     1     -34.449  13.170  -4.775  1.00 20.00     0.005 C 
ENDBRANCH   6  10
TORSDOF 3
ENDMDL
MODEL 9
REMARK VINA RESULT:      -4.0      2.380      3.537
REMARK  3 active torsions:
REMARK  status: ('A' for Active; 'I' for Inactive)
REMARK    1  A    between atoms: C1_1  and  C9_9 
REMARK    2  A    between atoms: C6_6  and  C9_9 
REMARK    3  A    between atoms: C7_7  and  C10_10 
ROOT
HETATM    1  C2  UNL     1     -34.088  13.293  -4.645  1.00 20.00     0.001 C 
HETATM    2  C3  UNL     1     -35.555  13.425  -4.247  1.00 20.00     0.005 C 
HETATM    3  C4  UNL     1     -33.170  14.027  -3.669  1.00 20.00     0.005 C 
HETATM    4  C5  UNL     1     -35.049  15.623  -3.105  1.00 20.00     0.009 C 
HETATM    5  C6  UNL     1     -35.975  14.892  -4.089  1.00 20.00    -0.008 C 
HETATM    6  C7  UNL     1     -33.561  15.498  -3.468  1.00 20.00    -0.014 C 
ENDROOT
BRANCH   5   7
HETATM    7  C9  UNL     1     -37.429  14.986  -3.626  1.00 20.00     0.074 C 
BRANCH   7   8
HETATM    8  C1  UNL     1     -38.389  15.099  -4.779  1.00 20.00     0.231 C 
HETATM    9  O11 UNL     1     -38.068  15.252  -5.952  1.00 20.00    -0.307 OA
ENDBRANCH   7   8
ENDBRANCH   5   7
BRANCH   6  10
HETATM   10  C10 UNL     1     -33.200  16.352  -4.685  1.00 20.00     0.000 C 
HETATM   11  C8  UNL     1     -33.651  17.763  -4.518  1.00 20.00     0.005 C 
ENDBRANCH   6  10
TORSDOF 3
ENDMDL
