MODEL 1
REMARK VINA RESULT:      -4.0      0.000      0.000
REMARK  0 active torsions:
REMARK  status: ('A' for Active; 'I' for Inactive)
ROOT
HETATM    1  C1  UNL     1     -33.998  15.397  -5.026  1.00 20.00     0.066 C 
HETATM    2  C2  UNL     1     -35.935  15.351  -3.396  1.00 20.00     0.077 C 
HETATM    3  C3  UNL     1     -33.471  16.604  -4.262  1.00 20.00     0.171 C 
HETATM    4  C4  UNL     1     -35.080  13.113  -4.412  1.00 20.00     0.207 A 
HETATM    5  C5  UNL     1     -34.882  14.582  -4.135  1.00 20.00     0.087 A 
HETATM    6  C6  UNL     1     -35.349  16.620  -2.741  1.00 20.00     0.056 C 
HETATM    7  C7  UNL     1     -36.501  17.563  -2.362  1.00 20.00     0.045 C 
HETATM    8  C8  UNL     1     -34.554  16.299  -1.466  1.00 20.00     0.045 C 
HETATM    9  O9  UNL     1     -34.209  13.577  -3.368  1.00 20.00    -0.375 OA
HETATM   10  O10 UNL     1     -34.542  17.350  -3.683  1.00 20.00    -0.381 OA
ENDROOT
TORSDOF 0
ENDMDL
MODEL 2
REMARK VINA RESULT:      -4.0      2.062      3.096
REMARK  0 active torsions:
REMARK  status: ('A' for Active; 'I' for Inactive)
ROOT
HETATM    1  C1  UNL     1     -37.017  15.579  -5.612  1.00 20.00     0.066 C 
HETATM    2  C2  UNL     1     -35.949  15.559  -3.318  1.00 20.00     0.077 C 
HETATM    3  C3  UNL     1     -35.728  14.968  -6.144  1.00 20.00     0.171 C 
HETATM    4  C4  UNL     1     -38.525  15.252  -3.519  1.00 20.00     0.207 A 
HETATM    5  C5  UNL     1     -37.158  15.272  -4.155  1.00 20.00     0.087 A 
HETATM    6  C6  UNL     1     -34.666  15.006  -3.974  1.00 20.00     0.056 C 
HETATM    7  C7  UNL     1     -33.444  15.665  -3.315  1.00 20.00     0.045 C 
HETATM    8  C8  UNL     1     -34.538  13.485  -3.806  1.00 20.00     0.045 C 
HETATM    9  O9  UNL     1     -37.829  14.042  -3.857  1.00 20.00    -0.375 OA
HETATM   10  O10 UNL     1     -34.606  15.380  -5.363  1.00 20.00    -0.381 OA
ENDROOT
TORSDOF 0
ENDMDL
MODEL 3
REMARK VINA RESULT:      -4.0     11.050     12.764
REMARK  0 active torsions:
REMARK  status: ('A' for Active; 'I' for Inactive)
ROOT
HETATM    1  C1  UNL     1     -41.002   4.346  -1.401  1.00 20.00     0.066 C 
HETATM    2  C2  UNL     1     -42.737   5.395  -2.917  1.00 20.00     0.077 C 
HETATM    3  C3  UNL     1     -40.744   5.739  -0.844  1.00 20.00     0.171 C 
HETATM    4  C4  UNL     1     -43.091   2.955  -2.084  1.00 20.00     0.207 A 
HETATM    5  C5  UNL     1     -42.380   4.281  -1.980  1.00 20.00     0.087 A 
HETATM    6  C6  UNL     1     -42.344   6.769  -2.334  1.00 20.00     0.056 C 
HETATM    7  C7  UNL     1     -42.344   7.810  -3.463  1.00 20.00     0.045 C 
HETATM    8  C8  UNL     1     -43.325   7.239  -1.249  1.00 20.00     0.045 C 
HETATM    9  O9  UNL     1     -43.409   3.907  -1.056  1.00 20.00    -0.375 OA
HETATM   10  O10 UNL     1     -40.995   6.739  -1.832  1.00 20.00    -0.381 OA
ENDROOT
TORSDOF 0
ENDMDL
MODEL 4
REMARK VINA RESULT:      -4.0     11.924     13.510
REMARK  0 active torsions:
REMARK  status: ('A' for Active; 'I' for Inactive)
ROOT
HETATM    1  C1  UNL     1     -41.949   6.557  -2.220  1.00 20.00     0.066 C 
HETATM    2  C2  UNL     1     -41.066   4.257  -1.640  1.00 20.00     0.077 C 
HETATM    3  C3  UNL     1     -43.125   5.863  -2.892  1.00 20.00     0.171 C 
HETATM    4  C4  UNL     1     -40.587   6.242  -0.027  1.00 20.00     0.207 A 
HETATM    5  C5  UNL     1     -41.355   5.655  -1.185  1.00 20.00     0.087 A 
HETATM    6  C6  UNL     1     -42.262   3.658  -2.411  1.00 20.00     0.056 C 
HETATM    7  C7  UNL     1     -41.786   2.424  -3.193  1.00 20.00     0.045 C 
HETATM    8  C8  UNL     1     -43.395   3.220  -1.471  1.00 20.00     0.045 C 
HETATM    9  O9  UNL     1     -41.934   5.765   0.120  1.00 20.00    -0.375 OA
HETATM   10  O10 UNL     1     -42.742   4.585  -3.402  1.00 20.00    -0.381 OA
ENDROOT
TORSDOF 0
ENDMDL
MODEL 5
REMARK VINA RESULT:      -4.0      1.600      3.236
REMARK  0 active torsions:
REMARK  status: ('A' for Active; 'I' for Inactive)
ROOT
HETATM    1  C1  UNL     1     -34.125  13.949  -3.421  1.00 20.00     0.066 C 
HETATM    2  C2  UNL     1     -36.030  15.585  -3.108  1.00 20.00     0.077 C 
HETATM    3  C3  UNL     1     -34.928  13.335  -4.560  1.00 20.00     0.171 C 
HETATM    4  C4  UNL     1     -33.601  16.352  -2.577  1.00 20.00     0.207 A 
HETATM    5  C5  UNL     1     -34.551  15.367  -3.210  1.00 20.00     0.087 A 
HETATM    6  C6  UNL     1     -36.788  14.843  -4.229  1.00 20.00     0.056 C 
HETATM    7  C7  UNL     1     -38.275  14.753  -3.853  1.00 20.00     0.045 C 
HETATM    8  C8  UNL     1     -36.678  15.566  -5.579  1.00 20.00     0.045 C 
HETATM    9  O9  UNL     1     -33.844  16.336  -3.992  1.00 20.00    -0.375 OA
HETATM   10  O10 UNL     1     -36.331  13.482  -4.333  1.00 20.00    -0.381 OA
ENDROOT
TORSDOF 0
ENDMDL
MODEL 6
REMARK VINA RESULT:      -3.9      1.437      2.086
REMARK  0 active torsions:
REMARK  status: ('A' for Active; 'I' for Inactive)
ROOT
HETATM    1  C1  UNL     1     -36.620  14.878  -4.346  1.00 20.00     0.066 C 
HETATM    2  C2  UNL     1     -34.505  14.883  -2.956  1.00 20.00     0.077 C 
HETATM    3  C3  UNL     1     -36.754  16.360  -4.026  1.00 20.00     0.171 C 
HETATM    4  C4  UNL     1     -34.684  13.263  -4.984  1.00 20.00     0.207 A 
HETATM    5  C5  UNL     1     -35.189  14.461  -4.221  1.00 20.00     0.087 A 
HETATM    6  C6  UNL     1     -34.777  16.368  -2.637  1.00 20.00     0.056 C 
HETATM    7  C7  UNL     1     -34.417  16.638  -1.168  1.00 20.00     0.045 C 
HETATM    8  C8  UNL     1     -33.941  17.311  -3.515  1.00 20.00     0.045 C 
HETATM    9  O9  UNL     1     -34.409  14.606  -5.413  1.00 20.00    -0.375 OA
HETATM   10  O10 UNL     1     -36.181  16.663  -2.754  1.00 20.00    -0.381 OA
ENDROOT
TORSDOF 0
ENDMDL
MODEL 7
REMARK VINA RESULT:      -3.9      1.831      3.740
REMARK  0 active torsions:
REMARK  status: ('A' for Active; 'I' for Inactive)
ROOT
HETATM    1  C1  UNL     1     -34.362  15.992  -6.845  1.00 20.00     0.066 C 
HETATM    2  C2  UNL     1     -33.234  15.915  -4.580  1.00 20.00     0.077 C 
HETATM    3  C3  UNL     1     -35.131  14.746  -6.430  1.00 20.00     0.171 C 
HETATM    4  C4  UNL     1     -33.648  18.222  -5.712  1.00 20.00     0.207 A 
HETATM    5  C5  UNL     1     -33.918  16.741  -5.628  1.00 20.00     0.087 A 
HETATM    6  C6  UNL     1     -34.012  14.614  -4.291  1.00 20.00     0.056 C 
HETATM    7  C7  UNL     1     -33.092  13.637  -3.545  1.00 20.00     0.045 C 
HETATM    8  C8  UNL     1     -35.253  14.864  -3.421  1.00 20.00     0.045 C 
HETATM    9  O9  UNL     1     -34.855  17.702  -5.132  1.00 20.00    -0.375 OA
HETATM   10  O10 UNL     1     -34.367  13.953  -5.520  1.00 20.00    -0.381 OA
ENDROOT
TORSDOF 0
ENDMDL
MODEL 8
REMARK VINA RESULT:      -3.9      2.180      3.622
REMARK  0 active torsions:
REMARK  status: ('A' for Active; 'I' for Inactive)
ROOT
HETATM    1  C1  UNL     1     -35.983  14.646  -3.871  1.00 20.00     0.066 C 
HETATM    2  C2  UNL     1     -34.175  15.143  -5.571  1.00 20.00     0.077 C 
HETATM    3  C3  UNL     1     -37.000  14.983  -4.953  1.00 20.00     0.171 C 
HETATM    4  C4  UNL     1     -33.738  13.339  -3.747  1.00 20.00     0.207 A 
HETATM    5  C5  UNL     1     -34.693  14.228  -4.502  1.00 20.00     0.087 A 
HETATM    6  C6  UNL     1     -35.287  15.531  -6.568  1.00 20.00     0.056 C 
HETATM    7  C7  UNL     1     -34.831  16.757  -7.373  1.00 20.00     0.045 C 
HETATM    8  C8  UNL     1     -35.599  14.398  -7.556  1.00 20.00     0.045 C 
HETATM    9  O9  UNL     1     -34.583  12.830  -4.791  1.00 20.00    -0.375 OA
HETATM   10  O10 UNL     1     -36.473  15.946  -5.866  1.00 20.00    -0.381 OA
ENDROOT
TORSDOF 0
ENDMDL
MODEL 9
REMARK VINA RESULT:      -3.9      1.904      3.731
REMARK  0 active torsions:
REMARK  status: ('A' for Active; 'I' for Inactive)
ROOT
HETATM    1  C1  UNL     1     -34.299  14.239  -3.541  1.00 20.00     0.066 C 
HETATM    2  C2  UNL     1     -35.398  15.991  -5.000  1.00 20.00     0.077 C 
HETATM    3  C3  UNL     1     -34.338  13.308  -4.745  1.00 20.00     0.171 C 
HETATM    4  C4  UNL     1     -33.758  16.749  -3.126  1.00 20.00     0.207 A 
HETATM    5  C5  UNL     1     -34.329  15.662  -4.001  1.00 20.00     0.087 A 
HETATM    6  C6  UNL     1     -35.452  14.943  -6.132  1.00 20.00     0.056 C 
HETATM    7  C7  UNL     1     -36.787  15.084  -6.879  1.00 20.00     0.045 C 
HETATM    8  C8  UNL     1     -34.314  15.128  -7.147  1.00 20.00     0.045 C 
HETATM    9  O9  UNL     1     -33.047  16.242  -4.266  1.00 20.00    -0.375 OA
HETATM   10  O10 UNL     1     -35.450  13.610  -5.589  1.00 20.00    -0.381 OA
ENDROOT
TORSDOF 0
ENDMDL
