MODEL 1
REMARK VINA RESULT:      -4.9      0.000      0.000
REMARK  3 active torsions:
REMARK  status: ('A' for Active; 'I' for Inactive)
REMARK    1  A    between atoms: C1_1  and  C6_6 
REMARK    2  A    between atoms: C1_1  and  C10_10 
REMARK    3  A    between atoms: C7_7  and  C11_11 
ROOT
HETATM    1  C2  UNL     1     -37.230  16.413  -3.302  1.00 20.00     0.001 C 
HETATM    2  C3  UNL     1     -36.636  15.499  -4.371  1.00 20.00     0.012 C 
HETATM    3  C4  UNL     1     -36.144  17.168  -2.540  1.00 20.00     0.005 C 
HETATM    4  C5  UNL     1     -34.511  15.299  -3.022  1.00 20.00     0.016 C 
HETATM    5  C6  UNL     1     -35.607  14.549  -3.772  1.00 20.00     0.055 C 
HETATM    6  C7  UNL     1     -35.103  16.213  -1.939  1.00 20.00    -0.014 C 
ENDROOT
BRANCH   5   7
HETATM    7  C1  UNL     1     -34.952  13.802  -4.918  1.00 20.00     0.130 C 
HETATM    8  O12 UNL     1     -34.797  12.582  -4.874  1.00 20.00    -0.298 OA
BRANCH   7   9
HETATM    9  C10 UNL     1     -34.510  14.646  -6.100  1.00 20.00     0.074 C 
HETATM   10  C8  UNL     1     -35.283  14.326  -7.367  1.00 20.00     0.013 C 
ENDBRANCH   7   9
ENDBRANCH   5   7
BRANCH   6  11
HETATM   11  C11 UNL     1     -33.999  16.994  -1.229  1.00 20.00     0.000 C 
HETATM   12  C9  UNL     1     -34.456  17.517   0.093  1.00 20.00     0.005 C 
ENDBRANCH   6  11
TORSDOF 3
ENDMDL
MODEL 2
REMARK VINA RESULT:      -4.8      1.550      2.028
REMARK  3 active torsions:
REMARK  status: ('A' for Active; 'I' for Inactive)
REMARK    1  A    between atoms: C1_1  and  C6_6 
REMARK    2  A    between atoms: C1_1  and  C10_10 
REMARK    3  A    between atoms: C7_7  and  C11_11 
ROOT
HETATM    1  C2  UNL     1     -33.612  17.780  -3.953  1.00 20.00     0.001 C 
HETATM    2  C3  UNL     1     -33.352  16.347  -4.410  1.00 20.00     0.012 C 
HETATM    3  C4  UNL     1     -33.701  17.879  -2.432  1.00 20.00     0.005 C 
HETATM    4  C5  UNL     1     -34.479  15.476  -2.324  1.00 20.00     0.016 C 
HETATM    5  C6  UNL     1     -34.396  15.392  -3.844  1.00 20.00     0.055 C 
HETATM    6  C7  UNL     1     -34.750  16.915  -1.861  1.00 20.00    -0.014 C 
ENDROOT
BRANCH   5   7
HETATM    7  C1  UNL     1     -33.970  13.981  -4.205  1.00 20.00     0.130 C 
HETATM    8  O12 UNL     1     -33.007  13.450  -3.654  1.00 20.00    -0.298 OA
BRANCH   7   9
HETATM    9  C10 UNL     1     -34.797  13.285  -5.269  1.00 20.00     0.074 C 
HETATM   10  C8  UNL     1     -35.268  14.234  -6.357  1.00 20.00     0.013 C 
ENDBRANCH   7   9
ENDBRANCH   5   7
BRANCH   6  11
HETATM   11  C11 UNL     1     -34.782  16.994  -0.335  1.00 20.00     0.000 C 
HETATM   12  C9  UNL     1     -33.894  18.079   0.180  1.00 20.00     0.005 C 
ENDBRANCH   6  11
TORSDOF 3
ENDMDL
MODEL 3
REMARK VINA RESULT:      -4.8     11.199     11.955
REMARK  3 active torsions:
REMARK  status: ('A' for Active; 'I' for Inactive)
REMARK    1  A    between atoms: C1_1  and  C6_6 
REMARK    2  A    between atoms: C1_1  and  C10_10 
REMARK    3  A    between atoms: C7_7  and  C11_11 
ROOT
HETATM    1  C2  UNL     1     -34.560   5.052   2.599  1.00 20.00     0.001 C 
HETATM    2  C3  UNL     1     -33.618   6.198   2.237  1.00 20.00     0.012 C 
HETATM    3  C4  UNL     1     -35.140   5.222   4.001  1.00 20.00     0.005 C 
HETATM    4  C5  UNL     1     -33.098   6.546   4.684  1.00 20.00     0.016 C 
HETATM    5  C6  UNL     1     -32.523   6.361   3.284  1.00 20.00     0.055 C 
HETATM    6  C7  UNL     1     -34.038   5.390   5.056  1.00 20.00    -0.014 C 
ENDROOT
BRANCH   5   7
HETATM    7  C1  UNL     1     -31.742   7.614   2.938  1.00 20.00     0.130 C 
HETATM    8  O12 UNL     1     -30.970   8.125   3.749  1.00 20.00    -0.298 OA
BRANCH   7   9
HETATM    9  C10 UNL     1     -31.972   8.183   1.550  1.00 20.00     0.074 C 
HETATM   10  C8  UNL     1     -32.415   9.634   1.579  1.00 20.00     0.013 C 
ENDBRANCH   7   9
ENDBRANCH   5   7
BRANCH   6  11
HETATM   11  C11 UNL     1     -34.646   5.613   6.441  1.00 20.00     0.000 C 
HETATM   12  C9  UNL     1     -34.167   6.886   7.056  1.00 20.00     0.005 C 
ENDBRANCH   6  11
TORSDOF 3
ENDMDL
MODEL 4
REMARK VINA RESULT:      -4.7      2.877      5.220
REMARK  3 active torsions:
REMARK  status: ('A' for Active; 'I' for Inactive)
REMARK    1  A    between atoms: C1_1  and  C6_6 
REMARK    2  A    between atoms: C1_1  and  C10_10 
REMARK    3  A    between atoms: C7_7  and  C11_11 
ROOT
HETATM    1  C2  UNL     1     -33.576  17.362  -5.104  1.00 20.00     0.001 C 
HETATM    2  C3  UNL     1     -34.207  17.996  -3.867  1.00 20.00     0.012 C 
HETATM    3  C4  UNL     1     -33.761  15.846  -5.116  1.00 20.00     0.005 C 
HETATM    4  C5  UNL     1     -33.873  15.843  -2.590  1.00 20.00     0.016 C 
HETATM    5  C6  UNL     1     -33.678  17.355  -2.590  1.00 20.00     0.055 C 
HETATM    6  C7  UNL     1     -33.232  15.199  -3.828  1.00 20.00    -0.014 C 
ENDROOT
BRANCH   5   7
HETATM    7  C1  UNL     1     -34.473  17.922  -1.430  1.00 20.00     0.130 C 
HETATM    8  O12 UNL     1     -34.824  19.101  -1.417  1.00 20.00    -0.298 OA
BRANCH   7   9
HETATM    9  C10 UNL     1     -34.801  16.954  -0.308  1.00 20.00     0.074 C 
HETATM   10  C8  UNL     1     -35.160  17.659   0.987  1.00 20.00     0.013 C 
ENDBRANCH   7   9
ENDBRANCH   5   7
BRANCH   6  11
HETATM   11  C11 UNL     1     -33.477  13.691  -3.841  1.00 20.00     0.000 C 
HETATM   12  C9  UNL     1     -34.730  13.342  -4.573  1.00 20.00     0.005 C 
ENDBRANCH   6  11
TORSDOF 3
ENDMDL
MODEL 5
REMARK VINA RESULT:      -4.7      1.840      2.829
REMARK  3 active torsions:
REMARK  status: ('A' for Active; 'I' for Inactive)
REMARK    1  A    between atoms: C1_1  and  C6_6 
REMARK    2  A    between atoms: C1_1  and  C10_10 
REMARK    3  A    between atoms: C7_7  and  C11_11 
ROOT
HETATM    1  C2  UNL     1     -34.016  13.610  -4.420  1.00 20.00     0.001 C 
HETATM    2  C3  UNL     1     -35.539  13.551  -4.509  1.00 20.00     0.012 C 
HETATM    3  C4  UNL     1     -33.553  14.457  -3.237  1.00 20.00     0.005 C 
HETATM    4  C5  UNL     1     -35.693  15.796  -3.362  1.00 20.00     0.016 C 
HETATM    5  C6  UNL     1     -36.141  14.950  -4.549  1.00 20.00     0.055 C 
HETATM    6  C7  UNL     1     -34.162  15.865  -3.274  1.00 20.00    -0.014 C 
ENDROOT
BRANCH   5   7
HETATM    7  C1  UNL     1     -37.649  14.803  -4.467  1.00 20.00     0.130 C 
HETATM    8  O12 UNL     1     -38.186  14.327  -3.468  1.00 20.00    -0.298 OA
BRANCH   7   9
HETATM    9  C10 UNL     1     -38.433  15.274  -5.678  1.00 20.00     0.074 C 
HETATM   10  C8  UNL     1     -37.538  15.803  -6.784  1.00 20.00     0.013 C 
ENDBRANCH   7   9
ENDBRANCH   5   7
BRANCH   6  11
HETATM   11  C11 UNL     1     -33.727  16.674  -2.053  1.00 20.00     0.000 C 
HETATM   12  C9  UNL     1     -34.699  16.541  -0.927  1.00 20.00     0.005 C 
ENDBRANCH   6  11
TORSDOF 3
ENDMDL
MODEL 6
REMARK VINA RESULT:      -4.7      2.097      4.827
REMARK  3 active torsions:
REMARK  status: ('A' for Active; 'I' for Inactive)
REMARK    1  A    between atoms: C1_1  and  C6_6 
REMARK    2  A    between atoms: C1_1  and  C10_10 
REMARK    3  A    between atoms: C7_7  and  C11_11 
ROOT
HETATM    1  C2  UNL     1     -34.109  13.657  -3.829  1.00 20.00     0.001 C 
HETATM    2  C3  UNL     1     -33.507  14.985  -3.379  1.00 20.00     0.012 C 
HETATM    3  C4  UNL     1     -35.421  13.861  -4.583  1.00 20.00     0.005 C 
HETATM    4  C5  UNL     1     -35.813  16.012  -3.314  1.00 20.00     0.016 C 
HETATM    5  C6  UNL     1     -34.506  15.793  -2.560  1.00 20.00     0.055 C 
HETATM    6  C7  UNL     1     -36.428  14.678  -3.760  1.00 20.00    -0.014 C 
ENDROOT
BRANCH   5   7
HETATM    7  C1  UNL     1     -33.890  17.155  -2.299  1.00 20.00     0.130 C 
HETATM    8  O12 UNL     1     -33.594  17.905  -3.229  1.00 20.00    -0.298 OA
BRANCH   7   9
HETATM    9  C10 UNL     1     -33.671  17.521  -0.843  1.00 20.00     0.074 C 
HETATM   10  C8  UNL     1     -34.864  17.178   0.032  1.00 20.00     0.013 C 
ENDBRANCH   7   9
ENDBRANCH   5   7
BRANCH   6  11
HETATM   11  C11 UNL     1     -37.711  14.913  -4.557  1.00 20.00     0.000 C 
HETATM   12  C9  UNL     1     -38.914  14.925  -3.674  1.00 20.00     0.005 C 
ENDBRANCH   6  11
TORSDOF 3
ENDMDL
MODEL 7
REMARK VINA RESULT:      -4.7      1.871      2.341
REMARK  3 active torsions:
REMARK  status: ('A' for Active; 'I' for Inactive)
REMARK    1  A    between atoms: C1_1  and  C6_6 
REMARK    2  A    between atoms: C1_1  and  C10_10 
REMARK    3  A    between atoms: C7_7  and  C11_11 
ROOT
HETATM    1  C2  UNL     1     -36.606  17.514  -2.412  1.00 20.00     0.001 C 
HETATM    2  C3  UNL     1     -35.668  16.792  -3.376  1.00 20.00     0.012 C 
HETATM    3  C4  UNL     1     -35.832  18.255  -1.324  1.00 20.00     0.005 C 
HETATM    4  C5  UNL     1     -33.934  16.601  -1.550  1.00 20.00     0.016 C 
HETATM    5  C6  UNL     1     -34.721  15.862  -2.628  1.00 20.00     0.055 C 
HETATM    6  C7  UNL     1     -34.873  17.321  -0.572  1.00 20.00    -0.014 C 
ENDROOT
BRANCH   5   7
HETATM    7  C1  UNL     1     -33.723  15.319  -3.634  1.00 20.00     0.130 C 
HETATM    8  O12 UNL     1     -32.993  16.074  -4.275  1.00 20.00    -0.298 OA
BRANCH   7   9
HETATM    9  C10 UNL     1     -33.689  13.810  -3.792  1.00 20.00     0.074 C 
HETATM   10  C8  UNL     1     -34.946  13.262  -4.445  1.00 20.00     0.013 C 
ENDBRANCH   7   9
ENDBRANCH   5   7
BRANCH   6  11
HETATM   11  C11 UNL     1     -34.073  18.097   0.473  1.00 20.00     0.000 C 
HETATM   12  C9  UNL     1     -32.784  18.605  -0.083  1.00 20.00     0.005 C 
ENDBRANCH   6  11
TORSDOF 3
ENDMDL
MODEL 8
REMARK VINA RESULT:      -4.7      2.117      5.159
REMARK  3 active torsions:
REMARK  status: ('A' for Active; 'I' for Inactive)
REMARK    1  A    between atoms: C1_1  and  C6_6 
REMARK    2  A    between atoms: C1_1  and  C10_10 
REMARK    3  A    between atoms: C7_7  and  C11_11 
ROOT
HETATM    1  C2  UNL     1     -33.679  13.662  -3.937  1.00 20.00     0.001 C 
HETATM    2  C3  UNL     1     -33.244  14.994  -3.330  1.00 20.00     0.012 C 
HETATM    3  C4  UNL     1     -34.442  13.863  -5.245  1.00 20.00     0.005 C 
HETATM    4  C5  UNL     1     -35.189  16.145  -4.457  1.00 20.00     0.016 C 
HETATM    5  C6  UNL     1     -34.432  15.930  -3.150  1.00 20.00     0.055 C 
HETATM    6  C7  UNL     1     -35.637  14.809  -5.066  1.00 20.00    -0.014 C 
ENDROOT
BRANCH   5   7
HETATM    7  C1  UNL     1     -33.892  17.276  -2.704  1.00 20.00     0.130 C 
HETATM    8  O12 UNL     1     -33.693  18.180  -3.515  1.00 20.00    -0.298 OA
BRANCH   7   9
HETATM    9  C10 UNL     1     -33.619  17.427  -1.219  1.00 20.00     0.074 C 
HETATM   10  C8  UNL     1     -34.760  16.913  -0.360  1.00 20.00     0.013 C 
ENDBRANCH   7   9
ENDBRANCH   5   7
BRANCH   6  11
HETATM   11  C11 UNL     1     -36.351  15.036  -6.398  1.00 20.00     0.000 C 
HETATM   12  C9  UNL     1     -35.576  14.469  -7.542  1.00 20.00     0.005 C 
ENDBRANCH   6  11
TORSDOF 3
ENDMDL
MODEL 9
REMARK VINA RESULT:      -4.5      2.169      2.899
REMARK  3 active torsions:
REMARK  status: ('A' for Active; 'I' for Inactive)
REMARK    1  A    between atoms: C1_1  and  C6_6 
REMARK    2  A    between atoms: C1_1  and  C10_10 
REMARK    3  A    between atoms: C7_7  and  C11_11 
ROOT
HETATM    1  C2  UNL     1     -34.037  13.591  -4.096  1.00 20.00     0.001 C 
HETATM    2  C3  UNL     1     -34.592  13.965  -5.468  1.00 20.00     0.012 C 
HETATM    3  C4  UNL     1     -34.283  14.694  -3.069  1.00 20.00     0.005 C 
HETATM    4  C5  UNL     1     -34.294  16.413  -4.923  1.00 20.00     0.016 C 
HETATM    5  C6  UNL     1     -34.039  15.304  -5.938  1.00 20.00     0.055 C 
HETATM    6  C7  UNL     1     -33.729  16.045  -3.544  1.00 20.00    -0.014 C 
ENDROOT
BRANCH   5   7
HETATM    7  C1  UNL     1     -34.764  15.675  -7.218  1.00 20.00     0.130 C 
HETATM    8  O12 UNL     1     -34.632  16.790  -7.721  1.00 20.00    -0.298 OA
BRANCH   7   9
HETATM    9  C10 UNL     1     -35.644  14.597  -7.824  1.00 20.00     0.074 C 
HETATM   10  C8  UNL     1     -37.100  15.017  -7.918  1.00 20.00     0.013 C 
ENDBRANCH   7   9
ENDBRANCH   5   7
BRANCH   6  11
HETATM   11  C11 UNL     1     -34.034  17.142  -2.525  1.00 20.00     0.000 C 
HETATM   12  C9  UNL     1     -34.497  16.573  -1.224  1.00 20.00     0.005 C 
ENDBRANCH   6  11
TORSDOF 3
ENDMDL
