MODEL 1
REMARK VINA RESULT:      -4.2      0.000      0.000
REMARK  5 active torsions:
REMARK  status: ('A' for Active; 'I' for Inactive)
REMARK    1  A    between atoms: C4_4  and  C5_5 
REMARK    2  A    between atoms: C5_5  and  C7_7 
REMARK    3  A    between atoms: C6_6  and  C7_7 
REMARK    4  A    between atoms: C6_6  and  O10_10 
REMARK    5  A    between atoms: C7_7  and  N8_8 
ROOT
HETATM    1  C1  UNL     1     -34.540  13.227  -4.068  1.00 20.00     0.332 C 
HETATM    2  N8  UNL     1     -33.500  13.646  -3.730  1.00 20.00    -0.240 NA
HETATM    3  O9  UNL     1     -35.581  12.797  -4.405  1.00 20.00    -0.260 OA
ENDROOT
BRANCH   2   4
HETATM    4  C7  UNL     1     -33.453  15.109  -3.606  1.00 20.00     0.136 C 
BRANCH   4   5
HETATM    5  C5  UNL     1     -34.442  15.552  -2.519  1.00 20.00     0.029 C 
BRANCH   5   6
HETATM    6  C4  UNL     1     -33.918  16.742  -1.710  1.00 20.00    -0.002 C 
HETATM    7  C2  UNL     1     -34.699  16.920  -0.416  1.00 20.00     0.005 C 
ENDBRANCH   5   6
ENDBRANCH   4   5
BRANCH   4   8
HETATM    8  C6  UNL     1     -33.776  15.713  -4.972  1.00 20.00     0.194 C 
BRANCH   8   9
HETATM    9  O10 UNL     1     -32.914  16.808  -5.258  1.00 20.00    -0.394 OA
HETATM   10  C3  UNL     1     -33.632  18.032  -5.326  1.00 20.00     0.201 C 
ENDBRANCH   8   9
ENDBRANCH   4   8
ENDBRANCH   2   4
TORSDOF 5
ENDMDL
MODEL 2
REMARK VINA RESULT:      -4.1      1.424      3.349
REMARK  5 active torsions:
REMARK  status: ('A' for Active; 'I' for Inactive)
REMARK    1  A    between atoms: C4_4  and  C5_5 
REMARK    2  A    between atoms: C5_5  and  C7_7 
REMARK    3  A    between atoms: C6_6  and  C7_7 
REMARK    4  A    between atoms: C6_6  and  O10_10 
REMARK    5  A    between atoms: C7_7  and  N8_8 
ROOT
HETATM    1  C1  UNL     1     -33.403  17.290  -5.232  1.00 20.00     0.332 C 
HETATM    2  N8  UNL     1     -32.919  16.284  -4.879  1.00 20.00    -0.240 NA
HETATM    3  O9  UNL     1     -33.882  18.301  -5.594  1.00 20.00    -0.260 OA
ENDROOT
BRANCH   2   4
HETATM    4  C7  UNL     1     -33.669  15.598  -3.818  1.00 20.00     0.136 C 
BRANCH   4   5
HETATM    5  C5  UNL     1     -33.600  16.434  -2.534  1.00 20.00     0.029 C 
BRANCH   5   6
HETATM    6  C4  UNL     1     -34.795  16.177  -1.610  1.00 20.00    -0.002 C 
HETATM    7  C2  UNL     1     -34.672  16.961  -0.312  1.00 20.00     0.005 C 
ENDBRANCH   5   6
ENDBRANCH   4   5
BRANCH   4   8
HETATM    8  C6  UNL     1     -33.072  14.202  -3.640  1.00 20.00     0.194 C 
BRANCH   8   9
HETATM    9  O10 UNL     1     -34.095  13.238  -3.426  1.00 20.00    -0.394 OA
HETATM   10  C3  UNL     1     -35.161  13.393  -4.353  1.00 20.00     0.201 C 
ENDBRANCH   8   9
ENDBRANCH   4   8
ENDBRANCH   2   4
TORSDOF 5
ENDMDL
MODEL 3
REMARK VINA RESULT:      -3.9      1.671      3.567
REMARK  5 active torsions:
REMARK  status: ('A' for Active; 'I' for Inactive)
REMARK    1  A    between atoms: C4_4  and  C5_5 
REMARK    2  A    between atoms: C5_5  and  C7_7 
REMARK    3  A    between atoms: C6_6  and  C7_7 
REMARK    4  A    between atoms: C6_6  and  O10_10 
REMARK    5  A    between atoms: C7_7  and  N8_8 
ROOT
HETATM    1  C1  UNL     1     -34.273  13.456  -4.025  1.00 20.00     0.332 C 
HETATM    2  N8  UNL     1     -33.550  14.261  -3.577  1.00 20.00    -0.240 NA
HETATM    3  O9  UNL     1     -34.994  12.641  -4.472  1.00 20.00    -0.260 OA
ENDROOT
BRANCH   2   4
HETATM    4  C7  UNL     1     -33.998  15.646  -3.775  1.00 20.00     0.136 C 
BRANCH   4   5
HETATM    5  C5  UNL     1     -33.247  16.250  -4.968  1.00 20.00     0.029 C 
BRANCH   5   6
HETATM    6  C4  UNL     1     -34.182  16.580  -6.136  1.00 20.00    -0.002 C 
HETATM    7  C2  UNL     1     -34.329  15.396  -7.080  1.00 20.00     0.005 C 
ENDBRANCH   5   6
ENDBRANCH   4   5
BRANCH   4   8
HETATM    8  C6  UNL     1     -33.753  16.416  -2.477  1.00 20.00     0.194 C 
BRANCH   8   9
HETATM    9  O10 UNL     1     -34.704  16.051  -1.486  1.00 20.00    -0.394 OA
HETATM   10  C3  UNL     1     -34.709  16.973  -0.404  1.00 20.00     0.201 C 
ENDBRANCH   8   9
ENDBRANCH   4   8
ENDBRANCH   2   4
TORSDOF 5
ENDMDL
MODEL 4
REMARK VINA RESULT:      -3.9      1.988      2.643
REMARK  5 active torsions:
REMARK  status: ('A' for Active; 'I' for Inactive)
REMARK    1  A    between atoms: C4_4  and  C5_5 
REMARK    2  A    between atoms: C5_5  and  C7_7 
REMARK    3  A    between atoms: C6_6  and  C7_7 
REMARK    4  A    between atoms: C6_6  and  O10_10 
REMARK    5  A    between atoms: C7_7  and  N8_8 
ROOT
HETATM    1  C1  UNL     1     -34.613  13.644  -4.918  1.00 20.00     0.332 C 
HETATM    2  N8  UNL     1     -34.283  14.725  -5.226  1.00 20.00    -0.240 NA
HETATM    3  O9  UNL     1     -34.940  12.555  -4.616  1.00 20.00    -0.260 OA
ENDROOT
BRANCH   2   4
HETATM    4  C7  UNL     1     -34.754  15.778  -4.317  1.00 20.00     0.136 C 
BRANCH   4   5
HETATM    5  C5  UNL     1     -34.427  15.378  -2.873  1.00 20.00     0.029 C 
BRANCH   5   6
HETATM    6  C4  UNL     1     -33.876  16.551  -2.056  1.00 20.00    -0.002 C 
HETATM    7  C2  UNL     1     -34.628  16.716  -0.745  1.00 20.00     0.005 C 
ENDBRANCH   5   6
ENDBRANCH   4   5
BRANCH   4   8
HETATM    8  C6  UNL     1     -36.252  15.970  -4.547  1.00 20.00     0.194 C 
BRANCH   8   9
HETATM    9  O10 UNL     1     -36.999  15.506  -3.430  1.00 20.00    -0.394 OA
HETATM   10  C3  UNL     1     -38.156  14.788  -3.837  1.00 20.00     0.201 C 
ENDBRANCH   8   9
ENDBRANCH   4   8
ENDBRANCH   2   4
TORSDOF 5
ENDMDL
MODEL 5
REMARK VINA RESULT:      -3.8      1.713      1.905
REMARK  5 active torsions:
REMARK  status: ('A' for Active; 'I' for Inactive)
REMARK    1  A    between atoms: C4_4  and  C5_5 
REMARK    2  A    between atoms: C5_5  and  C7_7 
REMARK    3  A    between atoms: C6_6  and  C7_7 
REMARK    4  A    between atoms: C6_6  and  O10_10 
REMARK    5  A    between atoms: C7_7  and  N8_8 
ROOT
HETATM    1  C1  UNL     1     -36.786  15.040  -3.481  1.00 20.00     0.332 C 
HETATM    2  N8  UNL     1     -36.037  15.887  -3.176  1.00 20.00    -0.240 NA
HETATM    3  O9  UNL     1     -37.544  14.195  -3.790  1.00 20.00    -0.260 OA
ENDROOT
BRANCH   2   4
HETATM    4  C7  UNL     1     -34.681  15.409  -2.872  1.00 20.00     0.136 C 
BRANCH   4   5
HETATM    5  C5  UNL     1     -33.967  16.449  -2.000  1.00 20.00     0.029 C 
BRANCH   5   6
HETATM    6  C4  UNL     1     -34.696  16.694  -0.675  1.00 20.00    -0.002 C 
HETATM    7  C2  UNL     1     -34.122  17.896   0.060  1.00 20.00     0.005 C 
ENDBRANCH   5   6
ENDBRANCH   4   5
BRANCH   4   8
HETATM    8  C6  UNL     1     -33.959  15.157  -4.195  1.00 20.00     0.194 C 
BRANCH   8   9
HETATM    9  O10 UNL     1     -33.083  16.233  -4.506  1.00 20.00    -0.394 OA
HETATM   10  C3  UNL     1     -33.564  16.995  -5.604  1.00 20.00     0.201 C 
ENDBRANCH   8   9
ENDBRANCH   4   8
ENDBRANCH   2   4
TORSDOF 5
ENDMDL
MODEL 6
REMARK VINA RESULT:      -3.7      2.731      4.041
REMARK  5 active torsions:
REMARK  status: ('A' for Active; 'I' for Inactive)
REMARK    1  A    between atoms: C4_4  and  C5_5 
REMARK    2  A    between atoms: C5_5  and  C7_7 
REMARK    3  A    between atoms: C6_6  and  C7_7 
REMARK    4  A    between atoms: C6_6  and  O10_10 
REMARK    5  A    between atoms: C7_7  and  N8_8 
ROOT
HETATM    1  C1  UNL     1     -37.190  14.807  -3.902  1.00 20.00     0.332 C 
HETATM    2  N8  UNL     1     -36.220  15.445  -4.057  1.00 20.00    -0.240 NA
HETATM    3  O9  UNL     1     -38.168  14.173  -3.744  1.00 20.00    -0.260 OA
ENDROOT
BRANCH   2   4
HETATM    4  C7  UNL     1     -35.135  14.732  -4.745  1.00 20.00     0.136 C 
BRANCH   4   5
HETATM    5  C5  UNL     1     -35.565  14.438  -6.188  1.00 20.00     0.029 C 
BRANCH   5   6
HETATM    6  C4  UNL     1     -34.577  15.002  -7.214  1.00 20.00    -0.002 C 
HETATM    7  C2  UNL     1     -34.277  16.469  -6.947  1.00 20.00     0.005 C 
ENDBRANCH   5   6
ENDBRANCH   4   5
BRANCH   4   8
HETATM    8  C6  UNL     1     -34.825  13.461  -3.956  1.00 20.00     0.194 C 
BRANCH   8   9
HETATM    9  O10 UNL     1     -33.428  13.338  -3.723  1.00 20.00    -0.394 OA
HETATM   10  C3  UNL     1     -32.789  14.607  -3.701  1.00 20.00     0.201 C 
ENDBRANCH   8   9
ENDBRANCH   4   8
ENDBRANCH   2   4
TORSDOF 5
ENDMDL
MODEL 7
REMARK VINA RESULT:      -3.7      2.598      4.452
REMARK  5 active torsions:
REMARK  status: ('A' for Active; 'I' for Inactive)
REMARK    1  A    between atoms: C4_4  and  C5_5 
REMARK    2  A    between atoms: C5_5  and  C7_7 
REMARK    3  A    between atoms: C6_6  and  C7_7 
REMARK    4  A    between atoms: C6_6  and  O10_10 
REMARK    5  A    between atoms: C7_7  and  N8_8 
ROOT
HETATM    1  C1  UNL     1     -33.408  14.117  -3.708  1.00 20.00     0.332 C 
HETATM    2  N8  UNL     1     -34.149  13.216  -3.810  1.00 20.00    -0.240 NA
HETATM    3  O9  UNL     1     -32.658  15.016  -3.601  1.00 20.00    -0.260 OA
ENDROOT
BRANCH   2   4
HETATM    4  C7  UNL     1     -35.345  13.510  -4.612  1.00 20.00     0.136 C 
BRANCH   4   5
HETATM    5  C5  UNL     1     -34.911  14.013  -5.995  1.00 20.00     0.029 C 
BRANCH   5   6
HETATM    6  C4  UNL     1     -35.694  15.255  -6.432  1.00 20.00    -0.002 C 
HETATM    7  C2  UNL     1     -36.656  14.933  -7.565  1.00 20.00     0.005 C 
ENDBRANCH   5   6
ENDBRANCH   4   5
BRANCH   4   8
HETATM    8  C6  UNL     1     -36.186  14.535  -3.853  1.00 20.00     0.194 C 
BRANCH   8   9
HETATM    9  O10 UNL     1     -37.538  14.106  -3.753  1.00 20.00    -0.394 OA
HETATM   10  C3  UNL     1     -38.438  15.206  -3.770  1.00 20.00     0.201 C 
ENDBRANCH   8   9
ENDBRANCH   4   8
ENDBRANCH   2   4
TORSDOF 5
ENDMDL
MODEL 8
REMARK VINA RESULT:      -3.7      2.624      3.949
REMARK  5 active torsions:
REMARK  status: ('A' for Active; 'I' for Inactive)
REMARK    1  A    between atoms: C4_4  and  C5_5 
REMARK    2  A    between atoms: C5_5  and  C7_7 
REMARK    3  A    between atoms: C6_6  and  C7_7 
REMARK    4  A    between atoms: C6_6  and  O10_10 
REMARK    5  A    between atoms: C7_7  and  N8_8 
ROOT
HETATM    1  C1  UNL     1     -33.664  13.416  -4.008  1.00 20.00     0.332 C 
HETATM    2  N8  UNL     1     -34.596  12.899  -4.495  1.00 20.00    -0.240 NA
HETATM    3  O9  UNL     1     -32.725  13.927  -3.518  1.00 20.00    -0.260 OA
ENDROOT
BRANCH   2   4
HETATM    4  C7  UNL     1     -35.506  13.826  -5.181  1.00 20.00     0.136 C 
BRANCH   4   5
HETATM    5  C5  UNL     1     -34.701  14.679  -6.170  1.00 20.00     0.029 C 
BRANCH   5   6
HETATM    6  C4  UNL     1     -34.899  16.180  -5.936  1.00 20.00    -0.002 C 
HETATM    7  C2  UNL     1     -33.591  16.859  -5.561  1.00 20.00     0.005 C 
ENDBRANCH   5   6
ENDBRANCH   4   5
BRANCH   4   8
HETATM    8  C6  UNL     1     -36.215  14.669  -4.122  1.00 20.00     0.194 C 
BRANCH   8   9
HETATM    9  O10 UNL     1     -37.459  14.084  -3.759  1.00 20.00    -0.394 OA
HETATM   10  C3  UNL     1     -38.512  15.038  -3.783  1.00 20.00     0.201 C 
ENDBRANCH   8   9
ENDBRANCH   4   8
ENDBRANCH   2   4
TORSDOF 5
ENDMDL
MODEL 9
REMARK VINA RESULT:      -3.6      2.211      3.365
REMARK  5 active torsions:
REMARK  status: ('A' for Active; 'I' for Inactive)
REMARK    1  A    between atoms: C4_4  and  C5_5 
REMARK    2  A    between atoms: C5_5  and  C7_7 
REMARK    3  A    between atoms: C6_6  and  C7_7 
REMARK    4  A    between atoms: C6_6  and  O10_10 
REMARK    5  A    between atoms: C7_7  and  N8_8 
ROOT
HETATM    1  C1  UNL     1     -34.144  16.740  -1.763  1.00 20.00     0.332 C 
HETATM    2  N8  UNL     1     -33.645  17.115  -2.754  1.00 20.00    -0.240 NA
HETATM    3  O9  UNL     1     -34.643  16.371  -0.764  1.00 20.00    -0.260 OA
ENDROOT
BRANCH   2   4
HETATM    4  C7  UNL     1     -33.760  16.175  -3.878  1.00 20.00     0.136 C 
BRANCH   4   5
HETATM    5  C5  UNL     1     -32.789  15.007  -3.656  1.00 20.00     0.029 C 
BRANCH   5   6
HETATM    6  C4  UNL     1     -33.478  13.646  -3.800  1.00 20.00    -0.002 C 
HETATM    7  C2  UNL     1     -34.988  13.796  -3.901  1.00 20.00     0.005 C 
ENDBRANCH   5   6
ENDBRANCH   4   5
BRANCH   4   8
HETATM    8  C6  UNL     1     -33.473  16.939  -5.169  1.00 20.00     0.194 C 
BRANCH   8   9
HETATM    9  O10 UNL     1     -34.512  16.738  -6.118  1.00 20.00    -0.394 OA
HETATM   10  C3  UNL     1     -34.233  15.638  -6.973  1.00 20.00     0.201 C 
ENDBRANCH   8   9
ENDBRANCH   4   8
ENDBRANCH   2   4
TORSDOF 5
ENDMDL
