MODEL 1
REMARK VINA RESULT:      -5.7      0.000      0.000
REMARK  1 active torsions:
REMARK  status: ('A' for Active; 'I' for Inactive)
REMARK    1  A    between atoms: C2_2  and  C3_3 
ROOT
HETATM    1  C1  UNL     1     -34.776   4.923   4.117  1.00 20.00    -0.020 C 
HETATM    2  C2  UNL     1     -34.174   6.042   4.536  1.00 20.00    -0.062 C 
HETATM    3  C5  UNL     1     -35.239   4.084   5.261  1.00 20.00     0.028 C 
HETATM    4  C6  UNL     1     -34.138   6.127   6.028  1.00 20.00     0.038 C 
HETATM    5  C7  UNL     1     -34.515   4.708   6.454  1.00 20.00     0.008 C 
ENDROOT
BRANCH   2   6
HETATM    6  C3  UNL     1     -33.631   7.070   3.707  1.00 20.00     0.002 C 
HETATM    7  C4  UNL     1     -32.512   6.926   2.977  1.00 20.00    -0.030 C 
HETATM    8  C8  UNL     1     -31.938   8.000   2.111  1.00 20.00     0.036 C 
ENDBRANCH   2   6
TORSDOF 1
ENDMDL
MODEL 2
REMARK VINA RESULT:      -5.5      0.288      1.418
REMARK  1 active torsions:
REMARK  status: ('A' for Active; 'I' for Inactive)
REMARK    1  A    between atoms: C2_2  and  C3_3 
ROOT
HETATM    1  C1  UNL     1     -33.964   6.254   5.755  1.00 20.00    -0.020 C 
HETATM    2  C2  UNL     1     -34.081   6.042   4.439  1.00 20.00    -0.062 C 
HETATM    3  C5  UNL     1     -34.494   5.107   6.548  1.00 20.00     0.028 C 
HETATM    4  C6  UNL     1     -34.710   4.718   4.145  1.00 20.00     0.038 C 
HETATM    5  C7  UNL     1     -35.271   4.304   5.506  1.00 20.00     0.008 C 
ENDROOT
BRANCH   2   6
HETATM    6  C3  UNL     1     -33.659   6.926   3.399  1.00 20.00     0.002 C 
HETATM    7  C4  UNL     1     -32.373   7.122   3.064  1.00 20.00    -0.030 C 
HETATM    8  C8  UNL     1     -31.927   8.048   1.981  1.00 20.00     0.036 C 
ENDBRANCH   2   6
TORSDOF 1
ENDMDL
MODEL 3
REMARK VINA RESULT:      -4.4     11.712     12.165
REMARK  1 active torsions:
REMARK  status: ('A' for Active; 'I' for Inactive)
REMARK    1  A    between atoms: C2_2  and  C3_3 
ROOT
HETATM    1  C1  UNL     1     -33.432  14.538  -3.645  1.00 20.00    -0.020 C 
HETATM    2  C2  UNL     1     -34.324  15.315  -3.021  1.00 20.00    -0.062 C 
HETATM    3  C5  UNL     1     -34.096  13.558  -4.555  1.00 20.00     0.028 C 
HETATM    4  C6  UNL     1     -35.726  14.978  -3.414  1.00 20.00     0.038 C 
HETATM    5  C7  UNL     1     -35.560  13.634  -4.125  1.00 20.00     0.008 C 
ENDROOT
BRANCH   2   6
HETATM    6  C3  UNL     1     -34.029  16.365  -2.098  1.00 20.00     0.002 C 
HETATM    7  C4  UNL     1     -34.685  16.544  -0.939  1.00 20.00    -0.030 C 
HETATM    8  C8  UNL     1     -34.383  17.642   0.028  1.00 20.00     0.036 C 
ENDBRANCH   2   6
TORSDOF 1
ENDMDL
MODEL 4
REMARK VINA RESULT:      -4.4     11.645     12.122
REMARK  1 active torsions:
REMARK  status: ('A' for Active; 'I' for Inactive)
REMARK    1  A    between atoms: C2_2  and  C3_3 
ROOT
HETATM    1  C1  UNL     1     -35.690  14.890  -3.470  1.00 20.00    -0.020 C 
HETATM    2  C2  UNL     1     -34.451  15.179  -3.057  1.00 20.00    -0.062 C 
HETATM    3  C5  UNL     1     -35.717  13.665  -4.321  1.00 20.00     0.028 C 
HETATM    4  C6  UNL     1     -33.452  14.192  -3.569  1.00 20.00     0.038 C 
HETATM    5  C7  UNL     1     -34.240  13.446  -4.646  1.00 20.00     0.008 C 
ENDROOT
BRANCH   2   6
HETATM    6  C3  UNL     1     -34.073  16.271  -2.217  1.00 20.00     0.002 C 
HETATM    7  C4  UNL     1     -34.618  16.507  -1.012  1.00 20.00    -0.030 C 
HETATM    8  C8  UNL     1     -34.229  17.650  -0.131  1.00 20.00     0.036 C 
ENDBRANCH   2   6
TORSDOF 1
ENDMDL
MODEL 5
REMARK VINA RESULT:      -4.2      9.339     10.574
REMARK  1 active torsions:
REMARK  status: ('A' for Active; 'I' for Inactive)
REMARK    1  A    between atoms: C2_2  and  C3_3 
ROOT
HETATM    1  C1  UNL     1     -41.954   6.142  -2.183  1.00 20.00    -0.020 C 
HETATM    2  C2  UNL     1     -41.680   4.851  -1.962  1.00 20.00    -0.062 C 
HETATM    3  C5  UNL     1     -41.217   7.032  -1.239  1.00 20.00     0.028 C 
HETATM    4  C6  UNL     1     -40.716   4.675  -0.833  1.00 20.00     0.038 C 
HETATM    5  C7  UNL     1     -40.711   6.056  -0.177  1.00 20.00     0.008 C 
ENDROOT
BRANCH   2   6
HETATM    6  C3  UNL     1     -42.199   3.739  -2.693  1.00 20.00     0.002 C 
HETATM    7  C4  UNL     1     -41.461   2.679  -3.060  1.00 20.00    -0.030 C 
HETATM    8  C8  UNL     1     -41.998   1.515  -3.828  1.00 20.00     0.036 C 
ENDBRANCH   2   6
TORSDOF 1
ENDMDL
MODEL 6
REMARK VINA RESULT:      -4.2     11.648     12.726
REMARK  1 active torsions:
REMARK  status: ('A' for Active; 'I' for Inactive)
REMARK    1  A    between atoms: C2_2  and  C3_3 
ROOT
HETATM    1  C1  UNL     1     -34.629  14.126  -3.614  1.00 20.00    -0.020 C 
HETATM    2  C2  UNL     1     -34.117  15.362  -3.624  1.00 20.00    -0.062 C 
HETATM    3  C5  UNL     1     -34.746  13.566  -4.992  1.00 20.00     0.028 C 
HETATM    4  C6  UNL     1     -33.811  15.824  -5.012  1.00 20.00     0.038 C 
HETATM    5  C7  UNL     1     -34.541  14.795  -5.876  1.00 20.00     0.008 C 
ENDROOT
BRANCH   2   6
HETATM    6  C3  UNL     1     -33.856  16.179  -2.481  1.00 20.00     0.002 C 
HETATM    7  C4  UNL     1     -34.735  16.367  -1.484  1.00 20.00    -0.030 C 
HETATM    8  C8  UNL     1     -34.468  17.223  -0.288  1.00 20.00     0.036 C 
ENDBRANCH   2   6
TORSDOF 1
ENDMDL
MODEL 7
REMARK VINA RESULT:      -4.0     12.047     12.606
REMARK  1 active torsions:
REMARK  status: ('A' for Active; 'I' for Inactive)
REMARK    1  A    between atoms: C2_2  and  C3_3 
ROOT
HETATM    1  C1  UNL     1     -35.052  17.370   0.679  1.00 20.00    -0.020 C 
HETATM    2  C2  UNL     1     -34.394  17.215  -0.476  1.00 20.00    -0.062 C 
HETATM    3  C5  UNL     1     -34.444  18.442   1.520  1.00 20.00     0.028 C 
HETATM    4  C6  UNL     1     -33.241  18.160  -0.589  1.00 20.00     0.038 C 
HETATM    5  C7  UNL     1     -33.097  18.684   0.840  1.00 20.00     0.008 C 
ENDROOT
BRANCH   2   6
HETATM    6  C3  UNL     1     -34.720  16.292  -1.517  1.00 20.00     0.002 C 
HETATM    7  C4  UNL     1     -33.891  15.988  -2.530  1.00 20.00    -0.030 C 
HETATM    8  C8  UNL     1     -34.228  15.026  -3.622  1.00 20.00     0.036 C 
ENDBRANCH   2   6
TORSDOF 1
ENDMDL
MODEL 8
REMARK VINA RESULT:      -4.0     11.657     12.666
REMARK  1 active torsions:
REMARK  status: ('A' for Active; 'I' for Inactive)
REMARK    1  A    between atoms: C2_2  and  C3_3 
ROOT
HETATM    1  C1  UNL     1     -34.681  16.759  -0.442  1.00 20.00    -0.020 C 
HETATM    2  C2  UNL     1     -34.445  16.609  -1.751  1.00 20.00    -0.062 C 
HETATM    3  C5  UNL     1     -34.167  18.065   0.064  1.00 20.00     0.028 C 
HETATM    4  C6  UNL     1     -33.734  17.792  -2.326  1.00 20.00     0.038 C 
HETATM    5  C7  UNL     1     -33.270  18.543  -1.077  1.00 20.00     0.008 C 
ENDROOT
BRANCH   2   6
HETATM    6  C3  UNL     1     -34.819  15.488  -2.554  1.00 20.00     0.002 C 
HETATM    7  C4  UNL     1     -33.956  14.797  -3.316  1.00 20.00    -0.030 C 
HETATM    8  C8  UNL     1     -34.343  13.626  -4.161  1.00 20.00     0.036 C 
ENDBRANCH   2   6
TORSDOF 1
ENDMDL
MODEL 9
REMARK VINA RESULT:      -3.8     11.834     12.740
REMARK  1 active torsions:
REMARK  status: ('A' for Active; 'I' for Inactive)
REMARK    1  A    between atoms: C2_2  and  C3_3 
ROOT
HETATM    1  C1  UNL     1     -34.140  15.774  -4.532  1.00 20.00    -0.020 C 
HETATM    2  C2  UNL     1     -34.823  15.137  -3.573  1.00 20.00    -0.062 C 
HETATM    3  C5  UNL     1     -34.222  15.055  -5.838  1.00 20.00     0.028 C 
HETATM    4  C6  UNL     1     -35.468  13.890  -4.086  1.00 20.00     0.038 C 
HETATM    5  C7  UNL     1     -34.782  13.690  -5.438  1.00 20.00     0.008 C 
ENDROOT
BRANCH   2   6
HETATM    6  C3  UNL     1     -34.966  15.559  -2.216  1.00 20.00     0.002 C 
HETATM    7  C4  UNL     1     -34.407  16.675  -1.720  1.00 20.00    -0.030 C 
HETATM    8  C8  UNL     1     -34.551  17.119  -0.301  1.00 20.00     0.036 C 
ENDBRANCH   2   6
TORSDOF 1
ENDMDL
