MODEL 1
REMARK VINA RESULT:      -4.8      0.000      0.000
REMARK  3 active torsions:
REMARK  status: ('A' for Active; 'I' for Inactive)
REMARK    1  A    between atoms: C6_6  and  C10_10 
REMARK    2  A    between atoms: C7_7  and  N11_11 
REMARK    3  A    between atoms: C9_9  and  N11_11 
ROOT
HETATM    1  C1  UNL     1     -32.500   9.532  -0.035  1.00 20.00     0.013 C 
HETATM    2  C2  UNL     1     -32.170   8.899   0.931  1.00 20.00    -0.087 C 
HETATM    3  C9  UNL     1     -31.763   8.128   2.108  1.00 20.00     0.362 C 
ENDROOT
BRANCH   3   4
HETATM    4  N11 UNL     1     -32.931   7.644   2.836  1.00 20.00     0.098 N 
HETATM    5  H28 UNL     1     -33.067   8.223   3.666  1.00 20.00     0.317 HD
BRANCH   4   6
HETATM    6  C7  UNL     1     -32.762   6.249   3.237  1.00 20.00     0.222 C 
HETATM    7  C4  UNL     1     -33.908   5.385   2.713  1.00 20.00     0.036 C 
HETATM    8  C3  UNL     1     -35.047   5.552   3.722  1.00 20.00     0.007 C 
HETATM    9  C6  UNL     1     -34.404   6.089   5.011  1.00 20.00    -0.013 C 
HETATM   10  C5  UNL     1     -32.893   6.064   4.748  1.00 20.00     0.040 C 
BRANCH   9  11
HETATM   11  C10 UNL     1     -34.796   5.296   6.248  1.00 20.00     0.000 C 
HETATM   12  C8  UNL     1     -35.022   3.851   5.932  1.00 20.00     0.005 C 
ENDBRANCH   9  11
ENDBRANCH   4   6
ENDBRANCH   3   4
TORSDOF 3
ENDMDL
MODEL 2
REMARK VINA RESULT:      -4.6     10.771     11.816
REMARK  3 active torsions:
REMARK  status: ('A' for Active; 'I' for Inactive)
REMARK    1  A    between atoms: C6_6  and  C10_10 
REMARK    2  A    between atoms: C7_7  and  N11_11 
REMARK    3  A    between atoms: C9_9  and  N11_11 
ROOT
HETATM    1  C1  UNL     1     -32.510  18.742  -0.065  1.00 20.00     0.013 C 
HETATM    2  C2  UNL     1     -33.567  18.173  -0.045  1.00 20.00    -0.087 C 
HETATM    3  C9  UNL     1     -34.858  17.480  -0.018  1.00 20.00     0.362 C 
ENDROOT
BRANCH   3   4
HETATM    4  N11 UNL     1     -34.825  16.296  -0.868  1.00 20.00     0.098 N 
HETATM    5  H28 UNL     1     -34.069  15.684  -0.556  1.00 20.00     0.317 HD
BRANCH   4   6
HETATM    6  C7  UNL     1     -34.613  16.656  -2.268  1.00 20.00     0.222 C 
HETATM    7  C4  UNL     1     -35.908  16.530  -3.069  1.00 20.00     0.036 C 
HETATM    8  C3  UNL     1     -36.016  15.051  -3.452  1.00 20.00     0.007 C 
HETATM    9  C6  UNL     1     -34.603  14.464  -3.300  1.00 20.00    -0.013 C 
HETATM   10  C5  UNL     1     -33.700  15.663  -2.987  1.00 20.00     0.040 C 
BRANCH   9  11
HETATM   11  C10 UNL     1     -34.145  13.691  -4.527  1.00 20.00     0.000 C 
HETATM   12  C8  UNL     1     -34.833  14.162  -5.769  1.00 20.00     0.005 C 
ENDBRANCH   9  11
ENDBRANCH   4   6
ENDBRANCH   3   4
TORSDOF 3
ENDMDL
MODEL 3
REMARK VINA RESULT:      -4.5     10.845     12.424
REMARK  3 active torsions:
REMARK  status: ('A' for Active; 'I' for Inactive)
REMARK    1  A    between atoms: C6_6  and  C10_10 
REMARK    2  A    between atoms: C7_7  and  N11_11 
REMARK    3  A    between atoms: C9_9  and  N11_11 
ROOT
HETATM    1  C1  UNL     1     -34.796  17.013  -0.201  1.00 20.00     0.013 C 
HETATM    2  C2  UNL     1     -34.308  16.817  -1.280  1.00 20.00    -0.087 C 
HETATM    3  C9  UNL     1     -33.710  16.581  -2.597  1.00 20.00     0.362 C 
ENDROOT
BRANCH   3   4
HETATM    4  N11 UNL     1     -33.935  15.206  -3.026  1.00 20.00     0.098 N 
HETATM    5  H28 UNL     1     -33.169  14.919  -3.638  1.00 20.00     0.317 HD
BRANCH   4   6
HETATM    6  C7  UNL     1     -35.203  15.077  -3.743  1.00 20.00     0.222 C 
HETATM    7  C4  UNL     1     -35.475  13.622  -4.120  1.00 20.00     0.036 C 
HETATM    8  C3  UNL     1     -34.700  13.379  -5.418  1.00 20.00     0.007 C 
HETATM    9  C6  UNL     1     -34.409  14.768  -6.010  1.00 20.00    -0.013 C 
HETATM   10  C5  UNL     1     -35.163  15.755  -5.112  1.00 20.00     0.040 C 
BRANCH   9  11
HETATM   11  C10 UNL     1     -34.806  14.887  -7.473  1.00 20.00     0.000 C 
HETATM   12  C8  UNL     1     -36.290  14.830  -7.652  1.00 20.00     0.005 C 
ENDBRANCH   9  11
ENDBRANCH   4   6
ENDBRANCH   3   4
TORSDOF 3
ENDMDL
MODEL 4
REMARK VINA RESULT:      -4.5     10.957     12.037
REMARK  3 active torsions:
REMARK  status: ('A' for Active; 'I' for Inactive)
REMARK    1  A    between atoms: C6_6  and  C10_10 
REMARK    2  A    between atoms: C7_7  and  N11_11 
REMARK    3  A    between atoms: C9_9  and  N11_11 
ROOT
HETATM    1  C1  UNL     1     -37.035  15.811  -7.236  1.00 20.00     0.013 C 
HETATM    2  C2  UNL     1     -36.174  15.058  -6.873  1.00 20.00    -0.087 C 
HETATM    3  C9  UNL     1     -35.124  14.136  -6.432  1.00 20.00     0.362 C 
ENDROOT
BRANCH   3   4
HETATM    4  N11 UNL     1     -34.048  14.860  -5.766  1.00 20.00     0.098 N 
HETATM    5  H28 UNL     1     -33.203  14.798  -6.336  1.00 20.00     0.317 HD
BRANCH   4   6
HETATM    6  C7  UNL     1     -33.782  14.306  -4.440  1.00 20.00     0.222 C 
HETATM    7  C4  UNL     1     -35.075  14.138  -3.645  1.00 20.00     0.036 C 
HETATM    8  C3  UNL     1     -35.366  15.509  -3.029  1.00 20.00     0.007 C 
HETATM    9  C6  UNL     1     -34.038  16.285  -3.066  1.00 20.00    -0.013 C 
HETATM   10  C5  UNL     1     -32.994  15.275  -3.558  1.00 20.00     0.040 C 
BRANCH   9  11
HETATM   11  C10 UNL     1     -33.671  16.900  -1.724  1.00 20.00     0.000 C 
HETATM   12  C8  UNL     1     -34.739  16.678  -0.701  1.00 20.00     0.005 C 
ENDBRANCH   9  11
ENDBRANCH   4   6
ENDBRANCH   3   4
TORSDOF 3
ENDMDL
MODEL 5
REMARK VINA RESULT:      -4.4     10.879     12.353
REMARK  3 active torsions:
REMARK  status: ('A' for Active; 'I' for Inactive)
REMARK    1  A    between atoms: C6_6  and  C10_10 
REMARK    2  A    between atoms: C7_7  and  N11_11 
REMARK    3  A    between atoms: C9_9  and  N11_11 
ROOT
HETATM    1  C1  UNL     1     -35.115  17.405   0.645  1.00 20.00     0.013 C 
HETATM    2  C2  UNL     1     -34.637  17.081  -0.408  1.00 20.00    -0.087 C 
HETATM    3  C9  UNL     1     -34.051  16.690  -1.692  1.00 20.00     0.362 C 
ENDROOT
BRANCH   3   4
HETATM    4  N11 UNL     1     -34.895  15.711  -2.367  1.00 20.00     0.098 N 
HETATM    5  H28 UNL     1     -35.431  15.195  -1.668  1.00 20.00     0.317 HD
BRANCH   4   6
HETATM    6  C7  UNL     1     -34.094  14.776  -3.154  1.00 20.00     0.222 C 
HETATM    7  C4  UNL     1     -33.125  15.520  -4.071  1.00 20.00     0.036 C 
HETATM    8  C3  UNL     1     -33.936  15.893  -5.315  1.00 20.00     0.007 C 
HETATM    9  C6  UNL     1     -35.167  14.972  -5.317  1.00 20.00    -0.013 C 
HETATM   10  C5  UNL     1     -34.940  13.993  -4.158  1.00 20.00     0.040 C 
BRANCH   9  11
HETATM   11  C10 UNL     1     -35.380  14.264  -6.646  1.00 20.00     0.000 C 
HETATM   12  C8  UNL     1     -34.687  14.970  -7.768  1.00 20.00     0.005 C 
ENDBRANCH   9  11
ENDBRANCH   4   6
ENDBRANCH   3   4
TORSDOF 3
ENDMDL
MODEL 6
REMARK VINA RESULT:      -4.4     10.892     11.977
REMARK  3 active torsions:
REMARK  status: ('A' for Active; 'I' for Inactive)
REMARK    1  A    between atoms: C6_6  and  C10_10 
REMARK    2  A    between atoms: C7_7  and  N11_11 
REMARK    3  A    between atoms: C9_9  and  N11_11 
ROOT
HETATM    1  C1  UNL     1     -34.950  13.212  -4.581  1.00 20.00     0.013 C 
HETATM    2  C2  UNL     1     -34.077  13.904  -4.133  1.00 20.00    -0.087 C 
HETATM    3  C9  UNL     1     -33.009  14.744  -3.586  1.00 20.00     0.362 C 
ENDROOT
BRANCH   3   4
HETATM    4  N11 UNL     1     -33.305  16.157  -3.797  1.00 20.00     0.098 N 
HETATM    5  H28 UNL     1     -32.520  16.715  -3.458  1.00 20.00     0.317 HD
BRANCH   4   6
HETATM    6  C7  UNL     1     -34.523  16.552  -3.093  1.00 20.00     0.222 C 
HETATM    7  C4  UNL     1     -34.789  18.048  -3.253  1.00 20.00     0.036 C 
HETATM    8  C3  UNL     1     -33.932  18.738  -2.188  1.00 20.00     0.007 C 
HETATM    9  C6  UNL     1     -33.582  17.656  -1.153  1.00 20.00    -0.013 C 
HETATM   10  C5  UNL     1     -34.381  16.418  -1.576  1.00 20.00     0.040 C 
BRANCH   9  11
HETATM   11  C10 UNL     1     -33.879  18.083   0.277  1.00 20.00     0.000 C 
HETATM   12  C8  UNL     1     -35.127  17.446   0.798  1.00 20.00     0.005 C 
ENDBRANCH   9  11
ENDBRANCH   4   6
ENDBRANCH   3   4
TORSDOF 3
ENDMDL
MODEL 7
REMARK VINA RESULT:      -4.3     11.205     12.575
REMARK  3 active torsions:
REMARK  status: ('A' for Active; 'I' for Inactive)
REMARK    1  A    between atoms: C6_6  and  C10_10 
REMARK    2  A    between atoms: C7_7  and  N11_11 
REMARK    3  A    between atoms: C9_9  and  N11_11 
ROOT
HETATM    1  C1  UNL     1     -35.637  14.378  -7.759  1.00 20.00     0.013 C 
HETATM    2  C2  UNL     1     -34.927  15.236  -7.311  1.00 20.00    -0.087 C 
HETATM    3  C9  UNL     1     -34.058  16.283  -6.768  1.00 20.00     0.362 C 
ENDROOT
BRANCH   3   4
HETATM    4  N11 UNL     1     -34.563  16.759  -5.485  1.00 20.00     0.098 N 
HETATM    5  H28 UNL     1     -34.980  17.682  -5.614  1.00 20.00     0.317 HD
BRANCH   4   6
HETATM    6  C7  UNL     1     -33.493  16.842  -4.494  1.00 20.00     0.222 C 
HETATM    7  C4  UNL     1     -33.083  15.451  -4.010  1.00 20.00     0.036 C 
HETATM    8  C3  UNL     1     -34.087  15.080  -2.916  1.00 20.00     0.007 C 
HETATM    9  C6  UNL     1     -34.730  16.400  -2.458  1.00 20.00    -0.013 C 
HETATM   10  C5  UNL     1     -33.958  17.501  -3.196  1.00 20.00     0.040 C 
BRANCH   9  11
HETATM   11  C10 UNL     1     -34.706  16.582  -0.948  1.00 20.00     0.000 C 
HETATM   12  C8  UNL     1     -33.730  17.635  -0.530  1.00 20.00     0.005 C 
ENDBRANCH   9  11
ENDBRANCH   4   6
ENDBRANCH   3   4
TORSDOF 3
ENDMDL
MODEL 8
REMARK VINA RESULT:      -4.3      1.287      5.185
REMARK  3 active torsions:
REMARK  status: ('A' for Active; 'I' for Inactive)
REMARK    1  A    between atoms: C6_6  and  C10_10 
REMARK    2  A    between atoms: C7_7  and  N11_11 
REMARK    3  A    between atoms: C9_9  and  N11_11 
ROOT
HETATM    1  C1  UNL     1     -35.170   3.885   5.954  1.00 20.00     0.013 C 
HETATM    2  C2  UNL     1     -34.725   4.986   6.129  1.00 20.00    -0.087 C 
HETATM    3  C9  UNL     1     -34.185   6.330   6.346  1.00 20.00     0.362 C 
ENDROOT
BRANCH   3   4
HETATM    4  N11 UNL     1     -33.235   6.679   5.296  1.00 20.00     0.098 N 
HETATM    5  H28 UNL     1     -32.802   7.576   5.525  1.00 20.00     0.317 HD
BRANCH   4   6
HETATM    6  C7  UNL     1     -33.896   6.775   3.997  1.00 20.00     0.222 C 
HETATM    7  C4  UNL     1     -33.457   5.641   3.072  1.00 20.00     0.036 C 
HETATM    8  C3  UNL     1     -32.136   6.101   2.450  1.00 20.00     0.007 C 
HETATM    9  C6  UNL     1     -32.084   7.627   2.632  1.00 20.00    -0.013 C 
HETATM   10  C5  UNL     1     -33.451   8.010   3.213  1.00 20.00     0.040 C 
BRANCH   9  11
HETATM   11  C10 UNL     1     -31.767   8.369   1.343  1.00 20.00     0.000 C 
HETATM   12  C8  UNL     1     -32.462   9.692   1.280  1.00 20.00     0.005 C 
ENDBRANCH   9  11
ENDBRANCH   4   6
ENDBRANCH   3   4
TORSDOF 3
ENDMDL
MODEL 9
REMARK VINA RESULT:      -4.1      9.541     10.550
REMARK  3 active torsions:
REMARK  status: ('A' for Active; 'I' for Inactive)
REMARK    1  A    between atoms: C6_6  and  C10_10 
REMARK    2  A    between atoms: C7_7  and  N11_11 
REMARK    3  A    between atoms: C9_9  and  N11_11 
ROOT
HETATM    1  C1  UNL     1     -41.310   9.446  -6.652  1.00 20.00     0.013 C 
HETATM    2  C2  UNL     1     -41.913   9.189  -5.646  1.00 20.00    -0.087 C 
HETATM    3  C9  UNL     1     -42.652   8.877  -4.420  1.00 20.00     0.362 C 
ENDROOT
BRANCH   3   4
HETATM    4  N11 UNL     1     -41.871   8.001  -3.555  1.00 20.00     0.098 N 
HETATM    5  H28 UNL     1     -41.468   7.250  -4.119  1.00 20.00     0.317 HD
BRANCH   4   6
HETATM    6  C7  UNL     1     -42.701   7.425  -2.499  1.00 20.00     0.222 C 
HETATM    7  C4  UNL     1     -42.324   7.995  -1.133  1.00 20.00     0.036 C 
HETATM    8  C3  UNL     1     -41.124   7.174  -0.657  1.00 20.00     0.007 C 
HETATM    9  C6  UNL     1     -41.133   5.880  -1.488  1.00 20.00    -0.013 C 
HETATM   10  C5  UNL     1     -42.431   5.933  -2.303  1.00 20.00     0.040 C 
BRANCH   9  11
HETATM   11  C10 UNL     1     -41.029   4.625  -0.635  1.00 20.00     0.000 C 
HETATM   12  C8  UNL     1     -42.165   4.514   0.331  1.00 20.00     0.005 C 
ENDBRANCH   9  11
ENDBRANCH   4   6
ENDBRANCH   3   4
TORSDOF 3
ENDMDL
