MODEL 1
REMARK VINA RESULT:      -4.3      0.000      0.000
REMARK  0 active torsions:
REMARK  status: ('A' for Active; 'I' for Inactive)
ROOT
HETATM    1  C1  UNL     1     -34.140  13.809  -3.611  1.00 20.00     0.004 C 
HETATM    2  C2  UNL     1     -35.352  13.804  -4.537  1.00 20.00     0.040 C 
HETATM    3  C3  UNL     1     -33.457  15.179  -3.591  1.00 20.00     0.009 C 
HETATM    4  C4  UNL     1     -35.670  16.305  -4.118  1.00 20.00     0.049 C 
HETATM    5  C5  UNL     1     -37.746  14.805  -4.555  1.00 20.00     0.207 A 
HETATM    6  C6  UNL     1     -36.280  14.935  -4.212  1.00 20.00     0.083 A 
HETATM    7  C7  UNL     1     -34.414  16.335  -3.214  1.00 20.00    -0.045 C 
HETATM    8  C8  UNL     1     -33.683  17.674  -3.424  1.00 20.00     0.015 C 
HETATM    9  C9  UNL     1     -34.817  16.245  -1.728  1.00 20.00     0.015 C 
HETATM   10  O10 UNL     1     -37.263  14.638  -3.213  1.00 20.00    -0.375 OA
ENDROOT
TORSDOF 0
ENDMDL
MODEL 2
REMARK VINA RESULT:      -4.2      1.349      2.274
REMARK  0 active torsions:
REMARK  status: ('A' for Active; 'I' for Inactive)
ROOT
HETATM    1  C1  UNL     1     -35.800  14.750  -6.442  1.00 20.00     0.004 C 
HETATM    2  C2  UNL     1     -36.957  15.481  -5.767  1.00 20.00     0.040 C 
HETATM    3  C3  UNL     1     -34.464  15.076  -5.769  1.00 20.00     0.009 C 
HETATM    4  C4  UNL     1     -35.659  15.484  -3.566  1.00 20.00     0.049 C 
HETATM    5  C5  UNL     1     -38.253  15.346  -3.523  1.00 20.00     0.207 A 
HETATM    6  C6  UNL     1     -36.954  15.241  -4.288  1.00 20.00     0.083 A 
HETATM    7  C7  UNL     1     -34.458  14.785  -4.249  1.00 20.00    -0.045 C 
HETATM    8  C8  UNL     1     -33.153  15.336  -3.643  1.00 20.00     0.015 C 
HETATM    9  C9  UNL     1     -34.496  13.267  -3.985  1.00 20.00     0.015 C 
HETATM   10  O10 UNL     1     -37.675  14.076  -3.866  1.00 20.00    -0.375 OA
ENDROOT
TORSDOF 0
ENDMDL
MODEL 3
REMARK VINA RESULT:      -4.1     10.840     12.302
REMARK  0 active torsions:
REMARK  status: ('A' for Active; 'I' for Inactive)
ROOT
HETATM    1  C1  UNL     1     -40.640   5.561  -0.320  1.00 20.00     0.004 C 
HETATM    2  C2  UNL     1     -40.790   4.301  -1.168  1.00 20.00     0.040 C 
HETATM    3  C3  UNL     1     -40.902   6.824  -1.144  1.00 20.00     0.009 C 
HETATM    4  C4  UNL     1     -42.460   5.522  -2.668  1.00 20.00     0.049 C 
HETATM    5  C5  UNL     1     -42.717   2.966  -2.280  1.00 20.00     0.207 A 
HETATM    6  C6  UNL     1     -42.106   4.290  -1.884  1.00 20.00     0.083 A 
HETATM    7  C7  UNL     1     -42.282   6.821  -1.846  1.00 20.00    -0.045 C 
HETATM    8  C8  UNL     1     -42.355   8.028  -2.801  1.00 20.00     0.015 C 
HETATM    9  C9  UNL     1     -43.417   6.967  -0.814  1.00 20.00     0.015 C 
HETATM   10  O10 UNL     1     -43.188   3.709  -1.146  1.00 20.00    -0.375 OA
ENDROOT
TORSDOF 0
ENDMDL
MODEL 4
REMARK VINA RESULT:      -4.1      2.199      3.748
REMARK  0 active torsions:
REMARK  status: ('A' for Active; 'I' for Inactive)
ROOT
HETATM    1  C1  UNL     1     -34.018  13.659  -4.359  1.00 20.00     0.004 C 
HETATM    2  C2  UNL     1     -34.008  14.866  -3.427  1.00 20.00     0.040 C 
HETATM    3  C3  UNL     1     -35.250  13.665  -5.268  1.00 20.00     0.009 C 
HETATM    4  C4  UNL     1     -35.338  16.200  -5.154  1.00 20.00     0.049 C 
HETATM    5  C5  UNL     1     -33.636  17.427  -3.621  1.00 20.00     0.207 A 
HETATM    6  C6  UNL     1     -34.182  16.141  -4.196  1.00 20.00     0.083 A 
HETATM    7  C7  UNL     1     -35.398  14.968  -6.089  1.00 20.00    -0.045 C 
HETATM    8  C8  UNL     1     -36.763  14.953  -6.803  1.00 20.00     0.015 C 
HETATM    9  C9  UNL     1     -34.302  15.058  -7.170  1.00 20.00     0.015 C 
HETATM   10  O10 UNL     1     -32.964  16.724  -4.678  1.00 20.00    -0.375 OA
ENDROOT
TORSDOF 0
ENDMDL
MODEL 5
REMARK VINA RESULT:      -4.1      1.572      2.319
REMARK  0 active torsions:
REMARK  status: ('A' for Active; 'I' for Inactive)
ROOT
HETATM    1  C1  UNL     1     -33.358  16.577  -4.405  1.00 20.00     0.004 C 
HETATM    2  C2  UNL     1     -33.970  15.362  -5.095  1.00 20.00     0.040 C 
HETATM    3  C3  UNL     1     -34.432  17.447  -3.747  1.00 20.00     0.009 C 
HETATM    4  C4  UNL     1     -35.910  15.407  -3.432  1.00 20.00     0.049 C 
HETATM    5  C5  UNL     1     -35.099  13.134  -4.393  1.00 20.00     0.207 A 
HETATM    6  C6  UNL     1     -34.866  14.608  -4.160  1.00 20.00     0.083 A 
HETATM    7  C7  UNL     1     -35.326  16.668  -2.752  1.00 20.00    -0.045 C 
HETATM    8  C8  UNL     1     -36.488  17.579  -2.310  1.00 20.00     0.015 C 
HETATM    9  C9  UNL     1     -34.526  16.281  -1.492  1.00 20.00     0.015 C 
HETATM   10  O10 UNL     1     -34.208  13.609  -3.371  1.00 20.00    -0.375 OA
ENDROOT
TORSDOF 0
ENDMDL
MODEL 6
REMARK VINA RESULT:      -4.1      1.952      3.655
REMARK  0 active torsions:
REMARK  status: ('A' for Active; 'I' for Inactive)
ROOT
HETATM    1  C1  UNL     1     -33.875  16.658  -2.052  1.00 20.00     0.004 C 
HETATM    2  C2  UNL     1     -33.796  17.769  -3.095  1.00 20.00     0.040 C 
HETATM    3  C3  UNL     1     -35.192  15.884  -2.158  1.00 20.00     0.009 C 
HETATM    4  C4  UNL     1     -35.321  16.417  -4.637  1.00 20.00     0.049 C 
HETATM    5  C5  UNL     1     -33.500  17.958  -5.666  1.00 20.00     0.207 A 
HETATM    6  C6  UNL     1     -34.073  17.236  -4.469  1.00 20.00     0.083 A 
HETATM    7  C7  UNL     1     -35.449  15.304  -3.570  1.00 20.00    -0.045 C 
HETATM    8  C8  UNL     1     -36.878  14.731  -3.618  1.00 20.00     0.015 C 
HETATM    9  C9  UNL     1     -34.469  14.152  -3.870  1.00 20.00     0.015 C 
HETATM   10  O10 UNL     1     -32.923  16.741  -5.165  1.00 20.00    -0.375 OA
ENDROOT
TORSDOF 0
ENDMDL
MODEL 7
REMARK VINA RESULT:      -4.1      2.278      3.723
REMARK  0 active torsions:
REMARK  status: ('A' for Active; 'I' for Inactive)
ROOT
HETATM    1  C1  UNL     1     -37.049  14.962  -4.844  1.00 20.00     0.004 C 
HETATM    2  C2  UNL     1     -35.959  14.637  -3.828  1.00 20.00     0.040 C 
HETATM    3  C3  UNL     1     -36.566  15.983  -5.877  1.00 20.00     0.009 C 
HETATM    4  C4  UNL     1     -34.179  15.169  -5.583  1.00 20.00     0.049 C 
HETATM    5  C5  UNL     1     -33.706  13.350  -3.790  1.00 20.00     0.207 A 
HETATM    6  C6  UNL     1     -34.686  14.243  -4.514  1.00 20.00     0.083 A 
HETATM    7  C7  UNL     1     -35.274  15.548  -6.609  1.00 20.00    -0.045 C 
HETATM    8  C8  UNL     1     -34.767  16.725  -7.465  1.00 20.00     0.015 C 
HETATM    9  C9  UNL     1     -35.558  14.365  -7.556  1.00 20.00     0.015 C 
HETATM   10  O10 UNL     1     -34.574  12.847  -4.818  1.00 20.00    -0.375 OA
ENDROOT
TORSDOF 0
ENDMDL
MODEL 8
REMARK VINA RESULT:      -4.1      1.489      2.689
REMARK  0 active torsions:
REMARK  status: ('A' for Active; 'I' for Inactive)
ROOT
HETATM    1  C1  UNL     1     -36.713  16.442  -4.352  1.00 20.00     0.004 C 
HETATM    2  C2  UNL     1     -36.581  14.945  -4.617  1.00 20.00     0.040 C 
HETATM    3  C3  UNL     1     -36.271  16.799  -2.931  1.00 20.00     0.009 C 
HETATM    4  C4  UNL     1     -34.680  14.821  -2.914  1.00 20.00     0.049 C 
HETATM    5  C5  UNL     1     -34.667  13.229  -4.968  1.00 20.00     0.207 A 
HETATM    6  C6  UNL     1     -35.206  14.459  -4.274  1.00 20.00     0.083 A 
HETATM    7  C7  UNL     1     -34.834  16.328  -2.600  1.00 20.00    -0.045 C 
HETATM    8  C8  UNL     1     -34.571  16.552  -1.099  1.00 20.00     0.015 C 
HETATM    9  C9  UNL     1     -33.797  17.153  -3.389  1.00 20.00     0.015 C 
HETATM   10  O10 UNL     1     -34.251  14.553  -5.339  1.00 20.00    -0.375 OA
ENDROOT
TORSDOF 0
ENDMDL
MODEL 9
REMARK VINA RESULT:      -4.0      2.290      3.516
REMARK  0 active torsions:
REMARK  status: ('A' for Active; 'I' for Inactive)
ROOT
HETATM    1  C1  UNL     1     -35.289  15.036  -6.578  1.00 20.00     0.004 C 
HETATM    2  C2  UNL     1     -34.435  16.265  -6.872  1.00 20.00     0.040 C 
HETATM    3  C3  UNL     1     -34.558  14.053  -5.660  1.00 20.00     0.009 C 
HETATM    4  C4  UNL     1     -33.253  15.970  -4.626  1.00 20.00     0.049 C 
HETATM    5  C5  UNL     1     -33.594  18.358  -5.590  1.00 20.00     0.207 A 
HETATM    6  C6  UNL     1     -33.932  16.886  -5.604  1.00 20.00     0.083 A 
HETATM    7  C7  UNL     1     -34.079  14.693  -4.335  1.00 20.00    -0.045 C 
HETATM    8  C8  UNL     1     -33.187  13.683  -3.590  1.00 20.00     0.015 C 
HETATM    9  C9  UNL     1     -35.280  15.023  -3.426  1.00 20.00     0.015 C 
HETATM   10  O10 UNL     1     -34.811  17.854  -5.019  1.00 20.00    -0.375 OA
ENDROOT
TORSDOF 0
ENDMDL
