MODEL 1
REMARK VINA RESULT:      -4.2      0.000      0.000
REMARK  3 active torsions:
REMARK  status: ('A' for Active; 'I' for Inactive)
REMARK    1  A    between atoms: C4_4  and  C6_6 
REMARK    2  A    between atoms: C5_5  and  C6_6 
REMARK    3  A    between atoms: C5_5  and  O8_8 
ROOT
HETATM    1  C1  UNL     1     -33.932   6.595   5.605  1.00 20.00     0.066 C 
HETATM    2  C6  UNL     1     -34.342   6.178   4.247  1.00 20.00     0.116 C 
HETATM    3  N7  UNL     1     -33.610   6.925   6.670  1.00 20.00    -0.197 NA
ENDROOT
BRANCH   2   4
HETATM    4  C4  UNL     1     -35.226   4.920   4.306  1.00 20.00     0.017 C 
HETATM    5  C2  UNL     1     -34.920   4.031   5.506  1.00 20.00     0.006 C 
ENDBRANCH   2   4
BRANCH   2   6
HETATM    6  C5  UNL     1     -33.100   5.910   3.390  1.00 20.00     0.186 C 
BRANCH   6   7
HETATM    7  O8  UNL     1     -32.150   6.951   3.588  1.00 20.00    -0.395 OA
HETATM    8  C3  UNL     1     -32.106   7.832   2.474  1.00 20.00     0.201 C 
ENDBRANCH   6   7
ENDBRANCH   2   6
TORSDOF 3
ENDMDL
MODEL 2
REMARK VINA RESULT:      -3.8     11.798     12.692
REMARK  3 active torsions:
REMARK  status: ('A' for Active; 'I' for Inactive)
REMARK    1  A    between atoms: C4_4  and  C6_6 
REMARK    2  A    between atoms: C5_5  and  C6_6 
REMARK    3  A    between atoms: C5_5  and  O8_8 
ROOT
HETATM    1  C1  UNL     1     -34.494  13.774  -3.808  1.00 20.00     0.066 C 
HETATM    2  C6  UNL     1     -33.942  15.002  -3.196  1.00 20.00     0.116 C 
HETATM    3  N7  UNL     1     -34.925  12.810  -4.287  1.00 20.00    -0.197 NA
ENDROOT
BRANCH   2   4
HETATM    4  C4  UNL     1     -35.050  15.812  -2.502  1.00 20.00     0.017 C 
HETATM    5  C2  UNL     1     -34.591  16.462  -1.202  1.00 20.00     0.006 C 
ENDBRANCH   2   4
BRANCH   2   6
HETATM    6  C5  UNL     1     -33.261  15.856  -4.272  1.00 20.00     0.186 C 
BRANCH   6   7
HETATM    7  O8  UNL     1     -34.192  16.796  -4.796  1.00 20.00    -0.395 OA
HETATM    8  C3  UNL     1     -33.536  17.962  -5.278  1.00 20.00     0.201 C 
ENDBRANCH   6   7
ENDBRANCH   2   6
TORSDOF 3
ENDMDL
MODEL 3
REMARK VINA RESULT:      -3.7     11.695     12.715
REMARK  3 active torsions:
REMARK  status: ('A' for Active; 'I' for Inactive)
REMARK    1  A    between atoms: C4_4  and  C6_6 
REMARK    2  A    between atoms: C5_5  and  C6_6 
REMARK    3  A    between atoms: C5_5  and  O8_8 
ROOT
HETATM    1  C1  UNL     1     -36.847  14.428  -4.222  1.00 20.00     0.066 C 
HETATM    2  C6  UNL     1     -35.545  14.480  -4.920  1.00 20.00     0.116 C 
HETATM    3  N7  UNL     1     -37.868  14.388  -3.673  1.00 20.00    -0.197 NA
ENDROOT
BRANCH   2   4
HETATM    4  C4  UNL     1     -35.742  14.714  -6.428  1.00 20.00     0.017 C 
HETATM    5  C2  UNL     1     -34.442  15.028  -7.159  1.00 20.00     0.006 C 
ENDBRANCH   2   4
BRANCH   2   6
HETATM    6  C5  UNL     1     -34.779  13.172  -4.685  1.00 20.00     0.186 C 
BRANCH   6   7
HETATM    7  O8  UNL     1     -33.914  13.320  -3.565  1.00 20.00    -0.395 OA
HETATM    8  C3  UNL     1     -33.130  14.501  -3.668  1.00 20.00     0.201 C 
ENDBRANCH   6   7
ENDBRANCH   2   6
TORSDOF 3
ENDMDL
MODEL 4
REMARK VINA RESULT:      -3.6     12.195     13.260
REMARK  3 active torsions:
REMARK  status: ('A' for Active; 'I' for Inactive)
REMARK    1  A    between atoms: C4_4  and  C6_6 
REMARK    2  A    between atoms: C5_5  and  C6_6 
REMARK    3  A    between atoms: C5_5  and  O8_8 
ROOT
HETATM    1  C1  UNL     1     -34.663  13.827  -4.946  1.00 20.00     0.066 C 
HETATM    2  C6  UNL     1     -34.499  15.233  -5.373  1.00 20.00     0.116 C 
HETATM    3  N7  UNL     1     -34.794  12.724  -4.610  1.00 20.00    -0.197 NA
ENDROOT
BRANCH   2   4
HETATM    4  C4  UNL     1     -34.252  15.318  -6.889  1.00 20.00     0.017 C 
HETATM    5  C2  UNL     1     -35.314  14.593  -7.708  1.00 20.00     0.006 C 
ENDBRANCH   2   4
BRANCH   2   6
HETATM    6  C5  UNL     1     -33.331  15.872  -4.612  1.00 20.00     0.186 C 
BRANCH   6   7
HETATM    7  O8  UNL     1     -33.352  15.442  -3.256  1.00 20.00    -0.395 OA
HETATM    8  C3  UNL     1     -33.846  16.460  -2.396  1.00 20.00     0.201 C 
ENDBRANCH   6   7
ENDBRANCH   2   6
TORSDOF 3
ENDMDL
MODEL 5
REMARK VINA RESULT:      -3.5      1.716      2.522
REMARK  3 active torsions:
REMARK  status: ('A' for Active; 'I' for Inactive)
REMARK    1  A    between atoms: C4_4  and  C6_6 
REMARK    2  A    between atoms: C5_5  and  C6_6 
REMARK    3  A    between atoms: C5_5  and  O8_8 
ROOT
HETATM    1  C1  UNL     1     -34.675   4.499   5.092  1.00 20.00     0.066 C 
HETATM    2  C6  UNL     1     -33.777   5.661   5.264  1.00 20.00     0.116 C 
HETATM    3  N7  UNL     1     -35.378   3.586   4.957  1.00 20.00    -0.197 NA
ENDROOT
BRANCH   2   4
HETATM    4  C4  UNL     1     -34.241   6.541   6.437  1.00 20.00     0.017 C 
HETATM    5  C2  UNL     1     -33.174   7.523   6.907  1.00 20.00     0.006 C 
ENDBRANCH   2   4
BRANCH   2   6
HETATM    6  C5  UNL     1     -33.740   6.483   3.970  1.00 20.00     0.186 C 
BRANCH   6   7
HETATM    7  O8  UNL     1     -32.429   6.446   3.417  1.00 20.00    -0.395 OA
HETATM    8  C3  UNL     1     -32.171   7.591   2.617  1.00 20.00     0.201 C 
ENDBRANCH   6   7
ENDBRANCH   2   6
TORSDOF 3
ENDMDL
MODEL 6
REMARK VINA RESULT:      -3.5     11.750     12.999
REMARK  3 active torsions:
REMARK  status: ('A' for Active; 'I' for Inactive)
REMARK    1  A    between atoms: C4_4  and  C6_6 
REMARK    2  A    between atoms: C5_5  and  C6_6 
REMARK    3  A    between atoms: C5_5  and  O8_8 
ROOT
HETATM    1  C1  UNL     1     -34.446  13.649  -4.266  1.00 20.00     0.066 C 
HETATM    2  C6  UNL     1     -35.647  14.273  -4.862  1.00 20.00     0.116 C 
HETATM    3  N7  UNL     1     -33.504  13.157  -3.800  1.00 20.00    -0.197 NA
ENDROOT
BRANCH   2   4
HETATM    4  C4  UNL     1     -35.253  15.406  -5.825  1.00 20.00     0.017 C 
HETATM    5  C2  UNL     1     -34.498  14.912  -7.052  1.00 20.00     0.006 C 
ENDBRANCH   2   4
BRANCH   2   6
HETATM    6  C5  UNL     1     -36.553  14.816  -3.750  1.00 20.00     0.186 C 
BRANCH   6   7
HETATM    7  O8  UNL     1     -37.784  14.102  -3.746  1.00 20.00    -0.395 OA
HETATM    8  C3  UNL     1     -38.891  14.976  -3.913  1.00 20.00     0.201 C 
ENDBRANCH   6   7
ENDBRANCH   2   6
TORSDOF 3
ENDMDL
MODEL 7
REMARK VINA RESULT:      -3.5     12.129     12.732
REMARK  3 active torsions:
REMARK  status: ('A' for Active; 'I' for Inactive)
REMARK    1  A    between atoms: C4_4  and  C6_6 
REMARK    2  A    between atoms: C5_5  and  C6_6 
REMARK    3  A    between atoms: C5_5  and  O8_8 
ROOT
HETATM    1  C1  UNL     1     -33.787  16.854  -4.335  1.00 20.00     0.066 C 
HETATM    2  C6  UNL     1     -34.223  15.619  -3.650  1.00 20.00     0.116 C 
HETATM    3  N7  UNL     1     -33.446  17.823  -4.875  1.00 20.00    -0.197 NA
ENDROOT
BRANCH   2   4
HETATM    4  C4  UNL     1     -34.705  15.928  -2.222  1.00 20.00     0.017 C 
HETATM    5  C2  UNL     1     -33.818  16.932  -1.496  1.00 20.00     0.006 C 
ENDBRANCH   2   4
BRANCH   2   6
HETATM    6  C5  UNL     1     -33.067  14.612  -3.610  1.00 20.00     0.186 C 
BRANCH   6   7
HETATM    7  O8  UNL     1     -33.579  13.291  -3.747  1.00 20.00    -0.395 OA
HETATM    8  C3  UNL     1     -34.544  13.215  -4.787  1.00 20.00     0.201 C 
ENDBRANCH   6   7
ENDBRANCH   2   6
TORSDOF 3
ENDMDL
MODEL 8
REMARK VINA RESULT:      -3.5     11.995     12.598
REMARK  3 active torsions:
REMARK  status: ('A' for Active; 'I' for Inactive)
REMARK    1  A    between atoms: C4_4  and  C6_6 
REMARK    2  A    between atoms: C5_5  and  C6_6 
REMARK    3  A    between atoms: C5_5  and  O8_8 
ROOT
HETATM    1  C1  UNL     1     -33.392  16.107  -4.364  1.00 20.00     0.066 C 
HETATM    2  C6  UNL     1     -33.800  15.182  -3.285  1.00 20.00     0.116 C 
HETATM    3  N7  UNL     1     -33.070  16.834  -5.209  1.00 20.00    -0.197 NA
ENDROOT
BRANCH   2   4
HETATM    4  C4  UNL     1     -33.693  13.720  -3.749  1.00 20.00     0.017 C 
HETATM    5  C2  UNL     1     -34.840  13.296  -4.659  1.00 20.00     0.006 C 
ENDBRANCH   2   4
BRANCH   2   6
HETATM    6  C5  UNL     1     -35.238  15.494  -2.852  1.00 20.00     0.186 C 
BRANCH   6   7
HETATM    7  O8  UNL     1     -35.264  16.725  -2.137  1.00 20.00    -0.395 OA
HETATM    8  C3  UNL     1     -34.599  16.613  -0.887  1.00 20.00     0.201 C 
ENDBRANCH   6   7
ENDBRANCH   2   6
TORSDOF 3
ENDMDL
MODEL 9
REMARK VINA RESULT:      -3.4     11.811     12.798
REMARK  3 active torsions:
REMARK  status: ('A' for Active; 'I' for Inactive)
REMARK    1  A    between atoms: C4_4  and  C6_6 
REMARK    2  A    between atoms: C5_5  and  C6_6 
REMARK    3  A    between atoms: C5_5  and  O8_8 
ROOT
HETATM    1  C1  UNL     1     -34.920  13.883  -4.122  1.00 20.00     0.066 C 
HETATM    2  C6  UNL     1     -34.856  15.320  -3.778  1.00 20.00     0.116 C 
HETATM    3  N7  UNL     1     -34.972  12.756  -4.390  1.00 20.00    -0.197 NA
ENDROOT
BRANCH   2   4
HETATM    4  C4  UNL     1     -35.079  16.191  -5.026  1.00 20.00     0.017 C 
HETATM    5  C2  UNL     1     -34.030  15.963  -6.108  1.00 20.00     0.006 C 
ENDBRANCH   2   4
BRANCH   2   6
HETATM    6  C5  UNL     1     -33.496  15.641  -3.146  1.00 20.00     0.186 C 
BRANCH   6   7
HETATM    7  O8  UNL     1     -33.641  16.710  -2.219  1.00 20.00    -0.395 OA
HETATM    8  C3  UNL     1     -34.649  16.430  -1.257  1.00 20.00     0.201 C 
ENDBRANCH   6   7
ENDBRANCH   2   6
TORSDOF 3
ENDMDL
