MODEL 1
REMARK VINA RESULT:      -4.7      0.000      0.000
REMARK  3 active torsions:
REMARK  status: ('A' for Active; 'I' for Inactive)
REMARK    1  A    between atoms: C6_6  and  C10_10 
REMARK    2  A    between atoms: C7_7  and  N11_11 
REMARK    3  A    between atoms: C9_9  and  N11_11 
ROOT
HETATM    1  C1  UNL     1     -32.234   9.496   0.194  1.00 20.00     0.013 C 
HETATM    2  C2  UNL     1     -32.081   8.779   1.145  1.00 20.00    -0.087 C 
HETATM    3  C9  UNL     1     -31.890   7.906   2.305  1.00 20.00     0.362 C 
ENDROOT
BRANCH   3   4
HETATM    4  N11 UNL     1     -33.169   7.442   2.816  1.00 20.00     0.098 N 
HETATM    5  H28 UNL     1     -33.391   7.934   3.679  1.00 20.00     0.317 HD
BRANCH   4   6
HETATM    6  C7  UNL     1     -33.129   6.024   3.084  1.00 20.00     0.222 C 
HETATM    7  C4  UNL     1     -34.430   5.344   2.658  1.00 20.00     0.036 C 
HETATM    8  C3  UNL     1     -35.288   5.378   3.913  1.00 20.00     0.007 C 
HETATM    9  C6  UNL     1     -34.286   5.041   5.014  1.00 20.00    -0.013 C 
HETATM   10  C5  UNL     1     -32.994   5.755   4.590  1.00 20.00     0.040 C 
BRANCH   9  11
HETATM   11  C10 UNL     1     -34.766   5.442   6.399  1.00 20.00     0.000 C 
HETATM   12  C8  UNL     1     -34.146   6.725   6.857  1.00 20.00     0.005 C 
ENDBRANCH   9  11
ENDBRANCH   4   6
ENDBRANCH   3   4
TORSDOF 3
ENDMDL
MODEL 2
REMARK VINA RESULT:      -4.5     10.768     12.236
REMARK  3 active torsions:
REMARK  status: ('A' for Active; 'I' for Inactive)
REMARK    1  A    between atoms: C6_6  and  C10_10 
REMARK    2  A    between atoms: C7_7  and  N11_11 
REMARK    3  A    between atoms: C9_9  and  N11_11 
ROOT
HETATM    1  C1  UNL     1     -35.041  14.764  -7.780  1.00 20.00     0.013 C 
HETATM    2  C2  UNL     1     -34.561  15.529  -6.990  1.00 20.00    -0.087 C 
HETATM    3  C9  UNL     1     -33.978  16.465  -6.026  1.00 20.00     0.362 C 
ENDROOT
BRANCH   3   4
HETATM    4  N11 UNL     1     -32.873  15.846  -5.311  1.00 20.00     0.098 N 
HETATM    5  H28 UNL     1     -32.622  14.971  -5.765  1.00 20.00     0.317 HD
BRANCH   4   6
HETATM    6  C7  UNL     1     -33.239  15.574  -3.942  1.00 20.00     0.222 C 
HETATM    7  C4  UNL     1     -33.173  14.078  -3.639  1.00 20.00     0.036 C 
HETATM    8  C3  UNL     1     -34.583  13.584  -3.928  1.00 20.00     0.007 C 
HETATM    9  C6  UNL     1     -35.453  14.695  -3.346  1.00 20.00    -0.013 C 
HETATM   10  C5  UNL     1     -34.692  15.989  -3.670  1.00 20.00     0.040 C 
BRANCH   9  11
HETATM   11  C10 UNL     1     -36.873  14.682  -3.886  1.00 20.00     0.000 C 
HETATM   12  C8  UNL     1     -37.297  16.031  -4.377  1.00 20.00     0.005 C 
ENDBRANCH   9  11
ENDBRANCH   4   6
ENDBRANCH   3   4
TORSDOF 3
ENDMDL
MODEL 3
REMARK VINA RESULT:      -4.5     11.053     12.051
REMARK  3 active torsions:
REMARK  status: ('A' for Active; 'I' for Inactive)
REMARK    1  A    between atoms: C6_6  and  C10_10 
REMARK    2  A    between atoms: C7_7  and  N11_11 
REMARK    3  A    between atoms: C9_9  and  N11_11 
ROOT
HETATM    1  C1  UNL     1     -36.713  16.504  -7.588  1.00 20.00     0.013 C 
HETATM    2  C2  UNL     1     -36.091  15.523  -7.283  1.00 20.00    -0.087 C 
HETATM    3  C9  UNL     1     -35.334  14.324  -6.913  1.00 20.00     0.362 C 
ENDROOT
BRANCH   3   4
HETATM    4  N11 UNL     1     -34.183  14.675  -6.097  1.00 20.00     0.098 N 
HETATM    5  H28 UNL     1     -33.328  14.425  -6.589  1.00 20.00     0.317 HD
BRANCH   4   6
HETATM    6  C7  UNL     1     -34.218  13.973  -4.836  1.00 20.00     0.222 C 
HETATM    7  C4  UNL     1     -35.638  13.918  -4.274  1.00 20.00     0.036 C 
HETATM    8  C3  UNL     1     -35.728  15.152  -3.388  1.00 20.00     0.007 C 
HETATM    9  C6  UNL     1     -34.367  15.168  -2.696  1.00 20.00    -0.013 C 
HETATM   10  C5  UNL     1     -33.381  14.705  -3.778  1.00 20.00     0.040 C 
BRANCH   9  11
HETATM   11  C10 UNL     1     -34.017  16.523  -2.104  1.00 20.00     0.000 C 
HETATM   12  C8  UNL     1     -34.595  16.703  -0.736  1.00 20.00     0.005 C 
ENDBRANCH   9  11
ENDBRANCH   4   6
ENDBRANCH   3   4
TORSDOF 3
ENDMDL
MODEL 4
REMARK VINA RESULT:      -4.5     10.393     12.284
REMARK  3 active torsions:
REMARK  status: ('A' for Active; 'I' for Inactive)
REMARK    1  A    between atoms: C6_6  and  C10_10 
REMARK    2  A    between atoms: C7_7  and  N11_11 
REMARK    3  A    between atoms: C9_9  and  N11_11 
ROOT
HETATM    1  C1  UNL     1     -34.757  17.042  -0.143  1.00 20.00     0.013 C 
HETATM    2  C2  UNL     1     -34.351  17.120  -1.270  1.00 20.00    -0.087 C 
HETATM    3  C9  UNL     1     -33.855  17.219  -2.645  1.00 20.00     0.362 C 
ENDROOT
BRANCH   3   4
HETATM    4  N11 UNL     1     -33.536  15.903  -3.172  1.00 20.00     0.098 N 
HETATM    5  H28 UNL     1     -33.123  15.997  -4.097  1.00 20.00     0.317 HD
BRANCH   4   6
HETATM    6  C7  UNL     1     -34.725  15.090  -3.273  1.00 20.00     0.222 C 
HETATM    7  C4  UNL     1     -34.371  13.616  -3.466  1.00 20.00     0.036 C 
HETATM    8  C3  UNL     1     -34.340  13.444  -4.978  1.00 20.00     0.007 C 
HETATM    9  C6  UNL     1     -35.544  14.262  -5.434  1.00 20.00    -0.013 C 
HETATM   10  C5  UNL     1     -35.554  15.484  -4.503  1.00 20.00     0.040 C 
BRANCH   9  11
HETATM   11  C10 UNL     1     -35.490  14.631  -6.907  1.00 20.00     0.000 C 
HETATM   12  C8  UNL     1     -34.329  15.523  -7.219  1.00 20.00     0.005 C 
ENDBRANCH   9  11
ENDBRANCH   4   6
ENDBRANCH   3   4
TORSDOF 3
ENDMDL
MODEL 5
REMARK VINA RESULT:      -4.4      1.228      1.813
REMARK  3 active torsions:
REMARK  status: ('A' for Active; 'I' for Inactive)
REMARK    1  A    between atoms: C6_6  and  C10_10 
REMARK    2  A    between atoms: C7_7  and  N11_11 
REMARK    3  A    between atoms: C9_9  and  N11_11 
ROOT
HETATM    1  C1  UNL     1     -32.220   9.099   1.039  1.00 20.00     0.013 C 
HETATM    2  C2  UNL     1     -31.934   8.371   1.949  1.00 20.00    -0.087 C 
HETATM    3  C9  UNL     1     -31.581   7.486   3.062  1.00 20.00     0.362 C 
ENDROOT
BRANCH   3   4
HETATM    4  N11 UNL     1     -32.369   6.266   3.017  1.00 20.00     0.098 N 
HETATM    5  H28 UNL     1     -32.272   5.831   2.102  1.00 20.00     0.317 HD
BRANCH   4   6
HETATM    6  C7  UNL     1     -33.765   6.549   3.253  1.00 20.00     0.222 C 
HETATM    7  C4  UNL     1     -33.960   7.307   4.566  1.00 20.00     0.036 C 
HETATM    8  C3  UNL     1     -34.192   6.207   5.591  1.00 20.00     0.007 C 
HETATM    9  C6  UNL     1     -35.099   5.235   4.841  1.00 20.00    -0.013 C 
HETATM   10  C5  UNL     1     -34.570   5.250   3.400  1.00 20.00     0.040 C 
BRANCH   9  11
HETATM   11  C10 UNL     1     -35.122   3.846   5.457  1.00 20.00     0.000 C 
HETATM   12  C8  UNL     1     -33.945   3.611   6.352  1.00 20.00     0.005 C 
ENDBRANCH   9  11
ENDBRANCH   4   6
ENDBRANCH   3   4
TORSDOF 3
ENDMDL
MODEL 6
REMARK VINA RESULT:      -4.4     11.099     12.032
REMARK  3 active torsions:
REMARK  status: ('A' for Active; 'I' for Inactive)
REMARK    1  A    between atoms: C6_6  and  C10_10 
REMARK    2  A    between atoms: C7_7  and  N11_11 
REMARK    3  A    between atoms: C9_9  and  N11_11 
ROOT
HETATM    1  C1  UNL     1     -34.985  18.391  -5.877  1.00 20.00     0.013 C 
HETATM    2  C2  UNL     1     -34.237  17.457  -5.786  1.00 20.00    -0.087 C 
HETATM    3  C9  UNL     1     -33.319  16.320  -5.673  1.00 20.00     0.362 C 
ENDROOT
BRANCH   3   4
HETATM    4  N11 UNL     1     -34.040  15.064  -5.798  1.00 20.00     0.098 N 
HETATM    5  H28 UNL     1     -35.006  15.250  -6.060  1.00 20.00     0.317 HD
BRANCH   4   6
HETATM    6  C7  UNL     1     -34.027  14.341  -4.549  1.00 20.00     0.222 C 
HETATM    7  C4  UNL     1     -35.443  14.142  -4.011  1.00 20.00     0.036 C 
HETATM    8  C3  UNL     1     -35.663  15.345  -3.107  1.00 20.00     0.007 C 
HETATM    9  C6  UNL     1     -34.320  15.478  -2.393  1.00 20.00    -0.013 C 
HETATM   10  C5  UNL     1     -33.278  15.130  -3.467  1.00 20.00     0.040 C 
BRANCH   9  11
HETATM   11  C10 UNL     1     -34.108  16.850  -1.774  1.00 20.00     0.000 C 
HETATM   12  C8  UNL     1     -34.708  16.945  -0.406  1.00 20.00     0.005 C 
ENDBRANCH   9  11
ENDBRANCH   4   6
ENDBRANCH   3   4
TORSDOF 3
ENDMDL
MODEL 7
REMARK VINA RESULT:      -4.3     10.760     12.212
REMARK  3 active torsions:
REMARK  status: ('A' for Active; 'I' for Inactive)
REMARK    1  A    between atoms: C6_6  and  C10_10 
REMARK    2  A    between atoms: C7_7  and  N11_11 
REMARK    3  A    between atoms: C9_9  and  N11_11 
ROOT
HETATM    1  C1  UNL     1     -38.082  16.200  -3.711  1.00 20.00     0.013 C 
HETATM    2  C2  UNL     1     -37.287  16.158  -4.609  1.00 20.00    -0.087 C 
HETATM    3  C9  UNL     1     -36.315  16.112  -5.705  1.00 20.00     0.362 C 
ENDROOT
BRANCH   3   4
HETATM    4  N11 UNL     1     -36.017  14.737  -6.070  1.00 20.00     0.098 N 
HETATM    5  H28 UNL     1     -36.591  14.106  -5.516  1.00 20.00     0.317 HD
BRANCH   4   6
HETATM    6  C7  UNL     1     -34.626  14.435  -5.831  1.00 20.00     0.222 C 
HETATM    7  C4  UNL     1     -34.474  13.275  -4.847  1.00 20.00     0.036 C 
HETATM    8  C3  UNL     1     -34.377  13.957  -3.491  1.00 20.00     0.007 C 
HETATM    9  C6  UNL     1     -33.481  15.158  -3.783  1.00 20.00    -0.013 C 
HETATM   10  C5  UNL     1     -33.911  15.627  -5.180  1.00 20.00     0.040 C 
BRANCH   9  11
HETATM   11  C10 UNL     1     -33.582  16.246  -2.727  1.00 20.00     0.000 C 
HETATM   12  C8  UNL     1     -34.783  16.068  -1.852  1.00 20.00     0.005 C 
ENDBRANCH   9  11
ENDBRANCH   4   6
ENDBRANCH   3   4
TORSDOF 3
ENDMDL
MODEL 8
REMARK VINA RESULT:      -4.3      9.552     10.878
REMARK  3 active torsions:
REMARK  status: ('A' for Active; 'I' for Inactive)
REMARK    1  A    between atoms: C6_6  and  C10_10 
REMARK    2  A    between atoms: C7_7  and  N11_11 
REMARK    3  A    between atoms: C9_9  and  N11_11 
ROOT
HETATM    1  C1  UNL     1     -41.501   1.346  -3.824  1.00 20.00     0.013 C 
HETATM    2  C2  UNL     1     -41.673   2.400  -3.277  1.00 20.00    -0.087 C 
HETATM    3  C9  UNL     1     -41.884   3.689  -2.613  1.00 20.00     0.362 C 
ENDROOT
BRANCH   3   4
HETATM    4  N11 UNL     1     -42.294   3.495  -1.232  1.00 20.00     0.098 N 
HETATM    5  H28 UNL     1     -43.300   3.619  -1.155  1.00 20.00     0.317 HD
BRANCH   4   6
HETATM    6  C7  UNL     1     -41.639   4.447  -0.366  1.00 20.00     0.222 C 
HETATM    7  C4  UNL     1     -42.603   4.987   0.690  1.00 20.00     0.036 C 
HETATM    8  C3  UNL     1     -43.183   6.238   0.048  1.00 20.00     0.007 C 
HETATM    9  C6  UNL     1     -41.965   6.867  -0.624  1.00 20.00    -0.013 C 
HETATM   10  C5  UNL     1     -41.162   5.672  -1.159  1.00 20.00     0.040 C 
BRANCH   9  11
HETATM   11  C10 UNL     1     -42.333   7.873  -1.701  1.00 20.00     0.000 C 
HETATM   12  C8  UNL     1     -42.322   7.261  -3.067  1.00 20.00     0.005 C 
ENDBRANCH   9  11
ENDBRANCH   4   6
ENDBRANCH   3   4
TORSDOF 3
ENDMDL
MODEL 9
REMARK VINA RESULT:      -4.3     10.804     12.545
REMARK  3 active torsions:
REMARK  status: ('A' for Active; 'I' for Inactive)
REMARK    1  A    between atoms: C6_6  and  C10_10 
REMARK    2  A    between atoms: C7_7  and  N11_11 
REMARK    3  A    between atoms: C9_9  and  N11_11 
ROOT
HETATM    1  C1  UNL     1     -34.420  16.636  -1.150  1.00 20.00     0.013 C 
HETATM    2  C2  UNL     1     -34.096  16.925  -2.269  1.00 20.00    -0.087 C 
HETATM    3  C9  UNL     1     -33.696  17.275  -3.634  1.00 20.00     0.362 C 
ENDROOT
BRANCH   3   4
HETATM    4  N11 UNL     1     -34.853  17.657  -4.427  1.00 20.00     0.098 N 
HETATM    5  H28 UNL     1     -35.698  17.544  -3.872  1.00 20.00     0.317 HD
BRANCH   4   6
HETATM    6  C7  UNL     1     -34.957  16.834  -5.609  1.00 20.00     0.222 C 
HETATM    7  C4  UNL     1     -36.381  16.311  -5.794  1.00 20.00     0.036 C 
HETATM    8  C3  UNL     1     -36.373  14.969  -5.076  1.00 20.00     0.007 C 
HETATM    9  C6  UNL     1     -35.021  14.383  -5.474  1.00 20.00    -0.013 C 
HETATM   10  C5  UNL     1     -34.069  15.587  -5.488  1.00 20.00     0.040 C 
BRANCH   9  11
HETATM   11  C10 UNL     1     -34.562  13.265  -4.553  1.00 20.00     0.000 C 
HETATM   12  C8  UNL     1     -33.326  13.636  -3.796  1.00 20.00     0.005 C 
ENDBRANCH   9  11
ENDBRANCH   4   6
ENDBRANCH   3   4
TORSDOF 3
ENDMDL
