MODEL 1
REMARK VINA RESULT:      -3.8      0.000      0.000
REMARK  3 active torsions:
REMARK  status: ('A' for Active; 'I' for Inactive)
REMARK    1  A    between atoms: C4_4  and  C6_6 
REMARK    2  A    between atoms: C5_5  and  C6_6 
REMARK    3  A    between atoms: C5_5  and  O8_8 
ROOT
HETATM    1  C1  UNL     1     -33.685   6.552   5.846  1.00 20.00     0.066 C 
HETATM    2  C6  UNL     1     -33.725   5.698   4.639  1.00 20.00     0.116 C 
HETATM    3  N7  UNL     1     -33.654   7.220   6.794  1.00 20.00    -0.197 NA
ENDROOT
BRANCH   2   4
HETATM    4  C4  UNL     1     -35.031   4.889   4.585  1.00 20.00     0.017 C 
HETATM    5  C2  UNL     1     -35.270   4.054   5.839  1.00 20.00     0.006 C 
ENDBRANCH   2   4
BRANCH   2   6
HETATM    6  C5  UNL     1     -33.591   6.568   3.384  1.00 20.00     0.186 C 
BRANCH   6   7
HETATM    7  O8  UNL     1     -32.219   6.887   3.169  1.00 20.00    -0.395 OA
HETATM    8  C3  UNL     1     -32.075   7.998   2.297  1.00 20.00     0.201 C 
ENDBRANCH   6   7
ENDBRANCH   2   6
TORSDOF 3
ENDMDL
MODEL 2
REMARK VINA RESULT:      -3.8     12.073     12.685
REMARK  3 active torsions:
REMARK  status: ('A' for Active; 'I' for Inactive)
REMARK    1  A    between atoms: C4_4  and  C6_6 
REMARK    2  A    between atoms: C5_5  and  C6_6 
REMARK    3  A    between atoms: C5_5  and  O8_8 
ROOT
HETATM    1  C1  UNL     1     -34.805  13.849  -4.223  1.00 20.00     0.066 C 
HETATM    2  C6  UNL     1     -34.589  15.265  -3.853  1.00 20.00     0.116 C 
HETATM    3  N7  UNL     1     -34.977  12.739  -4.515  1.00 20.00    -0.197 NA
ENDROOT
BRANCH   2   4
HETATM    4  C4  UNL     1     -35.258  15.585  -2.506  1.00 20.00     0.017 C 
HETATM    5  C2  UNL     1     -34.390  16.448  -1.597  1.00 20.00     0.006 C 
ENDBRANCH   2   4
BRANCH   2   6
HETATM    6  C5  UNL     1     -33.086  15.557  -3.778  1.00 20.00     0.186 C 
BRANCH   6   7
HETATM    7  O8  UNL     1     -32.680  16.267  -4.944  1.00 20.00    -0.395 OA
HETATM    8  C3  UNL     1     -33.582  17.320  -5.251  1.00 20.00     0.201 C 
ENDBRANCH   6   7
ENDBRANCH   2   6
TORSDOF 3
ENDMDL
MODEL 3
REMARK VINA RESULT:      -3.7      1.696      2.227
REMARK  3 active torsions:
REMARK  status: ('A' for Active; 'I' for Inactive)
REMARK    1  A    between atoms: C4_4  and  C6_6 
REMARK    2  A    between atoms: C5_5  and  C6_6 
REMARK    3  A    between atoms: C5_5  and  O8_8 
ROOT
HETATM    1  C1  UNL     1     -34.797   4.759   4.506  1.00 20.00     0.066 C 
HETATM    2  C6  UNL     1     -34.237   6.090   4.184  1.00 20.00     0.116 C 
HETATM    3  N7  UNL     1     -35.238   3.716   4.759  1.00 20.00    -0.197 NA
ENDROOT
BRANCH   2   4
HETATM    4  C4  UNL     1     -33.557   6.708   5.417  1.00 20.00     0.017 C 
HETATM    5  C2  UNL     1     -34.239   6.331   6.728  1.00 20.00     0.006 C 
ENDBRANCH   2   4
BRANCH   2   6
HETATM    6  C5  UNL     1     -33.231   5.965   3.034  1.00 20.00     0.186 C 
BRANCH   6   7
HETATM    7  O8  UNL     1     -32.125   6.829   3.272  1.00 20.00    -0.395 OA
HETATM    8  C3  UNL     1     -32.085   7.892   2.332  1.00 20.00     0.201 C 
ENDBRANCH   6   7
ENDBRANCH   2   6
TORSDOF 3
ENDMDL
MODEL 4
REMARK VINA RESULT:      -3.7     11.757     12.468
REMARK  3 active torsions:
REMARK  status: ('A' for Active; 'I' for Inactive)
REMARK    1  A    between atoms: C4_4  and  C6_6 
REMARK    2  A    between atoms: C5_5  and  C6_6 
REMARK    3  A    between atoms: C5_5  and  O8_8 
ROOT
HETATM    1  C1  UNL     1     -34.897  13.576  -4.040  1.00 20.00     0.066 C 
HETATM    2  C6  UNL     1     -35.297  14.661  -3.117  1.00 20.00     0.116 C 
HETATM    3  N7  UNL     1     -34.582  12.724  -4.762  1.00 20.00    -0.197 NA
ENDROOT
BRANCH   2   4
HETATM    4  C4  UNL     1     -34.218  15.755  -3.061  1.00 20.00     0.017 C 
HETATM    5  C2  UNL     1     -34.226  16.535  -1.751  1.00 20.00     0.006 C 
ENDBRANCH   2   4
BRANCH   2   6
HETATM    6  C5  UNL     1     -36.633  15.260  -3.571  1.00 20.00     0.186 C 
BRANCH   6   7
HETATM    7  O8  UNL     1     -37.587  14.218  -3.749  1.00 20.00    -0.395 OA
HETATM    8  C3  UNL     1     -38.868  14.737  -4.075  1.00 20.00     0.201 C 
ENDBRANCH   6   7
ENDBRANCH   2   6
TORSDOF 3
ENDMDL
MODEL 5
REMARK VINA RESULT:      -3.7     11.973     12.525
REMARK  3 active torsions:
REMARK  status: ('A' for Active; 'I' for Inactive)
REMARK    1  A    between atoms: C4_4  and  C6_6 
REMARK    2  A    between atoms: C5_5  and  C6_6 
REMARK    3  A    between atoms: C5_5  and  O8_8 
ROOT
HETATM    1  C1  UNL     1     -33.260  16.395  -4.341  1.00 20.00     0.066 C 
HETATM    2  C6  UNL     1     -33.342  15.490  -3.174  1.00 20.00     0.116 C 
HETATM    3  N7  UNL     1     -33.196  17.106  -5.255  1.00 20.00    -0.197 NA
ENDROOT
BRANCH   2   4
HETATM    4  C4  UNL     1     -34.691  15.650  -2.453  1.00 20.00     0.017 C 
HETATM    5  C2  UNL     1     -34.596  16.495  -1.187  1.00 20.00     0.006 C 
ENDBRANCH   2   4
BRANCH   2   6
HETATM    6  C5  UNL     1     -33.155  14.038  -3.629  1.00 20.00     0.186 C 
BRANCH   6   7
HETATM    7  O8  UNL     1     -34.412  13.369  -3.615  1.00 20.00    -0.395 OA
HETATM    8  C3  UNL     1     -34.864  13.084  -4.931  1.00 20.00     0.201 C 
ENDBRANCH   6   7
ENDBRANCH   2   6
TORSDOF 3
ENDMDL
MODEL 6
REMARK VINA RESULT:      -3.6     11.674     12.593
REMARK  3 active torsions:
REMARK  status: ('A' for Active; 'I' for Inactive)
REMARK    1  A    between atoms: C4_4  and  C6_6 
REMARK    2  A    between atoms: C5_5  and  C6_6 
REMARK    3  A    between atoms: C5_5  and  O8_8 
ROOT
HETATM    1  C1  UNL     1     -34.365  13.721  -3.970  1.00 20.00     0.066 C 
HETATM    2  C6  UNL     1     -33.682  14.886  -3.366  1.00 20.00     0.116 C 
HETATM    3  N7  UNL     1     -34.899  12.806  -4.444  1.00 20.00    -0.197 NA
ENDROOT
BRANCH   2   4
HETATM    4  C4  UNL     1     -33.085  15.793  -4.454  1.00 20.00     0.017 C 
HETATM    5  C2  UNL     1     -34.055  16.076  -5.596  1.00 20.00     0.006 C 
ENDBRANCH   2   4
BRANCH   2   6
HETATM    6  C5  UNL     1     -34.672  15.677  -2.504  1.00 20.00     0.186 C 
BRANCH   6   7
HETATM    7  O8  UNL     1     -33.957  16.557  -1.642  1.00 20.00    -0.395 OA
HETATM    8  C3  UNL     1     -34.706  16.864  -0.475  1.00 20.00     0.201 C 
ENDBRANCH   6   7
ENDBRANCH   2   6
TORSDOF 3
ENDMDL
MODEL 7
REMARK VINA RESULT:      -3.6      1.598      3.596
REMARK  3 active torsions:
REMARK  status: ('A' for Active; 'I' for Inactive)
REMARK    1  A    between atoms: C4_4  and  C6_6 
REMARK    2  A    between atoms: C5_5  and  C6_6 
REMARK    3  A    between atoms: C5_5  and  O8_8 
ROOT
HETATM    1  C1  UNL     1     -33.695   6.724   5.374  1.00 20.00     0.066 C 
HETATM    2  C6  UNL     1     -33.823   6.548   3.911  1.00 20.00     0.116 C 
HETATM    3  N7  UNL     1     -33.594   6.864   6.521  1.00 20.00    -0.197 NA
ENDROOT
BRANCH   2   4
HETATM    4  C4  UNL     1     -32.439   6.484   3.245  1.00 20.00     0.017 C 
HETATM    5  C2  UNL     1     -32.084   7.755   2.480  1.00 20.00     0.006 C 
ENDBRANCH   2   4
BRANCH   2   6
HETATM    6  C5  UNL     1     -34.613   5.268   3.610  1.00 20.00     0.186 C 
BRANCH   6   7
HETATM    7  O8  UNL     1     -35.490   4.983   4.695  1.00 20.00    -0.395 OA
HETATM    8  C3  UNL     1     -35.081   3.821   5.401  1.00 20.00     0.201 C 
ENDBRANCH   6   7
ENDBRANCH   2   6
TORSDOF 3
ENDMDL
MODEL 8
REMARK VINA RESULT:      -3.5     12.017     12.831
REMARK  3 active torsions:
REMARK  status: ('A' for Active; 'I' for Inactive)
REMARK    1  A    between atoms: C4_4  and  C6_6 
REMARK    2  A    between atoms: C5_5  and  C6_6 
REMARK    3  A    between atoms: C5_5  and  O8_8 
ROOT
HETATM    1  C1  UNL     1     -35.155  13.799  -3.999  1.00 20.00     0.066 C 
HETATM    2  C6  UNL     1     -35.425  15.133  -3.419  1.00 20.00     0.116 C 
HETATM    3  N7  UNL     1     -34.943  12.752  -4.452  1.00 20.00    -0.197 NA
ENDROOT
BRANCH   2   4
HETATM    4  C4  UNL     1     -34.244  15.601  -2.553  1.00 20.00     0.017 C 
HETATM    5  C2  UNL     1     -34.679  16.410  -1.335  1.00 20.00     0.006 C 
ENDBRANCH   2   4
BRANCH   2   6
HETATM    6  C5  UNL     1     -35.688  16.142  -4.542  1.00 20.00     0.186 C 
BRANCH   6   7
HETATM    7  O8  UNL     1     -34.453  16.699  -4.982  1.00 20.00    -0.395 OA
HETATM    8  C3  UNL     1     -34.268  16.512  -6.377  1.00 20.00     0.201 C 
ENDBRANCH   6   7
ENDBRANCH   2   6
TORSDOF 3
ENDMDL
MODEL 9
REMARK VINA RESULT:      -3.5     12.048     12.914
REMARK  3 active torsions:
REMARK  status: ('A' for Active; 'I' for Inactive)
REMARK    1  A    between atoms: C4_4  and  C6_6 
REMARK    2  A    between atoms: C5_5  and  C6_6 
REMARK    3  A    between atoms: C5_5  and  O8_8 
ROOT
HETATM    1  C1  UNL     1     -35.092  14.105  -5.884  1.00 20.00     0.066 C 
HETATM    2  C6  UNL     1     -35.223  13.694  -4.469  1.00 20.00     0.116 C 
HETATM    3  N7  UNL     1     -34.989  14.426  -6.994  1.00 20.00    -0.197 NA
ENDROOT
BRANCH   2   4
HETATM    4  C4  UNL     1     -33.855  13.714  -3.767  1.00 20.00     0.017 C 
HETATM    5  C2  UNL     1     -33.234  15.105  -3.705  1.00 20.00     0.006 C 
ENDBRANCH   2   4
BRANCH   2   6
HETATM    6  C5  UNL     1     -36.200  14.628  -3.746  1.00 20.00     0.186 C 
BRANCH   6   7
HETATM    7  O8  UNL     1     -37.505  14.057  -3.760  1.00 20.00    -0.395 OA
HETATM    8  C3  UNL     1     -38.510  15.059  -3.792  1.00 20.00     0.201 C 
ENDBRANCH   6   7
ENDBRANCH   2   6
TORSDOF 3
ENDMDL
