MODEL 1
REMARK VINA RESULT:      -4.5      0.000      0.000
REMARK  0 active torsions:
REMARK  status: ('A' for Active; 'I' for Inactive)
ROOT
HETATM    1  C1  UNL     1     -34.768  16.688  -1.203  1.00 20.00     0.064 C 
HETATM    2  C2  UNL     1     -35.913  15.580  -3.087  1.00 20.00     0.020 C 
HETATM    3  C3  UNL     1     -33.411  15.943  -3.124  1.00 20.00     0.020 C 
HETATM    4  C4  UNL     1     -35.896  15.308  -4.592  1.00 20.00     0.010 C 
HETATM    5  C5  UNL     1     -33.394  15.670  -4.629  1.00 20.00     0.010 C 
HETATM    6  C6  UNL     1     -34.762  16.499  -2.664  1.00 20.00     0.093 C 
HETATM    7  C7  UNL     1     -34.546  14.755  -5.101  1.00 20.00    -0.048 C 
HETATM    8  C8  UNL     1     -34.565  14.728  -6.640  1.00 20.00     0.015 C 
HETATM    9  C9  UNL     1     -34.329  13.312  -4.605  1.00 20.00     0.015 C 
HETATM   10  N10 UNL     1     -34.772  16.836  -0.052  1.00 20.00    -0.197 NA
ENDROOT
TORSDOF 0
ENDMDL
MODEL 2
REMARK VINA RESULT:      -4.5      2.487      4.007
REMARK  0 active torsions:
REMARK  status: ('A' for Active; 'I' for Inactive)
ROOT
HETATM    1  C1  UNL     1     -34.382  13.719  -4.286  1.00 20.00     0.064 C 
HETATM    2  C2  UNL     1     -34.504  15.469  -2.552  1.00 20.00     0.020 C 
HETATM    3  C3  UNL     1     -34.011  16.063  -4.960  1.00 20.00     0.020 C 
HETATM    4  C4  UNL     1     -34.009  16.848  -2.112  1.00 20.00     0.010 C 
HETATM    5  C5  UNL     1     -33.517  17.441  -4.519  1.00 20.00     0.010 C 
HETATM    6  C6  UNL     1     -33.836  15.017  -3.855  1.00 20.00     0.093 C 
HETATM    7  C7  UNL     1     -34.158  17.932  -3.202  1.00 20.00    -0.048 C 
HETATM    8  C8  UNL     1     -33.435  19.210  -2.739  1.00 20.00     0.015 C 
HETATM    9  C9  UNL     1     -35.644  18.282  -3.420  1.00 20.00     0.015 C 
HETATM   10  N10 UNL     1     -34.812  12.697  -4.627  1.00 20.00    -0.197 NA
ENDROOT
TORSDOF 0
ENDMDL
MODEL 3
REMARK VINA RESULT:      -4.4      2.286      4.276
REMARK  0 active torsions:
REMARK  status: ('A' for Active; 'I' for Inactive)
ROOT
HETATM    1  C1  UNL     1     -34.821  13.699  -4.495  1.00 20.00     0.064 C 
HETATM    2  C2  UNL     1     -33.581  15.567  -3.466  1.00 20.00     0.020 C 
HETATM    3  C3  UNL     1     -36.087  15.370  -3.195  1.00 20.00     0.020 C 
HETATM    4  C4  UNL     1     -33.646  17.023  -3.002  1.00 20.00     0.010 C 
HETATM    5  C5  UNL     1     -36.152  16.826  -2.731  1.00 20.00     0.010 C 
HETATM    6  C6  UNL     1     -34.893  15.122  -4.121  1.00 20.00     0.093 C 
HETATM    7  C7  UNL     1     -34.844  17.320  -2.073  1.00 20.00    -0.048 C 
HETATM    8  C8  UNL     1     -34.940  18.840  -1.851  1.00 20.00     0.015 C 
HETATM    9  C9  UNL     1     -34.643  16.652  -0.699  1.00 20.00     0.015 C 
HETATM   10  N10 UNL     1     -34.765  12.578  -4.789  1.00 20.00    -0.197 NA
ENDROOT
TORSDOF 0
ENDMDL
MODEL 4
REMARK VINA RESULT:      -4.4      1.010      2.088
REMARK  0 active torsions:
REMARK  status: ('A' for Active; 'I' for Inactive)
ROOT
HETATM    1  C1  UNL     1     -34.506  16.336  -1.454  1.00 20.00     0.064 C 
HETATM    2  C2  UNL     1     -33.665  16.826  -3.721  1.00 20.00     0.020 C 
HETATM    3  C3  UNL     1     -35.564  15.194  -3.368  1.00 20.00     0.020 C 
HETATM    4  C4  UNL     1     -33.466  16.287  -5.139  1.00 20.00     0.010 C 
HETATM    5  C5  UNL     1     -35.365  14.656  -4.785  1.00 20.00     0.010 C 
HETATM    6  C6  UNL     1     -34.266  15.767  -2.791  1.00 20.00     0.093 C 
HETATM    7  C7  UNL     1     -34.751  15.690  -5.755  1.00 20.00    -0.048 C 
HETATM    8  C8  UNL     1     -34.391  14.985  -7.076  1.00 20.00     0.015 C 
HETATM    9  C9  UNL     1     -35.767  16.803  -6.075  1.00 20.00     0.015 C 
HETATM   10  N10 UNL     1     -34.696  16.785  -0.401  1.00 20.00    -0.197 NA
ENDROOT
TORSDOF 0
ENDMDL
MODEL 5
REMARK VINA RESULT:      -4.1      2.464      3.934
REMARK  0 active torsions:
REMARK  status: ('A' for Active; 'I' for Inactive)
ROOT
HETATM    1  C1  UNL     1     -34.953  13.649  -4.156  1.00 20.00     0.064 C 
HETATM    2  C2  UNL     1     -35.866  15.940  -4.214  1.00 20.00     0.020 C 
HETATM    3  C3  UNL     1     -33.768  15.415  -2.905  1.00 20.00     0.020 C 
HETATM    4  C4  UNL     1     -36.002  17.266  -3.462  1.00 20.00     0.010 C 
HETATM    5  C5  UNL     1     -33.905  16.740  -2.154  1.00 20.00     0.010 C 
HETATM    6  C6  UNL     1     -35.126  14.889  -3.380  1.00 20.00     0.093 C 
HETATM    7  C7  UNL     1     -34.655  17.826  -2.955  1.00 20.00    -0.048 C 
HETATM    8  C8  UNL     1     -34.929  19.029  -2.033  1.00 20.00     0.015 C 
HETATM    9  C9  UNL     1     -33.795  18.320  -4.135  1.00 20.00     0.015 C 
HETATM   10  N10 UNL     1     -34.816  12.673  -4.767  1.00 20.00    -0.197 NA
ENDROOT
TORSDOF 0
ENDMDL
MODEL 6
REMARK VINA RESULT:      -4.1     11.412     12.651
REMARK  0 active torsions:
REMARK  status: ('A' for Active; 'I' for Inactive)
ROOT
HETATM    1  C1  UNL     1     -42.416   8.059  -3.931  1.00 20.00     0.064 C 
HETATM    2  C2  UNL     1     -41.599   7.419  -1.693  1.00 20.00     0.020 C 
HETATM    3  C3  UNL     1     -42.943   5.799  -3.093  1.00 20.00     0.020 C 
HETATM    4  C4  UNL     1     -41.850   6.557  -0.454  1.00 20.00     0.010 C 
HETATM    5  C5  UNL     1     -43.193   4.937  -1.855  1.00 20.00     0.010 C 
HETATM    6  C6  UNL     1     -42.721   7.269  -2.725  1.00 20.00     0.093 C 
HETATM    7  C7  UNL     1     -42.089   5.067  -0.781  1.00 20.00    -0.048 C 
HETATM    8  C8  UNL     1     -42.547   4.341   0.497  1.00 20.00     0.015 C 
HETATM    9  C9  UNL     1     -40.785   4.401  -1.263  1.00 20.00     0.015 C 
HETATM   10  N10 UNL     1     -42.177   8.680  -4.881  1.00 20.00    -0.197 NA
ENDROOT
TORSDOF 0
ENDMDL
MODEL 7
REMARK VINA RESULT:      -4.0      2.599      4.254
REMARK  0 active torsions:
REMARK  status: ('A' for Active; 'I' for Inactive)
ROOT
HETATM    1  C1  UNL     1     -35.190  14.563  -6.390  1.00 20.00     0.064 C 
HETATM    2  C2  UNL     1     -36.110  15.872  -4.512  1.00 20.00     0.020 C 
HETATM    3  C3  UNL     1     -33.702  15.103  -4.497  1.00 20.00     0.020 C 
HETATM    4  C4  UNL     1     -36.027  16.160  -3.012  1.00 20.00     0.010 C 
HETATM    5  C5  UNL     1     -33.619  15.391  -2.998  1.00 20.00     0.010 C 
HETATM    6  C6  UNL     1     -35.132  14.770  -4.933  1.00 20.00     0.093 C 
HETATM    7  C7  UNL     1     -34.597  16.491  -2.528  1.00 20.00    -0.048 C 
HETATM    8  C8  UNL     1     -34.590  16.543  -0.990  1.00 20.00     0.015 C 
HETATM    9  C9  UNL     1     -34.153  17.871  -3.051  1.00 20.00     0.015 C 
HETATM   10  N10 UNL     1     -35.234  14.401  -7.538  1.00 20.00    -0.197 NA
ENDROOT
TORSDOF 0
ENDMDL
MODEL 8
REMARK VINA RESULT:      -4.0      2.354      3.486
REMARK  0 active torsions:
REMARK  status: ('A' for Active; 'I' for Inactive)
ROOT
HETATM    1  C1  UNL     1     -37.985  14.781  -4.164  1.00 20.00     0.064 C 
HETATM    2  C2  UNL     1     -35.973  15.706  -3.077  1.00 20.00     0.020 C 
HETATM    3  C3  UNL     1     -35.776  14.172  -5.077  1.00 20.00     0.020 C 
HETATM    4  C4  UNL     1     -34.492  15.485  -2.762  1.00 20.00     0.010 C 
HETATM    5  C5  UNL     1     -34.296  13.952  -4.762  1.00 20.00     0.010 C 
HETATM    6  C6  UNL     1     -36.579  14.509  -3.818  1.00 20.00     0.093 C 
HETATM    7  C7  UNL     1     -33.646  15.131  -4.005  1.00 20.00    -0.048 C 
HETATM    8  C8  UNL     1     -32.235  14.716  -3.548  1.00 20.00     0.015 C 
HETATM    9  C9  UNL     1     -33.503  16.355  -4.930  1.00 20.00     0.015 C 
HETATM   10  N10 UNL     1     -39.092  14.994  -4.438  1.00 20.00    -0.197 NA
ENDROOT
TORSDOF 0
ENDMDL
MODEL 9
REMARK VINA RESULT:      -4.0      2.851      4.132
REMARK  0 active torsions:
REMARK  status: ('A' for Active; 'I' for Inactive)
ROOT
HETATM    1  C1  UNL     1     -34.568  13.713  -4.915  1.00 20.00     0.064 C 
HETATM    2  C2  UNL     1     -33.916  16.065  -4.559  1.00 20.00     0.020 C 
HETATM    3  C3  UNL     1     -35.026  15.341  -6.711  1.00 20.00     0.020 C 
HETATM    4  C4  UNL     1     -33.474  17.369  -5.226  1.00 20.00     0.010 C 
HETATM    5  C5  UNL     1     -34.585  16.644  -7.378  1.00 20.00     0.010 C 
HETATM    6  C6  UNL     1     -34.079  14.933  -5.579  1.00 20.00     0.093 C 
HETATM    7  C7  UNL     1     -34.398  17.811  -6.382  1.00 20.00    -0.048 C 
HETATM    8  C8  UNL     1     -33.746  18.996  -7.118  1.00 20.00     0.015 C 
HETATM    9  C9  UNL     1     -35.760  18.283  -5.839  1.00 20.00     0.015 C 
HETATM   10  N10 UNL     1     -34.954  12.751  -4.393  1.00 20.00    -0.197 NA
ENDROOT
TORSDOF 0
ENDMDL
