MODEL 1
REMARK VINA RESULT:      -4.3      0.000      0.000
REMARK  3 active torsions:
REMARK  status: ('A' for Active; 'I' for Inactive)
REMARK    1  A    between atoms: C4_4  and  C5_5 
REMARK    2  A    between atoms: C4_4  and  C6_6 
REMARK    3  A    between atoms: C5_5  and  C7_7 
ROOT
HETATM    1  C5  UNL     1     -33.100   5.366   4.164  1.00 20.00     0.009 C 
ENDROOT
BRANCH   1   2
HETATM    2  C4  UNL     1     -33.101   6.299   2.946  1.00 20.00     0.016 C 
BRANCH   2   3
HETATM    3  C6  UNL     1     -32.012   7.358   3.073  1.00 20.00     0.114 C 
HETATM    4 CL8  UNL     1     -32.017   8.430   1.654  1.00 20.00    -0.130 Cl
ENDBRANCH   2   3
ENDBRANCH   1   2
BRANCH   1   5
HETATM    5  C7  UNL     1     -34.417   5.324   4.984  1.00 20.00    -0.051 C 
HETATM    6  C1  UNL     1     -34.694   3.907   5.517  1.00 20.00     0.014 C 
HETATM    7  C2  UNL     1     -34.371   6.308   6.163  1.00 20.00     0.014 C 
HETATM    8  C3  UNL     1     -35.575   5.729   4.053  1.00 20.00     0.014 C 
ENDBRANCH   1   5
TORSDOF 3
ENDMDL
MODEL 2
REMARK VINA RESULT:      -4.3      0.037      1.523
REMARK  3 active torsions:
REMARK  status: ('A' for Active; 'I' for Inactive)
REMARK    1  A    between atoms: C4_4  and  C5_5 
REMARK    2  A    between atoms: C4_4  and  C6_6 
REMARK    3  A    between atoms: C5_5  and  C7_7 
ROOT
HETATM    1  C5  UNL     1     -33.080   5.379   4.202  1.00 20.00     0.009 C 
ENDROOT
BRANCH   1   2
HETATM    2  C4  UNL     1     -33.051   6.265   2.950  1.00 20.00     0.016 C 
BRANCH   2   3
HETATM    3  C6  UNL     1     -31.991   7.353   3.080  1.00 20.00     0.114 C 
HETATM    4 CL8  UNL     1     -32.024   8.426   1.662  1.00 20.00    -0.130 Cl
ENDBRANCH   2   3
ENDBRANCH   1   2
BRANCH   1   5
HETATM    5  C7  UNL     1     -34.434   5.322   4.958  1.00 20.00    -0.051 C 
HETATM    6  C1  UNL     1     -35.602   5.713   4.037  1.00 20.00     0.014 C 
HETATM    7  C2  UNL     1     -34.691   3.921   5.535  1.00 20.00     0.014 C 
HETATM    8  C3  UNL     1     -34.375   6.328   6.124  1.00 20.00     0.014 C 
ENDBRANCH   1   5
TORSDOF 3
ENDMDL
MODEL 3
REMARK VINA RESULT:      -4.2      0.051      1.536
REMARK  3 active torsions:
REMARK  status: ('A' for Active; 'I' for Inactive)
REMARK    1  A    between atoms: C4_4  and  C5_5 
REMARK    2  A    between atoms: C4_4  and  C6_6 
REMARK    3  A    between atoms: C5_5  and  C7_7 
ROOT
HETATM    1  C5  UNL     1     -33.098   5.327   4.181  1.00 20.00     0.009 C 
ENDROOT
BRANCH   1   2
HETATM    2  C4  UNL     1     -33.043   6.222   2.935  1.00 20.00     0.016 C 
BRANCH   2   3
HETATM    3  C6  UNL     1     -31.996   7.318   3.101  1.00 20.00     0.114 C 
HETATM    4 CL8  UNL     1     -32.032   8.427   1.712  1.00 20.00    -0.130 Cl
ENDBRANCH   2   3
ENDBRANCH   1   2
BRANCH   1   5
HETATM    5  C7  UNL     1     -34.439   5.340   4.963  1.00 20.00    -0.051 C 
HETATM    6  C1  UNL     1     -34.380   6.318   6.149  1.00 20.00     0.014 C 
HETATM    7  C2  UNL     1     -35.614   5.721   4.049  1.00 20.00     0.014 C 
HETATM    8  C3  UNL     1     -34.686   3.922   5.512  1.00 20.00     0.014 C 
ENDBRANCH   1   5
TORSDOF 3
ENDMDL
MODEL 4
REMARK VINA RESULT:      -3.7      2.407      4.045
REMARK  3 active torsions:
REMARK  status: ('A' for Active; 'I' for Inactive)
REMARK    1  A    between atoms: C4_4  and  C5_5 
REMARK    2  A    between atoms: C4_4  and  C6_6 
REMARK    3  A    between atoms: C5_5  and  C7_7 
ROOT
HETATM    1  C5  UNL     1     -33.840   6.869   3.971  1.00 20.00     0.009 C 
ENDROOT
BRANCH   1   2
HETATM    2  C4  UNL     1     -34.588   5.565   3.663  1.00 20.00     0.016 C 
BRANCH   2   3
HETATM    3  C6  UNL     1     -35.077   4.904   4.946  1.00 20.00     0.114 C 
HETATM    4 CL8  UNL     1     -34.420   5.745   6.369  1.00 20.00    -0.130 Cl
ENDBRANCH   2   3
ENDBRANCH   1   2
BRANCH   1   5
HETATM    5  C7  UNL     1     -32.446   7.023   3.307  1.00 20.00    -0.051 C 
HETATM    6  C1  UNL     1     -32.518   7.933   2.069  1.00 20.00     0.014 C 
HETATM    7  C2  UNL     1     -31.418   7.593   4.296  1.00 20.00     0.014 C 
HETATM    8  C3  UNL     1     -31.973   5.627   2.859  1.00 20.00     0.014 C 
ENDBRANCH   1   5
TORSDOF 3
ENDMDL
MODEL 5
REMARK VINA RESULT:      -3.7      2.389      4.035
REMARK  3 active torsions:
REMARK  status: ('A' for Active; 'I' for Inactive)
REMARK    1  A    between atoms: C4_4  and  C5_5 
REMARK    2  A    between atoms: C4_4  and  C6_6 
REMARK    3  A    between atoms: C5_5  and  C7_7 
ROOT
HETATM    1  C5  UNL     1     -33.885   6.852   3.912  1.00 20.00     0.009 C 
ENDROOT
BRANCH   1   2
HETATM    2  C4  UNL     1     -34.586   5.505   3.692  1.00 20.00     0.016 C 
BRANCH   2   3
HETATM    3  C6  UNL     1     -35.105   4.943   5.011  1.00 20.00     0.114 C 
HETATM    4 CL8  UNL     1     -34.373   5.803   6.384  1.00 20.00    -0.130 Cl
ENDBRANCH   2   3
ENDBRANCH   1   2
BRANCH   1   5
HETATM    5  C7  UNL     1     -32.474   6.991   3.281  1.00 20.00    -0.051 C 
HETATM    6  C1  UNL     1     -31.920   5.621   2.851  1.00 20.00     0.014 C 
HETATM    7  C2  UNL     1     -32.496   7.932   2.067  1.00 20.00     0.014 C 
HETATM    8  C3  UNL     1     -31.530   7.586   4.344  1.00 20.00     0.014 C 
ENDBRANCH   1   5
TORSDOF 3
ENDMDL
MODEL 6
REMARK VINA RESULT:      -3.6      2.415      4.046
REMARK  3 active torsions:
REMARK  status: ('A' for Active; 'I' for Inactive)
REMARK    1  A    between atoms: C4_4  and  C5_5 
REMARK    2  A    between atoms: C4_4  and  C6_6 
REMARK    3  A    between atoms: C5_5  and  C7_7 
ROOT
HETATM    1  C5  UNL     1     -33.837   6.842   3.994  1.00 20.00     0.009 C 
ENDROOT
BRANCH   1   2
HETATM    2  C4  UNL     1     -34.611   5.553   3.686  1.00 20.00     0.016 C 
BRANCH   2   3
HETATM    3  C6  UNL     1     -35.097   4.892   4.971  1.00 20.00     0.114 C 
HETATM    4 CL8  UNL     1     -34.435   5.733   6.392  1.00 20.00    -0.130 Cl
ENDBRANCH   2   3
ENDBRANCH   1   2
BRANCH   1   5
HETATM    5  C7  UNL     1     -32.443   6.970   3.326  1.00 20.00    -0.051 C 
HETATM    6  C1  UNL     1     -31.419   7.592   4.291  1.00 20.00     0.014 C 
HETATM    7  C2  UNL     1     -31.925   5.604   2.850  1.00 20.00     0.014 C 
HETATM    8  C3  UNL     1     -32.582   7.894   2.101  1.00 20.00     0.014 C 
ENDBRANCH   1   5
TORSDOF 3
ENDMDL
MODEL 7
REMARK VINA RESULT:      -3.5     11.346     12.319
REMARK  3 active torsions:
REMARK  status: ('A' for Active; 'I' for Inactive)
REMARK    1  A    between atoms: C4_4  and  C5_5 
REMARK    2  A    between atoms: C4_4  and  C6_6 
REMARK    3  A    between atoms: C5_5  and  C7_7 
ROOT
HETATM    1  C5  UNL     1     -33.685  15.972  -2.693  1.00 20.00     0.009 C 
ENDROOT
BRANCH   1   2
HETATM    2  C4  UNL     1     -34.704  16.280  -1.588  1.00 20.00     0.016 C 
BRANCH   2   3
HETATM    3  C6  UNL     1     -34.164  17.341  -0.634  1.00 20.00     0.114 C 
HETATM    4 CL8  UNL     1     -35.132  17.387   0.857  1.00 20.00    -0.130 Cl
ENDBRANCH   2   3
ENDBRANCH   1   2
BRANCH   1   5
HETATM    5  C7  UNL     1     -34.185  15.045  -3.834  1.00 20.00    -0.051 C 
HETATM    6  C1  UNL     1     -33.982  15.700  -5.211  1.00 20.00     0.014 C 
HETATM    7  C2  UNL     1     -33.463  13.689  -3.806  1.00 20.00     0.014 C 
HETATM    8  C3  UNL     1     -35.692  14.802  -3.627  1.00 20.00     0.014 C 
ENDBRANCH   1   5
TORSDOF 3
ENDMDL
MODEL 8
REMARK VINA RESULT:      -3.5     11.332     12.302
REMARK  3 active torsions:
REMARK  status: ('A' for Active; 'I' for Inactive)
REMARK    1  A    between atoms: C4_4  and  C5_5 
REMARK    2  A    between atoms: C4_4  and  C6_6 
REMARK    3  A    between atoms: C5_5  and  C7_7 
ROOT
HETATM    1  C5  UNL     1     -33.705  15.934  -2.704  1.00 20.00     0.009 C 
ENDROOT
BRANCH   1   2
HETATM    2  C4  UNL     1     -34.720  16.271  -1.604  1.00 20.00     0.016 C 
BRANCH   2   3
HETATM    3  C6  UNL     1     -34.149  17.300  -0.635  1.00 20.00     0.114 C 
HETATM    4 CL8  UNL     1     -35.108  17.345   0.861  1.00 20.00    -0.130 Cl
ENDBRANCH   2   3
ENDBRANCH   1   2
BRANCH   1   5
HETATM    5  C7  UNL     1     -34.225  15.026  -3.850  1.00 20.00    -0.051 C 
HETATM    6  C1  UNL     1     -35.727  14.733  -3.688  1.00 20.00     0.014 C 
HETATM    7  C2  UNL     1     -33.980  15.667  -5.225  1.00 20.00     0.014 C 
HETATM    8  C3  UNL     1     -33.459  13.691  -3.789  1.00 20.00     0.014 C 
ENDBRANCH   1   5
TORSDOF 3
ENDMDL
MODEL 9
REMARK VINA RESULT:      -3.5     11.456     12.263
REMARK  3 active torsions:
REMARK  status: ('A' for Active; 'I' for Inactive)
REMARK    1  A    between atoms: C4_4  and  C5_5 
REMARK    2  A    between atoms: C4_4  and  C6_6 
REMARK    3  A    between atoms: C5_5  and  C7_7 
ROOT
HETATM    1  C5  UNL     1     -34.899  15.520  -2.929  1.00 20.00     0.009 C 
ENDROOT
BRANCH   1   2
HETATM    2  C4  UNL     1     -34.002  16.444  -2.095  1.00 20.00     0.016 C 
BRANCH   2   3
HETATM    3  C6  UNL     1     -34.614  16.698  -0.722  1.00 20.00     0.114 C 
HETATM    4 CL8  UNL     1     -33.727  17.985   0.126  1.00 20.00    -0.130 Cl
ENDBRANCH   2   3
ENDBRANCH   1   2
BRANCH   1   5
HETATM    5  C7  UNL     1     -34.181  14.697  -4.032  1.00 20.00    -0.051 C 
HETATM    6  C1  UNL     1     -34.869  13.338  -4.247  1.00 20.00     0.014 C 
HETATM    7  C2  UNL     1     -34.145  15.462  -5.364  1.00 20.00     0.014 C 
HETATM    8  C3  UNL     1     -32.732  14.443  -3.574  1.00 20.00     0.014 C 
ENDBRANCH   1   5
TORSDOF 3
ENDMDL
