MODEL 1
REMARK VINA RESULT:      -4.5      0.000      0.000
REMARK  1 active torsions:
REMARK  status: ('A' for Active; 'I' for Inactive)
REMARK    1  A    between atoms: C8_8  and  N10_10 
ROOT
HETATM    1  C1  UNL     1     -34.261  13.700  -4.596  1.00 20.00     0.177 C 
HETATM    2  N9  UNL     1     -34.820  12.682  -4.578  1.00 20.00    -0.172 NA
HETATM    3  N10 UNL     1     -33.614  14.877  -4.620  1.00 20.00    -0.324 N 
HETATM    4  H22 UNL     1     -33.472  15.370  -5.513  1.00 20.00     0.172 HD
ENDROOT
BRANCH   3   5
HETATM    5  C8  UNL     1     -33.539  15.794  -3.461  1.00 20.00     0.096 C 
HETATM    6  C5  UNL     1     -33.594  17.263  -3.918  1.00 20.00     0.031 C 
HETATM    7  C6  UNL     1     -34.845  17.801  -3.197  1.00 20.00    -0.012 C 
HETATM    8  C2  UNL     1     -34.559  17.883  -1.687  1.00 20.00     0.005 C 
HETATM    9  C4  UNL     1     -35.789  16.605  -3.272  1.00 20.00     0.011 C 
HETATM   10  C3  UNL     1     -34.547  16.408  -1.258  1.00 20.00     0.007 C 
HETATM   11  C7  UNL     1     -34.800  15.662  -2.580  1.00 20.00     0.009 C 
ENDBRANCH   3   5
TORSDOF 1
ENDMDL
MODEL 2
REMARK VINA RESULT:      -4.4      2.108      2.987
REMARK  1 active torsions:
REMARK  status: ('A' for Active; 'I' for Inactive)
REMARK    1  A    between atoms: C8_8  and  N10_10 
ROOT
HETATM    1  C1  UNL     1     -37.640  14.910  -4.314  1.00 20.00     0.177 C 
HETATM    2  N9  UNL     1     -38.507  14.316  -3.822  1.00 20.00    -0.172 NA
HETATM    3  N10 UNL     1     -36.637  15.601  -4.885  1.00 20.00    -0.324 N 
HETATM    4  H22 UNL     1     -36.718  16.619  -5.009  1.00 20.00     0.172 HD
ENDROOT
BRANCH   3   5
HETATM    5  C8  UNL     1     -35.228  15.150  -4.881  1.00 20.00     0.096 C 
HETATM    6  C5  UNL     1     -34.267  16.352  -4.833  1.00 20.00     0.031 C 
HETATM    7  C6  UNL     1     -33.473  16.105  -3.536  1.00 20.00    -0.012 C 
HETATM    8  C2  UNL     1     -32.551  14.889  -3.735  1.00 20.00     0.005 C 
HETATM    9  C4  UNL     1     -34.547  15.535  -2.613  1.00 20.00     0.011 C 
HETATM   10  C3  UNL     1     -33.534  13.708  -3.743  1.00 20.00     0.007 C 
HETATM   11  C7  UNL     1     -34.900  14.397  -3.575  1.00 20.00     0.009 C 
ENDBRANCH   3   5
TORSDOF 1
ENDMDL
MODEL 3
REMARK VINA RESULT:      -4.3     11.915     13.368
REMARK  1 active torsions:
REMARK  status: ('A' for Active; 'I' for Inactive)
REMARK    1  A    between atoms: C8_8  and  N10_10 
ROOT
HETATM    1  C1  UNL     1     -41.523   2.731  -2.962  1.00 20.00     0.177 C 
HETATM    2  N9  UNL     1     -41.749   2.008  -3.841  1.00 20.00    -0.172 NA
HETATM    3  N10 UNL     1     -41.259   3.566  -1.943  1.00 20.00    -0.324 N 
HETATM    4  H22 UNL     1     -40.500   3.350  -1.281  1.00 20.00     0.172 HD
ENDROOT
BRANCH   3   5
HETATM    5  C8  UNL     1     -41.585   5.009  -1.962  1.00 20.00     0.096 C 
HETATM    6  C5  UNL     1     -43.099   5.233  -1.799  1.00 20.00     0.031 C 
HETATM    7  C6  UNL     1     -43.186   6.086  -0.519  1.00 20.00    -0.012 C 
HETATM    8  C2  UNL     1     -42.623   7.488  -0.811  1.00 20.00     0.005 C 
HETATM    9  C4  UNL     1     -42.078   5.479   0.338  1.00 20.00     0.011 C 
HETATM   10  C3  UNL     1     -41.113   7.237  -0.933  1.00 20.00     0.007 C 
HETATM   11  C7  UNL     1     -40.999   5.717  -0.722  1.00 20.00     0.009 C 
ENDBRANCH   3   5
TORSDOF 1
ENDMDL
MODEL 4
REMARK VINA RESULT:      -4.3     12.505     14.059
REMARK  1 active torsions:
REMARK  status: ('A' for Active; 'I' for Inactive)
REMARK    1  A    between atoms: C8_8  and  N10_10 
ROOT
HETATM    1  C1  UNL     1     -43.367   2.375  -1.892  1.00 20.00     0.177 C 
HETATM    2  N9  UNL     1     -43.404   1.665  -2.809  1.00 20.00    -0.172 NA
HETATM    3  N10 UNL     1     -43.324   3.195  -0.827  1.00 20.00    -0.324 N 
HETATM    4  H22 UNL     1     -43.121   2.816   0.108  1.00 20.00     0.172 HD
ENDROOT
BRANCH   3   5
HETATM    5  C8  UNL     1     -43.022   4.640  -0.919  1.00 20.00     0.096 C 
HETATM    6  C5  UNL     1     -42.478   5.174   0.419  1.00 20.00     0.031 C 
HETATM    7  C6  UNL     1     -41.087   5.713   0.035  1.00 20.00    -0.012 C 
HETATM    8  C2  UNL     1     -41.258   6.971  -0.835  1.00 20.00     0.005 C 
HETATM    9  C4  UNL     1     -40.624   4.683  -0.993  1.00 20.00     0.011 C 
HETATM   10  C3  UNL     1     -41.766   6.402  -2.169  1.00 20.00     0.007 C 
HETATM   11  C7  UNL     1     -41.848   4.891  -1.890  1.00 20.00     0.009 C 
ENDBRANCH   3   5
TORSDOF 1
ENDMDL
MODEL 5
REMARK VINA RESULT:      -4.3      1.705      1.897
REMARK  1 active torsions:
REMARK  status: ('A' for Active; 'I' for Inactive)
REMARK    1  A    between atoms: C8_8  and  N10_10 
ROOT
HETATM    1  C1  UNL     1     -36.910  14.588  -3.868  1.00 20.00     0.177 C 
HETATM    2  N9  UNL     1     -38.034  14.326  -3.749  1.00 20.00    -0.172 NA
HETATM    3  N10 UNL     1     -35.608  14.892  -4.009  1.00 20.00    -0.324 N 
HETATM    4  H22 UNL     1     -35.239  15.167  -4.930  1.00 20.00     0.172 HD
ENDROOT
BRANCH   3   5
HETATM    5  C8  UNL     1     -34.756  15.378  -2.901  1.00 20.00     0.096 C 
HETATM    6  C5  UNL     1     -33.574  16.204  -3.438  1.00 20.00     0.031 C 
HETATM    7  C6  UNL     1     -33.779  17.576  -2.768  1.00 20.00    -0.012 C 
HETATM    8  C2  UNL     1     -33.498  17.445  -1.261  1.00 20.00     0.005 C 
HETATM    9  C4  UNL     1     -35.299  17.712  -2.791  1.00 20.00     0.011 C 
HETATM   10  C3  UNL     1     -34.709  16.650  -0.751  1.00 20.00     0.007 C 
HETATM   11  C7  UNL     1     -35.522  16.400  -2.034  1.00 20.00     0.009 C 
ENDBRANCH   3   5
TORSDOF 1
ENDMDL
MODEL 6
REMARK VINA RESULT:      -4.3      2.319      3.407
REMARK  1 active torsions:
REMARK  status: ('A' for Active; 'I' for Inactive)
REMARK    1  A    between atoms: C8_8  and  N10_10 
ROOT
HETATM    1  C1  UNL     1     -38.116  14.812  -3.699  1.00 20.00     0.177 C 
HETATM    2  N9  UNL     1     -38.998  14.383  -4.319  1.00 20.00    -0.172 NA
HETATM    3  N10 UNL     1     -37.095  15.308  -2.978  1.00 20.00    -0.324 N 
HETATM    4  H22 UNL     1     -36.928  14.970  -2.020  1.00 20.00     0.172 HD
ENDROOT
BRANCH   3   5
HETATM    5  C8  UNL     1     -35.879  15.898  -3.580  1.00 20.00     0.096 C 
HETATM    6  C5  UNL     1     -34.757  16.030  -2.534  1.00 20.00     0.031 C 
HETATM    7  C6  UNL     1     -33.624  15.176  -3.135  1.00 20.00    -0.012 C 
HETATM    8  C2  UNL     1     -33.067  15.885  -4.382  1.00 20.00     0.005 C 
HETATM    9  C4  UNL     1     -34.400  14.017  -3.755  1.00 20.00     0.011 C 
HETATM   10  C3  UNL     1     -34.191  15.705  -5.413  1.00 20.00     0.007 C 
HETATM   11  C7  UNL     1     -35.265  14.938  -4.621  1.00 20.00     0.009 C 
ENDBRANCH   3   5
TORSDOF 1
ENDMDL
MODEL 7
REMARK VINA RESULT:      -4.2     11.820     12.854
REMARK  1 active torsions:
REMARK  status: ('A' for Active; 'I' for Inactive)
REMARK    1  A    between atoms: C8_8  and  N10_10 
ROOT
HETATM    1  C1  UNL     1     -42.762   7.641  -3.971  1.00 20.00     0.177 C 
HETATM    2  N9  UNL     1     -43.389   7.987  -4.885  1.00 20.00    -0.172 NA
HETATM    3  N10 UNL     1     -42.035   7.244  -2.913  1.00 20.00    -0.324 N 
HETATM    4  H22 UNL     1     -41.293   7.852  -2.539  1.00 20.00     0.172 HD
ENDROOT
BRANCH   3   5
HETATM    5  C8  UNL     1     -42.516   6.271  -1.908  1.00 20.00     0.096 C 
HETATM    6  C5  UNL     1     -41.735   4.948  -2.005  1.00 20.00     0.031 C 
HETATM    7  C6  UNL     1     -41.107   4.815  -0.605  1.00 20.00    -0.012 C 
HETATM    8  C2  UNL     1     -42.219   4.526   0.419  1.00 20.00     0.005 C 
HETATM    9  C4  UNL     1     -40.754   6.264  -0.281  1.00 20.00     0.011 C 
HETATM   10  C3  UNL     1     -42.955   5.871   0.519  1.00 20.00     0.007 C 
HETATM   11  C7  UNL     1     -42.190   6.757  -0.480  1.00 20.00     0.009 C 
ENDBRANCH   3   5
TORSDOF 1
ENDMDL
MODEL 8
REMARK VINA RESULT:      -4.2      2.220      4.019
REMARK  1 active torsions:
REMARK  status: ('A' for Active; 'I' for Inactive)
REMARK    1  A    between atoms: C8_8  and  N10_10 
ROOT
HETATM    1  C1  UNL     1     -34.755  16.908  -1.096  1.00 20.00     0.177 C 
HETATM    2  N9  UNL     1     -34.096  17.393  -0.273  1.00 20.00    -0.172 NA
HETATM    3  N10 UNL     1     -35.520  16.349  -2.049  1.00 20.00    -0.324 N 
HETATM    4  H22 UNL     1     -36.116  16.940  -2.646  1.00 20.00     0.172 HD
ENDROOT
BRANCH   3   5
HETATM    5  C8  UNL     1     -35.217  15.046  -2.682  1.00 20.00     0.096 C 
HETATM    6  C5  UNL     1     -36.221  14.735  -3.807  1.00 20.00     0.031 C 
HETATM    7  C6  UNL     1     -35.317  14.600  -5.047  1.00 20.00    -0.012 C 
HETATM    8  C2  UNL     1     -34.478  13.316  -4.921  1.00 20.00     0.005 C 
HETATM    9  C4  UNL     1     -34.272  15.683  -4.793  1.00 20.00     0.011 C 
HETATM   10  C3  UNL     1     -33.467  13.671  -3.820  1.00 20.00     0.007 C 
HETATM   11  C7  UNL     1     -33.870  15.106  -3.433  1.00 20.00     0.009 C 
ENDBRANCH   3   5
TORSDOF 1
ENDMDL
MODEL 9
REMARK VINA RESULT:      -4.2      2.113      3.836
REMARK  1 active torsions:
REMARK  status: ('A' for Active; 'I' for Inactive)
REMARK    1  A    between atoms: C8_8  and  N10_10 
ROOT
HETATM    1  C1  UNL     1     -34.229  16.918  -1.231  1.00 20.00     0.177 C 
HETATM    2  N9  UNL     1     -33.555  17.807  -0.909  1.00 20.00    -0.172 NA
HETATM    3  N10 UNL     1     -35.010  15.889  -1.602  1.00 20.00    -0.324 N 
HETATM    4  H22 UNL     1     -35.767  15.566  -0.982  1.00 20.00     0.172 HD
ENDROOT
BRANCH   3   5
HETATM    5  C8  UNL     1     -35.244  15.505  -3.011  1.00 20.00     0.096 C 
HETATM    6  C5  UNL     1     -34.661  16.558  -3.972  1.00 20.00     0.031 C 
HETATM    7  C6  UNL     1     -33.644  15.745  -4.796  1.00 20.00    -0.012 C 
HETATM    8  C2  UNL     1     -34.404  14.772  -5.714  1.00 20.00     0.005 C 
HETATM    9  C4  UNL     1     -33.072  14.799  -3.743  1.00 20.00     0.011 C 
HETATM   10  C3  UNL     1     -34.941  13.719  -4.733  1.00 20.00     0.007 C 
HETATM   11  C7  UNL     1     -34.445  14.234  -3.370  1.00 20.00     0.009 C 
ENDBRANCH   3   5
TORSDOF 1
ENDMDL
