MODEL 1
REMARK VINA RESULT:      -4.5      0.000      0.000
REMARK  0 active torsions:
REMARK  status: ('A' for Active; 'I' for Inactive)
ROOT
HETATM    1  C1  UNL     1     -36.190  14.786  -4.945  1.00 20.00     0.035 C 
HETATM    2  C2  UNL     1     -36.078  15.317  -3.514  1.00 20.00     0.011 C 
HETATM    3  C3  UNL     1     -33.757  14.375  -3.148  1.00 20.00     0.043 C 
HETATM    4  C4  UNL     1     -35.161  13.759  -5.276  1.00 20.00     0.151 A 
HETATM    5  C5  UNL     1     -33.941  13.590  -4.411  1.00 20.00     0.151 A 
HETATM    6  C6  UNL     1     -34.627  15.653  -3.092  1.00 20.00    -0.045 C 
HETATM    7  C7  UNL     1     -34.641  16.182  -1.645  1.00 20.00     0.015 C 
HETATM    8  C8  UNL     1     -34.027  16.747  -3.995  1.00 20.00     0.015 C 
HETATM    9  O9  UNL     1     -35.052  12.673  -4.355  1.00 20.00    -0.375 OA
ENDROOT
TORSDOF 0
ENDMDL
MODEL 2
REMARK VINA RESULT:      -4.2      1.591      2.929
REMARK  0 active torsions:
REMARK  status: ('A' for Active; 'I' for Inactive)
ROOT
HETATM    1  C1  UNL     1     -33.717  15.331  -3.417  1.00 20.00     0.035 C 
HETATM    2  C2  UNL     1     -33.524  15.901  -4.823  1.00 20.00     0.011 C 
HETATM    3  C3  UNL     1     -34.946  14.130  -5.939  1.00 20.00     0.043 C 
HETATM    4  C4  UNL     1     -34.269  13.946  -3.412  1.00 20.00     0.151 A 
HETATM    5  C5  UNL     1     -34.914  13.374  -4.646  1.00 20.00     0.151 A 
HETATM    6  C6  UNL     1     -34.729  15.651  -5.762  1.00 20.00    -0.045 C 
HETATM    7  C7  UNL     1     -34.423  16.273  -7.138  1.00 20.00     0.015 C 
HETATM    8  C8  UNL     1     -36.006  16.312  -5.211  1.00 20.00     0.015 C 
HETATM    9  O9  UNL     1     -33.583  13.002  -4.236  1.00 20.00    -0.375 OA
ENDROOT
TORSDOF 0
ENDMDL
MODEL 3
REMARK VINA RESULT:      -4.1      1.036      2.281
REMARK  0 active torsions:
REMARK  status: ('A' for Active; 'I' for Inactive)
ROOT
HETATM    1  C1  UNL     1     -33.424  13.716  -3.704  1.00 20.00     0.035 C 
HETATM    2  C2  UNL     1     -33.084  15.199  -3.863  1.00 20.00     0.011 C 
HETATM    3  C3  UNL     1     -35.449  15.868  -4.468  1.00 20.00     0.043 C 
HETATM    4  C4  UNL     1     -34.747  13.347  -4.286  1.00 20.00     0.151 A 
HETATM    5  C5  UNL     1     -35.760  14.410  -4.620  1.00 20.00     0.151 A 
HETATM    6  C6  UNL     1     -34.261  16.143  -3.516  1.00 20.00    -0.045 C 
HETATM    7  C7  UNL     1     -33.800  17.601  -3.705  1.00 20.00     0.015 C 
HETATM    8  C8  UNL     1     -34.699  15.966  -2.050  1.00 20.00     0.015 C 
HETATM    9  O9  UNL     1     -34.967  13.762  -5.635  1.00 20.00    -0.375 OA
ENDROOT
TORSDOF 0
ENDMDL
MODEL 4
REMARK VINA RESULT:      -4.0     12.234     13.196
REMARK  0 active torsions:
REMARK  status: ('A' for Active; 'I' for Inactive)
ROOT
HETATM    1  C1  UNL     1     -34.054   6.658   5.832  1.00 20.00     0.035 C 
HETATM    2  C2  UNL     1     -33.619   6.246   4.425  1.00 20.00     0.011 C 
HETATM    3  C3  UNL     1     -34.879   4.052   4.476  1.00 20.00     0.043 C 
HETATM    4  C4  UNL     1     -34.632   5.535   6.625  1.00 20.00     0.151 A 
HETATM    5  C5  UNL     1     -35.078   4.268   5.946  1.00 20.00     0.151 A 
HETATM    6  C6  UNL     1     -34.659   5.365   3.690  1.00 20.00    -0.045 C 
HETATM    7  C7  UNL     1     -34.117   5.021   2.290  1.00 20.00     0.015 C 
HETATM    8  C8  UNL     1     -35.994   6.113   3.516  1.00 20.00     0.015 C 
HETATM    9  O9  UNL     1     -33.841   4.347   6.682  1.00 20.00    -0.375 OA
ENDROOT
TORSDOF 0
ENDMDL
MODEL 5
REMARK VINA RESULT:      -4.0      1.521      1.983
REMARK  0 active torsions:
REMARK  status: ('A' for Active; 'I' for Inactive)
ROOT
HETATM    1  C1  UNL     1     -34.013  16.094  -6.098  1.00 20.00     0.035 C 
HETATM    2  C2  UNL     1     -34.391  16.481  -4.667  1.00 20.00     0.011 C 
HETATM    3  C3  UNL     1     -35.078  14.133  -4.016  1.00 20.00     0.043 C 
HETATM    4  C4  UNL     1     -34.527  14.754  -6.504  1.00 20.00     0.151 A 
HETATM    5  C5  UNL     1     -35.011  13.774  -5.468  1.00 20.00     0.151 A 
HETATM    6  C6  UNL     1     -34.183  15.339  -3.643  1.00 20.00    -0.045 C 
HETATM    7  C7  UNL     1     -34.588  15.846  -2.246  1.00 20.00     0.015 C 
HETATM    8  C8  UNL     1     -32.705  14.908  -3.586  1.00 20.00     0.015 C 
HETATM    9  O9  UNL     1     -35.922  14.535  -6.286  1.00 20.00    -0.375 OA
ENDROOT
TORSDOF 0
ENDMDL
MODEL 6
REMARK VINA RESULT:      -4.0     10.803     11.654
REMARK  0 active torsions:
REMARK  status: ('A' for Active; 'I' for Inactive)
ROOT
HETATM    1  C1  UNL     1     -40.718   6.147  -0.043  1.00 20.00     0.035 C 
HETATM    2  C2  UNL     1     -40.879   7.114  -1.217  1.00 20.00     0.011 C 
HETATM    3  C3  UNL     1     -42.313   5.526  -2.570  1.00 20.00     0.043 C 
HETATM    4  C4  UNL     1     -41.113   4.747  -0.372  1.00 20.00     0.151 A 
HETATM    5  C5  UNL     1     -41.937   4.451  -1.596  1.00 20.00     0.151 A 
HETATM    6  C6  UNL     1     -42.221   6.951  -1.973  1.00 20.00    -0.045 C 
HETATM    7  C7  UNL     1     -42.272   7.975  -3.122  1.00 20.00     0.015 C 
HETATM    8  C8  UNL     1     -43.417   7.217  -1.040  1.00 20.00     0.015 C 
HETATM    9  O9  UNL     1     -40.519   4.197  -1.549  1.00 20.00    -0.375 OA
ENDROOT
TORSDOF 0
ENDMDL
MODEL 7
REMARK VINA RESULT:      -4.0     11.666     12.664
REMARK  0 active torsions:
REMARK  status: ('A' for Active; 'I' for Inactive)
ROOT
HETATM    1  C1  UNL     1     -43.126   6.348  -2.155  1.00 20.00     0.035 C 
HETATM    2  C2  UNL     1     -42.745   5.102  -2.956  1.00 20.00     0.011 C 
HETATM    3  C3  UNL     1     -40.910   4.407  -1.357  1.00 20.00     0.043 C 
HETATM    4  C4  UNL     1     -42.106   6.731  -1.137  1.00 20.00     0.151 A 
HETATM    5  C5  UNL     1     -41.041   5.755  -0.715  1.00 20.00     0.151 A 
HETATM    6  C6  UNL     1     -42.198   3.948  -2.081  1.00 20.00    -0.045 C 
HETATM    7  C7  UNL     1     -41.857   2.753  -2.991  1.00 20.00     0.015 C 
HETATM    8  C8  UNL     1     -43.249   3.484  -1.055  1.00 20.00     0.015 C 
HETATM    9  O9  UNL     1     -40.765   6.845  -1.617  1.00 20.00    -0.375 OA
ENDROOT
TORSDOF 0
ENDMDL
MODEL 8
REMARK VINA RESULT:      -4.0      1.928      3.169
REMARK  0 active torsions:
REMARK  status: ('A' for Active; 'I' for Inactive)
ROOT
HETATM    1  C1  UNL     1     -33.740  13.718  -3.830  1.00 20.00     0.035 C 
HETATM    2  C2  UNL     1     -35.203  13.984  -4.189  1.00 20.00     0.011 C 
HETATM    3  C3  UNL     1     -34.805  16.407  -4.805  1.00 20.00     0.043 C 
HETATM    4  C4  UNL     1     -32.936  14.963  -3.664  1.00 20.00     0.151 A 
HETATM    5  C5  UNL     1     -33.447  16.279  -4.186  1.00 20.00     0.151 A 
HETATM    6  C6  UNL     1     -35.384  15.056  -5.291  1.00 20.00    -0.045 C 
HETATM    7  C7  UNL     1     -36.889  15.232  -5.571  1.00 20.00     0.015 C 
HETATM    8  C8  UNL     1     -34.701  14.624  -6.602  1.00 20.00     0.015 C 
HETATM    9  O9  UNL     1     -33.489  15.944  -2.785  1.00 20.00    -0.375 OA
ENDROOT
TORSDOF 0
ENDMDL
MODEL 9
REMARK VINA RESULT:      -3.9      2.105      3.494
REMARK  0 active torsions:
REMARK  status: ('A' for Active; 'I' for Inactive)
ROOT
HETATM    1  C1  UNL     1     -34.038  16.737  -2.112  1.00 20.00     0.035 C 
HETATM    2  C2  UNL     1     -34.708  15.437  -2.561  1.00 20.00     0.011 C 
HETATM    3  C3  UNL     1     -34.136  15.767  -5.004  1.00 20.00     0.043 C 
HETATM    4  C4  UNL     1     -33.734  17.665  -3.239  1.00 20.00     0.151 A 
HETATM    5  C5  UNL     1     -33.741  17.171  -4.661  1.00 20.00     0.151 A 
HETATM    6  C6  UNL     1     -34.043  14.796  -3.803  1.00 20.00    -0.045 C 
HETATM    7  C7  UNL     1     -34.795  13.498  -4.154  1.00 20.00     0.015 C 
HETATM    8  C8  UNL     1     -32.573  14.435  -3.520  1.00 20.00     0.015 C 
HETATM    9  O9  UNL     1     -34.824  17.950  -4.117  1.00 20.00    -0.375 OA
ENDROOT
TORSDOF 0
ENDMDL
