MODEL 1
REMARK VINA RESULT:      -4.3      0.000      0.000
REMARK  0 active torsions:
REMARK  status: ('A' for Active; 'I' for Inactive)
ROOT
HETATM    1  C1  UNL     1     -34.266  14.874  -6.163  1.00 20.00     0.035 C 
HETATM    2  C2  UNL     1     -34.144  16.014  -5.151  1.00 20.00     0.011 C 
HETATM    3  C3  UNL     1     -34.979  14.600  -3.213  1.00 20.00     0.043 C 
HETATM    4  C4  UNL     1     -35.200  13.809  -5.695  1.00 20.00     0.151 A 
HETATM    5  C5  UNL     1     -35.525  13.653  -4.235  1.00 20.00     0.151 A 
HETATM    6  C6  UNL     1     -33.848  15.537  -3.711  1.00 20.00    -0.045 C 
HETATM    7  C7  UNL     1     -32.477  14.839  -3.627  1.00 20.00     0.015 C 
HETATM    8  C8  UNL     1     -33.792  16.771  -2.787  1.00 20.00     0.015 C 
HETATM    9  O9  UNL     1     -34.574  12.803  -4.878  1.00 20.00    -0.375 OA
ENDROOT
TORSDOF 0
ENDMDL
MODEL 2
REMARK VINA RESULT:      -4.1      1.205      1.894
REMARK  0 active torsions:
REMARK  status: ('A' for Active; 'I' for Inactive)
ROOT
HETATM    1  C1  UNL     1     -33.324  13.665  -3.758  1.00 20.00     0.035 C 
HETATM    2  C2  UNL     1     -32.972  15.153  -3.721  1.00 20.00     0.011 C 
HETATM    3  C3  UNL     1     -35.208  15.871  -4.691  1.00 20.00     0.043 C 
HETATM    4  C4  UNL     1     -34.428  13.375  -4.717  1.00 20.00     0.151 A 
HETATM    5  C5  UNL     1     -35.379  14.457  -5.151  1.00 20.00     0.151 A 
HETATM    6  C6  UNL     1     -34.198  16.076  -3.533  1.00 20.00    -0.045 C 
HETATM    7  C7  UNL     1     -34.869  15.835  -2.166  1.00 20.00     0.015 C 
HETATM    8  C8  UNL     1     -33.717  17.542  -3.556  1.00 20.00     0.015 C 
HETATM    9  O9  UNL     1     -35.743  13.508  -4.148  1.00 20.00    -0.375 OA
ENDROOT
TORSDOF 0
ENDMDL
MODEL 3
REMARK VINA RESULT:      -4.1      1.230      1.981
REMARK  0 active torsions:
REMARK  status: ('A' for Active; 'I' for Inactive)
ROOT
HETATM    1  C1  UNL     1     -36.228  14.520  -3.983  1.00 20.00     0.035 C 
HETATM    2  C2  UNL     1     -35.652  15.415  -2.885  1.00 20.00     0.011 C 
HETATM    3  C3  UNL     1     -33.246  14.807  -3.427  1.00 20.00     0.043 C 
HETATM    4  C4  UNL     1     -35.264  13.463  -4.406  1.00 20.00     0.151 A 
HETATM    5  C5  UNL     1     -33.788  13.622  -4.162  1.00 20.00     0.151 A 
HETATM    6  C6  UNL     1     -34.247  15.971  -3.211  1.00 20.00    -0.045 C 
HETATM    7  C7  UNL     1     -34.289  16.899  -4.442  1.00 20.00     0.015 C 
HETATM    8  C8  UNL     1     -33.764  16.817  -2.014  1.00 20.00     0.015 C 
HETATM    9  O9  UNL     1     -34.360  13.883  -5.444  1.00 20.00    -0.375 OA
ENDROOT
TORSDOF 0
ENDMDL
MODEL 4
REMARK VINA RESULT:      -4.1      1.521      3.088
REMARK  0 active torsions:
REMARK  status: ('A' for Active; 'I' for Inactive)
ROOT
HETATM    1  C1  UNL     1     -33.373  16.296  -4.665  1.00 20.00     0.035 C 
HETATM    2  C2  UNL     1     -33.868  15.837  -6.037  1.00 20.00     0.011 C 
HETATM    3  C3  UNL     1     -34.636  13.572  -5.181  1.00 20.00     0.043 C 
HETATM    4  C4  UNL     1     -33.117  15.146  -3.749  1.00 20.00     0.151 A 
HETATM    5  C5  UNL     1     -33.769  13.811  -3.985  1.00 20.00     0.151 A 
HETATM    6  C6  UNL     1     -35.049  14.841  -5.968  1.00 20.00    -0.045 C 
HETATM    7  C7  UNL     1     -36.294  15.499  -5.341  1.00 20.00     0.015 C 
HETATM    8  C8  UNL     1     -35.424  14.426  -7.407  1.00 20.00     0.015 C 
HETATM    9  O9  UNL     1     -34.277  14.722  -3.010  1.00 20.00    -0.375 OA
ENDROOT
TORSDOF 0
ENDMDL
MODEL 5
REMARK VINA RESULT:      -4.0      1.293      2.699
REMARK  0 active torsions:
REMARK  status: ('A' for Active; 'I' for Inactive)
ROOT
HETATM    1  C1  UNL     1     -33.261  15.310  -3.584  1.00 20.00     0.035 C 
HETATM    2  C2  UNL     1     -33.276  16.097  -4.895  1.00 20.00     0.011 C 
HETATM    3  C3  UNL     1     -34.785  14.426  -6.070  1.00 20.00     0.043 C 
HETATM    4  C4  UNL     1     -33.635  13.879  -3.787  1.00 20.00     0.151 A 
HETATM    5  C5  UNL     1     -34.417  13.449  -4.998  1.00 20.00     0.151 A 
HETATM    6  C6  UNL     1     -34.577  15.919  -5.711  1.00 20.00    -0.045 C 
HETATM    7  C7  UNL     1     -35.793  16.477  -4.947  1.00 20.00     0.015 C 
HETATM    8  C8  UNL     1     -34.448  16.725  -7.021  1.00 20.00     0.015 C 
HETATM    9  O9  UNL     1     -35.052  13.635  -3.732  1.00 20.00    -0.375 OA
ENDROOT
TORSDOF 0
ENDMDL
MODEL 6
REMARK VINA RESULT:      -4.0      1.735      2.058
REMARK  0 active torsions:
REMARK  status: ('A' for Active; 'I' for Inactive)
ROOT
HETATM    1  C1  UNL     1     -36.179  14.915  -5.904  1.00 20.00     0.035 C 
HETATM    2  C2  UNL     1     -34.778  15.350  -5.471  1.00 20.00     0.011 C 
HETATM    3  C3  UNL     1     -35.366  15.349  -3.000  1.00 20.00     0.043 C 
HETATM    4  C4  UNL     1     -37.201  15.199  -4.856  1.00 20.00     0.151 A 
HETATM    5  C5  UNL     1     -36.803  15.379  -3.416  1.00 20.00     0.151 A 
HETATM    6  C6  UNL     1     -34.372  14.832  -4.072  1.00 20.00    -0.045 C 
HETATM    7  C7  UNL     1     -34.290  13.293  -4.051  1.00 20.00     0.015 C 
HETATM    8  C8  UNL     1     -32.966  15.372  -3.738  1.00 20.00     0.015 C 
HETATM    9  O9  UNL     1     -37.348  14.145  -3.886  1.00 20.00    -0.375 OA
ENDROOT
TORSDOF 0
ENDMDL
MODEL 7
REMARK VINA RESULT:      -4.0      1.242      2.118
REMARK  0 active torsions:
REMARK  status: ('A' for Active; 'I' for Inactive)
ROOT
HETATM    1  C1  UNL     1     -36.403  14.603  -4.836  1.00 20.00     0.035 C 
HETATM    2  C2  UNL     1     -35.661  15.937  -4.929  1.00 20.00     0.011 C 
HETATM    3  C3  UNL     1     -33.409  14.910  -4.362  1.00 20.00     0.043 C 
HETATM    4  C4  UNL     1     -35.647  13.598  -4.034  1.00 20.00     0.151 A 
HETATM    5  C5  UNL     1     -34.162  13.732  -3.829  1.00 20.00     0.151 A 
HETATM    6  C6  UNL     1     -34.185  15.797  -5.368  1.00 20.00    -0.045 C 
HETATM    7  C7  UNL     1     -34.082  15.231  -6.798  1.00 20.00     0.015 C 
HETATM    8  C8  UNL     1     -33.542  17.200  -5.382  1.00 20.00     0.015 C 
HETATM    9  O9  UNL     1     -34.699  12.835  -4.802  1.00 20.00    -0.375 OA
ENDROOT
TORSDOF 0
ENDMDL
MODEL 8
REMARK VINA RESULT:      -3.9      1.711      3.260
REMARK  0 active torsions:
REMARK  status: ('A' for Active; 'I' for Inactive)
ROOT
HETATM    1  C1  UNL     1     -33.664  13.915  -3.888  1.00 20.00     0.035 C 
HETATM    2  C2  UNL     1     -35.137  14.006  -4.288  1.00 20.00     0.011 C 
HETATM    3  C3  UNL     1     -35.002  16.482  -4.839  1.00 20.00     0.043 C 
HETATM    4  C4  UNL     1     -33.096  15.250  -3.541  1.00 20.00     0.151 A 
HETATM    5  C5  UNL     1     -33.737  16.516  -4.040  1.00 20.00     0.151 A 
HETATM    6  C6  UNL     1     -35.424  15.084  -5.359  1.00 20.00    -0.045 C 
HETATM    7  C7  UNL     1     -34.713  14.752  -6.686  1.00 20.00     0.015 C 
HETATM    8  C8  UNL     1     -36.940  15.103  -5.642  1.00 20.00     0.015 C 
HETATM    9  O9  UNL     1     -32.578  15.973  -4.672  1.00 20.00    -0.375 OA
ENDROOT
TORSDOF 0
ENDMDL
MODEL 9
REMARK VINA RESULT:      -3.9      1.270      2.315
REMARK  0 active torsions:
REMARK  status: ('A' for Active; 'I' for Inactive)
ROOT
HETATM    1  C1  UNL     1     -34.948  13.269  -4.519  1.00 20.00     0.035 C 
HETATM    2  C2  UNL     1     -34.227  14.091  -3.451  1.00 20.00     0.011 C 
HETATM    3  C3  UNL     1     -34.324  16.237  -4.807  1.00 20.00     0.043 C 
HETATM    4  C4  UNL     1     -34.872  13.909  -5.864  1.00 20.00     0.151 A 
HETATM    5  C5  UNL     1     -34.598  15.382  -6.004  1.00 20.00     0.151 A 
HETATM    6  C6  UNL     1     -34.634  15.583  -3.437  1.00 20.00    -0.045 C 
HETATM    7  C7  UNL     1     -36.122  15.749  -3.070  1.00 20.00     0.015 C 
HETATM    8  C8  UNL     1     -33.810  16.305  -2.350  1.00 20.00     0.015 C 
HETATM    9  O9  UNL     1     -35.923  14.860  -6.116  1.00 20.00    -0.375 OA
ENDROOT
TORSDOF 0
ENDMDL
