MODEL 1
REMARK VINA RESULT:      -4.7      0.000      0.000
REMARK  2 active torsions:
REMARK  status: ('A' for Active; 'I' for Inactive)
REMARK    1  A    between atoms: C2_2  and  C9_9 
REMARK    2  A    between atoms: C9_9  and  N11_11 
ROOT
HETATM    1  C1  UNL     1     -34.609  16.924  -0.678  1.00 20.00    -0.109 C 
HETATM    2  C2  UNL     1     -34.243  16.601  -1.776  1.00 20.00    -0.077 C 
HETATM    3  C8  UNL     1     -35.056  17.316   0.658  1.00 20.00     0.112 C 
ENDROOT
BRANCH   2   4
HETATM    4  C9  UNL     1     -33.800  16.211  -3.117  1.00 20.00     0.367 C 
BRANCH   4   5
HETATM    5  N11 UNL     1     -34.939  15.963  -3.991  1.00 20.00     0.117 N 
HETATM    6  C6  UNL     1     -35.875  17.087  -4.005  1.00 20.00     0.275 C 
HETATM    7  C4  UNL     1     -37.086  16.475  -4.679  1.00 20.00     0.033 C 
HETATM    8  C5  UNL     1     -37.141  15.066  -4.104  1.00 20.00     0.053 C 
HETATM    9  C7  UNL     1     -35.720  14.778  -3.601  1.00 20.00     0.329 C 
HETATM   10  C3  UNL     1     -35.175  13.559  -4.213  1.00 20.00     0.095 C 
HETATM   11  N10 UNL     1     -34.745  12.596  -4.697  1.00 20.00    -0.195 NA
ENDBRANCH   4   5
ENDBRANCH   2   4
TORSDOF 2
ENDMDL
MODEL 2
REMARK VINA RESULT:      -4.6      1.416      2.442
REMARK  2 active torsions:
REMARK  status: ('A' for Active; 'I' for Inactive)
REMARK    1  A    between atoms: C2_2  and  C9_9 
REMARK    2  A    between atoms: C9_9  and  N11_11 
ROOT
HETATM    1  C1  UNL     1     -34.824  17.150  -0.449  1.00 20.00    -0.109 C 
HETATM    2  C2  UNL     1     -34.770  16.907  -1.624  1.00 20.00    -0.077 C 
HETATM    3  C8  UNL     1     -34.889  17.446   0.982  1.00 20.00     0.112 C 
ENDROOT
BRANCH   2   4
HETATM    4  C9  UNL     1     -34.710  16.611  -3.058  1.00 20.00     0.367 C 
BRANCH   4   5
HETATM    5  N11 UNL     1     -34.685  15.173  -3.293  1.00 20.00     0.117 N 
HETATM    6  C6  UNL     1     -33.333  14.686  -3.565  1.00 20.00     0.275 C 
HETATM    7  C4  UNL     1     -33.605  13.293  -4.095  1.00 20.00     0.033 C 
HETATM    8  C5  UNL     1     -34.851  13.473  -4.951  1.00 20.00     0.053 C 
HETATM    9  C7  UNL     1     -35.513  14.759  -4.437  1.00 20.00     0.329 C 
HETATM   10  C3  UNL     1     -36.902  14.517  -4.027  1.00 20.00     0.095 C 
HETATM   11  N10 UNL     1     -37.999  14.325  -3.703  1.00 20.00    -0.195 NA
ENDBRANCH   4   5
ENDBRANCH   2   4
TORSDOF 2
ENDMDL
MODEL 3
REMARK VINA RESULT:      -4.5      1.616      2.038
REMARK  2 active torsions:
REMARK  status: ('A' for Active; 'I' for Inactive)
REMARK    1  A    between atoms: C2_2  and  C9_9 
REMARK    2  A    between atoms: C9_9  and  N11_11 
ROOT
HETATM    1  C1  UNL     1     -33.271  17.832  -0.581  1.00 20.00    -0.109 C 
HETATM    2  C2  UNL     1     -33.916  17.064  -1.241  1.00 20.00    -0.077 C 
HETATM    3  C8  UNL     1     -32.486  18.768   0.223  1.00 20.00     0.112 C 
ENDROOT
BRANCH   2   4
HETATM    4  C9  UNL     1     -34.697  16.124  -2.049  1.00 20.00     0.367 C 
BRANCH   4   5
HETATM    5  N11 UNL     1     -34.113  15.964  -3.375  1.00 20.00     0.117 N 
HETATM    6  C6  UNL     1     -33.674  17.241  -3.937  1.00 20.00     0.275 C 
HETATM    7  C4  UNL     1     -33.436  16.876  -5.388  1.00 20.00     0.033 C 
HETATM    8  C5  UNL     1     -34.577  15.921  -5.709  1.00 20.00     0.053 C 
HETATM    9  C7  UNL     1     -35.046  15.379  -4.351  1.00 20.00     0.329 C 
HETATM   10  C3  UNL     1     -34.998  13.911  -4.318  1.00 20.00     0.095 C 
HETATM   11  N10 UNL     1     -34.959  12.752  -4.291  1.00 20.00    -0.195 NA
ENDBRANCH   4   5
ENDBRANCH   2   4
TORSDOF 2
ENDMDL
MODEL 4
REMARK VINA RESULT:      -4.4      1.400      2.656
REMARK  2 active torsions:
REMARK  status: ('A' for Active; 'I' for Inactive)
REMARK    1  A    between atoms: C2_2  and  C9_9 
REMARK    2  A    between atoms: C9_9  and  N11_11 
ROOT
HETATM    1  C1  UNL     1     -34.604  16.952  -0.562  1.00 20.00    -0.109 C 
HETATM    2  C2  UNL     1     -34.159  16.591  -1.617  1.00 20.00    -0.077 C 
HETATM    3  C8  UNL     1     -35.146  17.390   0.724  1.00 20.00     0.112 C 
ENDROOT
BRANCH   2   4
HETATM    4  C9  UNL     1     -33.622  16.151  -2.908  1.00 20.00     0.367 C 
BRANCH   4   5
HETATM    5  N11 UNL     1     -34.546  15.244  -3.576  1.00 20.00     0.117 N 
HETATM    6  C6  UNL     1     -34.079  13.858  -3.535  1.00 20.00     0.275 C 
HETATM    7  C4  UNL     1     -34.990  13.194  -4.547  1.00 20.00     0.033 C 
HETATM    8  C5  UNL     1     -35.113  14.232  -5.654  1.00 20.00     0.053 C 
HETATM    9  C7  UNL     1     -34.754  15.571  -4.995  1.00 20.00     0.329 C 
HETATM   10  C3  UNL     1     -35.833  16.554  -5.162  1.00 20.00     0.095 C 
HETATM   11  N10 UNL     1     -36.685  17.329  -5.293  1.00 20.00    -0.195 NA
ENDBRANCH   4   5
ENDBRANCH   2   4
TORSDOF 2
ENDMDL
MODEL 5
REMARK VINA RESULT:      -4.3      2.202      3.201
REMARK  2 active torsions:
REMARK  status: ('A' for Active; 'I' for Inactive)
REMARK    1  A    between atoms: C2_2  and  C9_9 
REMARK    2  A    between atoms: C9_9  and  N11_11 
ROOT
HETATM    1  C1  UNL     1     -34.494  16.328  -1.531  1.00 20.00    -0.109 C 
HETATM    2  C2  UNL     1     -34.172  15.654  -2.472  1.00 20.00    -0.077 C 
HETATM    3  C8  UNL     1     -34.888  17.147  -0.386  1.00 20.00     0.112 C 
ENDROOT
BRANCH   2   4
HETATM    4  C9  UNL     1     -33.783  14.835  -3.623  1.00 20.00     0.367 C 
BRANCH   4   5
HETATM    5  N11 UNL     1     -34.518  15.231  -4.818  1.00 20.00     0.117 N 
HETATM    6  C6  UNL     1     -35.099  14.080  -5.510  1.00 20.00     0.275 C 
HETATM    7  C4  UNL     1     -35.495  14.686  -6.840  1.00 20.00     0.033 C 
HETATM    8  C5  UNL     1     -34.348  15.636  -7.157  1.00 20.00     0.053 C 
HETATM    9  C7  UNL     1     -33.682  15.931  -5.806  1.00 20.00     0.329 C 
HETATM   10  C3  UNL     1     -33.638  17.374  -5.536  1.00 20.00     0.095 C 
HETATM   11  N10 UNL     1     -33.604  18.514  -5.324  1.00 20.00    -0.195 NA
ENDBRANCH   4   5
ENDBRANCH   2   4
TORSDOF 2
ENDMDL
MODEL 6
REMARK VINA RESULT:      -4.2      1.585      1.999
REMARK  2 active torsions:
REMARK  status: ('A' for Active; 'I' for Inactive)
REMARK    1  A    between atoms: C2_2  and  C9_9 
REMARK    2  A    between atoms: C9_9  and  N11_11 
ROOT
HETATM    1  C1  UNL     1     -34.423  16.706  -1.123  1.00 20.00    -0.109 C 
HETATM    2  C2  UNL     1     -34.416  15.923  -2.034  1.00 20.00    -0.077 C 
HETATM    3  C8  UNL     1     -34.433  17.659  -0.014  1.00 20.00     0.112 C 
ENDROOT
BRANCH   2   4
HETATM    4  C9  UNL     1     -34.406  14.972  -3.149  1.00 20.00     0.367 C 
BRANCH   4   5
HETATM    5  N11 UNL     1     -35.149  15.496  -4.288  1.00 20.00     0.117 N 
HETATM    6  C6  UNL     1     -34.403  16.537  -4.996  1.00 20.00     0.275 C 
HETATM    7  C4  UNL     1     -35.474  17.138  -5.882  1.00 20.00     0.033 C 
HETATM    8  C5  UNL     1     -36.711  17.147  -4.994  1.00 20.00     0.053 C 
HETATM    9  C7  UNL     1     -36.440  16.093  -3.912  1.00 20.00     0.329 C 
HETATM   10  C3  UNL     1     -37.503  15.080  -3.876  1.00 20.00     0.095 C 
HETATM   11  N10 UNL     1     -38.342  14.280  -3.849  1.00 20.00    -0.195 NA
ENDBRANCH   4   5
ENDBRANCH   2   4
TORSDOF 2
ENDMDL
MODEL 7
REMARK VINA RESULT:      -4.2      1.937      2.726
REMARK  2 active torsions:
REMARK  status: ('A' for Active; 'I' for Inactive)
REMARK    1  A    between atoms: C2_2  and  C9_9 
REMARK    2  A    between atoms: C9_9  and  N11_11 
ROOT
HETATM    1  C1  UNL     1     -34.069  16.097  -2.379  1.00 20.00    -0.109 C 
HETATM    2  C2  UNL     1     -34.320  15.083  -2.973  1.00 20.00    -0.077 C 
HETATM    3  C8  UNL     1     -33.763  17.331  -1.656  1.00 20.00     0.112 C 
ENDROOT
BRANCH   2   4
HETATM    4  C9  UNL     1     -34.625  13.844  -3.693  1.00 20.00     0.367 C 
BRANCH   4   5
HETATM    5  N11 UNL     1     -35.412  14.115  -4.889  1.00 20.00     0.117 N 
HETATM    6  C6  UNL     1     -34.569  14.471  -6.030  1.00 20.00     0.275 C 
HETATM    7  C4  UNL     1     -35.587  15.020  -7.009  1.00 20.00     0.033 C 
HETATM    8  C5  UNL     1     -36.548  15.803  -6.124  1.00 20.00     0.053 C 
HETATM    9  C7  UNL     1     -36.365  15.222  -4.715  1.00 20.00     0.329 C 
HETATM   10  C3  UNL     1     -37.641  14.744  -4.167  1.00 20.00     0.095 C 
HETATM   11  N10 UNL     1     -38.649  14.365  -3.734  1.00 20.00    -0.195 NA
ENDBRANCH   4   5
ENDBRANCH   2   4
TORSDOF 2
ENDMDL
MODEL 8
REMARK VINA RESULT:      -4.2      1.803      2.113
REMARK  2 active torsions:
REMARK  status: ('A' for Active; 'I' for Inactive)
REMARK    1  A    between atoms: C2_2  and  C9_9 
REMARK    2  A    between atoms: C9_9  and  N11_11 
ROOT
HETATM    1  C1  UNL     1     -35.013  16.833  -1.489  1.00 20.00    -0.109 C 
HETATM    2  C2  UNL     1     -35.523  16.496  -2.523  1.00 20.00    -0.077 C 
HETATM    3  C8  UNL     1     -34.393  17.242  -0.229  1.00 20.00     0.112 C 
ENDROOT
BRANCH   2   4
HETATM    4  C9  UNL     1     -36.147  16.091  -3.785  1.00 20.00     0.367 C 
BRANCH   4   5
HETATM    5  N11 UNL     1     -35.146  15.914  -4.829  1.00 20.00     0.117 N 
HETATM    6  C6  UNL     1     -35.427  16.741  -6.003  1.00 20.00     0.275 C 
HETATM    7  C4  UNL     1     -34.487  16.148  -7.032  1.00 20.00     0.033 C 
HETATM    8  C5  UNL     1     -34.554  14.652  -6.758  1.00 20.00     0.053 C 
HETATM    9  C7  UNL     1     -35.051  14.527  -5.312  1.00 20.00     0.329 C 
HETATM   10  C3  UNL     1     -34.118  13.743  -4.492  1.00 20.00     0.095 C 
HETATM   11  N10 UNL     1     -33.381  13.124  -3.845  1.00 20.00    -0.195 NA
ENDBRANCH   4   5
ENDBRANCH   2   4
TORSDOF 2
ENDMDL
MODEL 9
REMARK VINA RESULT:      -4.1      2.243      4.090
REMARK  2 active torsions:
REMARK  status: ('A' for Active; 'I' for Inactive)
REMARK    1  A    between atoms: C2_2  and  C9_9 
REMARK    2  A    between atoms: C9_9  and  N11_11 
ROOT
HETATM    1  C1  UNL     1     -34.592  17.547  -6.482  1.00 20.00    -0.109 C 
HETATM    2  C2  UNL     1     -34.749  17.298  -5.318  1.00 20.00    -0.077 C 
HETATM    3  C8  UNL     1     -34.402  17.850  -7.901  1.00 20.00     0.112 C 
ENDROOT
BRANCH   2   4
HETATM    4  C9  UNL     1     -34.934  16.992  -3.897  1.00 20.00     0.367 C 
BRANCH   4   5
HETATM    5  N11 UNL     1     -34.775  15.566  -3.646  1.00 20.00     0.117 N 
HETATM    6  C6  UNL     1     -33.382  15.139  -3.774  1.00 20.00     0.275 C 
HETATM    7  C4  UNL     1     -33.521  13.631  -3.809  1.00 20.00     0.033 C 
HETATM    8  C5  UNL     1     -34.773  13.406  -4.646  1.00 20.00     0.053 C 
HETATM    9  C7  UNL     1     -35.554  14.725  -4.569  1.00 20.00     0.329 C 
HETATM   10  C3  UNL     1     -36.917  14.509  -4.068  1.00 20.00     0.095 C 
HETATM   11  N10 UNL     1     -37.994  14.337  -3.672  1.00 20.00    -0.195 NA
ENDBRANCH   4   5
ENDBRANCH   2   4
TORSDOF 2
ENDMDL
