MODEL 1
REMARK VINA RESULT:      -5.4      0.000      0.000
REMARK  4 active torsions:
REMARK  status: ('A' for Active; 'I' for Inactive)
REMARK    1  A    between atoms: C4_4  and  C6_6 
REMARK    2  A    between atoms: C5_5  and  C8_8 
REMARK    3  A    between atoms: C6_6  and  C7_7 
REMARK    4  A    between atoms: C7_7  and  C8_8 
ROOT
HETATM    1  C1  UNL     1     -32.188   9.018   1.150  1.00 20.00     0.012 C 
HETATM    2  C2  UNL     1     -32.066   8.266   2.077  1.00 20.00    -0.117 C 
HETATM    3  C4  UNL     1     -31.912   7.348   3.214  1.00 20.00     0.093 C 
ENDROOT
BRANCH   3   4
HETATM    4  C6  UNL     1     -32.755   6.080   3.055  1.00 20.00     0.014 C 
BRANCH   4   5
HETATM    5  C7  UNL     1     -34.077   6.146   3.834  1.00 20.00     0.021 C 
BRANCH   5   6
HETATM    6  C8  UNL     1     -34.068   5.287   5.108  1.00 20.00     0.082 C 
HETATM    7 CL9  UNL     1     -35.229   3.929   4.968  1.00 20.00    -0.125 Cl
BRANCH   6   8
HETATM    8  C5  UNL     1     -34.351   6.101   6.381  1.00 20.00     0.016 C 
HETATM    9  C3  UNL     1     -33.362   7.220   6.678  1.00 20.00     0.006 C 
ENDBRANCH   6   8
ENDBRANCH   5   6
ENDBRANCH   4   5
ENDBRANCH   3   4
TORSDOF 4
ENDMDL
MODEL 2
REMARK VINA RESULT:      -5.2      1.707      1.893
REMARK  4 active torsions:
REMARK  status: ('A' for Active; 'I' for Inactive)
REMARK    1  A    between atoms: C4_4  and  C6_6 
REMARK    2  A    between atoms: C5_5  and  C8_8 
REMARK    3  A    between atoms: C6_6  and  C7_7 
REMARK    4  A    between atoms: C7_7  and  C8_8 
ROOT
HETATM    1  C1  UNL     1     -32.087   8.788   0.935  1.00 20.00     0.012 C 
HETATM    2  C2  UNL     1     -31.941   8.259   2.003  1.00 20.00    -0.117 C 
HETATM    3  C4  UNL     1     -31.761   7.615   3.312  1.00 20.00     0.093 C 
ENDROOT
BRANCH   3   4
HETATM    4  C6  UNL     1     -32.223   6.157   3.311  1.00 20.00     0.014 C 
BRANCH   4   5
HETATM    5  C7  UNL     1     -33.716   6.007   2.984  1.00 20.00     0.021 C 
BRANCH   5   6
HETATM    6  C8  UNL     1     -34.604   5.954   4.237  1.00 20.00     0.082 C 
HETATM    7 CL9  UNL     1     -33.734   6.608   5.661  1.00 20.00    -0.125 Cl
BRANCH   6   8
HETATM    8  C5  UNL     1     -35.132   4.543   4.537  1.00 20.00     0.016 C 
HETATM    9  C3  UNL     1     -34.961   4.069   5.974  1.00 20.00     0.006 C 
ENDBRANCH   6   8
ENDBRANCH   5   6
ENDBRANCH   4   5
ENDBRANCH   3   4
TORSDOF 4
ENDMDL
MODEL 3
REMARK VINA RESULT:      -4.7      2.372      4.931
REMARK  4 active torsions:
REMARK  status: ('A' for Active; 'I' for Inactive)
REMARK    1  A    between atoms: C4_4  and  C6_6 
REMARK    2  A    between atoms: C5_5  and  C8_8 
REMARK    3  A    between atoms: C6_6  and  C7_7 
REMARK    4  A    between atoms: C7_7  and  C8_8 
ROOT
HETATM    1  C1  UNL     1     -34.971   4.310   6.175  1.00 20.00     0.012 C 
HETATM    2  C2  UNL     1     -35.029   4.808   5.084  1.00 20.00    -0.117 C 
HETATM    3  C4  UNL     1     -35.103   5.414   3.748  1.00 20.00     0.093 C 
ENDROOT
BRANCH   3   4
HETATM    4  C6  UNL     1     -34.127   6.581   3.584  1.00 20.00     0.014 C 
BRANCH   4   5
HETATM    5  C7  UNL     1     -32.707   6.121   3.225  1.00 20.00     0.021 C 
BRANCH   5   6
HETATM    6  C8  UNL     1     -31.765   7.286   2.884  1.00 20.00     0.082 C 
HETATM    7 CL9  UNL     1     -30.968   7.913   4.361  1.00 20.00    -0.125 Cl
BRANCH   6   8
HETATM    8  C5  UNL     1     -32.471   8.427   2.135  1.00 20.00     0.016 C 
HETATM    9  C3  UNL     1     -31.854   8.816   0.798  1.00 20.00     0.006 C 
ENDBRANCH   6   8
ENDBRANCH   5   6
ENDBRANCH   4   5
ENDBRANCH   3   4
TORSDOF 4
ENDMDL
MODEL 4
REMARK VINA RESULT:      -4.4      1.621      4.045
REMARK  4 active torsions:
REMARK  status: ('A' for Active; 'I' for Inactive)
REMARK    1  A    between atoms: C4_4  and  C6_6 
REMARK    2  A    between atoms: C5_5  and  C8_8 
REMARK    3  A    between atoms: C6_6  and  C7_7 
REMARK    4  A    between atoms: C7_7  and  C8_8 
ROOT
HETATM    1  C1  UNL     1     -33.721   7.085   6.732  1.00 20.00     0.012 C 
HETATM    2  C2  UNL     1     -34.241   6.030   6.492  1.00 20.00    -0.117 C 
HETATM    3  C4  UNL     1     -34.879   4.738   6.202  1.00 20.00     0.093 C 
ENDROOT
BRANCH   3   4
HETATM    4  C6  UNL     1     -34.980   4.464   4.700  1.00 20.00     0.014 C 
BRANCH   4   5
HETATM    5  C7  UNL     1     -35.100   5.750   3.869  1.00 20.00     0.021 C 
BRANCH   5   6
HETATM    6  C8  UNL     1     -34.009   5.876   2.794  1.00 20.00     0.082 C 
HETATM    7 CL9  UNL     1     -34.021   4.451   1.707  1.00 20.00    -0.125 Cl
BRANCH   6   8
HETATM    8  C5  UNL     1     -32.607   6.084   3.385  1.00 20.00     0.016 C 
HETATM    9  C3  UNL     1     -31.972   7.441   3.109  1.00 20.00     0.006 C 
ENDBRANCH   6   8
ENDBRANCH   5   6
ENDBRANCH   4   5
ENDBRANCH   3   4
TORSDOF 4
ENDMDL
MODEL 5
REMARK VINA RESULT:      -4.3      1.648      4.587
REMARK  4 active torsions:
REMARK  status: ('A' for Active; 'I' for Inactive)
REMARK    1  A    between atoms: C4_4  and  C6_6 
REMARK    2  A    between atoms: C5_5  and  C8_8 
REMARK    3  A    between atoms: C6_6  and  C7_7 
REMARK    4  A    between atoms: C7_7  and  C8_8 
ROOT
HETATM    1  C1  UNL     1     -35.146   3.872   5.563  1.00 20.00     0.012 C 
HETATM    2  C2  UNL     1     -34.698   4.916   5.952  1.00 20.00    -0.117 C 
HETATM    3  C4  UNL     1     -34.152   6.192   6.433  1.00 20.00     0.093 C 
ENDROOT
BRANCH   3   4
HETATM    4  C6  UNL     1     -33.368   6.934   5.348  1.00 20.00     0.014 C 
BRANCH   4   5
HETATM    5  C7  UNL     1     -33.985   6.769   3.952  1.00 20.00     0.021 C 
BRANCH   5   6
HETATM    6  C8  UNL     1     -32.933   6.681   2.835  1.00 20.00     0.082 C 
HETATM    7 CL9  UNL     1     -31.932   5.206   3.019  1.00 20.00    -0.125 Cl
BRANCH   6   8
HETATM    8  C5  UNL     1     -32.037   7.927   2.757  1.00 20.00     0.016 C 
HETATM    9  C3  UNL     1     -32.030   8.648   1.416  1.00 20.00     0.006 C 
ENDBRANCH   6   8
ENDBRANCH   5   6
ENDBRANCH   4   5
ENDBRANCH   3   4
TORSDOF 4
ENDMDL
MODEL 6
REMARK VINA RESULT:      -4.0     11.068     12.107
REMARK  4 active torsions:
REMARK  status: ('A' for Active; 'I' for Inactive)
REMARK    1  A    between atoms: C4_4  and  C6_6 
REMARK    2  A    between atoms: C5_5  and  C8_8 
REMARK    3  A    between atoms: C6_6  and  C7_7 
REMARK    4  A    between atoms: C7_7  and  C8_8 
ROOT
HETATM    1  C1  UNL     1     -34.613  16.545  -0.910  1.00 20.00     0.012 C 
HETATM    2  C2  UNL     1     -34.180  16.473  -2.027  1.00 20.00    -0.117 C 
HETATM    3  C4  UNL     1     -33.651  16.389  -3.396  1.00 20.00     0.093 C 
ENDROOT
BRANCH   3   4
HETATM    4  C6  UNL     1     -33.139  14.988  -3.736  1.00 20.00     0.014 C 
BRANCH   4   5
HETATM    5  C7  UNL     1     -34.158  13.888  -3.406  1.00 20.00     0.021 C 
BRANCH   5   6
HETATM    6  C8  UNL     1     -35.231  13.716  -4.492  1.00 20.00     0.082 C 
HETATM    7 CL9  UNL     1     -34.644  14.332  -6.069  1.00 20.00    -0.125 Cl
BRANCH   6   8
HETATM    8  C5  UNL     1     -36.567  14.380  -4.125  1.00 20.00     0.016 C 
HETATM    9  C3  UNL     1     -36.961  15.580  -4.977  1.00 20.00     0.006 C 
ENDBRANCH   6   8
ENDBRANCH   5   6
ENDBRANCH   4   5
ENDBRANCH   3   4
TORSDOF 4
ENDMDL
MODEL 7
REMARK VINA RESULT:      -4.0     11.141     11.921
REMARK  4 active torsions:
REMARK  status: ('A' for Active; 'I' for Inactive)
REMARK    1  A    between atoms: C4_4  and  C6_6 
REMARK    2  A    between atoms: C5_5  and  C8_8 
REMARK    3  A    between atoms: C6_6  and  C7_7 
REMARK    4  A    between atoms: C7_7  and  C8_8 
ROOT
HETATM    1  C1  UNL     1     -34.864  14.766  -6.946  1.00 20.00     0.012 C 
HETATM    2  C2  UNL     1     -34.777  14.115  -5.941  1.00 20.00    -0.117 C 
HETATM    3  C4  UNL     1     -34.674  13.316  -4.712  1.00 20.00     0.093 C 
ENDROOT
BRANCH   3   4
HETATM    4  C6  UNL     1     -33.548  13.800  -3.797  1.00 20.00     0.014 C 
BRANCH   4   5
HETATM    5  C7  UNL     1     -33.568  15.321  -3.585  1.00 20.00     0.021 C 
BRANCH   5   6
HETATM    6  C8  UNL     1     -34.578  15.767  -2.515  1.00 20.00     0.082 C 
HETATM    7 CL9  UNL     1     -36.083  16.374  -3.275  1.00 20.00    -0.125 Cl
BRANCH   6   8
HETATM    8  C5  UNL     1     -34.004  16.819  -1.553  1.00 20.00     0.016 C 
HETATM    9  C3  UNL     1     -34.751  16.980  -0.235  1.00 20.00     0.006 C 
ENDBRANCH   6   8
ENDBRANCH   5   6
ENDBRANCH   4   5
ENDBRANCH   3   4
TORSDOF 4
ENDMDL
MODEL 8
REMARK VINA RESULT:      -4.0      2.464      4.715
REMARK  4 active torsions:
REMARK  status: ('A' for Active; 'I' for Inactive)
REMARK    1  A    between atoms: C4_4  and  C6_6 
REMARK    2  A    between atoms: C5_5  and  C8_8 
REMARK    3  A    between atoms: C6_6  and  C7_7 
REMARK    4  A    between atoms: C7_7  and  C8_8 
ROOT
HETATM    1  C1  UNL     1     -35.072   3.823   5.466  1.00 20.00     0.012 C 
HETATM    2  C2  UNL     1     -34.774   4.854   6.004  1.00 20.00    -0.117 C 
HETATM    3  C4  UNL     1     -34.413   6.115   6.667  1.00 20.00     0.093 C 
ENDROOT
BRANCH   3   4
HETATM    4  C6  UNL     1     -33.336   6.886   5.900  1.00 20.00     0.014 C 
BRANCH   4   5
HETATM    5  C7  UNL     1     -33.665   7.038   4.407  1.00 20.00     0.021 C 
BRANCH   5   6
HETATM    6  C8  UNL     1     -32.490   6.662   3.491  1.00 20.00     0.082 C 
HETATM    7 CL9  UNL     1     -31.996   8.060   2.485  1.00 20.00    -0.125 Cl
BRANCH   6   8
HETATM    8  C5  UNL     1     -32.789   5.444   2.603  1.00 20.00     0.016 C 
HETATM    9  C3  UNL     1     -34.263   5.176   2.330  1.00 20.00     0.006 C 
ENDBRANCH   6   8
ENDBRANCH   5   6
ENDBRANCH   4   5
ENDBRANCH   3   4
TORSDOF 4
ENDMDL
MODEL 9
REMARK VINA RESULT:      -4.0     11.237     12.460
REMARK  4 active torsions:
REMARK  status: ('A' for Active; 'I' for Inactive)
REMARK    1  A    between atoms: C4_4  and  C6_6 
REMARK    2  A    between atoms: C5_5  and  C8_8 
REMARK    3  A    between atoms: C6_6  and  C7_7 
REMARK    4  A    between atoms: C7_7  and  C8_8 
ROOT
HETATM    1  C1  UNL     1     -34.511  16.636  -0.926  1.00 20.00     0.012 C 
HETATM    2  C2  UNL     1     -34.078  16.489  -2.036  1.00 20.00    -0.117 C 
HETATM    3  C4  UNL     1     -33.550  16.315  -3.396  1.00 20.00     0.093 C 
ENDROOT
BRANCH   3   4
HETATM    4  C6  UNL     1     -32.939  14.928  -3.607  1.00 20.00     0.014 C 
BRANCH   4   5
HETATM    5  C7  UNL     1     -33.939  13.921  -4.195  1.00 20.00     0.021 C 
BRANCH   5   6
HETATM    6  C8  UNL     1     -35.126  14.595  -4.901  1.00 20.00     0.082 C 
HETATM    7 CL9  UNL     1     -36.653  14.283  -4.017  1.00 20.00    -0.125 Cl
BRANCH   6   8
HETATM    8  C5  UNL     1     -35.265  14.173  -6.372  1.00 20.00     0.016 C 
HETATM    9  C3  UNL     1     -34.509  15.032  -7.377  1.00 20.00     0.006 C 
ENDBRANCH   6   8
ENDBRANCH   5   6
ENDBRANCH   4   5
ENDBRANCH   3   4
TORSDOF 4
ENDMDL
