MODEL 1
REMARK VINA RESULT:      -4.7      0.000      0.000
REMARK  3 active torsions:
REMARK  status: ('A' for Active; 'I' for Inactive)
REMARK    1  A    between atoms: C4_4  and  C5_5 
REMARK    2  A    between atoms: C5_5  and  C6_6 
REMARK    3  A    between atoms: C6_6  and  C7_7 
ROOT
HETATM    1  C1  UNL     1     -35.024   4.980   4.392  1.00 20.00     0.033 C 
HETATM    2  C2  UNL     1     -35.153   4.657   5.865  1.00 20.00     0.168 C 
HETATM    3  C3  UNL     1     -33.804   6.543   5.643  1.00 20.00     0.172 C 
HETATM    4  C4  UNL     1     -33.716   5.740   4.358  1.00 20.00     0.011 C 
HETATM    5  O8  UNL     1     -34.528   5.731   6.582  1.00 20.00    -0.391 OA
ENDROOT
BRANCH   4   6
HETATM    6  C5  UNL     1     -33.522   6.590   3.117  1.00 20.00     0.008 C 
BRANCH   6   7
HETATM    7  C6  UNL     1     -32.192   7.347   3.153  1.00 20.00     0.015 C 
BRANCH   7   8
HETATM    8  C7  UNL     1     -31.909   8.026   1.819  1.00 20.00     0.114 C 
HETATM    9 CL9  UNL     1     -32.579   9.673   1.807  1.00 20.00    -0.130 Cl
ENDBRANCH   7   8
ENDBRANCH   6   7
ENDBRANCH   4   6
TORSDOF 3
ENDMDL
MODEL 2
REMARK VINA RESULT:      -4.7      0.750      1.335
REMARK  3 active torsions:
REMARK  status: ('A' for Active; 'I' for Inactive)
REMARK    1  A    between atoms: C4_4  and  C5_5 
REMARK    2  A    between atoms: C5_5  and  C6_6 
REMARK    3  A    between atoms: C6_6  and  C7_7 
ROOT
HETATM    1  C1  UNL     1     -33.579   6.354   5.506  1.00 20.00     0.033 C 
HETATM    2  C2  UNL     1     -34.596   5.754   6.454  1.00 20.00     0.168 C 
HETATM    3  C3  UNL     1     -34.839   4.731   4.375  1.00 20.00     0.172 C 
HETATM    4  C4  UNL     1     -34.230   6.105   4.162  1.00 20.00     0.011 C 
HETATM    5  O8  UNL     1     -35.220   4.665   5.759  1.00 20.00    -0.391 OA
ENDROOT
BRANCH   4   6
HETATM    6  C5  UNL     1     -33.274   6.174   2.986  1.00 20.00     0.008 C 
BRANCH   6   7
HETATM    7  C6  UNL     1     -32.235   7.283   3.167  1.00 20.00     0.015 C 
BRANCH   7   8
HETATM    8  C7  UNL     1     -31.928   7.972   1.844  1.00 20.00     0.114 C 
HETATM    9 CL9  UNL     1     -32.597   9.621   1.834  1.00 20.00    -0.130 Cl
ENDBRANCH   7   8
ENDBRANCH   6   7
ENDBRANCH   4   6
TORSDOF 3
ENDMDL
MODEL 3
REMARK VINA RESULT:      -4.1     10.819     11.886
REMARK  3 active torsions:
REMARK  status: ('A' for Active; 'I' for Inactive)
REMARK    1  A    between atoms: C4_4  and  C5_5 
REMARK    2  A    between atoms: C5_5  and  C6_6 
REMARK    3  A    between atoms: C6_6  and  C7_7 
ROOT
HETATM    1  C1  UNL     1     -34.693  15.148  -5.143  1.00 20.00     0.033 C 
HETATM    2  C2  UNL     1     -34.885  13.765  -5.727  1.00 20.00     0.168 C 
HETATM    3  C3  UNL     1     -34.196  13.537  -3.513  1.00 20.00     0.172 C 
HETATM    4  C4  UNL     1     -33.703  14.876  -4.031  1.00 20.00     0.011 C 
HETATM    5  O8  UNL     1     -34.727  12.832  -4.647  1.00 20.00    -0.391 OA
ENDROOT
BRANCH   4   6
HETATM    6  C5  UNL     1     -33.647  15.959  -2.970  1.00 20.00     0.008 C 
BRANCH   6   7
HETATM    7  C6  UNL     1     -34.912  15.971  -2.108  1.00 20.00     0.015 C 
BRANCH   7   8
HETATM    8  C7  UNL     1     -34.657  16.647  -0.767  1.00 20.00     0.114 C 
HETATM    9 CL9  UNL     1     -33.289  17.777  -0.891  1.00 20.00    -0.130 Cl
ENDBRANCH   7   8
ENDBRANCH   6   7
ENDBRANCH   4   6
TORSDOF 3
ENDMDL
MODEL 4
REMARK VINA RESULT:      -4.1     10.993     11.595
REMARK  3 active torsions:
REMARK  status: ('A' for Active; 'I' for Inactive)
REMARK    1  A    between atoms: C4_4  and  C5_5 
REMARK    2  A    between atoms: C5_5  and  C6_6 
REMARK    3  A    between atoms: C6_6  and  C7_7 
ROOT
HETATM    1  C1  UNL     1     -35.662  14.825  -3.571  1.00 20.00     0.033 C 
HETATM    2  C2  UNL     1     -35.788  13.581  -4.425  1.00 20.00     0.168 C 
HETATM    3  C3  UNL     1     -33.570  13.778  -3.741  1.00 20.00     0.172 C 
HETATM    4  C4  UNL     1     -34.195  15.161  -3.736  1.00 20.00     0.011 C 
HETATM    5  O8  UNL     1     -34.526  12.901  -4.358  1.00 20.00    -0.391 OA
ENDROOT
BRANCH   4   6
HETATM    6  C5  UNL     1     -33.643  16.079  -2.661  1.00 20.00     0.008 C 
BRANCH   6   7
HETATM    7  C6  UNL     1     -34.662  16.316  -1.543  1.00 20.00     0.015 C 
BRANCH   7   8
HETATM    8  C7  UNL     1     -34.195  17.415  -0.598  1.00 20.00     0.114 C 
HETATM    9 CL9  UNL     1     -35.105  17.348   0.929  1.00 20.00    -0.130 Cl
ENDBRANCH   7   8
ENDBRANCH   6   7
ENDBRANCH   4   6
TORSDOF 3
ENDMDL
MODEL 5
REMARK VINA RESULT:      -3.9     11.428     12.270
REMARK  3 active torsions:
REMARK  status: ('A' for Active; 'I' for Inactive)
REMARK    1  A    between atoms: C4_4  and  C5_5 
REMARK    2  A    between atoms: C5_5  and  C6_6 
REMARK    3  A    between atoms: C6_6  and  C7_7 
ROOT
HETATM    1  C1  UNL     1     -34.511  16.573  -1.117  1.00 20.00     0.033 C 
HETATM    2  C2  UNL     1     -33.682  17.829  -0.951  1.00 20.00     0.168 C 
HETATM    3  C3  UNL     1     -33.866  17.367  -3.227  1.00 20.00     0.172 C 
HETATM    4  C4  UNL     1     -34.034  16.067  -2.461  1.00 20.00     0.011 C 
HETATM    5  O8  UNL     1     -33.457  18.355  -2.267  1.00 20.00    -0.391 OA
ENDROOT
BRANCH   4   6
HETATM    6  C5  UNL     1     -34.978  15.083  -3.126  1.00 20.00     0.008 C 
BRANCH   6   7
HETATM    7  C6  UNL     1     -34.241  13.832  -3.608  1.00 20.00     0.015 C 
BRANCH   7   8
HETATM    8  C7  UNL     1     -34.768  13.369  -4.960  1.00 20.00     0.114 C 
HETATM    9 CL9  UNL     1     -34.460  14.605  -6.202  1.00 20.00    -0.130 Cl
ENDBRANCH   7   8
ENDBRANCH   6   7
ENDBRANCH   4   6
TORSDOF 3
ENDMDL
MODEL 6
REMARK VINA RESULT:      -3.6     11.669     12.269
REMARK  3 active torsions:
REMARK  status: ('A' for Active; 'I' for Inactive)
REMARK    1  A    between atoms: C4_4  and  C5_5 
REMARK    2  A    between atoms: C5_5  and  C6_6 
REMARK    3  A    between atoms: C6_6  and  C7_7 
ROOT
HETATM    1  C1  UNL     1     -34.790  17.023  -0.195  1.00 20.00     0.033 C 
HETATM    2  C2  UNL     1     -33.919  18.107   0.404  1.00 20.00     0.168 C 
HETATM    3  C3  UNL     1     -33.717  18.202  -1.915  1.00 20.00     0.172 C 
HETATM    4  C4  UNL     1     -34.113  16.788  -1.528  1.00 20.00     0.011 C 
HETATM    5  O8  UNL     1     -33.421  18.891  -0.690  1.00 20.00    -0.391 OA
ENDROOT
BRANCH   4   6
HETATM    6  C5  UNL     1     -34.987  16.095  -2.556  1.00 20.00     0.008 C 
BRANCH   6   7
HETATM    7  C6  UNL     1     -34.316  14.837  -3.111  1.00 20.00     0.015 C 
BRANCH   7   8
HETATM    8  C7  UNL     1     -32.963  15.162  -3.730  1.00 20.00     0.114 C 
HETATM    9 CL9  UNL     1     -33.148  16.352  -5.039  1.00 20.00    -0.130 Cl
ENDBRANCH   7   8
ENDBRANCH   6   7
ENDBRANCH   4   6
TORSDOF 3
ENDMDL
MODEL 7
REMARK VINA RESULT:      -3.5     11.559     12.266
REMARK  3 active torsions:
REMARK  status: ('A' for Active; 'I' for Inactive)
REMARK    1  A    between atoms: C4_4  and  C5_5 
REMARK    2  A    between atoms: C5_5  and  C6_6 
REMARK    3  A    between atoms: C6_6  and  C7_7 
ROOT
HETATM    1  C1  UNL     1     -35.576  15.200  -3.035  1.00 20.00     0.033 C 
HETATM    2  C2  UNL     1     -34.805  16.047  -2.046  1.00 20.00     0.168 C 
HETATM    3  C3  UNL     1     -33.308  15.228  -3.632  1.00 20.00     0.172 C 
HETATM    4  C4  UNL     1     -34.494  14.282  -3.562  1.00 20.00     0.011 C 
HETATM    5  O8  UNL     1     -33.466  16.160  -2.550  1.00 20.00    -0.391 OA
ENDROOT
BRANCH   4   6
HETATM    6  C5  UNL     1     -34.829  13.621  -4.885  1.00 20.00     0.008 C 
BRANCH   6   7
HETATM    7  C6  UNL     1     -34.503  14.533  -6.070  1.00 20.00     0.015 C 
BRANCH   7   8
HETATM    8  C7  UNL     1     -35.627  14.523  -7.098  1.00 20.00     0.114 C 
HETATM    9 CL9  UNL     1     -37.130  15.146  -6.380  1.00 20.00    -0.130 Cl
ENDBRANCH   7   8
ENDBRANCH   6   7
ENDBRANCH   4   6
TORSDOF 3
ENDMDL
MODEL 8
REMARK VINA RESULT:      -3.5     11.470     12.262
REMARK  3 active torsions:
REMARK  status: ('A' for Active; 'I' for Inactive)
REMARK    1  A    between atoms: C4_4  and  C5_5 
REMARK    2  A    between atoms: C5_5  and  C6_6 
REMARK    3  A    between atoms: C6_6  and  C7_7 
ROOT
HETATM    1  C1  UNL     1     -33.899  14.095  -4.040  1.00 20.00     0.033 C 
HETATM    2  C2  UNL     1     -35.091  13.234  -4.399  1.00 20.00     0.168 C 
HETATM    3  C3  UNL     1     -35.875  15.218  -3.461  1.00 20.00     0.172 C 
HETATM    4  C4  UNL     1     -34.471  14.968  -2.943  1.00 20.00     0.011 C 
HETATM    5  O8  UNL     1     -36.263  14.033  -4.176  1.00 20.00    -0.391 OA
ENDROOT
BRANCH   4   6
HETATM    6  C5  UNL     1     -33.680  16.236  -2.681  1.00 20.00     0.008 C 
BRANCH   6   7
HETATM    7  C6  UNL     1     -34.551  17.485  -2.835  1.00 20.00     0.015 C 
BRANCH   7   8
HETATM    8  C7  UNL     1     -33.951  18.453  -3.847  1.00 20.00     0.114 C 
HETATM    9 CL9  UNL     1     -33.421  17.579  -5.303  1.00 20.00    -0.130 Cl
ENDBRANCH   7   8
ENDBRANCH   6   7
ENDBRANCH   4   6
TORSDOF 3
ENDMDL
MODEL 9
REMARK VINA RESULT:      -3.5     11.517     12.397
REMARK  3 active torsions:
REMARK  status: ('A' for Active; 'I' for Inactive)
REMARK    1  A    between atoms: C4_4  and  C5_5 
REMARK    2  A    between atoms: C5_5  and  C6_6 
REMARK    3  A    between atoms: C6_6  and  C7_7 
ROOT
HETATM    1  C1  UNL     1     -34.081  16.842  -3.954  1.00 20.00     0.033 C 
HETATM    2  C2  UNL     1     -33.508  16.020  -5.088  1.00 20.00     0.168 C 
HETATM    3  C3  UNL     1     -34.264  14.562  -3.436  1.00 20.00     0.172 C 
HETATM    4  C4  UNL     1     -33.935  15.893  -2.784  1.00 20.00     0.011 C 
HETATM    5  O8  UNL     1     -33.794  14.645  -4.791  1.00 20.00    -0.391 OA
ENDROOT
BRANCH   4   6
HETATM    6  C5  UNL     1     -34.819  16.228  -1.597  1.00 20.00     0.008 C 
BRANCH   6   7
HETATM    7  C6  UNL     1     -34.133  17.205  -0.640  1.00 20.00     0.015 C 
BRANCH   7   8
HETATM    8  C7  UNL     1     -34.989  17.460   0.594  1.00 20.00     0.114 C 
HETATM    9 CL9  UNL     1     -34.061  18.358   1.818  1.00 20.00    -0.130 Cl
ENDBRANCH   7   8
ENDBRANCH   6   7
ENDBRANCH   4   6
TORSDOF 3
ENDMDL
