MODEL 1
REMARK VINA RESULT:      -5.4      0.000      0.000
REMARK  4 active torsions:
REMARK  status: ('A' for Active; 'I' for Inactive)
REMARK    1  A    between atoms: C2_2  and  C5_5 
REMARK    2  A    between atoms: C5_5  and  C6_6 
REMARK    3  A    between atoms: C6_6  and  C7_7 
REMARK    4  A    between atoms: C7_7  and  C8_8 
ROOT
HETATM    1  C1  UNL     1     -32.238   8.619   1.821  1.00 20.00    -0.111 C 
HETATM    2  C2  UNL     1     -32.263   7.590   2.439  1.00 20.00    -0.107 C 
HETATM    3  C3  UNL     1     -32.210   9.872   1.068  1.00 20.00     0.112 C 
ENDROOT
BRANCH   2   4
HETATM    4  C5  UNL     1     -32.293   6.330   3.195  1.00 20.00     0.094 C 
BRANCH   4   5
HETATM    5  C6  UNL     1     -33.587   5.545   2.963  1.00 20.00     0.014 C 
BRANCH   5   6
HETATM    6  C7  UNL     1     -34.633   5.788   4.061  1.00 20.00     0.020 C 
BRANCH   6   7
HETATM    7  C8  UNL     1     -34.160   5.353   5.455  1.00 20.00     0.078 C 
HETATM    8  C4  UNL     1     -34.072   6.544   6.403  1.00 20.00     0.026 C 
HETATM    9 CL9  UNL     1     -35.269   4.136   6.159  1.00 20.00    -0.125 Cl
ENDBRANCH   6   7
ENDBRANCH   5   6
ENDBRANCH   4   5
ENDBRANCH   2   4
TORSDOF 4
ENDMDL
MODEL 2
REMARK VINA RESULT:      -5.3      1.106      1.332
REMARK  4 active torsions:
REMARK  status: ('A' for Active; 'I' for Inactive)
REMARK    1  A    between atoms: C2_2  and  C5_5 
REMARK    2  A    between atoms: C5_5  and  C6_6 
REMARK    3  A    between atoms: C6_6  and  C7_7 
REMARK    4  A    between atoms: C7_7  and  C8_8 
ROOT
HETATM    1  C1  UNL     1     -32.273   8.422   1.915  1.00 20.00    -0.111 C 
HETATM    2  C2  UNL     1     -32.294   7.430   2.592  1.00 20.00    -0.107 C 
HETATM    3  C3  UNL     1     -32.247   9.630   1.092  1.00 20.00     0.112 C 
ENDROOT
BRANCH   2   4
HETATM    4  C5  UNL     1     -32.320   6.217   3.421  1.00 20.00     0.094 C 
BRANCH   4   5
HETATM    5  C6  UNL     1     -33.556   5.355   3.149  1.00 20.00     0.014 C 
BRANCH   5   6
HETATM    6  C7  UNL     1     -34.828   5.922   3.797  1.00 20.00     0.020 C 
BRANCH   6   7
HETATM    7  C8  UNL     1     -35.099   5.355   5.197  1.00 20.00     0.078 C 
HETATM    8  C4  UNL     1     -34.748   3.873   5.267  1.00 20.00     0.026 C 
HETATM    9 CL9  UNL     1     -34.153   6.231   6.439  1.00 20.00    -0.125 Cl
ENDBRANCH   6   7
ENDBRANCH   5   6
ENDBRANCH   4   5
ENDBRANCH   2   4
TORSDOF 4
ENDMDL
MODEL 3
REMARK VINA RESULT:      -4.5      2.884      5.318
REMARK  4 active torsions:
REMARK  status: ('A' for Active; 'I' for Inactive)
REMARK    1  A    between atoms: C2_2  and  C5_5 
REMARK    2  A    between atoms: C5_5  and  C6_6 
REMARK    3  A    between atoms: C6_6  and  C7_7 
REMARK    4  A    between atoms: C7_7  and  C8_8 
ROOT
HETATM    1  C1  UNL     1     -34.658   4.963   5.170  1.00 20.00    -0.111 C 
HETATM    2  C2  UNL     1     -34.191   5.462   4.182  1.00 20.00    -0.107 C 
HETATM    3  C3  UNL     1     -35.228   4.357   6.371  1.00 20.00     0.112 C 
ENDROOT
BRANCH   2   4
HETATM    4  C5  UNL     1     -33.619   6.072   2.973  1.00 20.00     0.094 C 
BRANCH   4   5
HETATM    5  C6  UNL     1     -32.121   6.353   3.119  1.00 20.00     0.014 C 
BRANCH   5   6
HETATM    6  C7  UNL     1     -31.785   7.848   3.006  1.00 20.00     0.020 C 
BRANCH   6   7
HETATM    7  C8  UNL     1     -32.402   8.515   1.769  1.00 20.00     0.078 C 
HETATM    8  C4  UNL     1     -32.709   9.985   2.033  1.00 20.00     0.026 C 
HETATM    9 CL9  UNL     1     -31.302   8.400   0.361  1.00 20.00    -0.125 Cl
ENDBRANCH   6   7
ENDBRANCH   5   6
ENDBRANCH   4   5
ENDBRANCH   2   4
TORSDOF 4
ENDMDL
MODEL 4
REMARK VINA RESULT:      -4.1     11.019     12.122
REMARK  4 active torsions:
REMARK  status: ('A' for Active; 'I' for Inactive)
REMARK    1  A    between atoms: C2_2  and  C5_5 
REMARK    2  A    between atoms: C5_5  and  C6_6 
REMARK    3  A    between atoms: C6_6  and  C7_7 
REMARK    4  A    between atoms: C7_7  and  C8_8 
ROOT
HETATM    1  C1  UNL     1     -34.281  16.434  -1.587  1.00 20.00    -0.111 C 
HETATM    2  C2  UNL     1     -33.841  15.926  -2.581  1.00 20.00    -0.107 C 
HETATM    3  C3  UNL     1     -34.818  17.054  -0.376  1.00 20.00     0.112 C 
ENDROOT
BRANCH   2   4
HETATM    4  C5  UNL     1     -33.302  15.304  -3.799  1.00 20.00     0.094 C 
BRANCH   4   5
HETATM    5  C6  UNL     1     -33.563  13.796  -3.844  1.00 20.00     0.014 C 
BRANCH   5   6
HETATM    6  C7  UNL     1     -34.572  13.402  -4.934  1.00 20.00     0.020 C 
BRANCH   6   7
HETATM    7  C8  UNL     1     -35.158  14.607  -5.681  1.00 20.00     0.078 C 
HETATM    8  C4  UNL     1     -35.218  14.348  -7.182  1.00 20.00     0.026 C 
HETATM    9 CL9  UNL     1     -36.806  14.987  -5.094  1.00 20.00    -0.125 Cl
ENDBRANCH   6   7
ENDBRANCH   5   6
ENDBRANCH   4   5
ENDBRANCH   2   4
TORSDOF 4
ENDMDL
MODEL 5
REMARK VINA RESULT:      -4.1      1.939      2.275
REMARK  4 active torsions:
REMARK  status: ('A' for Active; 'I' for Inactive)
REMARK    1  A    between atoms: C2_2  and  C5_5 
REMARK    2  A    between atoms: C5_5  and  C6_6 
REMARK    3  A    between atoms: C6_6  and  C7_7 
REMARK    4  A    between atoms: C7_7  and  C8_8 
ROOT
HETATM    1  C1  UNL     1     -32.186   6.923   3.359  1.00 20.00    -0.111 C 
HETATM    2  C2  UNL     1     -33.041   6.146   3.030  1.00 20.00    -0.107 C 
HETATM    3  C3  UNL     1     -31.144   7.867   3.758  1.00 20.00     0.112 C 
ENDROOT
BRANCH   2   4
HETATM    4  C5  UNL     1     -34.087   5.196   2.627  1.00 20.00     0.094 C 
BRANCH   4   5
HETATM    5  C6  UNL     1     -34.908   4.698   3.820  1.00 20.00     0.014 C 
BRANCH   5   6
HETATM    6  C7  UNL     1     -35.275   5.824   4.799  1.00 20.00     0.020 C 
BRANCH   6   7
HETATM    7  C8  UNL     1     -34.724   5.600   6.213  1.00 20.00     0.078 C 
HETATM    8  C4  UNL     1     -33.997   4.264   6.315  1.00 20.00     0.026 C 
HETATM    9 CL9  UNL     1     -33.595   6.909   6.678  1.00 20.00    -0.125 Cl
ENDBRANCH   6   7
ENDBRANCH   5   6
ENDBRANCH   4   5
ENDBRANCH   2   4
TORSDOF 4
ENDMDL
MODEL 6
REMARK VINA RESULT:      -4.0     10.735     11.751
REMARK  4 active torsions:
REMARK  status: ('A' for Active; 'I' for Inactive)
REMARK    1  A    between atoms: C2_2  and  C5_5 
REMARK    2  A    between atoms: C5_5  and  C6_6 
REMARK    3  A    between atoms: C6_6  and  C7_7 
REMARK    4  A    between atoms: C7_7  and  C8_8 
ROOT
HETATM    1  C1  UNL     1     -33.033  18.257  -0.255  1.00 20.00    -0.111 C 
HETATM    2  C2  UNL     1     -33.790  17.432  -0.687  1.00 20.00    -0.107 C 
HETATM    3  C3  UNL     1     -32.111  19.263   0.270  1.00 20.00     0.112 C 
ENDROOT
BRANCH   2   4
HETATM    4  C5  UNL     1     -34.718  16.421  -1.216  1.00 20.00     0.094 C 
BRANCH   4   5
HETATM    5  C6  UNL     1     -34.553  16.216  -2.724  1.00 20.00     0.014 C 
BRANCH   5   6
HETATM    6  C7  UNL     1     -35.284  14.965  -3.236  1.00 20.00     0.020 C 
BRANCH   6   7
HETATM    7  C8  UNL     1     -34.334  13.815  -3.597  1.00 20.00     0.078 C 
HETATM    8  C4  UNL     1     -34.673  13.231  -4.964  1.00 20.00     0.026 C 
HETATM    9 CL9  UNL     1     -32.631  14.367  -3.611  1.00 20.00    -0.125 Cl
ENDBRANCH   6   7
ENDBRANCH   5   6
ENDBRANCH   4   5
ENDBRANCH   2   4
TORSDOF 4
ENDMDL
MODEL 7
REMARK VINA RESULT:      -4.0      2.676      4.500
REMARK  4 active torsions:
REMARK  status: ('A' for Active; 'I' for Inactive)
REMARK    1  A    between atoms: C2_2  and  C5_5 
REMARK    2  A    between atoms: C5_5  and  C6_6 
REMARK    3  A    between atoms: C6_6  and  C7_7 
REMARK    4  A    between atoms: C7_7  and  C8_8 
ROOT
HETATM    1  C1  UNL     1     -33.938   6.645   6.234  1.00 20.00    -0.111 C 
HETATM    2  C2  UNL     1     -34.248   5.932   5.319  1.00 20.00    -0.107 C 
HETATM    3  C3  UNL     1     -33.560   7.512   7.349  1.00 20.00     0.112 C 
ENDROOT
BRANCH   2   4
HETATM    4  C5  UNL     1     -34.627   5.059   4.199  1.00 20.00     0.094 C 
BRANCH   4   5
HETATM    5  C6  UNL     1     -34.183   5.625   2.847  1.00 20.00     0.014 C 
BRANCH   5   6
HETATM    6  C7  UNL     1     -32.683   5.955   2.806  1.00 20.00     0.020 C 
BRANCH   6   7
HETATM    7  C8  UNL     1     -32.391   7.459   2.900  1.00 20.00     0.078 C 
HETATM    8  C4  UNL     1     -31.272   7.740   3.896  1.00 20.00     0.026 C 
HETATM    9 CL9  UNL     1     -31.926   8.124   1.305  1.00 20.00    -0.125 Cl
ENDBRANCH   6   7
ENDBRANCH   5   6
ENDBRANCH   4   5
ENDBRANCH   2   4
TORSDOF 4
ENDMDL
MODEL 8
REMARK VINA RESULT:      -4.0     11.328     12.250
REMARK  4 active torsions:
REMARK  status: ('A' for Active; 'I' for Inactive)
REMARK    1  A    between atoms: C2_2  and  C5_5 
REMARK    2  A    between atoms: C5_5  and  C6_6 
REMARK    3  A    between atoms: C6_6  and  C7_7 
REMARK    4  A    between atoms: C7_7  and  C8_8 
ROOT
HETATM    1  C1  UNL     1     -34.577  17.215  -0.147  1.00 20.00    -0.111 C 
HETATM    2  C2  UNL     1     -34.669  16.569  -1.156  1.00 20.00    -0.107 C 
HETATM    3  C3  UNL     1     -34.466  18.001   1.080  1.00 20.00     0.112 C 
ENDROOT
BRANCH   2   4
HETATM    4  C5  UNL     1     -34.782  15.779  -2.390  1.00 20.00     0.094 C 
BRANCH   4   5
HETATM    5  C6  UNL     1     -33.434  15.606  -3.093  1.00 20.00     0.014 C 
BRANCH   5   6
HETATM    6  C7  UNL     1     -33.526  15.817  -4.612  1.00 20.00     0.020 C 
BRANCH   6   7
HETATM    7  C8  UNL     1     -34.546  14.893  -5.291  1.00 20.00     0.078 C 
HETATM    8  C4  UNL     1     -34.439  14.976  -6.809  1.00 20.00     0.026 C 
HETATM    9 CL9  UNL     1     -34.305  13.191  -4.788  1.00 20.00    -0.125 Cl
ENDBRANCH   6   7
ENDBRANCH   5   6
ENDBRANCH   4   5
ENDBRANCH   2   4
TORSDOF 4
ENDMDL
MODEL 9
REMARK VINA RESULT:      -4.0     11.481     12.292
REMARK  4 active torsions:
REMARK  status: ('A' for Active; 'I' for Inactive)
REMARK    1  A    between atoms: C2_2  and  C5_5 
REMARK    2  A    between atoms: C5_5  and  C6_6 
REMARK    3  A    between atoms: C6_6  and  C7_7 
REMARK    4  A    between atoms: C7_7  and  C8_8 
ROOT
HETATM    1  C1  UNL     1     -34.657  16.769  -0.726  1.00 20.00    -0.111 C 
HETATM    2  C2  UNL     1     -34.315  16.260  -1.759  1.00 20.00    -0.107 C 
HETATM    3  C3  UNL     1     -35.073  17.390   0.530  1.00 20.00     0.112 C 
ENDROOT
BRANCH   2   4
HETATM    4  C5  UNL     1     -33.897  15.637  -3.023  1.00 20.00     0.094 C 
BRANCH   4   5
HETATM    5  C6  UNL     1     -34.794  14.460  -3.414  1.00 20.00     0.014 C 
BRANCH   5   6
HETATM    6  C7  UNL     1     -34.329  13.762  -4.701  1.00 20.00     0.020 C 
BRANCH   6   7
HETATM    7  C8  UNL     1     -35.036  14.279  -5.960  1.00 20.00     0.078 C 
HETATM    8  C4  UNL     1     -36.385  14.901  -5.617  1.00 20.00     0.026 C 
HETATM    9 CL9  UNL     1     -34.034  15.501  -6.803  1.00 20.00    -0.125 Cl
ENDBRANCH   6   7
ENDBRANCH   5   6
ENDBRANCH   4   5
ENDBRANCH   2   4
TORSDOF 4
ENDMDL
