MODEL 1
REMARK VINA RESULT:      -4.4      0.000      0.000
REMARK  1 active torsions:
REMARK  status: ('A' for Active; 'I' for Inactive)
REMARK    1  A    between atoms: C6_6  and  C8_8 
ROOT
HETATM    1  C1  UNL     1     -32.214   8.308   2.004  1.00 20.00     0.064 C 
HETATM    2  C2  UNL     1     -31.923   7.416   4.307  1.00 20.00     0.019 C 
HETATM    3  C3  UNL     1     -33.234   6.923   4.906  1.00 20.00     0.006 C 
HETATM    4  C4  UNL     1     -33.198   6.125   2.656  1.00 20.00     0.024 C 
HETATM    5  C5  UNL     1     -32.014   7.092   2.808  1.00 20.00     0.093 C 
HETATM    6  C6  UNL     1     -33.540   5.679   4.079  1.00 20.00    -0.014 C 
HETATM    7  N9  UNL     1     -32.373   9.266   1.371  1.00 20.00    -0.197 NA
ENDROOT
BRANCH   6   8
HETATM    8  C8  UNL     1     -34.971   5.197   4.229  1.00 20.00     0.000 C 
HETATM    9  C7  UNL     1     -35.189   4.480   5.525  1.00 20.00     0.005 C 
ENDBRANCH   6   8
TORSDOF 1
ENDMDL
MODEL 2
REMARK VINA RESULT:      -4.4     10.860     11.820
REMARK  1 active torsions:
REMARK  status: ('A' for Active; 'I' for Inactive)
REMARK    1  A    between atoms: C6_6  and  C8_8 
ROOT
HETATM    1  C1  UNL     1     -35.094  14.565  -6.687  1.00 20.00     0.064 C 
HETATM    2  C2  UNL     1     -34.588  13.227  -4.653  1.00 20.00     0.019 C 
HETATM    3  C3  UNL     1     -33.721  13.990  -3.660  1.00 20.00     0.006 C 
HETATM    4  C4  UNL     1     -35.369  15.541  -4.422  1.00 20.00     0.024 C 
HETATM    5  C5  UNL     1     -35.495  14.286  -5.299  1.00 20.00     0.093 C 
HETATM    6  C6  UNL     1     -34.664  15.073  -3.147  1.00 20.00    -0.014 C 
HETATM    7  N9  UNL     1     -34.779  14.786  -7.781  1.00 20.00    -0.197 NA
ENDROOT
BRANCH   6   8
HETATM    8  C8  UNL     1     -33.947  16.192  -2.413  1.00 20.00     0.000 C 
HETATM    9  C7  UNL     1     -34.597  16.509  -1.102  1.00 20.00     0.005 C 
ENDBRANCH   6   8
TORSDOF 1
ENDMDL
MODEL 3
REMARK VINA RESULT:      -4.3     10.955     11.851
REMARK  1 active torsions:
REMARK  status: ('A' for Active; 'I' for Inactive)
REMARK    1  A    between atoms: C6_6  and  C8_8 
ROOT
HETATM    1  C1  UNL     1     -34.496  13.738  -4.659  1.00 20.00     0.064 C 
HETATM    2  C2  UNL     1     -35.179  16.124  -4.810  1.00 20.00     0.019 C 
HETATM    3  C3  UNL     1     -35.259  16.790  -3.442  1.00 20.00     0.006 C 
HETATM    4  C4  UNL     1     -33.252  15.497  -3.427  1.00 20.00     0.024 C 
HETATM    5  C5  UNL     1     -34.014  15.127  -4.709  1.00 20.00     0.093 C 
HETATM    6  C6  UNL     1     -33.797  16.866  -3.014  1.00 20.00    -0.014 C 
HETATM    7  N9  UNL     1     -34.875  12.643  -4.618  1.00 20.00    -0.197 NA
ENDROOT
BRANCH   6   8
HETATM    8  C8  UNL     1     -33.621  17.160  -1.536  1.00 20.00     0.000 C 
HETATM    9  C7  UNL     1     -34.764  16.641  -0.720  1.00 20.00     0.005 C 
ENDBRANCH   6   8
TORSDOF 1
ENDMDL
MODEL 4
REMARK VINA RESULT:      -4.1     11.120     12.142
REMARK  1 active torsions:
REMARK  status: ('A' for Active; 'I' for Inactive)
REMARK    1  A    between atoms: C6_6  and  C8_8 
ROOT
HETATM    1  C1  UNL     1     -36.853  14.744  -3.888  1.00 20.00     0.064 C 
HETATM    2  C2  UNL     1     -35.491  16.664  -4.690  1.00 20.00     0.019 C 
HETATM    3  C3  UNL     1     -35.053  17.577  -3.552  1.00 20.00     0.006 C 
HETATM    4  C4  UNL     1     -34.721  15.346  -2.769  1.00 20.00     0.024 C 
HETATM    5  C5  UNL     1     -35.486  15.246  -4.098  1.00 20.00     0.093 C 
HETATM    6  C6  UNL     1     -34.046  16.719  -2.794  1.00 20.00    -0.014 C 
HETATM    7  N9  UNL     1     -37.930  14.348  -3.722  1.00 20.00    -0.197 NA
ENDROOT
BRANCH   6   8
HETATM    8  C8  UNL     1     -33.724  17.255  -1.411  1.00 20.00     0.000 C 
HETATM    9  C7  UNL     1     -34.741  16.836  -0.396  1.00 20.00     0.005 C 
ENDBRANCH   6   8
TORSDOF 1
ENDMDL
MODEL 5
REMARK VINA RESULT:      -4.1     11.184     12.056
REMARK  1 active torsions:
REMARK  status: ('A' for Active; 'I' for Inactive)
REMARK    1  A    between atoms: C6_6  and  C8_8 
ROOT
HETATM    1  C1  UNL     1     -35.164  14.857  -5.707  1.00 20.00     0.064 C 
HETATM    2  C2  UNL     1     -33.327  16.282  -4.827  1.00 20.00     0.019 C 
HETATM    3  C3  UNL     1     -33.745  17.063  -3.587  1.00 20.00     0.006 C 
HETATM    4  C4  UNL     1     -34.598  14.853  -3.291  1.00 20.00     0.024 C 
HETATM    5  C5  UNL     1     -34.067  14.940  -4.731  1.00 20.00     0.093 C 
HETATM    6  C6  UNL     1     -33.886  15.973  -2.530  1.00 20.00    -0.014 C 
HETATM    7  N9  UNL     1     -36.029  14.791  -6.477  1.00 20.00    -0.197 NA
ENDROOT
BRANCH   6   8
HETATM    8  C8  UNL     1     -34.639  16.432  -1.294  1.00 20.00     0.000 C 
HETATM    9  C7  UNL     1     -33.928  17.542  -0.584  1.00 20.00     0.005 C 
ENDBRANCH   6   8
TORSDOF 1
ENDMDL
MODEL 6
REMARK VINA RESULT:      -4.1     10.916     11.745
REMARK  1 active torsions:
REMARK  status: ('A' for Active; 'I' for Inactive)
REMARK    1  A    between atoms: C6_6  and  C8_8 
ROOT
HETATM    1  C1  UNL     1     -33.680  17.701  -3.298  1.00 20.00     0.064 C 
HETATM    2  C2  UNL     1     -35.160  15.990  -2.266  1.00 20.00     0.019 C 
HETATM    3  C3  UNL     1     -35.596  14.924  -3.264  1.00 20.00     0.006 C 
HETATM    4  C4  UNL     1     -33.268  15.280  -3.656  1.00 20.00     0.024 C 
HETATM    5  C5  UNL     1     -33.728  16.369  -2.675  1.00 20.00     0.093 C 
HETATM    6  C6  UNL     1     -34.304  14.161  -3.533  1.00 20.00    -0.014 C 
HETATM    7  N9  UNL     1     -33.641  18.750  -3.789  1.00 20.00    -0.197 NA
ENDROOT
BRANCH   6   8
HETATM    8  C8  UNL     1     -34.378  13.274  -4.763  1.00 20.00     0.000 C 
HETATM    9  C7  UNL     1     -34.978  13.988  -5.934  1.00 20.00     0.005 C 
ENDBRANCH   6   8
TORSDOF 1
ENDMDL
MODEL 7
REMARK VINA RESULT:      -4.1      9.399     10.437
REMARK  1 active torsions:
REMARK  status: ('A' for Active; 'I' for Inactive)
REMARK    1  A    between atoms: C6_6  and  C8_8 
ROOT
HETATM    1  C1  UNL     1     -42.575   7.690  -0.936  1.00 20.00     0.064 C 
HETATM    2  C2  UNL     1     -40.858   6.026  -0.253  1.00 20.00     0.019 C 
HETATM    3  C3  UNL     1     -41.352   4.592  -0.397  1.00 20.00     0.006 C 
HETATM    4  C4  UNL     1     -42.058   5.733  -2.373  1.00 20.00     0.024 C 
HETATM    5  C5  UNL     1     -41.505   6.798  -1.412  1.00 20.00     0.093 C 
HETATM    6  C6  UNL     1     -41.440   4.412  -1.909  1.00 20.00    -0.014 C 
HETATM    7  N9  UNL     1     -43.417   8.392  -0.562  1.00 20.00    -0.197 NA
ENDROOT
BRANCH   6   8
HETATM    8  C8  UNL     1     -42.247   3.195  -2.321  1.00 20.00     0.000 C 
HETATM    9  C7  UNL     1     -41.546   2.385  -3.368  1.00 20.00     0.005 C 
ENDBRANCH   6   8
TORSDOF 1
ENDMDL
MODEL 8
REMARK VINA RESULT:      -4.1     10.501     12.051
REMARK  1 active torsions:
REMARK  status: ('A' for Active; 'I' for Inactive)
REMARK    1  A    between atoms: C6_6  and  C8_8 
ROOT
HETATM    1  C1  UNL     1     -34.132  15.799  -2.570  1.00 20.00     0.064 C 
HETATM    2  C2  UNL     1     -33.575  13.729  -3.830  1.00 20.00     0.019 C 
HETATM    3  C3  UNL     1     -34.629  13.387  -4.877  1.00 20.00     0.006 C 
HETATM    4  C4  UNL     1     -34.270  15.742  -5.047  1.00 20.00     0.024 C 
HETATM    5  C5  UNL     1     -33.518  15.264  -3.795  1.00 20.00     0.093 C 
HETATM    6  C6  UNL     1     -34.451  14.492  -5.912  1.00 20.00    -0.014 C 
HETATM    7  N9  UNL     1     -34.615  16.221  -1.605  1.00 20.00    -0.197 NA
ENDROOT
BRANCH   6   8
HETATM    8  C8  UNL     1     -35.614  14.597  -6.882  1.00 20.00     0.000 C 
HETATM    9  C7  UNL     1     -36.777  15.327  -6.285  1.00 20.00     0.005 C 
ENDBRANCH   6   8
TORSDOF 1
ENDMDL
MODEL 9
REMARK VINA RESULT:      -4.1     10.827     12.698
REMARK  1 active torsions:
REMARK  status: ('A' for Active; 'I' for Inactive)
REMARK    1  A    between atoms: C6_6  and  C8_8 
ROOT
HETATM    1  C1  UNL     1     -37.397  14.660  -3.775  1.00 20.00     0.064 C 
HETATM    2  C2  UNL     1     -35.088  13.743  -3.889  1.00 20.00     0.019 C 
HETATM    3  C3  UNL     1     -34.526  13.766  -5.305  1.00 20.00     0.006 C 
HETATM    4  C4  UNL     1     -35.604  15.873  -4.991  1.00 20.00     0.024 C 
HETATM    5  C5  UNL     1     -35.965  14.999  -3.779  1.00 20.00     0.093 C 
HETATM    6  C6  UNL     1     -34.330  15.255  -5.569  1.00 20.00    -0.014 C 
HETATM    7  N9  UNL     1     -38.525  14.393  -3.773  1.00 20.00    -0.197 NA
ENDROOT
BRANCH   6   8
HETATM    8  C8  UNL     1     -34.117  15.580  -7.036  1.00 20.00     0.000 C 
HETATM    9  C7  UNL     1     -35.084  14.851  -7.917  1.00 20.00     0.005 C 
ENDBRANCH   6   8
TORSDOF 1
ENDMDL
