MODEL 1
REMARK VINA RESULT:      -5.1      0.000      0.000
REMARK  3 active torsions:
REMARK  status: ('A' for Active; 'I' for Inactive)
REMARK    1  A    between atoms: C4_4  and  C7_7 
REMARK    2  A    between atoms: C7_7  and  C9_9 
REMARK    3  A    between atoms: C8_8  and  C9_9 
ROOT
HETATM    1  C1  UNL     1     -33.299   7.026   5.192  1.00 20.00     0.006 C 
HETATM    2  C2  UNL     1     -33.993   6.129   6.220  1.00 20.00     0.020 C 
HETATM    3  C3  UNL     1     -34.298   5.109   4.086  1.00 20.00     0.024 C 
HETATM    4  C4  UNL     1     -33.709   6.493   3.810  1.00 20.00    -0.013 C 
HETATM    5  C5  UNL     1     -35.003   5.321   5.417  1.00 20.00     0.082 C 
HETATM    6 CL10 UNL     1     -35.426   3.794   6.204  1.00 20.00    -0.125 Cl
ENDROOT
BRANCH   4   7
HETATM    7  C7  UNL     1     -32.561   6.462   2.814  1.00 20.00     0.005 C 
BRANCH   7   8
HETATM    8  C9  UNL     1     -31.809   7.791   2.788  1.00 20.00     0.000 C 
BRANCH   8   9
HETATM    9  C8  UNL     1     -31.890   8.447   1.410  1.00 20.00    -0.005 C 
HETATM   10  C6  UNL     1     -32.516   9.830   1.487  1.00 20.00     0.005 C 
ENDBRANCH   8   9
ENDBRANCH   7   8
ENDBRANCH   4   7
TORSDOF 3
ENDMDL
MODEL 2
REMARK VINA RESULT:      -4.9      0.853      1.530
REMARK  3 active torsions:
REMARK  status: ('A' for Active; 'I' for Inactive)
REMARK    1  A    between atoms: C4_4  and  C7_7 
REMARK    2  A    between atoms: C7_7  and  C9_9 
REMARK    3  A    between atoms: C8_8  and  C9_9 
ROOT
HETATM    1  C1  UNL     1     -34.417   5.438   3.024  1.00 20.00     0.006 C 
HETATM    2  C2  UNL     1     -35.237   4.764   4.128  1.00 20.00     0.020 C 
HETATM    3  C3  UNL     1     -33.715   6.254   5.201  1.00 20.00     0.024 C 
HETATM    4  C4  UNL     1     -33.288   6.202   3.733  1.00 20.00    -0.013 C 
HETATM    5  C5  UNL     1     -34.391   4.905   5.386  1.00 20.00     0.082 C 
HETATM    6 CL10 UNL     1     -35.361   4.835   6.864  1.00 20.00    -0.125 Cl
ENDROOT
BRANCH   4   7
HETATM    7  C7  UNL     1     -33.028   7.577   3.140  1.00 20.00     0.005 C 
BRANCH   7   8
HETATM    8  C9  UNL     1     -31.734   7.601   2.330  1.00 20.00     0.000 C 
BRANCH   8   9
HETATM    9  C8  UNL     1     -31.826   8.586   1.166  1.00 20.00    -0.005 C 
HETATM   10  C6  UNL     1     -32.556   9.858   1.569  1.00 20.00     0.005 C 
ENDBRANCH   8   9
ENDBRANCH   7   8
ENDBRANCH   4   7
TORSDOF 3
ENDMDL
MODEL 3
REMARK VINA RESULT:      -4.5      2.813      5.025
REMARK  3 active torsions:
REMARK  status: ('A' for Active; 'I' for Inactive)
REMARK    1  A    between atoms: C4_4  and  C7_7 
REMARK    2  A    between atoms: C7_7  and  C9_9 
REMARK    3  A    between atoms: C8_8  and  C9_9 
ROOT
HETATM    1  C1  UNL     1     -31.814   6.699   3.810  1.00 20.00     0.006 C 
HETATM    2  C2  UNL     1     -31.328   8.013   3.192  1.00 20.00     0.020 C 
HETATM    3  C3  UNL     1     -33.494   7.578   2.293  1.00 20.00     0.024 C 
HETATM    4  C4  UNL     1     -33.088   6.309   3.046  1.00 20.00    -0.013 C 
HETATM    5  C5  UNL     1     -32.146   8.172   1.917  1.00 20.00     0.082 C 
HETATM    6 CL10 UNL     1     -32.274   9.860   1.403  1.00 20.00    -0.125 Cl
ENDROOT
BRANCH   4   7
HETATM    7  C7  UNL     1     -34.189   5.776   3.947  1.00 20.00     0.005 C 
BRANCH   7   8
HETATM    8  C9  UNL     1     -34.021   6.266   5.384  1.00 20.00     0.000 C 
BRANCH   8   9
HETATM    9  C8  UNL     1     -34.671   5.304   6.377  1.00 20.00    -0.005 C 
HETATM   10  C6  UNL     1     -35.012   3.974   5.724  1.00 20.00     0.005 C 
ENDBRANCH   8   9
ENDBRANCH   7   8
ENDBRANCH   4   7
TORSDOF 3
ENDMDL
MODEL 4
REMARK VINA RESULT:      -4.3     11.276     12.396
REMARK  3 active torsions:
REMARK  status: ('A' for Active; 'I' for Inactive)
REMARK    1  A    between atoms: C4_4  and  C7_7 
REMARK    2  A    between atoms: C7_7  and  C9_9 
REMARK    3  A    between atoms: C8_8  and  C9_9 
ROOT
HETATM    1  C1  UNL     1     -34.412  13.943  -3.465  1.00 20.00     0.006 C 
HETATM    2  C2  UNL     1     -34.369  13.547  -4.944  1.00 20.00     0.020 C 
HETATM    3  C3  UNL     1     -34.447  15.930  -4.861  1.00 20.00     0.024 C 
HETATM    4  C4  UNL     1     -34.707  15.450  -3.432  1.00 20.00    -0.013 C 
HETATM    5  C5  UNL     1     -34.934  14.749  -5.687  1.00 20.00     0.082 C 
HETATM    6 CL10 UNL     1     -34.378  14.829  -7.365  1.00 20.00    -0.125 Cl
ENDROOT
BRANCH   4   7
HETATM    7  C7  UNL     1     -33.887  16.200  -2.395  1.00 20.00     0.005 C 
BRANCH   7   8
HETATM    8  C9  UNL     1     -34.684  16.432  -1.114  1.00 20.00     0.000 C 
BRANCH   8   9
HETATM    9  C8  UNL     1     -34.150  17.636  -0.339  1.00 20.00    -0.005 C 
HETATM   10  C6  UNL     1     -34.812  17.761   1.024  1.00 20.00     0.005 C 
ENDBRANCH   8   9
ENDBRANCH   7   8
ENDBRANCH   4   7
TORSDOF 3
ENDMDL
MODEL 5
REMARK VINA RESULT:      -4.3     11.434     12.196
REMARK  3 active torsions:
REMARK  status: ('A' for Active; 'I' for Inactive)
REMARK    1  A    between atoms: C4_4  and  C7_7 
REMARK    2  A    between atoms: C7_7  and  C9_9 
REMARK    3  A    between atoms: C8_8  and  C9_9 
ROOT
HETATM    1  C1  UNL     1     -31.829  18.938   0.517  1.00 20.00     0.006 C 
HETATM    2  C2  UNL     1     -31.730  18.822   2.041  1.00 20.00     0.020 C 
HETATM    3  C3  UNL     1     -33.958  18.220   1.438  1.00 20.00     0.024 C 
HETATM    4  C4  UNL     1     -33.318  18.788   0.170  1.00 20.00    -0.013 C 
HETATM    5  C5  UNL     1     -33.167  18.916   2.535  1.00 20.00     0.082 C 
HETATM    6 CL10 UNL     1     -33.391  18.150   4.114  1.00 20.00    -0.125 Cl
ENDROOT
BRANCH   4   7
HETATM    7  C7  UNL     1     -33.565  17.926  -1.057  1.00 20.00     0.005 C 
BRANCH   7   8
HETATM    8  C9  UNL     1     -34.533  16.784  -0.752  1.00 20.00     0.000 C 
BRANCH   8   9
HETATM    9  C8  UNL     1     -34.837  15.965  -2.005  1.00 20.00    -0.005 C 
HETATM   10  C6  UNL     1     -33.643  15.922  -2.946  1.00 20.00     0.005 C 
ENDBRANCH   8   9
ENDBRANCH   7   8
ENDBRANCH   4   7
TORSDOF 3
ENDMDL
MODEL 6
REMARK VINA RESULT:      -4.3     11.313     12.285
REMARK  3 active torsions:
REMARK  status: ('A' for Active; 'I' for Inactive)
REMARK    1  A    between atoms: C4_4  and  C7_7 
REMARK    2  A    between atoms: C7_7  and  C9_9 
REMARK    3  A    between atoms: C8_8  and  C9_9 
ROOT
HETATM    1  C1  UNL     1     -36.297  14.848  -3.828  1.00 20.00     0.006 C 
HETATM    2  C2  UNL     1     -35.975  16.067  -2.959  1.00 20.00     0.020 C 
HETATM    3  C3  UNL     1     -33.924  14.903  -3.316  1.00 20.00     0.024 C 
HETATM    4  C4  UNL     1     -35.027  13.984  -3.845  1.00 20.00    -0.013 C 
HETATM    5  C5  UNL     1     -34.664  15.720  -2.268  1.00 20.00     0.082 C 
HETATM    6 CL10 UNL     1     -33.759  17.157  -1.773  1.00 20.00    -0.125 Cl
ENDROOT
BRANCH   4   7
HETATM    7  C7  UNL     1     -34.712  13.407  -5.215  1.00 20.00     0.005 C 
BRANCH   7   8
HETATM    8  C9  UNL     1     -35.356  14.229  -6.329  1.00 20.00     0.000 C 
BRANCH   8   9
HETATM    9  C8  UNL     1     -34.315  15.062  -7.076  1.00 20.00    -0.005 C 
HETATM   10  C6  UNL     1     -34.380  16.526  -6.674  1.00 20.00     0.005 C 
ENDBRANCH   8   9
ENDBRANCH   7   8
ENDBRANCH   4   7
TORSDOF 3
ENDMDL
MODEL 7
REMARK VINA RESULT:      -4.2      2.507      4.757
REMARK  3 active torsions:
REMARK  status: ('A' for Active; 'I' for Inactive)
REMARK    1  A    between atoms: C4_4  and  C7_7 
REMARK    2  A    between atoms: C7_7  and  C9_9 
REMARK    3  A    between atoms: C8_8  and  C9_9 
ROOT
HETATM    1  C1  UNL     1     -33.565   4.981   2.589  1.00 20.00     0.006 C 
HETATM    2  C2  UNL     1     -32.197   5.662   2.696  1.00 20.00     0.020 C 
HETATM    3  C3  UNL     1     -33.749   7.022   3.892  1.00 20.00     0.024 C 
HETATM    4  C4  UNL     1     -34.588   5.982   3.148  1.00 20.00    -0.013 C 
HETATM    5  C5  UNL     1     -32.509   7.117   3.017  1.00 20.00     0.082 C 
HETATM    6 CL10 UNL     1     -31.168   7.930   3.838  1.00 20.00    -0.125 Cl
ENDROOT
BRANCH   4   7
HETATM    7  C7  UNL     1     -35.645   5.333   4.026  1.00 20.00     0.005 C 
BRANCH   7   8
HETATM    8  C9  UNL     1     -35.079   4.137   4.789  1.00 20.00     0.000 C 
BRANCH   8   9
HETATM    9  C8  UNL     1     -35.081   4.389   6.296  1.00 20.00    -0.005 C 
HETATM   10  C6  UNL     1     -34.463   5.735   6.637  1.00 20.00     0.005 C 
ENDBRANCH   8   9
ENDBRANCH   7   8
ENDBRANCH   4   7
TORSDOF 3
ENDMDL
MODEL 8
REMARK VINA RESULT:      -4.2     11.217     12.284
REMARK  3 active torsions:
REMARK  status: ('A' for Active; 'I' for Inactive)
REMARK    1  A    between atoms: C4_4  and  C7_7 
REMARK    2  A    between atoms: C7_7  and  C9_9 
REMARK    3  A    between atoms: C8_8  and  C9_9 
ROOT
HETATM    1  C1  UNL     1     -33.574  16.813  -4.527  1.00 20.00     0.006 C 
HETATM    2  C2  UNL     1     -33.964  15.610  -5.390  1.00 20.00     0.020 C 
HETATM    3  C3  UNL     1     -34.277  14.966  -3.115  1.00 20.00     0.024 C 
HETATM    4  C4  UNL     1     -33.545  16.309  -3.076  1.00 20.00    -0.013 C 
HETATM    5  C5  UNL     1     -33.848  14.408  -4.462  1.00 20.00     0.082 C 
HETATM    6 CL10 UNL     1     -34.860  13.053  -4.982  1.00 20.00    -0.125 Cl
ENDROOT
BRANCH   4   7
HETATM    7  C7  UNL     1     -34.156  17.290  -2.088  1.00 20.00     0.005 C 
BRANCH   7   8
HETATM    8  C9  UNL     1     -34.727  16.570  -0.868  1.00 20.00     0.000 C 
BRANCH   8   9
HETATM    9  C8  UNL     1     -34.704  17.469   0.368  1.00 20.00    -0.005 C 
HETATM   10  C6  UNL     1     -33.492  18.386   0.367  1.00 20.00     0.005 C 
ENDBRANCH   8   9
ENDBRANCH   7   8
ENDBRANCH   4   7
TORSDOF 3
ENDMDL
MODEL 9
REMARK VINA RESULT:      -4.2     11.057     12.010
REMARK  3 active torsions:
REMARK  status: ('A' for Active; 'I' for Inactive)
REMARK    1  A    between atoms: C4_4  and  C7_7 
REMARK    2  A    between atoms: C7_7  and  C9_9 
REMARK    3  A    between atoms: C8_8  and  C9_9 
ROOT
HETATM    1  C1  UNL     1     -33.600  17.997  -2.008  1.00 20.00     0.006 C 
HETATM    2  C2  UNL     1     -33.158  18.666  -0.704  1.00 20.00     0.020 C 
HETATM    3  C3  UNL     1     -34.765  17.002  -0.124  1.00 20.00     0.024 C 
HETATM    4  C4  UNL     1     -34.801  17.108  -1.650  1.00 20.00    -0.013 C 
HETATM    5  C5  UNL     1     -34.284  18.386   0.281  1.00 20.00     0.082 C 
HETATM    6 CL10 UNL     1     -33.739  18.443   1.964  1.00 20.00    -0.125 Cl
ENDROOT
BRANCH   4   7
HETATM    7  C7  UNL     1     -34.773  15.755  -2.340  1.00 20.00     0.005 C 
BRANCH   7   8
HETATM    8  C9  UNL     1     -33.528  15.597  -3.210  1.00 20.00     0.000 C 
BRANCH   8   9
HETATM    9  C8  UNL     1     -33.417  14.179  -3.769  1.00 20.00    -0.005 C 
HETATM   10  C6  UNL     1     -34.787  13.546  -3.957  1.00 20.00     0.005 C 
ENDBRANCH   8   9
ENDBRANCH   7   8
ENDBRANCH   4   7
TORSDOF 3
ENDMDL
