MODEL 1
REMARK VINA RESULT:      -5.9      0.000      0.000
REMARK  3 active torsions:
REMARK  status: ('A' for Active; 'I' for Inactive)
REMARK    1  A    between atoms: C2_2  and  C9_9 
REMARK    2  A    between atoms: C6_6  and  C9_9 
REMARK    3  A    between atoms: C7_7  and  O10_10 
ROOT
HETATM    1  C1  UNL     1     -32.165   7.821   2.079  1.00 20.00    -0.111 C 
HETATM    2  C2  UNL     1     -32.514   7.006   2.889  1.00 20.00    -0.107 C 
HETATM    3  C8  UNL     1     -31.740   8.814   1.094  1.00 20.00     0.112 C 
ENDROOT
BRANCH   2   4
HETATM    4  C9  UNL     1     -32.945   6.009   3.877  1.00 20.00     0.098 C 
BRANCH   4   5
HETATM    5  C6  UNL     1     -34.238   6.438   4.568  1.00 20.00    -0.001 C 
HETATM    6  C3  UNL     1     -34.139   6.358   6.090  1.00 20.00     0.008 C 
HETATM    7  C4  UNL     1     -34.402   4.892   6.417  1.00 20.00     0.032 C 
HETATM    8  C7  UNL     1     -35.312   4.377   5.300  1.00 20.00     0.118 C 
HETATM    9  C5  UNL     1     -35.405   5.497   4.260  1.00 20.00     0.037 C 
BRANCH   8  10
HETATM   10  O10 UNL     1     -34.738   3.210   4.727  1.00 20.00    -0.396 OA
HETATM   11  H24 UNL     1     -34.009   2.945   5.310  1.00 20.00     0.210 HD
ENDBRANCH   8  10
ENDBRANCH   4   5
ENDBRANCH   2   4
TORSDOF 3
ENDMDL
MODEL 2
REMARK VINA RESULT:      -5.2     11.225     12.320
REMARK  3 active torsions:
REMARK  status: ('A' for Active; 'I' for Inactive)
REMARK    1  A    between atoms: C2_2  and  C9_9 
REMARK    2  A    between atoms: C6_6  and  C9_9 
REMARK    3  A    between atoms: C7_7  and  O10_10 
ROOT
HETATM    1  C1  UNL     1     -34.048  17.318  -0.705  1.00 20.00    -0.111 C 
HETATM    2  C2  UNL     1     -34.379  16.520  -1.539  1.00 20.00    -0.107 C 
HETATM    3  C8  UNL     1     -33.644  18.289   0.311  1.00 20.00     0.112 C 
ENDROOT
BRANCH   2   4
HETATM    4  C9  UNL     1     -34.782  15.546  -2.561  1.00 20.00     0.098 C 
BRANCH   4   5
HETATM    5  C6  UNL     1     -33.644  15.274  -3.544  1.00 20.00    -0.001 C 
HETATM    6  C3  UNL     1     -34.001  15.673  -4.973  1.00 20.00     0.008 C 
HETATM    7  C4  UNL     1     -34.804  14.495  -5.513  1.00 20.00     0.032 C 
HETATM    8  C7  UNL     1     -34.290  13.266  -4.763  1.00 20.00     0.118 C 
HETATM    9  C5  UNL     1     -33.337  13.780  -3.681  1.00 20.00     0.037 C 
BRANCH   8  10
HETATM   10  O10 UNL     1     -35.388  12.581  -4.176  1.00 20.00    -0.396 OA
HETATM   11  H24 UNL     1     -36.174  13.127  -4.336  1.00 20.00     0.210 HD
ENDBRANCH   8  10
ENDBRANCH   4   5
ENDBRANCH   2   4
TORSDOF 3
ENDMDL
MODEL 3
REMARK VINA RESULT:      -4.6     11.769     12.376
REMARK  3 active torsions:
REMARK  status: ('A' for Active; 'I' for Inactive)
REMARK    1  A    between atoms: C2_2  and  C9_9 
REMARK    2  A    between atoms: C6_6  and  C9_9 
REMARK    3  A    between atoms: C7_7  and  O10_10 
ROOT
HETATM    1  C1  UNL     1     -34.767  16.969  -0.567  1.00 20.00    -0.111 C 
HETATM    2  C2  UNL     1     -34.381  16.344  -1.516  1.00 20.00    -0.107 C 
HETATM    3  C8  UNL     1     -35.237  17.732   0.589  1.00 20.00     0.112 C 
ENDROOT
BRANCH   2   4
HETATM    4  C9  UNL     1     -33.911  15.574  -2.675  1.00 20.00     0.098 C 
BRANCH   4   5
HETATM    5  C6  UNL     1     -34.679  15.954  -3.939  1.00 20.00    -0.001 C 
HETATM    6  C3  UNL     1     -36.189  15.988  -3.714  1.00 20.00     0.008 C 
HETATM    7  C4  UNL     1     -36.630  14.534  -3.833  1.00 20.00     0.032 C 
HETATM    8  C7  UNL     1     -35.629  13.875  -4.784  1.00 20.00     0.118 C 
HETATM    9  C5  UNL     1     -34.531  14.908  -5.048  1.00 20.00     0.037 C 
BRANCH   8  10
HETATM   10  O10 UNL     1     -35.086  12.717  -4.164  1.00 20.00    -0.396 OA
HETATM   11  H24 UNL     1     -35.838  12.158  -3.912  1.00 20.00     0.210 HD
ENDBRANCH   8  10
ENDBRANCH   4   5
ENDBRANCH   2   4
TORSDOF 3
ENDMDL
MODEL 4
REMARK VINA RESULT:      -4.6     11.884     12.805
REMARK  3 active torsions:
REMARK  status: ('A' for Active; 'I' for Inactive)
REMARK    1  A    between atoms: C2_2  and  C9_9 
REMARK    2  A    between atoms: C6_6  and  C9_9 
REMARK    3  A    between atoms: C7_7  and  O10_10 
ROOT
HETATM    1  C1  UNL     1     -34.674  16.750  -0.702  1.00 20.00    -0.111 C 
HETATM    2  C2  UNL     1     -34.436  16.159  -1.719  1.00 20.00    -0.107 C 
HETATM    3  C8  UNL     1     -34.964  17.469   0.538  1.00 20.00     0.112 C 
ENDROOT
BRANCH   2   4
HETATM    4  C9  UNL     1     -34.145  15.440  -2.966  1.00 20.00     0.098 C 
BRANCH   4   5
HETATM    5  C6  UNL     1     -35.430  14.994  -3.661  1.00 20.00    -0.001 C 
HETATM    6  C3  UNL     1     -35.394  13.522  -4.063  1.00 20.00     0.008 C 
HETATM    7  C4  UNL     1     -34.626  13.500  -5.380  1.00 20.00     0.032 C 
HETATM    8  C7  UNL     1     -34.886  14.859  -6.032  1.00 20.00     0.118 C 
HETATM    9  C5  UNL     1     -35.643  15.701  -5.003  1.00 20.00     0.037 C 
BRANCH   8  10
HETATM   10  O10 UNL     1     -33.645  15.468  -6.360  1.00 20.00    -0.396 OA
HETATM   11  H24 UNL     1     -33.496  16.166  -5.703  1.00 20.00     0.210 HD
ENDBRANCH   8  10
ENDBRANCH   4   5
ENDBRANCH   2   4
TORSDOF 3
ENDMDL
MODEL 5
REMARK VINA RESULT:      -4.6     11.926     12.719
REMARK  3 active torsions:
REMARK  status: ('A' for Active; 'I' for Inactive)
REMARK    1  A    between atoms: C2_2  and  C9_9 
REMARK    2  A    between atoms: C6_6  and  C9_9 
REMARK    3  A    between atoms: C7_7  and  O10_10 
ROOT
HETATM    1  C1  UNL     1     -34.555  16.562  -1.096  1.00 20.00    -0.111 C 
HETATM    2  C2  UNL     1     -34.240  15.980  -2.097  1.00 20.00    -0.107 C 
HETATM    3  C8  UNL     1     -34.938  17.271   0.125  1.00 20.00     0.112 C 
ENDROOT
BRANCH   2   4
HETATM    4  C9  UNL     1     -33.860  15.267  -3.323  1.00 20.00     0.098 C 
BRANCH   4   5
HETATM    5  C6  UNL     1     -34.823  14.118  -3.616  1.00 20.00    -0.001 C 
HETATM    6  C3  UNL     1     -34.452  13.358  -4.887  1.00 20.00     0.008 C 
HETATM    7  C4  UNL     1     -35.037  14.191  -6.021  1.00 20.00     0.032 C 
HETATM    8  C7  UNL     1     -36.255  14.901  -5.425  1.00 20.00     0.118 C 
HETATM    9  C5  UNL     1     -36.241  14.608  -3.923  1.00 20.00     0.037 C 
BRANCH   8  10
HETATM   10  O10 UNL     1     -36.147  16.298  -5.663  1.00 20.00    -0.396 OA
HETATM   11  H24 UNL     1     -35.671  16.673  -4.905  1.00 20.00     0.210 HD
ENDBRANCH   8  10
ENDBRANCH   4   5
ENDBRANCH   2   4
TORSDOF 3
ENDMDL
MODEL 6
REMARK VINA RESULT:      -4.5     11.987     12.855
REMARK  3 active torsions:
REMARK  status: ('A' for Active; 'I' for Inactive)
REMARK    1  A    between atoms: C2_2  and  C9_9 
REMARK    2  A    between atoms: C6_6  and  C9_9 
REMARK    3  A    between atoms: C7_7  and  O10_10 
ROOT
HETATM    1  C1  UNL     1     -34.413  17.044  -0.762  1.00 20.00    -0.111 C 
HETATM    2  C2  UNL     1     -34.699  16.281  -1.644  1.00 20.00    -0.107 C 
HETATM    3  C8  UNL     1     -34.063  17.972   0.312  1.00 20.00     0.112 C 
ENDROOT
BRANCH   2   4
HETATM    4  C9  UNL     1     -35.053  15.351  -2.723  1.00 20.00     0.098 C 
BRANCH   4   5
HETATM    5  C6  UNL     1     -33.807  14.844  -3.447  1.00 20.00    -0.001 C 
HETATM    6  C3  UNL     1     -33.151  15.925  -4.303  1.00 20.00     0.008 C 
HETATM    7  C4  UNL     1     -33.952  15.931  -5.599  1.00 20.00     0.032 C 
HETATM    8  C7  UNL     1     -34.482  14.505  -5.764  1.00 20.00     0.118 C 
HETATM    9  C5  UNL     1     -34.132  13.757  -4.476  1.00 20.00     0.037 C 
BRANCH   8  10
HETATM   10  O10 UNL     1     -35.890  14.547  -5.951  1.00 20.00    -0.396 OA
HETATM   11  H24 UNL     1     -36.184  13.628  -6.050  1.00 20.00     0.210 HD
ENDBRANCH   8  10
ENDBRANCH   4   5
ENDBRANCH   2   4
TORSDOF 3
ENDMDL
MODEL 7
REMARK VINA RESULT:      -4.5     12.017     12.926
REMARK  3 active torsions:
REMARK  status: ('A' for Active; 'I' for Inactive)
REMARK    1  A    between atoms: C2_2  and  C9_9 
REMARK    2  A    between atoms: C6_6  and  C9_9 
REMARK    3  A    between atoms: C7_7  and  O10_10 
ROOT
HETATM    1  C1  UNL     1     -34.935  17.308   0.435  1.00 20.00    -0.111 C 
HETATM    2  C2  UNL     1     -34.465  16.997  -0.625  1.00 20.00    -0.107 C 
HETATM    3  C8  UNL     1     -35.508  17.687   1.726  1.00 20.00     0.112 C 
ENDROOT
BRANCH   2   4
HETATM    4  C9  UNL     1     -33.889  16.613  -1.920  1.00 20.00     0.098 C 
BRANCH   4   5
HETATM    5  C6  UNL     1     -34.980  16.376  -2.962  1.00 20.00    -0.001 C 
HETATM    6  C3  UNL     1     -35.273  14.892  -3.172  1.00 20.00     0.008 C 
HETATM    7  C4  UNL     1     -34.191  14.418  -4.136  1.00 20.00     0.032 C 
HETATM    8  C7  UNL     1     -33.822  15.641  -4.976  1.00 20.00     0.118 C 
HETATM    9  C5  UNL     1     -34.559  16.833  -4.362  1.00 20.00     0.037 C 
BRANCH   8  10
HETATM   10  O10 UNL     1     -32.416  15.841  -4.920  1.00 20.00    -0.396 OA
HETATM   11  H24 UNL     1     -32.214  16.143  -4.021  1.00 20.00     0.210 HD
ENDBRANCH   8  10
ENDBRANCH   4   5
ENDBRANCH   2   4
TORSDOF 3
ENDMDL
MODEL 8
REMARK VINA RESULT:      -4.3      9.403     10.920
REMARK  3 active torsions:
REMARK  status: ('A' for Active; 'I' for Inactive)
REMARK    1  A    between atoms: C2_2  and  C9_9 
REMARK    2  A    between atoms: C6_6  and  C9_9 
REMARK    3  A    between atoms: C7_7  and  O10_10 
ROOT
HETATM    1  C1  UNL     1     -41.879   1.756  -3.429  1.00 20.00    -0.111 C 
HETATM    2  C2  UNL     1     -42.061   2.875  -3.034  1.00 20.00    -0.107 C 
HETATM    3  C8  UNL     1     -41.656   0.393  -3.910  1.00 20.00     0.112 C 
ENDROOT
BRANCH   2   4
HETATM    4  C9  UNL     1     -42.287   4.242  -2.548  1.00 20.00     0.098 C 
BRANCH   4   5
HETATM    5  C6  UNL     1     -41.967   4.358  -1.058  1.00 20.00    -0.001 C 
HETATM    6  C3  UNL     1     -43.010   5.176  -0.301  1.00 20.00     0.008 C 
HETATM    7  C4  UNL     1     -42.613   6.628  -0.542  1.00 20.00     0.032 C 
HETATM    8  C7  UNL     1     -41.097   6.613  -0.744  1.00 20.00     0.118 C 
HETATM    9  C5  UNL     1     -40.677   5.142  -0.798  1.00 20.00     0.037 C 
BRANCH   8  10
HETATM   10  O10 UNL     1     -40.780   7.268  -1.965  1.00 20.00    -0.396 OA
HETATM   11  H24 UNL     1     -39.884   7.628  -1.862  1.00 20.00     0.210 HD
ENDBRANCH   8  10
ENDBRANCH   4   5
ENDBRANCH   2   4
TORSDOF 3
ENDMDL
MODEL 9
REMARK VINA RESULT:      -4.2     11.224     12.753
REMARK  3 active torsions:
REMARK  status: ('A' for Active; 'I' for Inactive)
REMARK    1  A    between atoms: C2_2  and  C9_9 
REMARK    2  A    between atoms: C6_6  and  C9_9 
REMARK    3  A    between atoms: C7_7  and  O10_10 
ROOT
HETATM    1  C1  UNL     1     -35.735  17.942  -2.822  1.00 20.00    -0.111 C 
HETATM    2  C2  UNL     1     -35.241  16.860  -2.663  1.00 20.00    -0.107 C 
HETATM    3  C8  UNL     1     -36.337  19.260  -3.017  1.00 20.00     0.112 C 
ENDROOT
BRANCH   2   4
HETATM    4  C9  UNL     1     -34.634  15.538  -2.463  1.00 20.00     0.098 C 
BRANCH   4   5
HETATM    5  C6  UNL     1     -33.549  15.264  -3.502  1.00 20.00    -0.001 C 
HETATM    6  C3  UNL     1     -33.960  15.707  -4.904  1.00 20.00     0.008 C 
HETATM    7  C4  UNL     1     -34.815  14.561  -5.435  1.00 20.00     0.032 C 
HETATM    8  C7  UNL     1     -34.296  13.302  -4.738  1.00 20.00     0.118 C 
HETATM    9  C5  UNL     1     -33.284  13.768  -3.690  1.00 20.00     0.037 C 
BRANCH   8  10
HETATM   10  O10 UNL     1     -35.383  12.628  -4.118  1.00 20.00    -0.396 OA
HETATM   11  H24 UNL     1     -36.109  12.619  -4.762  1.00 20.00     0.210 HD
ENDBRANCH   8  10
ENDBRANCH   4   5
ENDBRANCH   2   4
TORSDOF 3
ENDMDL
