MODEL 1
REMARK VINA RESULT:      -4.7      0.000      0.000
REMARK  1 active torsions:
REMARK  status: ('A' for Active; 'I' for Inactive)
REMARK    1  A    between atoms: C4_4  and  C8_8 
ROOT
HETATM    1  C1  UNL     1     -33.448   6.504   5.716  1.00 20.00     0.006 C 
HETATM    2  C2  UNL     1     -34.584   5.910   6.539  1.00 20.00     0.020 C 
HETATM    3  C3  UNL     1     -35.122   5.469   4.247  1.00 20.00     0.025 C 
HETATM    4  C4  UNL     1     -33.967   6.487   4.273  1.00 20.00    -0.010 C 
HETATM    5  C5  UNL     1     -35.163   4.831   5.633  1.00 20.00     0.082 C 
HETATM    6 CL9  UNL     1     -34.151   3.357   5.674  1.00 20.00    -0.125 Cl
ENDROOT
BRANCH   4   7
HETATM    7  C8  UNL     1     -32.870   6.163   3.268  1.00 20.00    -0.019 C 
HETATM    8  C6  UNL     1     -33.405   5.259   2.157  1.00 20.00     0.010 C 
HETATM    9  C7  UNL     1     -32.282   7.444   2.676  1.00 20.00     0.010 C 
ENDBRANCH   4   7
TORSDOF 1
ENDMDL
MODEL 2
REMARK VINA RESULT:      -4.2     12.065     13.117
REMARK  1 active torsions:
REMARK  status: ('A' for Active; 'I' for Inactive)
REMARK    1  A    between atoms: C4_4  and  C8_8 
ROOT
HETATM    1  C1  UNL     1     -34.045  13.833  -3.587  1.00 20.00     0.006 C 
HETATM    2  C2  UNL     1     -34.761  13.292  -4.819  1.00 20.00     0.020 C 
HETATM    3  C3  UNL     1     -35.813  15.381  -4.301  1.00 20.00     0.025 C 
HETATM    4  C4  UNL     1     -34.930  14.988  -3.102  1.00 20.00    -0.010 C 
HETATM    5  C5  UNL     1     -35.335  14.538  -5.481  1.00 20.00     0.082 C 
HETATM    6 CL9  UNL     1     -34.073  15.407  -6.401  1.00 20.00    -0.125 Cl
ENDROOT
BRANCH   4   7
HETATM    7  C8  UNL     1     -34.114  16.154  -2.562  1.00 20.00    -0.019 C 
HETATM    8  C6  UNL     1     -34.252  17.377  -3.469  1.00 20.00     0.010 C 
HETATM    9  C7  UNL     1     -34.541  16.498  -1.134  1.00 20.00     0.010 C 
ENDBRANCH   4   7
TORSDOF 1
ENDMDL
MODEL 3
REMARK VINA RESULT:      -4.2     11.739     13.067
REMARK  1 active torsions:
REMARK  status: ('A' for Active; 'I' for Inactive)
REMARK    1  A    between atoms: C4_4  and  C8_8 
ROOT
HETATM    1  C1  UNL     1     -34.166  15.426  -5.402  1.00 20.00     0.006 C 
HETATM    2  C2  UNL     1     -34.813  14.094  -5.762  1.00 20.00     0.020 C 
HETATM    3  C3  UNL     1     -34.265  13.959  -3.434  1.00 20.00     0.025 C 
HETATM    4  C4  UNL     1     -33.552  15.194  -4.016  1.00 20.00    -0.010 C 
HETATM    5  C5  UNL     1     -35.356  13.584  -4.434  1.00 20.00     0.082 C 
HETATM    6 CL9  UNL     1     -36.893  14.399  -4.020  1.00 20.00    -0.125 Cl
ENDROOT
BRANCH   4   7
HETATM    7  C8  UNL     1     -33.667  16.420  -3.120  1.00 20.00    -0.019 C 
HETATM    8  C6  UNL     1     -34.280  17.593  -3.885  1.00 20.00     0.010 C 
HETATM    9  C7  UNL     1     -34.495  16.104  -1.874  1.00 20.00     0.010 C 
ENDBRANCH   4   7
TORSDOF 1
ENDMDL
MODEL 4
REMARK VINA RESULT:      -4.1     11.745     13.314
REMARK  1 active torsions:
REMARK  status: ('A' for Active; 'I' for Inactive)
REMARK    1  A    between atoms: C4_4  and  C8_8 
ROOT
HETATM    1  C1  UNL     1     -35.547  15.543  -4.558  1.00 20.00     0.006 C 
HETATM    2  C2  UNL     1     -35.223  15.024  -3.163  1.00 20.00     0.020 C 
HETATM    3  C3  UNL     1     -34.574  13.291  -4.684  1.00 20.00     0.025 C 
HETATM    4  C4  UNL     1     -35.419  14.313  -5.467  1.00 20.00    -0.010 C 
HETATM    5  C5  UNL     1     -34.127  13.994  -3.404  1.00 20.00     0.082 C 
HETATM    6 CL9  UNL     1     -32.546  14.792  -3.646  1.00 20.00    -0.125 Cl
ENDROOT
BRANCH   4   7
HETATM    7  C8  UNL     1     -34.822  14.658  -6.825  1.00 20.00    -0.019 C 
HETATM    8  C6  UNL     1     -35.889  14.588  -7.917  1.00 20.00     0.010 C 
HETATM    9  C7  UNL     1     -34.177  16.044  -6.796  1.00 20.00     0.010 C 
ENDBRANCH   4   7
TORSDOF 1
ENDMDL
MODEL 5
REMARK VINA RESULT:      -4.1     12.499     13.241
REMARK  1 active torsions:
REMARK  status: ('A' for Active; 'I' for Inactive)
REMARK    1  A    between atoms: C4_4  and  C8_8 
ROOT
HETATM    1  C1  UNL     1     -34.865  15.764  -2.237  1.00 20.00     0.006 C 
HETATM    2  C2  UNL     1     -34.001  17.016  -2.318  1.00 20.00     0.020 C 
HETATM    3  C3  UNL     1     -33.342  15.633  -4.160  1.00 20.00     0.025 C 
HETATM    4  C4  UNL     1     -34.213  14.781  -3.218  1.00 20.00    -0.010 C 
HETATM    5  C5  UNL     1     -33.606  17.090  -3.787  1.00 20.00     0.082 C 
HETATM    6 CL9  UNL     1     -34.942  17.757  -4.771  1.00 20.00    -0.125 Cl
ENDROOT
BRANCH   4   7
HETATM    7  C8  UNL     1     -35.241  13.941  -3.963  1.00 20.00    -0.019 C 
HETATM    8  C6  UNL     1     -36.625  14.586  -3.886  1.00 20.00     0.010 C 
HETATM    9  C7  UNL     1     -34.825  13.744  -5.422  1.00 20.00     0.010 C 
ENDBRANCH   4   7
TORSDOF 1
ENDMDL
MODEL 6
REMARK VINA RESULT:      -4.0     11.778     13.173
REMARK  1 active torsions:
REMARK  status: ('A' for Active; 'I' for Inactive)
REMARK    1  A    between atoms: C4_4  and  C8_8 
ROOT
HETATM    1  C1  UNL     1     -34.785  13.423  -4.212  1.00 20.00     0.006 C 
HETATM    2  C2  UNL     1     -33.365  13.699  -3.736  1.00 20.00     0.020 C 
HETATM    3  C3  UNL     1     -33.976  15.558  -5.117  1.00 20.00     0.025 C 
HETATM    4  C4  UNL     1     -35.026  14.451  -5.325  1.00 20.00    -0.010 C 
HETATM    5  C5  UNL     1     -33.240  15.214  -3.824  1.00 20.00     0.082 C 
HETATM    6 CL9  UNL     1     -34.031  15.999  -2.425  1.00 20.00    -0.125 Cl
ENDROOT
BRANCH   4   7
HETATM    7  C8  UNL     1     -36.453  14.981  -5.323  1.00 20.00    -0.019 C 
HETATM    8  C6  UNL     1     -37.151  14.653  -4.003  1.00 20.00     0.010 C 
HETATM    9  C7  UNL     1     -36.470  16.490  -5.574  1.00 20.00     0.010 C 
ENDBRANCH   4   7
TORSDOF 1
ENDMDL
MODEL 7
REMARK VINA RESULT:      -4.0      9.450     10.446
REMARK  1 active torsions:
REMARK  status: ('A' for Active; 'I' for Inactive)
REMARK    1  A    between atoms: C4_4  and  C8_8 
ROOT
HETATM    1  C1  UNL     1     -41.866   5.095  -2.251  1.00 20.00     0.006 C 
HETATM    2  C2  UNL     1     -40.943   4.583  -1.152  1.00 20.00     0.020 C 
HETATM    3  C3  UNL     1     -41.113   6.951  -0.829  1.00 20.00     0.025 C 
HETATM    4  C4  UNL     1     -41.704   6.620  -2.212  1.00 20.00    -0.010 C 
HETATM    5  C5  UNL     1     -41.066   5.635  -0.057  1.00 20.00     0.082 C 
HETATM    6 CL9  UNL     1     -42.571   5.403   0.880  1.00 20.00    -0.125 Cl
ENDROOT
BRANCH   4   7
HETATM    7  C8  UNL     1     -43.013   7.347  -2.486  1.00 20.00    -0.019 C 
HETATM    8  C6  UNL     1     -43.417   8.205  -1.286  1.00 20.00     0.010 C 
HETATM    9  C7  UNL     1     -42.901   8.209  -3.744  1.00 20.00     0.010 C 
ENDBRANCH   4   7
TORSDOF 1
ENDMDL
MODEL 8
REMARK VINA RESULT:      -4.0     11.799     13.144
REMARK  1 active torsions:
REMARK  status: ('A' for Active; 'I' for Inactive)
REMARK    1  A    between atoms: C4_4  and  C8_8 
ROOT
HETATM    1  C1  UNL     1     -32.867  14.958  -3.692  1.00 20.00     0.006 C 
HETATM    2  C2  UNL     1     -33.395  13.531  -3.759  1.00 20.00     0.020 C 
HETATM    3  C3  UNL     1     -35.289  14.918  -3.280  1.00 20.00     0.025 C 
HETATM    4  C4  UNL     1     -34.020  15.768  -3.083  1.00 20.00    -0.010 C 
HETATM    5  C5  UNL     1     -34.868  13.704  -4.106  1.00 20.00     0.082 C 
HETATM    6 CL9  UNL     1     -35.076  14.031  -5.851  1.00 20.00    -0.125 Cl
ENDROOT
BRANCH   4   7
HETATM    7  C8  UNL     1     -34.137  17.157  -3.695  1.00 20.00    -0.019 C 
HETATM    8  C6  UNL     1     -33.438  17.210  -5.054  1.00 20.00     0.010 C 
HETATM    9  C7  UNL     1     -35.605  17.564  -3.834  1.00 20.00     0.010 C 
ENDBRANCH   4   7
TORSDOF 1
ENDMDL
MODEL 9
REMARK VINA RESULT:      -4.0     12.194     12.952
REMARK  1 active torsions:
REMARK  status: ('A' for Active; 'I' for Inactive)
REMARK    1  A    between atoms: C4_4  and  C8_8 
ROOT
HETATM    1  C1  UNL     1     -35.080  15.614  -2.696  1.00 20.00     0.006 C 
HETATM    2  C2  UNL     1     -33.735  16.297  -2.478  1.00 20.00     0.020 C 
HETATM    3  C3  UNL     1     -33.293  14.375  -3.838  1.00 20.00     0.025 C 
HETATM    4  C4  UNL     1     -34.726  14.244  -3.290  1.00 20.00    -0.010 C 
HETATM    5  C5  UNL     1     -32.899  15.840  -3.667  1.00 20.00     0.082 C 
HETATM    6 CL9  UNL     1     -33.315  16.776  -5.132  1.00 20.00    -0.125 Cl
ENDROOT
BRANCH   4   7
HETATM    7  C8  UNL     1     -35.725  13.797  -4.347  1.00 20.00    -0.019 C 
HETATM    8  C6  UNL     1     -36.950  14.712  -4.355  1.00 20.00     0.010 C 
HETATM    9  C7  UNL     1     -35.073  13.767  -5.730  1.00 20.00     0.010 C 
ENDBRANCH   4   7
TORSDOF 1
ENDMDL
