MODEL 1
REMARK VINA RESULT:      -5.0      0.000      0.000
REMARK  2 active torsions:
REMARK  status: ('A' for Active; 'I' for Inactive)
REMARK    1  A    between atoms: C2_2  and  C9_9 
REMARK    2  A    between atoms: C7_7  and  C9_9 
ROOT
HETATM    1  C3  UNL     1     -34.556   5.069   2.620  1.00 20.00     0.002 C 
HETATM    2  C4  UNL     1     -33.190   5.729   2.409  1.00 20.00     0.005 C 
HETATM    3  C5  UNL     1     -35.140   5.297   4.018  1.00 20.00     0.020 C 
HETATM    4  C6  UNL     1     -33.186   6.740   4.736  1.00 20.00     0.025 C 
HETATM    5  C7  UNL     1     -33.050   7.015   3.226  1.00 20.00    -0.010 C 
HETATM    6  C8  UNL     1     -34.040   5.505   5.052  1.00 20.00     0.082 C 
HETATM    7 CL10 UNL     1     -34.739   5.643   6.690  1.00 20.00    -0.125 Cl
ENDROOT
BRANCH   5   8
HETATM    8  C9  UNL     1     -31.733   7.726   2.918  1.00 20.00     0.031 C 
BRANCH   8   9
HETATM    9  C2  UNL     1     -31.784   8.400   1.584  1.00 20.00    -0.037 C 
HETATM   10  C1  UNL     1     -32.410   9.561   1.358  1.00 20.00     0.007 C 
ENDBRANCH   8   9
ENDBRANCH   5   8
TORSDOF 2
ENDMDL
MODEL 2
REMARK VINA RESULT:      -4.5     11.159     12.150
REMARK  2 active torsions:
REMARK  status: ('A' for Active; 'I' for Inactive)
REMARK    1  A    between atoms: C2_2  and  C9_9 
REMARK    2  A    between atoms: C7_7  and  C9_9 
ROOT
HETATM    1  C3  UNL     1     -34.815  13.637  -3.995  1.00 20.00     0.002 C 
HETATM    2  C4  UNL     1     -34.812  14.736  -2.929  1.00 20.00     0.005 C 
HETATM    3  C5  UNL     1     -34.396  14.126  -5.386  1.00 20.00     0.020 C 
HETATM    4  C6  UNL     1     -33.972  16.485  -4.565  1.00 20.00     0.025 C 
HETATM    5  C7  UNL     1     -33.741  15.793  -3.207  1.00 20.00    -0.010 C 
HETATM    6  C8  UNL     1     -34.719  15.603  -5.575  1.00 20.00     0.082 C 
HETATM    7 CL10 UNL     1     -34.337  16.118  -7.241  1.00 20.00    -0.125 Cl
ENDROOT
BRANCH   5   8
HETATM    8  C9  UNL     1     -33.667  16.819  -2.078  1.00 20.00     0.031 C 
BRANCH   8   9
HETATM    9  C2  UNL     1     -34.709  16.552  -1.038  1.00 20.00    -0.037 C 
HETATM   10  C1  UNL     1     -34.810  17.233   0.109  1.00 20.00     0.007 C 
ENDBRANCH   8   9
ENDBRANCH   5   8
TORSDOF 2
ENDMDL
MODEL 3
REMARK VINA RESULT:      -4.4      1.416      2.298
REMARK  2 active torsions:
REMARK  status: ('A' for Active; 'I' for Inactive)
REMARK    1  A    between atoms: C2_2  and  C9_9 
REMARK    2  A    between atoms: C7_7  and  C9_9 
ROOT
HETATM    1  C3  UNL     1     -35.042   4.180   5.783  1.00 20.00     0.002 C 
HETATM    2  C4  UNL     1     -34.227   4.308   4.493  1.00 20.00     0.005 C 
HETATM    3  C5  UNL     1     -35.054   5.454   6.634  1.00 20.00     0.020 C 
HETATM    4  C6  UNL     1     -33.661   6.739   4.952  1.00 20.00     0.025 C 
HETATM    5  C7  UNL     1     -34.256   5.736   3.944  1.00 20.00    -0.010 C 
HETATM    6  C8  UNL     1     -33.794   6.282   6.411  1.00 20.00     0.082 C 
HETATM    7 CL10 UNL     1     -33.772   7.694   7.503  1.00 20.00    -0.125 Cl
ENDROOT
BRANCH   5   8
HETATM    8  C9  UNL     1     -33.540   5.827   2.598  1.00 20.00     0.031 C 
BRANCH   8   9
HETATM    9  C2  UNL     1     -32.285   6.634   2.708  1.00 20.00    -0.037 C 
HETATM   10  C1  UNL     1     -32.137   7.858   2.188  1.00 20.00     0.007 C 
ENDBRANCH   8   9
ENDBRANCH   5   8
TORSDOF 2
ENDMDL
MODEL 4
REMARK VINA RESULT:      -4.4     11.096     12.141
REMARK  2 active torsions:
REMARK  status: ('A' for Active; 'I' for Inactive)
REMARK    1  A    between atoms: C2_2  and  C9_9 
REMARK    2  A    between atoms: C7_7  and  C9_9 
ROOT
HETATM    1  C3  UNL     1     -34.567  13.302  -4.707  1.00 20.00     0.002 C 
HETATM    2  C4  UNL     1     -34.365  14.153  -3.450  1.00 20.00     0.005 C 
HETATM    3  C5  UNL     1     -35.023  14.107  -5.929  1.00 20.00     0.020 C 
HETATM    4  C6  UNL     1     -34.943  16.303  -4.667  1.00 20.00     0.025 C 
HETATM    5  C7  UNL     1     -33.905  15.572  -3.793  1.00 20.00    -0.010 C 
HETATM    6  C8  UNL     1     -35.798  15.352  -5.515  1.00 20.00     0.082 C 
HETATM    7 CL10 UNL     1     -36.425  16.205  -6.954  1.00 20.00    -0.125 Cl
ENDROOT
BRANCH   5   8
HETATM    8  C9  UNL     1     -33.593  16.375  -2.532  1.00 20.00     0.031 C 
BRANCH   8   9
HETATM    9  C2  UNL     1     -34.703  16.265  -1.535  1.00 20.00    -0.037 C 
HETATM   10  C1  UNL     1     -34.731  16.932  -0.375  1.00 20.00     0.007 C 
ENDBRANCH   8   9
ENDBRANCH   5   8
TORSDOF 2
ENDMDL
MODEL 5
REMARK VINA RESULT:      -4.4      9.441     11.176
REMARK  2 active torsions:
REMARK  status: ('A' for Active; 'I' for Inactive)
REMARK    1  A    between atoms: C2_2  and  C9_9 
REMARK    2  A    between atoms: C7_7  and  C9_9 
ROOT
HETATM    1  C3  UNL     1     -40.771   6.015  -0.540  1.00 20.00     0.002 C 
HETATM    2  C4  UNL     1     -40.971   4.652  -1.208  1.00 20.00     0.005 C 
HETATM    3  C5  UNL     1     -41.595   7.139  -1.177  1.00 20.00     0.020 C 
HETATM    4  C6  UNL     1     -42.684   5.569  -2.840  1.00 20.00     0.025 C 
HETATM    5  C7  UNL     1     -42.385   4.499  -1.772  1.00 20.00    -0.010 C 
HETATM    6  C8  UNL     1     -41.874   6.858  -2.648  1.00 20.00     0.082 C 
HETATM    7 CL10 UNL     1     -42.726   8.237  -3.398  1.00 20.00    -0.125 Cl
ENDROOT
BRANCH   5   8
HETATM    8  C9  UNL     1     -42.611   3.094  -2.330  1.00 20.00     0.031 C 
BRANCH   8   9
HETATM    9  C2  UNL     1     -41.444   2.646  -3.151  1.00 20.00    -0.037 C 
HETATM   10  C1  UNL     1     -41.484   1.617  -4.005  1.00 20.00     0.007 C 
ENDBRANCH   8   9
ENDBRANCH   5   8
TORSDOF 2
ENDMDL
MODEL 6
REMARK VINA RESULT:      -4.3     10.403     11.839
REMARK  2 active torsions:
REMARK  status: ('A' for Active; 'I' for Inactive)
REMARK    1  A    between atoms: C2_2  and  C9_9 
REMARK    2  A    between atoms: C7_7  and  C9_9 
ROOT
HETATM    1  C3  UNL     1     -32.964  19.088  -0.956  1.00 20.00     0.002 C 
HETATM    2  C4  UNL     1     -33.583  18.297  -2.112  1.00 20.00     0.005 C 
HETATM    3  C5  UNL     1     -33.385  18.586   0.429  1.00 20.00     0.020 C 
HETATM    4  C6  UNL     1     -34.774  16.701  -0.539  1.00 20.00     0.025 C 
HETATM    5  C7  UNL     1     -33.813  16.831  -1.736  1.00 20.00    -0.010 C 
HETATM    6  C8  UNL     1     -34.758  17.926   0.386  1.00 20.00     0.082 C 
HETATM    7 CL10 UNL     1     -35.280  17.462   2.030  1.00 20.00    -0.125 Cl
ENDROOT
BRANCH   5   8
HETATM    8  C9  UNL     1     -34.320  16.026  -2.931  1.00 20.00     0.031 C 
BRANCH   8   9
HETATM    9  C2  UNL     1     -33.237  15.163  -3.498  1.00 20.00    -0.037 C 
HETATM   10  C1  UNL     1     -33.387  13.862  -3.774  1.00 20.00     0.007 C 
ENDBRANCH   8   9
ENDBRANCH   5   8
TORSDOF 2
ENDMDL
MODEL 7
REMARK VINA RESULT:      -4.3      9.641     10.731
REMARK  2 active torsions:
REMARK  status: ('A' for Active; 'I' for Inactive)
REMARK    1  A    between atoms: C2_2  and  C9_9 
REMARK    2  A    between atoms: C7_7  and  C9_9 
ROOT
HETATM    1  C3  UNL     1     -40.727   5.940  -0.335  1.00 20.00     0.002 C 
HETATM    2  C4  UNL     1     -41.688   7.016  -0.848  1.00 20.00     0.005 C 
HETATM    3  C5  UNL     1     -40.767   4.641  -1.147  1.00 20.00     0.020 C 
HETATM    4  C6  UNL     1     -42.472   5.566  -2.777  1.00 20.00     0.025 C 
HETATM    5  C7  UNL     1     -41.881   6.928  -2.363  1.00 20.00    -0.010 C 
HETATM    6  C8  UNL     1     -42.129   4.435  -1.798  1.00 20.00     0.082 C 
HETATM    7 CL10 UNL     1     -42.191   2.858  -2.633  1.00 20.00    -0.125 Cl
ENDROOT
BRANCH   5   8
HETATM    8  C9  UNL     1     -42.747   8.076  -2.880  1.00 20.00     0.031 C 
BRANCH   8   9
HETATM    9  C2  UNL     1     -42.739   8.126  -4.375  1.00 20.00    -0.037 C 
HETATM   10  C1  UNL     1     -41.955   8.940  -5.090  1.00 20.00     0.007 C 
ENDBRANCH   8   9
ENDBRANCH   5   8
TORSDOF 2
ENDMDL
MODEL 8
REMARK VINA RESULT:      -4.3     11.011     12.154
REMARK  2 active torsions:
REMARK  status: ('A' for Active; 'I' for Inactive)
REMARK    1  A    between atoms: C2_2  and  C9_9 
REMARK    2  A    between atoms: C7_7  and  C9_9 
ROOT
HETATM    1  C3  UNL     1     -33.979  16.834  -5.688  1.00 20.00     0.002 C 
HETATM    2  C4  UNL     1     -33.423  17.219  -4.314  1.00 20.00     0.005 C 
HETATM    3  C5  UNL     1     -34.652  15.458  -5.718  1.00 20.00     0.020 C 
HETATM    4  C6  UNL     1     -34.264  15.078  -3.243  1.00 20.00     0.025 C 
HETATM    5  C7  UNL     1     -34.253  16.618  -3.178  1.00 20.00    -0.010 C 
HETATM    6  C8  UNL     1     -34.063  14.530  -4.662  1.00 20.00     0.082 C 
HETATM    7 CL10 UNL     1     -34.773  12.897  -4.798  1.00 20.00    -0.125 Cl
ENDROOT
BRANCH   5   8
HETATM    8  C9  UNL     1     -33.762  17.102  -1.815  1.00 20.00     0.031 C 
BRANCH   8   9
HETATM    9  C2  UNL     1     -34.669  16.639  -0.720  1.00 20.00    -0.037 C 
HETATM   10  C1  UNL     1     -34.966  17.369   0.362  1.00 20.00     0.007 C 
ENDBRANCH   8   9
ENDBRANCH   5   8
TORSDOF 2
ENDMDL
MODEL 9
REMARK VINA RESULT:      -4.2     11.621     12.634
REMARK  2 active torsions:
REMARK  status: ('A' for Active; 'I' for Inactive)
REMARK    1  A    between atoms: C2_2  and  C9_9 
REMARK    2  A    between atoms: C7_7  and  C9_9 
ROOT
HETATM    1  C3  UNL     1     -34.292  15.518  -2.702  1.00 20.00     0.002 C 
HETATM    2  C4  UNL     1     -34.642  16.274  -1.417  1.00 20.00     0.005 C 
HETATM    3  C5  UNL     1     -33.635  16.395  -3.772  1.00 20.00     0.020 C 
HETATM    4  C6  UNL     1     -33.660  18.446  -2.285  1.00 20.00     0.025 C 
HETATM    5  C7  UNL     1     -33.657  17.412  -1.142  1.00 20.00    -0.010 C 
HETATM    6  C8  UNL     1     -34.067  17.851  -3.639  1.00 20.00     0.082 C 
HETATM    7 CL10 UNL     1     -33.388  18.829  -4.971  1.00 20.00    -0.125 Cl
ENDROOT
BRANCH   5   8
HETATM    8  C9  UNL     1     -33.944  18.083   0.200  1.00 20.00     0.031 C 
BRANCH   8   9
HETATM    9  C2  UNL     1     -35.135  17.470   0.865  1.00 20.00    -0.037 C 
HETATM   10  C1  UNL     1     -35.516  17.748   2.117  1.00 20.00     0.007 C 
ENDBRANCH   8   9
ENDBRANCH   5   8
TORSDOF 2
ENDMDL
