MODEL 1
REMARK VINA RESULT:      -4.7      0.000      0.000
REMARK  2 active torsions:
REMARK  status: ('A' for Active; 'I' for Inactive)
REMARK    1  A    between atoms: C5_5  and  C8_8 
REMARK    2  A    between atoms: C8_8  and  C9_9 
ROOT
HETATM    1  C1  UNL     1     -34.385  13.560  -4.672  1.00 20.00     0.002 C 
HETATM    2  C2  UNL     1     -34.365  14.401  -3.404  1.00 20.00     0.005 C 
HETATM    3  C3  UNL     1     -34.710  14.373  -5.926  1.00 20.00     0.020 C 
HETATM    4  C4  UNL     1     -33.187  16.131  -4.899  1.00 20.00     0.024 C 
HETATM    5  C5  UNL     1     -33.315  15.520  -3.488  1.00 20.00    -0.013 C 
HETATM    6  C6  UNL     1     -34.375  15.866  -5.825  1.00 20.00     0.082 C 
HETATM    7 CL10 UNL     1     -35.809  16.802  -5.293  1.00 20.00    -0.125 Cl
ENDROOT
BRANCH   5   8
HETATM    8  C8  UNL     1     -33.575  16.584  -2.421  1.00 20.00     0.004 C 
BRANCH   8   9
HETATM    9  C9  UNL     1     -34.771  16.212  -1.550  1.00 20.00    -0.004 C 
HETATM   10  C7  UNL     1     -34.777  17.006  -0.254  1.00 20.00     0.005 C 
ENDBRANCH   8   9
ENDBRANCH   5   8
TORSDOF 2
ENDMDL
MODEL 2
REMARK VINA RESULT:      -4.5     11.541     12.651
REMARK  2 active torsions:
REMARK  status: ('A' for Active; 'I' for Inactive)
REMARK    1  A    between atoms: C5_5  and  C8_8 
REMARK    2  A    between atoms: C8_8  and  C9_9 
ROOT
HETATM    1  C1  UNL     1     -34.086   5.721   6.320  1.00 20.00     0.002 C 
HETATM    2  C2  UNL     1     -33.748   6.852   5.361  1.00 20.00     0.005 C 
HETATM    3  C3  UNL     1     -35.120   4.745   5.757  1.00 20.00     0.020 C 
HETATM    4  C4  UNL     1     -33.830   4.998   3.580  1.00 20.00     0.024 C 
HETATM    5  C5  UNL     1     -33.174   6.317   4.040  1.00 20.00    -0.013 C 
HETATM    6  C6  UNL     1     -35.183   4.693   4.225  1.00 20.00     0.082 C 
HETATM    7 CL10 UNL     1     -36.442   5.810   3.606  1.00 20.00    -0.125 Cl
ENDROOT
BRANCH   5   8
HETATM    8  C8  UNL     1     -33.223   7.394   2.955  1.00 20.00     0.004 C 
BRANCH   8   9
HETATM    9  C9  UNL     1     -31.821   7.787   2.503  1.00 20.00    -0.004 C 
HETATM   10  C7  UNL     1     -31.868   8.662   1.261  1.00 20.00     0.005 C 
ENDBRANCH   8   9
ENDBRANCH   5   8
TORSDOF 2
ENDMDL
MODEL 3
REMARK VINA RESULT:      -4.4     12.314     14.001
REMARK  2 active torsions:
REMARK  status: ('A' for Active; 'I' for Inactive)
REMARK    1  A    between atoms: C5_5  and  C8_8 
REMARK    2  A    between atoms: C8_8  and  C9_9 
ROOT
HETATM    1  C1  UNL     1     -41.747   6.975  -2.372  1.00 20.00     0.002 C 
HETATM    2  C2  UNL     1     -42.583   5.723  -2.591  1.00 20.00     0.005 C 
HETATM    3  C3  UNL     1     -41.229   7.107  -0.939  1.00 20.00     0.020 C 
HETATM    4  C4  UNL     1     -40.803   4.606  -1.109  1.00 20.00     0.024 C 
HETATM    5  C5  UNL     1     -41.778   4.449  -2.295  1.00 20.00    -0.013 C 
HETATM    6  C6  UNL     1     -41.106   5.781  -0.178  1.00 20.00     0.082 C 
HETATM    7 CL10 UNL     1     -42.589   5.460   0.778  1.00 20.00    -0.125 Cl
ENDROOT
BRANCH   5   8
HETATM    8  C8  UNL     1     -42.710   3.250  -2.118  1.00 20.00     0.004 C 
BRANCH   8   9
HETATM    9  C9  UNL     1     -42.745   2.387  -3.375  1.00 20.00    -0.004 C 
HETATM   10  C7  UNL     1     -41.351   1.921  -3.762  1.00 20.00     0.005 C 
ENDBRANCH   8   9
ENDBRANCH   5   8
TORSDOF 2
ENDMDL
MODEL 4
REMARK VINA RESULT:      -4.3      1.642      2.284
REMARK  2 active torsions:
REMARK  status: ('A' for Active; 'I' for Inactive)
REMARK    1  A    between atoms: C5_5  and  C8_8 
REMARK    2  A    between atoms: C8_8  and  C9_9 
ROOT
HETATM    1  C1  UNL     1     -34.432  15.632  -6.318  1.00 20.00     0.002 C 
HETATM    2  C2  UNL     1     -33.847  16.457  -5.181  1.00 20.00     0.005 C 
HETATM    3  C3  UNL     1     -34.642  14.163  -5.947  1.00 20.00     0.020 C 
HETATM    4  C4  UNL     1     -35.456  15.082  -3.722  1.00 20.00     0.024 C 
HETATM    5  C5  UNL     1     -34.760  16.441  -3.946  1.00 20.00    -0.013 C 
HETATM    6  C6  UNL     1     -34.812  13.900  -4.446  1.00 20.00     0.082 C 
HETATM    7 CL10 UNL     1     -33.237  13.484  -3.694  1.00 20.00    -0.125 Cl
ENDROOT
BRANCH   5   8
HETATM    8  C8  UNL     1     -33.998  16.909  -2.706  1.00 20.00     0.004 C 
BRANCH   8   9
HETATM    9  C9  UNL     1     -34.565  16.278  -1.439  1.00 20.00    -0.004 C 
HETATM   10  C7  UNL     1     -34.539  17.257  -0.277  1.00 20.00     0.005 C 
ENDBRANCH   8   9
ENDBRANCH   5   8
TORSDOF 2
ENDMDL
MODEL 5
REMARK VINA RESULT:      -4.3      0.878      1.147
REMARK  2 active torsions:
REMARK  status: ('A' for Active; 'I' for Inactive)
REMARK    1  A    between atoms: C5_5  and  C8_8 
REMARK    2  A    between atoms: C8_8  and  C9_9 
ROOT
HETATM    1  C1  UNL     1     -35.046  14.021  -5.387  1.00 20.00     0.002 C 
HETATM    2  C2  UNL     1     -35.537  14.526  -4.039  1.00 20.00     0.005 C 
HETATM    3  C3  UNL     1     -34.298  15.087  -6.191  1.00 20.00     0.020 C 
HETATM    4  C4  UNL     1     -33.254  15.707  -3.957  1.00 20.00     0.024 C 
HETATM    5  C5  UNL     1     -34.373  15.005  -3.158  1.00 20.00    -0.013 C 
HETATM    6  C6  UNL     1     -33.665  16.199  -5.345  1.00 20.00     0.082 C 
HETATM    7 CL10 UNL     1     -34.774  17.602  -5.212  1.00 20.00    -0.125 Cl
ENDROOT
BRANCH   5   8
HETATM    8  C8  UNL     1     -34.888  15.870  -2.007  1.00 20.00     0.004 C 
BRANCH   8   9
HETATM    9  C9  UNL     1     -33.847  16.901  -1.583  1.00 20.00    -0.004 C 
HETATM   10  C7  UNL     1     -34.205  17.525  -0.244  1.00 20.00     0.005 C 
ENDBRANCH   8   9
ENDBRANCH   5   8
TORSDOF 2
ENDMDL
MODEL 6
REMARK VINA RESULT:      -4.1     12.332     13.996
REMARK  2 active torsions:
REMARK  status: ('A' for Active; 'I' for Inactive)
REMARK    1  A    between atoms: C5_5  and  C8_8 
REMARK    2  A    between atoms: C8_8  and  C9_9 
ROOT
HETATM    1  C1  UNL     1     -40.637   5.833  -0.378  1.00 20.00     0.002 C 
HETATM    2  C2  UNL     1     -40.911   4.604  -1.233  1.00 20.00     0.005 C 
HETATM    3  C3  UNL     1     -41.493   7.039  -0.769  1.00 20.00     0.020 C 
HETATM    4  C4  UNL     1     -43.366   5.337  -1.012  1.00 20.00     0.024 C 
HETATM    5  C5  UNL     1     -42.377   4.158  -1.123  1.00 20.00    -0.013 C 
HETATM    6  C6  UNL     1     -42.812   6.687  -1.468  1.00 20.00     0.082 C 
HETATM    7 CL10 UNL     1     -42.612   6.716  -3.250  1.00 20.00    -0.125 Cl
ENDROOT
BRANCH   5   8
HETATM    8  C8  UNL     1     -42.739   3.208  -2.266  1.00 20.00     0.004 C 
BRANCH   8   9
HETATM    9  C9  UNL     1     -41.499   2.789  -3.048  1.00 20.00    -0.004 C 
HETATM   10  C7  UNL     1     -41.691   1.428  -3.697  1.00 20.00     0.005 C 
ENDBRANCH   8   9
ENDBRANCH   5   8
TORSDOF 2
ENDMDL
MODEL 7
REMARK VINA RESULT:      -4.0      1.642      2.288
REMARK  2 active torsions:
REMARK  status: ('A' for Active; 'I' for Inactive)
REMARK    1  A    between atoms: C5_5  and  C8_8 
REMARK    2  A    between atoms: C8_8  and  C9_9 
ROOT
HETATM    1  C1  UNL     1     -37.289  15.138  -5.382  1.00 20.00     0.002 C 
HETATM    2  C2  UNL     1     -36.386  15.433  -4.193  1.00 20.00     0.005 C 
HETATM    3  C3  UNL     1     -36.515  14.928  -6.685  1.00 20.00     0.020 C 
HETATM    4  C4  UNL     1     -34.884  13.623  -5.235  1.00 20.00     0.024 C 
HETATM    5  C5  UNL     1     -35.398  14.284  -3.938  1.00 20.00    -0.013 C 
HETATM    6  C6  UNL     1     -35.066  14.462  -6.501  1.00 20.00     0.082 C 
HETATM    7 CL10 UNL     1     -33.947  15.864  -6.493  1.00 20.00    -0.125 Cl
ENDROOT
BRANCH   5   8
HETATM    8  C8  UNL     1     -34.254  14.747  -3.036  1.00 20.00     0.004 C 
BRANCH   8   9
HETATM    9  C9  UNL     1     -34.375  16.232  -2.709  1.00 20.00    -0.004 C 
HETATM   10  C7  UNL     1     -34.568  16.453  -1.217  1.00 20.00     0.005 C 
ENDBRANCH   8   9
ENDBRANCH   5   8
TORSDOF 2
ENDMDL
MODEL 8
REMARK VINA RESULT:      -4.0      1.744      3.788
REMARK  2 active torsions:
REMARK  status: ('A' for Active; 'I' for Inactive)
REMARK    1  A    between atoms: C5_5  and  C8_8 
REMARK    2  A    between atoms: C8_8  and  C9_9 
ROOT
HETATM    1  C1  UNL     1     -34.073  17.208  -1.382  1.00 20.00     0.002 C 
HETATM    2  C2  UNL     1     -34.567  15.865  -1.899  1.00 20.00     0.005 C 
HETATM    3  C3  UNL     1     -33.642  18.160  -2.500  1.00 20.00     0.020 C 
HETATM    4  C4  UNL     1     -35.699  17.290  -3.716  1.00 20.00     0.024 C 
HETATM    5  C5  UNL     1     -35.779  16.031  -2.828  1.00 20.00    -0.013 C 
HETATM    6  C6  UNL     1     -34.299  17.889  -3.859  1.00 20.00     0.082 C 
HETATM    7 CL10 UNL     1     -33.260  16.827  -4.864  1.00 20.00    -0.125 Cl
ENDROOT
BRANCH   5   8
HETATM    8  C8  UNL     1     -36.007  14.761  -3.649  1.00 20.00     0.004 C 
BRANCH   8   9
HETATM    9  C9  UNL     1     -34.776  13.861  -3.626  1.00 20.00    -0.004 C 
HETATM   10  C7  UNL     1     -34.504  13.264  -4.997  1.00 20.00     0.005 C 
ENDBRANCH   8   9
ENDBRANCH   5   8
TORSDOF 2
ENDMDL
MODEL 9
REMARK VINA RESULT:      -3.9      1.324      4.101
REMARK  2 active torsions:
REMARK  status: ('A' for Active; 'I' for Inactive)
REMARK    1  A    between atoms: C5_5  and  C8_8 
REMARK    2  A    between atoms: C8_8  and  C9_9 
ROOT
HETATM    1  C1  UNL     1     -33.785  17.401  -2.564  1.00 20.00     0.002 C 
HETATM    2  C2  UNL     1     -34.082  17.569  -4.047  1.00 20.00     0.005 C 
HETATM    3  C3  UNL     1     -34.356  16.107  -1.981  1.00 20.00     0.020 C 
HETATM    4  C4  UNL     1     -33.568  15.052  -4.155  1.00 20.00     0.024 C 
HETATM    5  C5  UNL     1     -33.494  16.416  -4.873  1.00 20.00    -0.013 C 
HETATM    6  C6  UNL     1     -34.571  14.984  -3.003  1.00 20.00     0.082 C 
HETATM    7 CL10 UNL     1     -36.251  15.011  -3.629  1.00 20.00    -0.125 Cl
ENDROOT
BRANCH   5   8
HETATM    8  C8  UNL     1     -34.129  16.370  -6.264  1.00 20.00     0.004 C 
BRANCH   8   9
HETATM    9  C9  UNL     1     -34.293  14.933  -6.748  1.00 20.00    -0.004 C 
HETATM   10  C7  UNL     1     -35.688  14.694  -7.302  1.00 20.00     0.005 C 
ENDBRANCH   8   9
ENDBRANCH   5   8
TORSDOF 2
ENDMDL
