MODEL 1
REMARK VINA RESULT:      -4.9      0.000      0.000
REMARK  1 active torsions:
REMARK  status: ('A' for Active; 'I' for Inactive)
REMARK    1  A    between atoms: C4_4  and  C7_7 
ROOT
HETATM    1  C1  UNL     1     -34.659   5.343   3.395  1.00 20.00     0.006 C 
HETATM    2  C2  UNL     1     -35.657   4.956   4.478  1.00 20.00     0.020 C 
HETATM    3  C3  UNL     1     -34.066   6.410   5.527  1.00 20.00     0.024 C 
HETATM    4  C4  UNL     1     -33.856   6.500   4.004  1.00 20.00    -0.013 C 
HETATM    5  C5  UNL     1     -34.876   5.138   5.773  1.00 20.00     0.082 C 
HETATM    6 CL8  UNL     1     -33.788   3.748   6.059  1.00 20.00    -0.125 Cl
ENDROOT
BRANCH   4   7
HETATM    7  C7  UNL     1     -32.387   6.456   3.606  1.00 20.00     0.000 C 
HETATM    8  C6  UNL     1     -32.041   7.539   2.634  1.00 20.00     0.005 C 
ENDBRANCH   4   7
TORSDOF 1
ENDMDL
MODEL 2
REMARK VINA RESULT:      -3.9     12.249     12.657
REMARK  1 active torsions:
REMARK  status: ('A' for Active; 'I' for Inactive)
REMARK    1  A    between atoms: C4_4  and  C7_7 
ROOT
HETATM    1  C1  UNL     1     -35.836  14.987  -3.497  1.00 20.00     0.006 C 
HETATM    2  C2  UNL     1     -35.894  13.797  -4.448  1.00 20.00     0.020 C 
HETATM    3  C3  UNL     1     -33.588  14.061  -3.851  1.00 20.00     0.024 C 
HETATM    4  C4  UNL     1     -34.425  14.933  -2.896  1.00 20.00    -0.013 C 
HETATM    5  C5  UNL     1     -34.492  13.737  -5.039  1.00 20.00     0.082 C 
HETATM    6 CL8  UNL     1     -34.294  14.959  -6.329  1.00 20.00    -0.125 Cl
ENDROOT
BRANCH   4   7
HETATM    7  C7  UNL     1     -33.833  16.320  -2.689  1.00 20.00     0.000 C 
HETATM    8  C6  UNL     1     -34.118  16.849  -1.319  1.00 20.00     0.005 C 
ENDBRANCH   4   7
TORSDOF 1
ENDMDL
MODEL 3
REMARK VINA RESULT:      -3.9     11.873     12.915
REMARK  1 active torsions:
REMARK  status: ('A' for Active; 'I' for Inactive)
REMARK    1  A    between atoms: C4_4  and  C7_7 
ROOT
HETATM    1  C1  UNL     1     -34.059  13.855  -3.534  1.00 20.00     0.006 C 
HETATM    2  C2  UNL     1     -34.564  13.256  -4.841  1.00 20.00     0.020 C 
HETATM    3  C3  UNL     1     -33.986  15.530  -5.330  1.00 20.00     0.024 C 
HETATM    4  C4  UNL     1     -33.411  15.184  -3.943  1.00 20.00    -0.013 C 
HETATM    5  C5  UNL     1     -35.039  14.467  -5.634  1.00 20.00     0.082 C 
HETATM    6 CL8  UNL     1     -36.650  15.001  -5.073  1.00 20.00    -0.125 Cl
ENDROOT
BRANCH   4   7
HETATM    7  C7  UNL     1     -33.648  16.282  -2.915  1.00 20.00     0.000 C 
HETATM    8  C6  UNL     1     -34.801  15.964  -2.016  1.00 20.00     0.005 C 
ENDBRANCH   4   7
TORSDOF 1
ENDMDL
MODEL 4
REMARK VINA RESULT:      -3.9      2.038      2.994
REMARK  1 active torsions:
REMARK  status: ('A' for Active; 'I' for Inactive)
REMARK    1  A    between atoms: C4_4  and  C7_7 
ROOT
HETATM    1  C1  UNL     1     -35.009   4.500   6.020  1.00 20.00     0.006 C 
HETATM    2  C2  UNL     1     -35.038   3.868   4.634  1.00 20.00     0.020 C 
HETATM    3  C3  UNL     1     -33.722   5.861   4.431  1.00 20.00     0.024 C 
HETATM    4  C4  UNL     1     -33.920   5.577   5.932  1.00 20.00    -0.013 C 
HETATM    5  C5  UNL     1     -34.780   5.040   3.696  1.00 20.00     0.082 C 
HETATM    6 CL8  UNL     1     -36.268   6.003   3.460  1.00 20.00    -0.125 Cl
ENDROOT
BRANCH   4   7
HETATM    7  C7  UNL     1     -34.278   6.826   6.727  1.00 20.00     0.000 C 
HETATM    8  C6  UNL     1     -33.072   7.657   7.030  1.00 20.00     0.005 C 
ENDBRANCH   4   7
TORSDOF 1
ENDMDL
MODEL 5
REMARK VINA RESULT:      -3.8     11.912     12.935
REMARK  1 active torsions:
REMARK  status: ('A' for Active; 'I' for Inactive)
REMARK    1  A    between atoms: C4_4  and  C7_7 
ROOT
HETATM    1  C1  UNL     1     -34.457  15.494  -5.323  1.00 20.00     0.006 C 
HETATM    2  C2  UNL     1     -33.194  16.200  -4.846  1.00 20.00     0.020 C 
HETATM    3  C3  UNL     1     -33.226  14.073  -3.742  1.00 20.00     0.024 C 
HETATM    4  C4  UNL     1     -34.288  14.042  -4.857  1.00 20.00    -0.013 C 
HETATM    5  C5  UNL     1     -32.898  15.546  -3.502  1.00 20.00     0.082 C 
HETATM    6 CL8  UNL     1     -33.949  16.221  -2.223  1.00 20.00    -0.125 Cl
ENDROOT
BRANCH   4   7
HETATM    7  C7  UNL     1     -35.604  13.424  -4.403  1.00 20.00     0.000 C 
HETATM    8  C6  UNL     1     -36.613  14.468  -4.042  1.00 20.00     0.005 C 
ENDBRANCH   4   7
TORSDOF 1
ENDMDL
MODEL 6
REMARK VINA RESULT:      -3.8     12.113     12.851
REMARK  1 active torsions:
REMARK  status: ('A' for Active; 'I' for Inactive)
REMARK    1  A    between atoms: C4_4  and  C7_7 
ROOT
HETATM    1  C1  UNL     1     -33.656  16.744  -3.705  1.00 20.00     0.006 C 
HETATM    2  C2  UNL     1     -33.741  15.872  -4.952  1.00 20.00     0.020 C 
HETATM    3  C3  UNL     1     -35.356  14.994  -3.414  1.00 20.00     0.024 C 
HETATM    4  C4  UNL     1     -34.895  16.364  -2.883  1.00 20.00    -0.013 C 
HETATM    5  C5  UNL     1     -34.309  14.555  -4.436  1.00 20.00     0.082 C 
HETATM    6 CL8  UNL     1     -33.034  13.580  -3.648  1.00 20.00    -0.125 Cl
ENDROOT
BRANCH   4   7
HETATM    7  C7  UNL     1     -34.614  16.355  -1.387  1.00 20.00     0.000 C 
HETATM    8  C6  UNL     1     -33.694  17.464  -0.986  1.00 20.00     0.005 C 
ENDBRANCH   4   7
TORSDOF 1
ENDMDL
MODEL 7
REMARK VINA RESULT:      -3.8      9.095     10.085
REMARK  1 active torsions:
REMARK  status: ('A' for Active; 'I' for Inactive)
REMARK    1  A    between atoms: C4_4  and  C7_7 
ROOT
HETATM    1  C1  UNL     1     -43.238   6.333  -0.632  1.00 20.00     0.006 C 
HETATM    2  C2  UNL     1     -42.415   5.632   0.442  1.00 20.00     0.020 C 
HETATM    3  C3  UNL     1     -40.894   7.061  -0.736  1.00 20.00     0.024 C 
HETATM    4  C4  UNL     1     -42.325   7.453  -1.149  1.00 20.00    -0.013 C 
HETATM    5  C5  UNL     1     -40.994   5.673  -0.105  1.00 20.00     0.082 C 
HETATM    6 CL8  UNL     1     -40.753   4.404  -1.341  1.00 20.00    -0.125 Cl
ENDROOT
BRANCH   4   7
HETATM    7  C7  UNL     1     -42.469   7.668  -2.649  1.00 20.00     0.000 C 
HETATM    8  C6  UNL     1     -42.994   6.448  -3.339  1.00 20.00     0.005 C 
ENDBRANCH   4   7
TORSDOF 1
ENDMDL
MODEL 8
REMARK VINA RESULT:      -3.7     12.066     13.374
REMARK  1 active torsions:
REMARK  status: ('A' for Active; 'I' for Inactive)
REMARK    1  A    between atoms: C4_4  and  C7_7 
ROOT
HETATM    1  C1  UNL     1     -33.242  16.065  -4.952  1.00 20.00     0.006 C 
HETATM    2  C2  UNL     1     -33.688  17.454  -4.513  1.00 20.00     0.020 C 
HETATM    3  C3  UNL     1     -33.868  16.053  -2.577  1.00 20.00     0.024 C 
HETATM    4  C4  UNL     1     -33.067  15.283  -3.644  1.00 20.00    -0.013 C 
HETATM    5  C5  UNL     1     -34.586  17.183  -3.312  1.00 20.00     0.082 C 
HETATM    6 CL8  UNL     1     -36.211  16.656  -3.840  1.00 20.00    -0.125 Cl
ENDROOT
BRANCH   4   7
HETATM    7  C7  UNL     1     -33.504  13.830  -3.777  1.00 20.00     0.000 C 
HETATM    8  C6  UNL     1     -34.443  13.634  -4.924  1.00 20.00     0.005 C 
ENDBRANCH   4   7
TORSDOF 1
ENDMDL
MODEL 9
REMARK VINA RESULT:      -3.7      1.697      2.218
REMARK  1 active torsions:
REMARK  status: ('A' for Active; 'I' for Inactive)
REMARK    1  A    between atoms: C4_4  and  C7_7 
ROOT
HETATM    1  C1  UNL     1     -33.792   6.395   5.215  1.00 20.00     0.006 C 
HETATM    2  C2  UNL     1     -34.818   5.310   5.514  1.00 20.00     0.020 C 
HETATM    3  C3  UNL     1     -34.051   4.903   3.280  1.00 20.00     0.024 C 
HETATM    4  C4  UNL     1     -33.102   5.930   3.926  1.00 20.00    -0.013 C 
HETATM    5  C5  UNL     1     -35.316   4.891   4.137  1.00 20.00     0.082 C 
HETATM    6 CL8  UNL     1     -36.509   6.067   3.509  1.00 20.00    -0.125 Cl
ENDROOT
BRANCH   4   7
HETATM    7  C7  UNL     1     -32.767   7.090   2.999  1.00 20.00     0.000 C 
HETATM    8  C6  UNL     1     -31.489   7.763   3.388  1.00 20.00     0.005 C 
ENDBRANCH   4   7
TORSDOF 1
ENDMDL
