MODEL 1
REMARK VINA RESULT:      -5.7      0.000      0.000
REMARK  1 active torsions:
REMARK  status: ('A' for Active; 'I' for Inactive)
REMARK    1  A    between atoms: C7_7  and  C8_8 
ROOT
HETATM    1  C1  UNL     1     -32.159   8.918   1.493  1.00 20.00     0.012 C 
HETATM    2  C2  UNL     1     -32.151   7.971   2.231  1.00 20.00    -0.117 C 
HETATM    3  C8  UNL     1     -32.137   6.812   3.132  1.00 20.00     0.098 C 
ENDROOT
BRANCH   3   4
HETATM    4  C7  UNL     1     -33.508   6.569   3.741  1.00 20.00     0.004 C 
HETATM    5  C5  UNL     1     -33.447   6.254   5.237  1.00 20.00     0.083 C 
HETATM    6  C3  UNL     1     -34.711   5.456   5.434  1.00 20.00     0.127 C 
HETATM    7  C4  UNL     1     -35.335   5.044   4.127  1.00 20.00     0.079 C 
HETATM    8  O9  UNL     1     -35.177   5.178   6.531  1.00 20.00    -0.298 OA
HETATM    9  C6  UNL     1     -34.219   5.358   3.137  1.00 20.00     0.013 C 
ENDBRANCH   3   4
TORSDOF 1
ENDMDL
MODEL 2
REMARK VINA RESULT:      -5.0     11.009     11.568
REMARK  1 active torsions:
REMARK  status: ('A' for Active; 'I' for Inactive)
REMARK    1  A    between atoms: C7_7  and  C8_8 
ROOT
HETATM    1  C1  UNL     1     -34.778  17.359   0.204  1.00 20.00     0.012 C 
HETATM    2  C2  UNL     1     -34.405  16.945  -0.859  1.00 20.00    -0.117 C 
HETATM    3  C8  UNL     1     -33.947  16.441  -2.160  1.00 20.00     0.098 C 
ENDROOT
BRANCH   3   4
HETATM    4  C7  UNL     1     -34.742  15.220  -2.590  1.00 20.00     0.004 C 
HETATM    5  C5  UNL     1     -33.927  14.252  -3.452  1.00 20.00     0.083 C 
HETATM    6  C3  UNL     1     -35.008  13.560  -4.242  1.00 20.00     0.127 C 
HETATM    7  C4  UNL     1     -36.340  14.251  -4.115  1.00 20.00     0.079 C 
HETATM    8  O9  UNL     1     -34.824  12.549  -4.907  1.00 20.00    -0.298 OA
HETATM    9  C6  UNL     1     -35.943  15.573  -3.469  1.00 20.00     0.013 C 
ENDBRANCH   3   4
TORSDOF 1
ENDMDL
MODEL 3
REMARK VINA RESULT:      -4.6     11.080     11.707
REMARK  1 active torsions:
REMARK  status: ('A' for Active; 'I' for Inactive)
REMARK    1  A    between atoms: C7_7  and  C8_8 
ROOT
HETATM    1  C1  UNL     1     -34.743  16.860  -0.317  1.00 20.00     0.012 C 
HETATM    2  C2  UNL     1     -34.249  16.714  -1.401  1.00 20.00    -0.117 C 
HETATM    3  C8  UNL     1     -33.642  16.539  -2.727  1.00 20.00     0.098 C 
ENDROOT
BRANCH   3   4
HETATM    4  C7  UNL     1     -34.522  15.689  -3.629  1.00 20.00     0.004 C 
HETATM    5  C5  UNL     1     -36.003  15.755  -3.249  1.00 20.00     0.083 C 
HETATM    6  C3  UNL     1     -36.514  14.440  -3.780  1.00 20.00     0.127 C 
HETATM    7  C4  UNL     1     -35.397  13.508  -4.169  1.00 20.00     0.079 C 
HETATM    8  O9  UNL     1     -37.702  14.164  -3.885  1.00 20.00    -0.298 OA
HETATM    9  C6  UNL     1     -34.187  14.199  -3.552  1.00 20.00     0.013 C 
ENDBRANCH   3   4
TORSDOF 1
ENDMDL
MODEL 4
REMARK VINA RESULT:      -4.4     11.092     11.983
REMARK  1 active torsions:
REMARK  status: ('A' for Active; 'I' for Inactive)
REMARK    1  A    between atoms: C7_7  and  C8_8 
ROOT
HETATM    1  C1  UNL     1     -33.592  18.091  -4.682  1.00 20.00     0.012 C 
HETATM    2  C2  UNL     1     -33.724  17.449  -3.677  1.00 20.00    -0.117 C 
HETATM    3  C8  UNL     1     -33.883  16.665  -2.445  1.00 20.00     0.098 C 
ENDROOT
BRANCH   3   4
HETATM    4  C7  UNL     1     -34.653  15.382  -2.702  1.00 20.00     0.004 C 
HETATM    5  C5  UNL     1     -33.883  14.390  -3.577  1.00 20.00     0.083 C 
HETATM    6  C3  UNL     1     -35.002  13.593  -4.196  1.00 20.00     0.127 C 
HETATM    7  C4  UNL     1     -36.348  14.232  -3.976  1.00 20.00     0.079 C 
HETATM    8  O9  UNL     1     -34.836  12.545  -4.806  1.00 20.00    -0.298 OA
HETATM    9  C6  UNL     1     -35.956  15.615  -3.469  1.00 20.00     0.013 C 
ENDBRANCH   3   4
TORSDOF 1
ENDMDL
MODEL 5
REMARK VINA RESULT:      -4.2     11.229     12.101
REMARK  1 active torsions:
REMARK  status: ('A' for Active; 'I' for Inactive)
REMARK    1  A    between atoms: C7_7  and  C8_8 
ROOT
HETATM    1  C1  UNL     1     -34.844  14.744  -6.985  1.00 20.00     0.012 C 
HETATM    2  C2  UNL     1     -34.753  14.101  -5.975  1.00 20.00    -0.117 C 
HETATM    3  C8  UNL     1     -34.643  13.312  -4.741  1.00 20.00     0.098 C 
ENDROOT
BRANCH   3   4
HETATM    4  C7  UNL     1     -34.594  14.208  -3.515  1.00 20.00     0.004 C 
HETATM    5  C5  UNL     1     -35.819  15.116  -3.392  1.00 20.00     0.083 C 
HETATM    6  C3  UNL     1     -35.270  16.265  -2.585  1.00 20.00     0.127 C 
HETATM    7  C4  UNL     1     -33.768  16.227  -2.487  1.00 20.00     0.079 C 
HETATM    8  O9  UNL     1     -35.966  17.128  -2.067  1.00 20.00    -0.298 OA
HETATM    9  C6  UNL     1     -33.414  15.181  -3.538  1.00 20.00     0.013 C 
ENDBRANCH   3   4
TORSDOF 1
ENDMDL
MODEL 6
REMARK VINA RESULT:      -4.1     11.807     12.685
REMARK  1 active torsions:
REMARK  status: ('A' for Active; 'I' for Inactive)
REMARK    1  A    between atoms: C7_7  and  C8_8 
ROOT
HETATM    1  C1  UNL     1     -33.434  18.527   0.735  1.00 20.00     0.012 C 
HETATM    2  C2  UNL     1     -34.086  17.807   0.030  1.00 20.00    -0.117 C 
HETATM    3  C8  UNL     1     -34.887  16.926  -0.830  1.00 20.00     0.098 C 
ENDROOT
BRANCH   3   4
HETATM    4  C7  UNL     1     -34.052  16.352  -1.962  1.00 20.00     0.004 C 
HETATM    5  C5  UNL     1     -33.717  17.388  -3.038  1.00 20.00     0.083 C 
HETATM    6  C3  UNL     1     -33.510  16.515  -4.250  1.00 20.00     0.127 C 
HETATM    7  C4  UNL     1     -33.981  15.103  -4.024  1.00 20.00     0.079 C 
HETATM    8  O9  UNL     1     -33.012  16.909  -5.296  1.00 20.00    -0.298 OA
HETATM    9  C6  UNL     1     -34.774  15.244  -2.729  1.00 20.00     0.013 C 
ENDBRANCH   3   4
TORSDOF 1
ENDMDL
MODEL 7
REMARK VINA RESULT:      -4.1      9.084     10.502
REMARK  1 active torsions:
REMARK  status: ('A' for Active; 'I' for Inactive)
REMARK    1  A    between atoms: C7_7  and  C8_8 
ROOT
HETATM    1  C1  UNL     1     -41.283   1.503  -4.102  1.00 20.00     0.012 C 
HETATM    2  C2  UNL     1     -41.817   2.276  -3.355  1.00 20.00    -0.117 C 
HETATM    3  C8  UNL     1     -42.474   3.221  -2.442  1.00 20.00     0.098 C 
ENDROOT
BRANCH   3   4
HETATM    4  C7  UNL     1     -41.600   4.435  -2.182  1.00 20.00     0.004 C 
HETATM    5  C5  UNL     1     -41.128   4.529  -0.729  1.00 20.00     0.083 C 
HETATM    6  C3  UNL     1     -40.892   6.010  -0.577  1.00 20.00     0.127 C 
HETATM    7  C4  UNL     1     -41.465   6.799  -1.725  1.00 20.00     0.079 C 
HETATM    8  O9  UNL     1     -40.300   6.512   0.369  1.00 20.00    -0.298 OA
HETATM    9  C6  UNL     1     -42.334   5.756  -2.416  1.00 20.00     0.013 C 
ENDBRANCH   3   4
TORSDOF 1
ENDMDL
MODEL 8
REMARK VINA RESULT:      -4.0      2.453      4.559
REMARK  1 active torsions:
REMARK  status: ('A' for Active; 'I' for Inactive)
REMARK    1  A    between atoms: C7_7  and  C8_8 
ROOT
HETATM    1  C1  UNL     1     -35.018   4.276   6.045  1.00 20.00     0.012 C 
HETATM    2  C2  UNL     1     -34.866   4.778   4.965  1.00 20.00    -0.117 C 
HETATM    3  C8  UNL     1     -34.682   5.389   3.643  1.00 20.00     0.098 C 
ENDROOT
BRANCH   3   4
HETATM    4  C7  UNL     1     -33.637   6.491   3.683  1.00 20.00     0.004 C 
HETATM    5  C5  UNL     1     -33.803   7.510   2.554  1.00 20.00     0.083 C 
HETATM    6  C3  UNL     1     -32.399   8.040   2.411  1.00 20.00     0.127 C 
HETATM    7  C4  UNL     1     -31.394   7.205   3.160  1.00 20.00     0.079 C 
HETATM    8  O9  UNL     1     -32.110   9.037   1.762  1.00 20.00    -0.298 OA
HETATM    9  C6  UNL     1     -32.213   5.965   3.500  1.00 20.00     0.013 C 
ENDBRANCH   3   4
TORSDOF 1
ENDMDL
MODEL 9
REMARK VINA RESULT:      -4.0     10.842     12.012
REMARK  1 active torsions:
REMARK  status: ('A' for Active; 'I' for Inactive)
REMARK    1  A    between atoms: C7_7  and  C8_8 
ROOT
HETATM    1  C1  UNL     1     -34.466  13.755  -3.687  1.00 20.00     0.012 C 
HETATM    2  C2  UNL     1     -34.248  14.929  -3.560  1.00 20.00    -0.117 C 
HETATM    3  C8  UNL     1     -33.981  16.365  -3.409  1.00 20.00     0.098 C 
ENDROOT
BRANCH   3   4
HETATM    4  C7  UNL     1     -33.702  16.725  -1.959  1.00 20.00     0.004 C 
HETATM    5  C5  UNL     1     -34.878  16.412  -1.031  1.00 20.00     0.083 C 
HETATM    6  C3  UNL     1     -34.650  17.390   0.093  1.00 20.00     0.127 C 
HETATM    7  C4  UNL     1     -33.615  18.427  -0.253  1.00 20.00     0.079 C 
HETATM    8  O9  UNL     1     -35.237  17.343   1.166  1.00 20.00    -0.298 OA
HETATM    9  C6  UNL     1     -33.459  18.221  -1.755  1.00 20.00     0.013 C 
ENDBRANCH   3   4
TORSDOF 1
ENDMDL
