MODEL 1
REMARK VINA RESULT:      -5.5      0.000      0.000
REMARK  2 active torsions:
REMARK  status: ('A' for Active; 'I' for Inactive)
REMARK    1  A    between atoms: C8_8  and  C10_10 
REMARK    2  A    between atoms: C9_9  and  O11_11 
ROOT
HETATM    1  C1  UNL     1     -32.591   9.107   1.912  1.00 20.00     0.012 C 
HETATM    2  C2  UNL     1     -32.235   8.021   2.279  1.00 20.00    -0.117 C 
HETATM    3  C10 UNL     1     -31.785   6.698   2.714  1.00 20.00     0.097 C 
ENDROOT
BRANCH   3   4
HETATM    4  C8  UNL     1     -32.776   6.089   3.714  1.00 20.00    -0.001 C 
HETATM    5  C5  UNL     1     -34.007   5.581   2.949  1.00 20.00     0.005 C 
HETATM    6  C3  UNL     1     -35.262   5.270   3.760  1.00 20.00     0.000 C 
HETATM    7  C4  UNL     1     -35.017   4.664   5.138  1.00 20.00     0.002 C 
HETATM    8  C6  UNL     1     -34.793   5.724   6.210  1.00 20.00     0.032 C 
HETATM    9  C9  UNL     1     -33.446   6.441   6.157  1.00 20.00     0.118 C 
HETATM   10  C7  UNL     1     -33.105   7.103   4.818  1.00 20.00     0.037 C 
BRANCH   9  11
HETATM   11  O11 UNL     1     -33.454   7.470   7.151  1.00 20.00    -0.396 OA
HETATM   12  H27 UNL     1     -34.382   7.614   7.382  1.00 20.00     0.210 HD
ENDBRANCH   9  11
ENDBRANCH   3   4
TORSDOF 2
ENDMDL
MODEL 2
REMARK VINA RESULT:      -5.2     11.328     12.637
REMARK  2 active torsions:
REMARK  status: ('A' for Active; 'I' for Inactive)
REMARK    1  A    between atoms: C8_8  and  C10_10 
REMARK    2  A    between atoms: C9_9  and  O11_11 
ROOT
HETATM    1  C1  UNL     1     -33.021  18.350  -0.420  1.00 20.00     0.012 C 
HETATM    2  C2  UNL     1     -33.760  17.484  -0.801  1.00 20.00    -0.117 C 
HETATM    3  C10 UNL     1     -34.670  16.429  -1.249  1.00 20.00     0.097 C 
ENDROOT
BRANCH   3   4
HETATM    4  C8  UNL     1     -34.376  16.039  -2.703  1.00 20.00    -0.001 C 
HETATM    5  C5  UNL     1     -34.665  17.244  -3.611  1.00 20.00     0.005 C 
HETATM    6  C3  UNL     1     -34.790  16.982  -5.109  1.00 20.00     0.000 C 
HETATM    7  C4  UNL     1     -33.853  15.917  -5.668  1.00 20.00     0.002 C 
HETATM    8  C6  UNL     1     -34.431  14.511  -5.549  1.00 20.00     0.032 C 
HETATM    9  C9  UNL     1     -34.449  13.924  -4.139  1.00 20.00     0.118 C 
HETATM   10  C7  UNL     1     -35.158  14.774  -3.081  1.00 20.00     0.037 C 
BRANCH   9  11
HETATM   11  O11 UNL     1     -35.123  12.663  -4.195  1.00 20.00    -0.396 OA
HETATM   12  H27 UNL     1     -35.701  12.632  -3.420  1.00 20.00     0.210 HD
ENDBRANCH   9  11
ENDBRANCH   3   4
TORSDOF 2
ENDMDL
MODEL 3
REMARK VINA RESULT:      -4.8     11.365     12.097
REMARK  2 active torsions:
REMARK  status: ('A' for Active; 'I' for Inactive)
REMARK    1  A    between atoms: C8_8  and  C10_10 
REMARK    2  A    between atoms: C9_9  and  O11_11 
ROOT
HETATM    1  C1  UNL     1     -35.136  17.413   0.727  1.00 20.00     0.012 C 
HETATM    2  C2  UNL     1     -34.536  17.219  -0.295  1.00 20.00    -0.117 C 
HETATM    3  C10 UNL     1     -33.792  16.998  -1.535  1.00 20.00     0.097 C 
ENDROOT
BRANCH   3   4
HETATM    4  C8  UNL     1     -34.417  15.856  -2.347  1.00 20.00    -0.001 C 
HETATM    5  C5  UNL     1     -33.350  15.267  -3.283  1.00 20.00     0.005 C 
HETATM    6  C3  UNL     1     -33.829  14.377  -4.426  1.00 20.00     0.000 C 
HETATM    7  C4  UNL     1     -35.021  13.483  -4.102  1.00 20.00     0.002 C 
HETATM    8  C6  UNL     1     -36.356  14.188  -4.320  1.00 20.00     0.032 C 
HETATM    9  C9  UNL     1     -36.718  15.246  -3.280  1.00 20.00     0.118 C 
HETATM   10  C7  UNL     1     -35.676  16.349  -3.072  1.00 20.00     0.037 C 
BRANCH   9  11
HETATM   11  O11 UNL     1     -37.931  15.879  -3.700  1.00 20.00    -0.396 OA
HETATM   12  H27 UNL     1     -37.751  16.829  -3.704  1.00 20.00     0.210 HD
ENDBRANCH   9  11
ENDBRANCH   3   4
TORSDOF 2
ENDMDL
MODEL 4
REMARK VINA RESULT:      -4.7     11.328     12.173
REMARK  2 active torsions:
REMARK  status: ('A' for Active; 'I' for Inactive)
REMARK    1  A    between atoms: C8_8  and  C10_10 
REMARK    2  A    between atoms: C9_9  and  O11_11 
ROOT
HETATM    1  C1  UNL     1     -34.795  17.038  -0.007  1.00 20.00     0.012 C 
HETATM    2  C2  UNL     1     -34.448  17.219  -1.142  1.00 20.00    -0.117 C 
HETATM    3  C10 UNL     1     -34.015  17.456  -2.520  1.00 20.00     0.097 C 
ENDROOT
BRANCH   3   4
HETATM    4  C8  UNL     1     -34.532  16.351  -3.449  1.00 20.00    -0.001 C 
HETATM    5  C5  UNL     1     -36.068  16.340  -3.405  1.00 20.00     0.005 C 
HETATM    6  C3  UNL     1     -36.779  15.109  -3.960  1.00 20.00     0.000 C 
HETATM    7  C4  UNL     1     -36.128  14.473  -5.183  1.00 20.00     0.002 C 
HETATM    8  C6  UNL     1     -35.045  13.466  -4.809  1.00 20.00     0.032 C 
HETATM    9  C9  UNL     1     -33.743  14.066  -4.282  1.00 20.00     0.118 C 
HETATM   10  C7  UNL     1     -33.890  15.007  -3.083  1.00 20.00     0.037 C 
BRANCH   9  11
HETATM   11  O11 UNL     1     -32.894  12.988  -3.876  1.00 20.00    -0.396 OA
HETATM   12  H27 UNL     1     -32.386  13.314  -3.120  1.00 20.00     0.210 HD
ENDBRANCH   9  11
ENDBRANCH   3   4
TORSDOF 2
ENDMDL
MODEL 5
REMARK VINA RESULT:      -4.7      9.516     11.214
REMARK  2 active torsions:
REMARK  status: ('A' for Active; 'I' for Inactive)
REMARK    1  A    between atoms: C8_8  and  C10_10 
REMARK    2  A    between atoms: C9_9  and  O11_11 
ROOT
HETATM    1  C1  UNL     1     -41.183   1.605  -3.994  1.00 20.00     0.012 C 
HETATM    2  C2  UNL     1     -41.956   2.389  -3.515  1.00 20.00    -0.117 C 
HETATM    3  C10 UNL     1     -42.912   3.334  -2.939  1.00 20.00     0.097 C 
ENDROOT
BRANCH   3   4
HETATM    4  C8  UNL     1     -42.188   4.411  -2.122  1.00 20.00    -0.001 C 
HETATM    5  C5  UNL     1     -42.367   4.109  -0.627  1.00 20.00     0.005 C 
HETATM    6  C3  UNL     1     -42.047   5.227   0.361  1.00 20.00     0.000 C 
HETATM    7  C4  UNL     1     -40.867   6.116  -0.017  1.00 20.00     0.002 C 
HETATM    8  C6  UNL     1     -41.275   7.270  -0.927  1.00 20.00     0.032 C 
HETATM    9  C9  UNL     1     -41.601   6.888  -2.369  1.00 20.00     0.118 C 
HETATM   10  C7  UNL     1     -42.672   5.807  -2.537  1.00 20.00     0.037 C 
BRANCH   9  11
HETATM   11  O11 UNL     1     -42.071   8.061  -3.040  1.00 20.00    -0.396 OA
HETATM   12  H27 UNL     1     -42.277   7.790  -3.945  1.00 20.00     0.210 HD
ENDBRANCH   9  11
ENDBRANCH   3   4
TORSDOF 2
ENDMDL
MODEL 6
REMARK VINA RESULT:      -4.6     11.584     13.047
REMARK  2 active torsions:
REMARK  status: ('A' for Active; 'I' for Inactive)
REMARK    1  A    between atoms: C8_8  and  C10_10 
REMARK    2  A    between atoms: C9_9  and  O11_11 
ROOT
HETATM    1  C1  UNL     1     -33.584  18.610   1.032  1.00 20.00     0.012 C 
HETATM    2  C2  UNL     1     -34.088  17.799   0.305  1.00 20.00    -0.117 C 
HETATM    3  C10 UNL     1     -34.713  16.803  -0.566  1.00 20.00     0.097 C 
ENDROOT
BRANCH   3   4
HETATM    4  C8  UNL     1     -34.181  16.924  -1.999  1.00 20.00    -0.001 C 
HETATM    5  C5  UNL     1     -34.968  18.021  -2.732  1.00 20.00     0.005 C 
HETATM    6  C3  UNL     1     -34.861  18.067  -4.254  1.00 20.00     0.000 C 
HETATM    7  C4  UNL     1     -33.492  17.714  -4.825  1.00 20.00     0.002 C 
HETATM    8  C6  UNL     1     -33.315  16.213  -5.029  1.00 20.00     0.032 C 
HETATM    9  C9  UNL     1     -33.126  15.392  -3.755  1.00 20.00     0.118 C 
HETATM   10  C7  UNL     1     -34.221  15.558  -2.697  1.00 20.00     0.037 C 
BRANCH   9  11
HETATM   11  O11 UNL     1     -33.094  14.010  -4.122  1.00 20.00    -0.396 OA
HETATM   12  H27 UNL     1     -32.194  13.834  -4.429  1.00 20.00     0.210 HD
ENDBRANCH   9  11
ENDBRANCH   3   4
TORSDOF 2
ENDMDL
MODEL 7
REMARK VINA RESULT:      -4.6     11.496     13.432
REMARK  2 active torsions:
REMARK  status: ('A' for Active; 'I' for Inactive)
REMARK    1  A    between atoms: C8_8  and  C10_10 
REMARK    2  A    between atoms: C9_9  and  O11_11 
ROOT
HETATM    1  C1  UNL     1     -37.756  15.135  -7.550  1.00 20.00     0.012 C 
HETATM    2  C2  UNL     1     -36.576  14.951  -7.671  1.00 20.00    -0.117 C 
HETATM    3  C10 UNL     1     -35.140  14.726  -7.837  1.00 20.00     0.097 C 
ENDROOT
BRANCH   3   4
HETATM    4  C8  UNL     1     -34.432  14.705  -6.476  1.00 20.00    -0.001 C 
HETATM    5  C5  UNL     1     -35.031  13.580  -5.619  1.00 20.00     0.005 C 
HETATM    6  C3  UNL     1     -34.740  13.604  -4.121  1.00 20.00     0.000 C 
HETATM    7  C4  UNL     1     -33.347  14.088  -3.733  1.00 20.00     0.002 C 
HETATM    8  C6  UNL     1     -33.273  15.605  -3.598  1.00 20.00     0.032 C 
HETATM    9  C9  UNL     1     -33.307  16.386  -4.910  1.00 20.00     0.118 C 
HETATM   10  C7  UNL     1     -34.503  16.091  -5.820  1.00 20.00     0.037 C 
BRANCH   9  11
HETATM   11  O11 UNL     1     -33.347  17.780  -4.592  1.00 20.00    -0.396 OA
HETATM   12  H27 UNL     1     -34.258  17.971  -4.331  1.00 20.00     0.210 HD
ENDBRANCH   9  11
ENDBRANCH   3   4
TORSDOF 2
ENDMDL
MODEL 8
REMARK VINA RESULT:      -4.6     11.777     13.122
REMARK  2 active torsions:
REMARK  status: ('A' for Active; 'I' for Inactive)
REMARK    1  A    between atoms: C8_8  and  C10_10 
REMARK    2  A    between atoms: C9_9  and  O11_11 
ROOT
HETATM    1  C1  UNL     1     -34.782  16.922  -0.298  1.00 20.00     0.012 C 
HETATM    2  C2  UNL     1     -34.300  17.071  -1.387  1.00 20.00    -0.117 C 
HETATM    3  C10 UNL     1     -33.703  17.268  -2.708  1.00 20.00     0.097 C 
ENDROOT
BRANCH   3   4
HETATM    4  C8  UNL     1     -34.218  16.217  -3.699  1.00 20.00    -0.001 C 
HETATM    5  C5  UNL     1     -33.795  14.822  -3.212  1.00 20.00     0.005 C 
HETATM    6  C3  UNL     1     -33.881  13.672  -4.211  1.00 20.00     0.000 C 
HETATM    7  C4  UNL     1     -35.061  13.728  -5.174  1.00 20.00     0.002 C 
HETATM    8  C6  UNL     1     -34.760  14.558  -6.418  1.00 20.00     0.032 C 
HETATM    9  C9  UNL     1     -34.711  16.069  -6.205  1.00 20.00     0.118 C 
HETATM   10  C7  UNL     1     -33.743  16.550  -5.120  1.00 20.00     0.037 C 
BRANCH   9  11
HETATM   11  O11 UNL     1     -34.307  16.675  -7.436  1.00 20.00    -0.396 OA
HETATM   12  H27 UNL     1     -35.116  16.811  -7.948  1.00 20.00     0.210 HD
ENDBRANCH   9  11
ENDBRANCH   3   4
TORSDOF 2
ENDMDL
MODEL 9
REMARK VINA RESULT:      -4.6     11.699     12.602
REMARK  2 active torsions:
REMARK  status: ('A' for Active; 'I' for Inactive)
REMARK    1  A    between atoms: C8_8  and  C10_10 
REMARK    2  A    between atoms: C9_9  and  O11_11 
ROOT
HETATM    1  C1  UNL     1     -34.757  17.101   0.100  1.00 20.00     0.012 C 
HETATM    2  C2  UNL     1     -34.232  17.171  -0.978  1.00 20.00    -0.117 C 
HETATM    3  C10 UNL     1     -33.582  17.271  -2.284  1.00 20.00     0.097 C 
ENDROOT
BRANCH   3   4
HETATM    4  C8  UNL     1     -34.103  16.186  -3.235  1.00 20.00    -0.001 C 
HETATM    5  C5  UNL     1     -33.482  16.400  -4.624  1.00 20.00     0.005 C 
HETATM    6  C3  UNL     1     -34.125  15.672  -5.802  1.00 20.00     0.000 C 
HETATM    7  C4  UNL     1     -34.651  14.274  -5.499  1.00 20.00     0.002 C 
HETATM    8  C6  UNL     1     -36.076  14.293  -4.955  1.00 20.00     0.032 C 
HETATM    9  C9  UNL     1     -36.225  14.788  -3.518  1.00 20.00     0.118 C 
HETATM   10  C7  UNL     1     -35.637  16.173  -3.235  1.00 20.00     0.037 C 
BRANCH   9  11
HETATM   11  O11 UNL     1     -37.623  14.848  -3.216  1.00 20.00    -0.396 OA
HETATM   12  H27 UNL     1     -37.744  15.628  -2.655  1.00 20.00     0.210 HD
ENDBRANCH   9  11
ENDBRANCH   3   4
TORSDOF 2
ENDMDL
