MODEL 1
REMARK VINA RESULT:      -5.0      0.000      0.000
REMARK  2 active torsions:
REMARK  status: ('A' for Active; 'I' for Inactive)
REMARK    1  A    between atoms: C6_6  and  C7_7 
REMARK    2  A    between atoms: C8_8  and  O9_9 
ROOT
HETATM    1  C1  UNL     1     -34.172   5.120   6.298  1.00 20.00     0.003 C 
HETATM    2  C2  UNL     1     -34.213   6.529   5.710  1.00 20.00     0.007 C 
HETATM    3  C5  UNL     1     -34.555   4.162   5.167  1.00 20.00     0.032 C 
HETATM    4  C7  UNL     1     -34.155   6.340   4.191  1.00 20.00     0.018 C 
HETATM    5  C8  UNL     1     -34.947   5.046   3.987  1.00 20.00     0.122 C 
ENDROOT
BRANCH   4   6
HETATM    6  C6  UNL     1     -32.718   6.226   3.689  1.00 20.00    -0.008 A 
HETATM    7  C3  UNL     1     -32.260   7.039   2.510  1.00 20.00     0.005 A 
HETATM    8  C4  UNL     1     -31.754   7.362   3.888  1.00 20.00     0.005 A 
ENDBRANCH   4   6
BRANCH   5   9
HETATM    9  O9  UNL     1     -36.344   5.316   4.069  1.00 20.00    -0.395 OA
HETATM   10  H23 UNL     1     -36.484   6.208   3.710  1.00 20.00     0.210 HD
ENDBRANCH   5   9
TORSDOF 2
ENDMDL
MODEL 2
REMARK VINA RESULT:      -4.6     11.709     12.545
REMARK  2 active torsions:
REMARK  status: ('A' for Active; 'I' for Inactive)
REMARK    1  A    between atoms: C6_6  and  C7_7 
REMARK    2  A    between atoms: C8_8  and  O9_9 
ROOT
HETATM    1  C1  UNL     1     -34.112  15.336  -5.467  1.00 20.00     0.003 C 
HETATM    2  C2  UNL     1     -33.358  15.059  -4.167  1.00 20.00     0.007 C 
HETATM    3  C5  UNL     1     -35.536  14.811  -5.266  1.00 20.00     0.032 C 
HETATM    4  C7  UNL     1     -34.439  14.823  -3.109  1.00 20.00     0.018 C 
HETATM    5  C8  UNL     1     -35.536  14.115  -3.908  1.00 20.00     0.122 C 
ENDROOT
BRANCH   4   6
HETATM    6  C6  UNL     1     -34.924  16.132  -2.491  1.00 20.00    -0.008 A 
HETATM    7  C3  UNL     1     -34.644  16.438  -1.046  1.00 20.00     0.005 A 
HETATM    8  C4  UNL     1     -33.939  17.208  -2.127  1.00 20.00     0.005 A 
ENDBRANCH   4   6
BRANCH   5   9
HETATM    9  O9  UNL     1     -35.188  12.747  -4.101  1.00 20.00    -0.395 OA
HETATM   10  H23 UNL     1     -35.984  12.294  -4.429  1.00 20.00     0.210 HD
ENDBRANCH   5   9
TORSDOF 2
ENDMDL
MODEL 3
REMARK VINA RESULT:      -4.5     11.479     13.131
REMARK  2 active torsions:
REMARK  status: ('A' for Active; 'I' for Inactive)
REMARK    1  A    between atoms: C6_6  and  C7_7 
REMARK    2  A    between atoms: C8_8  and  O9_9 
ROOT
HETATM    1  C1  UNL     1     -33.975  15.205  -3.401  1.00 20.00     0.003 C 
HETATM    2  C2  UNL     1     -35.239  15.444  -4.224  1.00 20.00     0.007 C 
HETATM    3  C5  UNL     1     -33.430  13.838  -3.823  1.00 20.00     0.032 C 
HETATM    4  C7  UNL     1     -35.151  14.471  -5.402  1.00 20.00     0.018 C 
HETATM    5  C8  UNL     1     -34.468  13.253  -4.776  1.00 20.00     0.122 C 
ENDROOT
BRANCH   4   6
HETATM    6  C6  UNL     1     -34.346  15.055  -6.561  1.00 20.00    -0.008 A 
HETATM    7  C3  UNL     1     -34.983  15.235  -7.911  1.00 20.00     0.005 A 
HETATM    8  C4  UNL     1     -34.649  16.436  -7.072  1.00 20.00     0.005 A 
ENDBRANCH   4   6
BRANCH   5   9
HETATM    9  O9  UNL     1     -35.413  12.507  -4.013  1.00 20.00    -0.395 OA
HETATM   10  H23 UNL     1     -36.204  12.396  -4.568  1.00 20.00     0.210 HD
ENDBRANCH   5   9
TORSDOF 2
ENDMDL
MODEL 4
REMARK VINA RESULT:      -4.3     11.933     12.778
REMARK  2 active torsions:
REMARK  status: ('A' for Active; 'I' for Inactive)
REMARK    1  A    between atoms: C6_6  and  C7_7 
REMARK    2  A    between atoms: C8_8  and  O9_9 
ROOT
HETATM    1  C1  UNL     1     -35.157  14.400  -4.003  1.00 20.00     0.003 C 
HETATM    2  C2  UNL     1     -35.264  15.922  -3.934  1.00 20.00     0.007 C 
HETATM    3  C5  UNL     1     -33.698  14.050  -3.694  1.00 20.00     0.032 C 
HETATM    4  C7  UNL     1     -34.032  16.384  -3.152  1.00 20.00     0.018 C 
HETATM    5  C8  UNL     1     -32.963  15.383  -3.593  1.00 20.00     0.122 C 
ENDROOT
BRANCH   4   6
HETATM    6  C6  UNL     1     -34.272  16.349  -1.644  1.00 20.00    -0.008 A 
HETATM    7  C3  UNL     1     -33.793  17.477  -0.774  1.00 20.00     0.005 A 
HETATM    8  C4  UNL     1     -35.264  17.286  -1.014  1.00 20.00     0.005 A 
ENDBRANCH   4   6
BRANCH   5   9
HETATM    9  O9  UNL     1     -32.479  15.730  -4.888  1.00 20.00    -0.395 OA
HETATM   10  H23 UNL     1     -32.552  16.696  -4.970  1.00 20.00     0.210 HD
ENDBRANCH   5   9
TORSDOF 2
ENDMDL
MODEL 5
REMARK VINA RESULT:      -4.1      1.834      3.636
REMARK  2 active torsions:
REMARK  status: ('A' for Active; 'I' for Inactive)
REMARK    1  A    between atoms: C6_6  and  C7_7 
REMARK    2  A    between atoms: C8_8  and  O9_9 
ROOT
HETATM    1  C1  UNL     1     -33.810   5.021   2.304  1.00 20.00     0.003 C 
HETATM    2  C2  UNL     1     -34.802   5.809   3.156  1.00 20.00     0.007 C 
HETATM    3  C5  UNL     1     -32.412   5.505   2.700  1.00 20.00     0.032 C 
HETATM    4  C7  UNL     1     -33.985   6.371   4.323  1.00 20.00     0.018 C 
HETATM    5  C8  UNL     1     -32.632   6.662   3.670  1.00 20.00     0.122 C 
ENDROOT
BRANCH   4   6
HETATM    6  C6  UNL     1     -33.872   5.369   5.469  1.00 20.00    -0.008 A 
HETATM    7  C3  UNL     1     -34.778   5.479   6.665  1.00 20.00     0.005 A 
HETATM    8  C4  UNL     1     -34.953   4.347   5.691  1.00 20.00     0.005 A 
ENDBRANCH   4   6
BRANCH   5   9
HETATM    9  O9  UNL     1     -32.706   7.872   2.921  1.00 20.00    -0.395 OA
HETATM   10  H23 UNL     1     -32.790   7.624   1.985  1.00 20.00     0.210 HD
ENDBRANCH   5   9
TORSDOF 2
ENDMDL
MODEL 6
REMARK VINA RESULT:      -4.1     11.880     13.222
REMARK  2 active torsions:
REMARK  status: ('A' for Active; 'I' for Inactive)
REMARK    1  A    between atoms: C6_6  and  C7_7 
REMARK    2  A    between atoms: C8_8  and  O9_9 
ROOT
HETATM    1  C1  UNL     1     -34.895  15.274  -2.760  1.00 20.00     0.003 C 
HETATM    2  C2  UNL     1     -34.854  14.111  -3.749  1.00 20.00     0.007 C 
HETATM    3  C5  UNL     1     -33.716  16.187  -3.110  1.00 20.00     0.032 C 
HETATM    4  C7  UNL     1     -33.978  14.590  -4.909  1.00 20.00     0.018 C 
HETATM    5  C8  UNL     1     -32.937  15.460  -4.201  1.00 20.00     0.122 C 
ENDROOT
BRANCH   4   6
HETATM    6  C6  UNL     1     -34.784  15.375  -5.941  1.00 20.00    -0.008 A 
HETATM    7  C3  UNL     1     -34.680  15.035  -7.403  1.00 20.00     0.005 A 
HETATM    8  C4  UNL     1     -35.943  14.729  -6.647  1.00 20.00     0.005 A 
ENDBRANCH   4   6
BRANCH   5   9
HETATM    9  O9  UNL     1     -31.955  14.633  -3.581  1.00 20.00    -0.395 OA
HETATM   10  H23 UNL     1     -31.159  15.177  -3.459  1.00 20.00     0.210 HD
ENDBRANCH   5   9
TORSDOF 2
ENDMDL
MODEL 7
REMARK VINA RESULT:      -3.9     11.824     13.052
REMARK  2 active torsions:
REMARK  status: ('A' for Active; 'I' for Inactive)
REMARK    1  A    between atoms: C6_6  and  C7_7 
REMARK    2  A    between atoms: C8_8  and  O9_9 
ROOT
HETATM    1  C1  UNL     1     -34.431  13.308  -4.879  1.00 20.00     0.003 C 
HETATM    2  C2  UNL     1     -35.101  14.566  -5.427  1.00 20.00     0.007 C 
HETATM    3  C5  UNL     1     -33.447  13.771  -3.801  1.00 20.00     0.032 C 
HETATM    4  C7  UNL     1     -34.858  15.651  -4.376  1.00 20.00     0.018 C 
HETATM    5  C8  UNL     1     -33.466  15.296  -3.848  1.00 20.00     0.122 C 
ENDROOT
BRANCH   4   6
HETATM    6  C6  UNL     1     -35.919  15.625  -3.278  1.00 20.00    -0.008 A 
HETATM    7  C3  UNL     1     -36.937  16.727  -3.181  1.00 20.00     0.005 A 
HETATM    8  C4  UNL     1     -37.357  15.352  -3.621  1.00 20.00     0.005 A 
ENDBRANCH   4   6
BRANCH   5   9
HETATM    9  O9  UNL     1     -32.472  15.732  -4.772  1.00 20.00    -0.395 OA
HETATM   10  H23 UNL     1     -32.714  16.633  -5.047  1.00 20.00     0.210 HD
ENDBRANCH   5   9
TORSDOF 2
ENDMDL
MODEL 8
REMARK VINA RESULT:      -3.8     12.086     12.894
REMARK  2 active torsions:
REMARK  status: ('A' for Active; 'I' for Inactive)
REMARK    1  A    between atoms: C6_6  and  C7_7 
REMARK    2  A    between atoms: C8_8  and  O9_9 
ROOT
HETATM    1  C1  UNL     1     -35.827  15.167  -5.718  1.00 20.00     0.003 C 
HETATM    2  C2  UNL     1     -35.216  14.426  -4.530  1.00 20.00     0.007 C 
HETATM    3  C5  UNL     1     -37.116  15.820  -5.209  1.00 20.00     0.032 C 
HETATM    4  C7  UNL     1     -35.876  15.029  -3.287  1.00 20.00     0.018 C 
HETATM    5  C8  UNL     1     -37.295  15.326  -3.777  1.00 20.00     0.122 C 
ENDROOT
BRANCH   4   6
HETATM    6  C6  UNL     1     -35.151  16.286  -2.813  1.00 20.00    -0.008 A 
HETATM    7  C3  UNL     1     -34.687  16.402  -1.388  1.00 20.00     0.005 A 
HETATM    8  C4  UNL     1     -33.683  16.238  -2.494  1.00 20.00     0.005 A 
ENDBRANCH   4   6
BRANCH   5   9
HETATM    9  O9  UNL     1     -38.059  14.124  -3.806  1.00 20.00    -0.395 OA
HETATM   10  H23 UNL     1     -38.125  13.850  -4.736  1.00 20.00     0.210 HD
ENDBRANCH   5   9
TORSDOF 2
ENDMDL
MODEL 9
REMARK VINA RESULT:      -3.8      9.271     10.735
REMARK  2 active torsions:
REMARK  status: ('A' for Active; 'I' for Inactive)
REMARK    1  A    between atoms: C6_6  and  C7_7 
REMARK    2  A    between atoms: C8_8  and  O9_9 
ROOT
HETATM    1  C1  UNL     1     -41.333   5.335   0.104  1.00 20.00     0.003 C 
HETATM    2  C2  UNL     1     -40.830   4.583  -1.126  1.00 20.00     0.007 C 
HETATM    3  C5  UNL     1     -42.183   6.500  -0.413  1.00 20.00     0.032 C 
HETATM    4  C7  UNL     1     -41.744   5.017  -2.274  1.00 20.00     0.018 C 
HETATM    5  C8  UNL     1     -42.036   6.479  -1.931  1.00 20.00     0.122 C 
ENDROOT
BRANCH   4   6
HETATM    6  C6  UNL     1     -43.014   4.171  -2.338  1.00 20.00    -0.008 A 
HETATM    7  C3  UNL     1     -43.329   3.367  -3.569  1.00 20.00     0.005 A 
HETATM    8  C4  UNL     1     -42.928   2.671  -2.298  1.00 20.00     0.005 A 
ENDBRANCH   4   6
BRANCH   5   9
HETATM    9  O9  UNL     1     -40.922   7.292  -2.289  1.00 20.00    -0.395 OA
HETATM   10  H23 UNL     1     -41.179   7.798  -3.078  1.00 20.00     0.210 HD
ENDBRANCH   5   9
TORSDOF 2
ENDMDL
