MODEL 1
REMARK VINA RESULT:      -4.3      0.000      0.000
REMARK  1 active torsions:
REMARK  status: ('A' for Active; 'I' for Inactive)
REMARK    1  A    between atoms: C7_7  and  C8_8 
ROOT
HETATM    1  C1  UNL     1     -35.717  14.469  -4.782  1.00 20.00     0.002 C 
HETATM    2  C2  UNL     1     -35.110  14.814  -3.426  1.00 20.00     0.005 C 
HETATM    3  C5  UNL     1     -34.671  14.490  -5.894  1.00 20.00     0.016 C 
HETATM    4  C6  UNL     1     -33.323  16.196  -4.565  1.00 20.00     0.020 C 
HETATM    5  C8  UNL     1     -34.390  16.167  -3.458  1.00 20.00    -0.009 C 
HETATM    6  C9  UNL     1     -33.853  15.778  -5.934  1.00 20.00     0.058 C 
HETATM    7 BR10 UNL     1     -34.920  17.226  -6.716  1.00 20.00    -0.091 Br
ENDROOT
BRANCH   5   8
HETATM    8  C7  UNL     1     -33.761  16.474  -2.099  1.00 20.00    -0.010 A 
HETATM    9  C3  UNL     1     -33.959  17.820  -1.459  1.00 20.00     0.005 A 
HETATM   10  C4  UNL     1     -34.627  16.606  -0.877  1.00 20.00     0.005 A 
ENDBRANCH   5   8
TORSDOF 1
ENDMDL
MODEL 2
REMARK VINA RESULT:      -4.3      1.165      1.277
REMARK  1 active torsions:
REMARK  status: ('A' for Active; 'I' for Inactive)
REMARK    1  A    between atoms: C7_7  and  C8_8 
ROOT
HETATM    1  C1  UNL     1     -36.427  14.695  -3.833  1.00 20.00     0.002 C 
HETATM    2  C2  UNL     1     -35.707  15.367  -2.668  1.00 20.00     0.005 C 
HETATM    3  C5  UNL     1     -35.542  13.658  -4.524  1.00 20.00     0.016 C 
HETATM    4  C6  UNL     1     -33.479  14.965  -3.796  1.00 20.00     0.020 C 
HETATM    5  C8  UNL     1     -34.385  16.002  -3.112  1.00 20.00    -0.009 C 
HETATM    6  C9  UNL     1     -34.171  14.198  -4.920  1.00 20.00     0.058 C 
HETATM    7 BR10 UNL     1     -34.330  15.332  -6.513  1.00 20.00    -0.091 Br
ENDROOT
BRANCH   5   8
HETATM    8  C7  UNL     1     -33.667  16.638  -1.921  1.00 20.00    -0.010 A 
HETATM    9  C3  UNL     1     -33.883  18.090  -1.594  1.00 20.00     0.005 A 
HETATM   10  C4  UNL     1     -34.441  17.025  -0.692  1.00 20.00     0.005 A 
ENDBRANCH   5   8
TORSDOF 1
ENDMDL
MODEL 3
REMARK VINA RESULT:      -4.2      1.648      2.408
REMARK  1 active torsions:
REMARK  status: ('A' for Active; 'I' for Inactive)
REMARK    1  A    between atoms: C7_7  and  C8_8 
ROOT
HETATM    1  C1  UNL     1     -33.255  16.364  -5.219  1.00 20.00     0.002 C 
HETATM    2  C2  UNL     1     -33.572  17.215  -3.994  1.00 20.00     0.005 C 
HETATM    3  C5  UNL     1     -34.525  15.853  -5.899  1.00 20.00     0.016 C 
HETATM    4  C6  UNL     1     -35.738  15.951  -3.659  1.00 20.00     0.020 C 
HETATM    5  C8  UNL     1     -34.449  16.458  -2.991  1.00 20.00    -0.009 C 
HETATM    6  C9  UNL     1     -35.489  15.160  -4.941  1.00 20.00     0.058 C 
HETATM    7 BR10 UNL     1     -34.830  13.364  -4.507  1.00 20.00    -0.091 Br
ENDROOT
BRANCH   5   8
HETATM    8  C7  UNL     1     -34.781  17.344  -1.790  1.00 20.00    -0.010 A 
HETATM    9  C3  UNL     1     -34.682  16.796  -0.393  1.00 20.00     0.005 A 
HETATM   10  C4  UNL     1     -33.687  17.815  -0.872  1.00 20.00     0.005 A 
ENDBRANCH   5   8
TORSDOF 1
ENDMDL
MODEL 4
REMARK VINA RESULT:      -4.0     12.438     14.275
REMARK  1 active torsions:
REMARK  status: ('A' for Active; 'I' for Inactive)
REMARK    1  A    between atoms: C7_7  and  C8_8 
ROOT
HETATM    1  C1  UNL     1     -40.778   5.811  -0.895  1.00 20.00     0.002 C 
HETATM    2  C2  UNL     1     -41.130   4.373  -1.261  1.00 20.00     0.005 C 
HETATM    3  C5  UNL     1     -42.026   6.647  -0.614  1.00 20.00     0.016 C 
HETATM    4  C6  UNL     1     -43.361   5.139  -2.175  1.00 20.00     0.020 C 
HETATM    5  C8  UNL     1     -42.094   4.313  -2.451  1.00 20.00    -0.009 C 
HETATM    6  C9  UNL     1     -43.071   6.568  -1.723  1.00 20.00     0.058 C 
HETATM    7 BR10 UNL     1     -42.512   7.659  -3.254  1.00 20.00    -0.091 Br
ENDROOT
BRANCH   5   8
HETATM    8  C7  UNL     1     -42.458   2.864  -2.776  1.00 20.00    -0.010 A 
HETATM    9  C3  UNL     1     -42.786   2.463  -4.187  1.00 20.00     0.005 A 
HETATM   10  C4  UNL     1     -41.504   2.001  -3.554  1.00 20.00     0.005 A 
ENDBRANCH   5   8
TORSDOF 1
ENDMDL
MODEL 5
REMARK VINA RESULT:      -4.0      1.479      1.988
REMARK  1 active torsions:
REMARK  status: ('A' for Active; 'I' for Inactive)
REMARK    1  A    between atoms: C7_7  and  C8_8 
ROOT
HETATM    1  C1  UNL     1     -37.111  16.526  -4.420  1.00 20.00     0.002 C 
HETATM    2  C2  UNL     1     -36.508  16.656  -3.025  1.00 20.00     0.005 C 
HETATM    3  C5  UNL     1     -37.081  15.082  -4.919  1.00 20.00     0.016 C 
HETATM    4  C6  UNL     1     -35.037  14.644  -3.459  1.00 20.00     0.020 C 
HETATM    5  C8  UNL     1     -35.079  16.102  -2.974  1.00 20.00    -0.009 C 
HETATM    6  C9  UNL     1     -35.703  14.434  -4.817  1.00 20.00     0.058 C 
HETATM    7 BR10 UNL     1     -34.540  15.102  -6.248  1.00 20.00    -0.091 Br
ENDROOT
BRANCH   5   8
HETATM    8  C7  UNL     1     -34.511  16.213  -1.559  1.00 20.00    -0.010 A 
HETATM    9  C3  UNL     1     -33.645  17.382  -1.179  1.00 20.00     0.005 A 
HETATM   10  C4  UNL     1     -35.032  17.259  -0.614  1.00 20.00     0.005 A 
ENDBRANCH   5   8
TORSDOF 1
ENDMDL
MODEL 6
REMARK VINA RESULT:      -3.9      2.057      4.207
REMARK  1 active torsions:
REMARK  status: ('A' for Active; 'I' for Inactive)
REMARK    1  A    between atoms: C7_7  and  C8_8 
ROOT
HETATM    1  C1  UNL     1     -33.806  18.107  -3.737  1.00 20.00     0.002 C 
HETATM    2  C2  UNL     1     -33.653  16.605  -3.955  1.00 20.00     0.005 C 
HETATM    3  C5  UNL     1     -33.716  18.478  -2.258  1.00 20.00     0.016 C 
HETATM    4  C6  UNL     1     -34.590  16.163  -1.647  1.00 20.00     0.020 C 
HETATM    5  C8  UNL     1     -34.680  15.810  -3.140  1.00 20.00    -0.009 C 
HETATM    6  C9  UNL     1     -34.652  17.663  -1.370  1.00 20.00     0.058 C 
HETATM    7 BR10 UNL     1     -36.494  18.308  -1.566  1.00 20.00    -0.091 Br
ENDROOT
BRANCH   5   8
HETATM    8  C7  UNL     1     -34.484  14.308  -3.349  1.00 20.00    -0.010 A 
HETATM    9  C3  UNL     1     -35.471  13.521  -4.165  1.00 20.00     0.005 A 
HETATM   10  C4  UNL     1     -34.090  13.777  -4.699  1.00 20.00     0.005 A 
ENDBRANCH   5   8
TORSDOF 1
ENDMDL
MODEL 7
REMARK VINA RESULT:      -3.9     13.067     14.900
REMARK  1 active torsions:
REMARK  status: ('A' for Active; 'I' for Inactive)
REMARK    1  A    between atoms: C7_7  and  C8_8 
ROOT
HETATM    1  C1  UNL     1     -43.231   5.873  -2.581  1.00 20.00     0.002 C 
HETATM    2  C2  UNL     1     -42.798   4.633  -3.357  1.00 20.00     0.005 C 
HETATM    3  C5  UNL     1     -42.071   6.484  -1.796  1.00 20.00     0.016 C 
HETATM    4  C6  UNL     1     -40.984   4.183  -1.653  1.00 20.00     0.020 C 
HETATM    5  C8  UNL     1     -42.162   3.584  -2.438  1.00 20.00    -0.009 C 
HETATM    6  C9  UNL     1     -41.334   5.476  -0.919  1.00 20.00     0.058 C 
HETATM    7 BR10 UNL     1     -42.393   5.076   0.682  1.00 20.00    -0.091 Br
ENDROOT
BRANCH   5   8
HETATM    8  C7  UNL     1     -41.706   2.368  -3.245  1.00 20.00    -0.010 A 
HETATM    9  C3  UNL     1     -42.485   1.083  -3.183  1.00 20.00     0.005 A 
HETATM   10  C4  UNL     1     -42.500   1.911  -4.437  1.00 20.00     0.005 A 
ENDBRANCH   5   8
TORSDOF 1
ENDMDL
MODEL 8
REMARK VINA RESULT:      -3.8      2.363      4.195
REMARK  1 active torsions:
REMARK  status: ('A' for Active; 'I' for Inactive)
REMARK    1  A    between atoms: C7_7  and  C8_8 
ROOT
HETATM    1  C1  UNL     1     -35.708  17.937  -3.572  1.00 20.00     0.002 C 
HETATM    2  C2  UNL     1     -35.295  16.706  -4.372  1.00 20.00     0.005 C 
HETATM    3  C5  UNL     1     -34.531  18.533  -2.801  1.00 20.00     0.016 C 
HETATM    4  C6  UNL     1     -33.451  16.227  -2.709  1.00 20.00     0.020 C 
HETATM    5  C8  UNL     1     -34.646  15.643  -3.479  1.00 20.00    -0.009 C 
HETATM    6  C9  UNL     1     -33.781  17.511  -1.952  1.00 20.00     0.058 C 
HETATM    7 BR10 UNL     1     -34.813  17.094  -0.336  1.00 20.00    -0.091 Br
ENDROOT
BRANCH   5   8
HETATM    8  C7  UNL     1     -34.210  14.436  -4.310  1.00 20.00    -0.010 A 
HETATM    9  C3  UNL     1     -35.050  13.188  -4.333  1.00 20.00     0.005 A 
HETATM   10  C4  UNL     1     -34.968  14.060  -5.554  1.00 20.00     0.005 A 
ENDBRANCH   5   8
TORSDOF 1
ENDMDL
MODEL 9
REMARK VINA RESULT:      -3.8      2.310      4.369
REMARK  1 active torsions:
REMARK  status: ('A' for Active; 'I' for Inactive)
REMARK    1  A    between atoms: C7_7  and  C8_8 
ROOT
HETATM    1  C1  UNL     1     -33.187  16.262  -4.923  1.00 20.00     0.002 C 
HETATM    2  C2  UNL     1     -34.269  15.760  -5.873  1.00 20.00     0.005 C 
HETATM    3  C5  UNL     1     -32.920  15.270  -3.792  1.00 20.00     0.016 C 
HETATM    4  C6  UNL     1     -35.317  14.427  -3.995  1.00 20.00     0.020 C 
HETATM    5  C8  UNL     1     -35.569  15.436  -5.127  1.00 20.00    -0.009 C 
HETATM    6  C9  UNL     1     -34.184  14.835  -3.056  1.00 20.00     0.058 C 
HETATM    7 BR10 UNL     1     -34.786  16.263  -1.853  1.00 20.00    -0.091 Br
ENDROOT
BRANCH   5   8
HETATM    8  C7  UNL     1     -36.625  14.903  -6.095  1.00 20.00    -0.010 A 
HETATM    9  C3  UNL     1     -37.867  15.703  -6.378  1.00 20.00     0.005 A 
HETATM   10  C4  UNL     1     -36.814  15.549  -7.439  1.00 20.00     0.005 A 
ENDBRANCH   5   8
TORSDOF 1
ENDMDL
