MODEL 1
REMARK VINA RESULT:      -4.6      0.000      0.000
REMARK  1 active torsions:
REMARK  status: ('A' for Active; 'I' for Inactive)
REMARK    1  A    between atoms: C5_5  and  C8_8 
ROOT
HETATM    1  C1  UNL     1     -34.799   5.075   3.861  1.00 20.00     0.007 C 
HETATM    2  C2  UNL     1     -34.156   5.804   2.679  1.00 20.00     0.041 C 
HETATM    3  C3  UNL     1     -33.198   6.607   4.810  1.00 20.00     0.045 C 
HETATM    4  C4  UNL     1     -32.193   7.563   2.560  1.00 20.00     0.207 A 
HETATM    5  C5  UNL     1     -34.615   6.051   5.030  1.00 20.00    -0.012 C 
HETATM    6  C6  UNL     1     -33.046   6.580   3.319  1.00 20.00     0.083 A 
HETATM    7  O9  UNL     1     -31.732   6.240   2.860  1.00 20.00    -0.375 OA
ENDROOT
BRANCH   5   8
HETATM    8  C8  UNL     1     -34.795   5.395   6.388  1.00 20.00     0.000 C 
HETATM    9  C7  UNL     1     -34.976   3.914   6.274  1.00 20.00     0.005 C 
ENDBRANCH   5   8
TORSDOF 1
ENDMDL
MODEL 2
REMARK VINA RESULT:      -4.4     11.777     12.133
REMARK  1 active torsions:
REMARK  status: ('A' for Active; 'I' for Inactive)
REMARK    1  A    between atoms: C5_5  and  C8_8 
ROOT
HETATM    1  C1  UNL     1     -35.901  15.781  -2.745  1.00 20.00     0.007 C 
HETATM    2  C2  UNL     1     -36.222  14.852  -3.918  1.00 20.00     0.041 C 
HETATM    3  C3  UNL     1     -33.788  14.902  -3.499  1.00 20.00     0.045 C 
HETATM    4  C4  UNL     1     -34.690  13.270  -5.372  1.00 20.00     0.207 A 
HETATM    5  C5  UNL     1     -34.448  16.199  -3.002  1.00 20.00    -0.012 C 
HETATM    6  C6  UNL     1     -34.907  14.194  -4.202  1.00 20.00     0.083 A 
HETATM    7  O9  UNL     1     -34.900  12.769  -4.046  1.00 20.00    -0.375 OA
ENDROOT
BRANCH   5   8
HETATM    8  C8  UNL     1     -33.771  16.783  -1.775  1.00 20.00     0.000 C 
HETATM    9  C7  UNL     1     -34.673  16.778  -0.581  1.00 20.00     0.005 C 
ENDBRANCH   5   8
TORSDOF 1
ENDMDL
MODEL 3
REMARK VINA RESULT:      -4.2     11.723     12.761
REMARK  1 active torsions:
REMARK  status: ('A' for Active; 'I' for Inactive)
REMARK    1  A    between atoms: C5_5  and  C8_8 
ROOT
HETATM    1  C1  UNL     1     -33.821  13.908  -3.648  1.00 20.00     0.007 C 
HETATM    2  C2  UNL     1     -34.491  13.355  -4.908  1.00 20.00     0.041 C 
HETATM    3  C3  UNL     1     -34.779  15.805  -4.785  1.00 20.00     0.045 C 
HETATM    4  C4  UNL     1     -35.695  14.554  -6.926  1.00 20.00     0.207 A 
HETATM    5  C5  UNL     1     -34.581  15.214  -3.380  1.00 20.00    -0.012 C 
HETATM    6  C6  UNL     1     -34.883  14.590  -5.658  1.00 20.00     0.083 A 
HETATM    7  O9  UNL     1     -34.273  14.730  -6.948  1.00 20.00    -0.375 OA
ENDROOT
BRANCH   5   8
HETATM    8  C8  UNL     1     -33.844  16.148  -2.436  1.00 20.00     0.000 C 
HETATM    9  C7  UNL     1     -34.646  16.454  -1.211  1.00 20.00     0.005 C 
ENDBRANCH   5   8
TORSDOF 1
ENDMDL
MODEL 4
REMARK VINA RESULT:      -4.1      1.806      3.900
REMARK  1 active torsions:
REMARK  status: ('A' for Active; 'I' for Inactive)
REMARK    1  A    between atoms: C5_5  and  C8_8 
ROOT
HETATM    1  C1  UNL     1     -34.305   6.520   3.060  1.00 20.00     0.007 C 
HETATM    2  C2  UNL     1     -35.150   5.414   3.698  1.00 20.00     0.041 C 
HETATM    3  C3  UNL     1     -33.077   5.769   4.994  1.00 20.00     0.045 C 
HETATM    4  C4  UNL     1     -34.833   4.024   5.918  1.00 20.00     0.207 A 
HETATM    5  C5  UNL     1     -32.880   6.201   3.531  1.00 20.00    -0.012 C 
HETATM    6  C6  UNL     1     -34.437   5.139   4.986  1.00 20.00     0.083 A 
HETATM    7  O9  UNL     1     -35.213   5.383   6.167  1.00 20.00    -0.375 OA
ENDROOT
BRANCH   5   8
HETATM    8  C8  UNL     1     -31.927   7.373   3.376  1.00 20.00     0.000 C 
HETATM    9  C7  UNL     1     -32.138   8.101   2.086  1.00 20.00     0.005 C 
ENDBRANCH   5   8
TORSDOF 1
ENDMDL
MODEL 5
REMARK VINA RESULT:      -4.0     11.896     12.716
REMARK  1 active torsions:
REMARK  status: ('A' for Active; 'I' for Inactive)
REMARK    1  A    between atoms: C5_5  and  C8_8 
ROOT
HETATM    1  C1  UNL     1     -33.665  16.907  -4.296  1.00 20.00     0.007 C 
HETATM    2  C2  UNL     1     -33.812  15.724  -5.257  1.00 20.00     0.041 C 
HETATM    3  C3  UNL     1     -34.515  15.075  -2.979  1.00 20.00     0.045 C 
HETATM    4  C4  UNL     1     -34.788  13.296  -4.915  1.00 20.00     0.207 A 
HETATM    5  C5  UNL     1     -33.511  16.239  -2.924  1.00 20.00    -0.012 C 
HETATM    6  C6  UNL     1     -34.524  14.698  -4.430  1.00 20.00     0.083 A 
HETATM    7  O9  UNL     1     -35.807  14.304  -4.934  1.00 20.00    -0.375 OA
ENDROOT
BRANCH   5   8
HETATM    8  C8  UNL     1     -33.762  17.191  -1.768  1.00 20.00     0.000 C 
HETATM    9  C7  UNL     1     -34.708  16.614  -0.762  1.00 20.00     0.005 C 
ENDBRANCH   5   8
TORSDOF 1
ENDMDL
MODEL 6
REMARK VINA RESULT:      -3.9     11.890     13.417
REMARK  1 active torsions:
REMARK  status: ('A' for Active; 'I' for Inactive)
REMARK    1  A    between atoms: C5_5  and  C8_8 
ROOT
HETATM    1  C1  UNL     1     -34.060  15.854  -2.567  1.00 20.00     0.007 C 
HETATM    2  C2  UNL     1     -33.971  17.352  -2.871  1.00 20.00     0.041 C 
HETATM    3  C3  UNL     1     -33.426  16.031  -4.886  1.00 20.00     0.045 C 
HETATM    4  C4  UNL     1     -33.508  18.663  -5.114  1.00 20.00     0.207 A 
HETATM    5  C5  UNL     1     -33.135  15.219  -3.612  1.00 20.00    -0.012 C 
HETATM    6  C6  UNL     1     -33.775  17.389  -4.355  1.00 20.00     0.083 A 
HETATM    7  O9  UNL     1     -34.809  18.064  -5.082  1.00 20.00    -0.375 OA
ENDROOT
BRANCH   5   8
HETATM    8  C8  UNL     1     -33.369  13.729  -3.786  1.00 20.00     0.000 C 
HETATM    9  C7  UNL     1     -34.658  13.443  -4.491  1.00 20.00     0.005 C 
ENDBRANCH   5   8
TORSDOF 1
ENDMDL
MODEL 7
REMARK VINA RESULT:      -3.9     12.053     13.075
REMARK  1 active torsions:
REMARK  status: ('A' for Active; 'I' for Inactive)
REMARK    1  A    between atoms: C5_5  and  C8_8 
ROOT
HETATM    1  C1  UNL     1     -35.000  15.265  -2.685  1.00 20.00     0.007 C 
HETATM    2  C2  UNL     1     -34.876  15.475  -4.196  1.00 20.00     0.041 C 
HETATM    3  C3  UNL     1     -33.848  17.362  -2.977  1.00 20.00     0.045 C 
HETATM    4  C4  UNL     1     -33.671  17.345  -5.614  1.00 20.00     0.207 A 
HETATM    5  C5  UNL     1     -34.930  16.688  -2.116  1.00 20.00    -0.012 C 
HETATM    6  C6  UNL     1     -33.987  16.675  -4.302  1.00 20.00     0.083 A 
HETATM    7  O9  UNL     1     -32.748  16.447  -4.987  1.00 20.00    -0.375 OA
ENDROOT
BRANCH   5   8
HETATM    8  C8  UNL     1     -34.617  16.720  -0.630  1.00 20.00     0.000 C 
HETATM    9  C7  UNL     1     -33.767  17.894  -0.261  1.00 20.00     0.005 C 
ENDBRANCH   5   8
TORSDOF 1
ENDMDL
MODEL 8
REMARK VINA RESULT:      -3.8      9.650     10.745
REMARK  1 active torsions:
REMARK  status: ('A' for Active; 'I' for Inactive)
REMARK    1  A    between atoms: C5_5  and  C8_8 
ROOT
HETATM    1  C1  UNL     1     -42.956   4.365  -3.057  1.00 20.00     0.007 C 
HETATM    2  C2  UNL     1     -42.945   5.494  -2.024  1.00 20.00     0.041 C 
HETATM    3  C3  UNL     1     -40.913   4.107  -1.803  1.00 20.00     0.045 C 
HETATM    4  C4  UNL     1     -41.131   6.240  -0.259  1.00 20.00     0.207 A 
HETATM    5  C5  UNL     1     -42.059   3.291  -2.426  1.00 20.00    -0.012 C 
HETATM    6  C6  UNL     1     -41.576   5.397  -1.426  1.00 20.00     0.083 A 
HETATM    7  O9  UNL     1     -40.757   6.561  -1.604  1.00 20.00    -0.375 OA
ENDROOT
BRANCH   5   8
HETATM    8  C8  UNL     1     -41.580   2.254  -3.427  1.00 20.00     0.000 C 
HETATM    9  C7  UNL     1     -42.400   1.004  -3.373  1.00 20.00     0.005 C 
ENDBRANCH   5   8
TORSDOF 1
ENDMDL
MODEL 9
REMARK VINA RESULT:      -3.8     12.103     12.594
REMARK  1 active torsions:
REMARK  status: ('A' for Active; 'I' for Inactive)
REMARK    1  A    between atoms: C5_5  and  C8_8 
ROOT
HETATM    1  C1  UNL     1     -33.675  15.345  -3.071  1.00 20.00     0.007 C 
HETATM    2  C2  UNL     1     -34.705  14.444  -3.757  1.00 20.00     0.041 C 
HETATM    3  C3  UNL     1     -35.830  16.321  -2.610  1.00 20.00     0.045 C 
HETATM    4  C4  UNL     1     -37.322  14.658  -4.023  1.00 20.00     0.207 A 
HETATM    5  C5  UNL     1     -34.475  16.018  -1.948  1.00 20.00    -0.012 C 
HETATM    6  C6  UNL     1     -35.983  15.209  -3.604  1.00 20.00     0.083 A 
HETATM    7  O9  UNL     1     -36.605  15.594  -4.837  1.00 20.00    -0.375 OA
ENDROOT
BRANCH   5   8
HETATM    8  C8  UNL     1     -33.792  17.255  -1.390  1.00 20.00     0.000 C 
HETATM    9  C7  UNL     1     -34.320  17.625  -0.040  1.00 20.00     0.005 C 
ENDBRANCH   5   8
TORSDOF 1
ENDMDL
