MODEL 1
REMARK VINA RESULT:      -4.6      0.000      0.000
REMARK  1 active torsions:
REMARK  status: ('A' for Active; 'I' for Inactive)
REMARK    1  A    between atoms: C8_8  and  C9_9 
ROOT
HETATM    1  C1  UNL     1     -35.186  17.252  -0.111  1.00 20.00     0.006 C 
HETATM    2  C2  UNL     1     -34.287  18.042   0.845  1.00 20.00     0.020 C 
HETATM    3  C5  UNL     1     -33.053  17.726  -1.171  1.00 20.00     0.025 C 
HETATM    4  C8  UNL     1     -34.479  17.265  -1.475  1.00 20.00    -0.009 C 
HETATM    5  C10 UNL     1     -33.272  18.736  -0.055  1.00 20.00     0.082 C 
HETATM    6 CL12 UNL     1     -31.774  19.134   0.798  1.00 20.00    -0.125 Cl
ENDROOT
BRANCH   4   7
HETATM    7  C9  UNL     1     -34.531  15.916  -2.196  1.00 20.00    -0.006 C 
HETATM    8  C3  UNL     1     -33.372  15.761  -3.190  1.00 20.00     0.031 C 
HETATM    9  C6  UNL     1     -33.596  16.571  -4.462  1.00 20.00     0.168 C 
HETATM   10  O11 UNL     1     -34.847  16.236  -5.063  1.00 20.00    -0.391 OA
HETATM   11  C7  UNL     1     -35.952  16.526  -4.208  1.00 20.00     0.168 C 
HETATM   12  C4  UNL     1     -35.868  15.714  -2.920  1.00 20.00     0.031 C 
ENDBRANCH   4   7
TORSDOF 1
ENDMDL
MODEL 2
REMARK VINA RESULT:      -4.6      3.579      5.153
REMARK  1 active torsions:
REMARK  status: ('A' for Active; 'I' for Inactive)
REMARK    1  A    between atoms: C8_8  and  C9_9 
ROOT
HETATM    1  C1  UNL     1     -34.424  14.041  -3.440  1.00 20.00     0.006 C 
HETATM    2  C2  UNL     1     -34.591  13.417  -4.829  1.00 20.00     0.020 C 
HETATM    3  C5  UNL     1     -35.218  15.711  -5.014  1.00 20.00     0.025 C 
HETATM    4  C8  UNL     1     -34.597  15.556  -3.625  1.00 20.00    -0.009 C 
HETATM    5  C10 UNL     1     -34.543  14.594  -5.795  1.00 20.00     0.082 C 
HETATM    6 CL12 UNL     1     -35.365  14.247  -7.323  1.00 20.00    -0.125 Cl
ENDROOT
BRANCH   4   7
HETATM    7  C9  UNL     1     -35.430  16.209  -2.520  1.00 20.00    -0.006 C 
HETATM    8  C3  UNL     1     -35.973  17.577  -2.955  1.00 20.00     0.031 C 
HETATM    9  C6  UNL     1     -34.896  18.656  -2.929  1.00 20.00     0.168 C 
HETATM   10  O11 UNL     1     -34.280  18.725  -1.644  1.00 20.00    -0.391 OA
HETATM   11  C7  UNL     1     -33.627  17.505  -1.292  1.00 20.00     0.168 C 
HETATM   12  C4  UNL     1     -34.628  16.357  -1.221  1.00 20.00     0.031 C 
ENDBRANCH   4   7
TORSDOF 1
ENDMDL
MODEL 3
REMARK VINA RESULT:      -4.6      1.863      2.806
REMARK  1 active torsions:
REMARK  status: ('A' for Active; 'I' for Inactive)
REMARK    1  A    between atoms: C8_8  and  C9_9 
ROOT
HETATM    1  C1  UNL     1     -33.949  17.593  -3.567  1.00 20.00     0.006 C 
HETATM    2  C2  UNL     1     -33.670  18.306  -2.241  1.00 20.00     0.020 C 
HETATM    3  C5  UNL     1     -34.870  16.312  -1.721  1.00 20.00     0.025 C 
HETATM    4  C8  UNL     1     -34.503  16.207  -3.201  1.00 20.00    -0.009 C 
HETATM    5  C10 UNL     1     -33.774  17.218  -1.180  1.00 20.00     0.082 C 
HETATM    6 CL12 UNL     1     -34.163  17.867   0.419  1.00 20.00    -0.125 Cl
ENDROOT
BRANCH   4   7
HETATM    7  C9  UNL     1     -35.680  15.775  -4.081  1.00 20.00    -0.006 C 
HETATM    8  C3  UNL     1     -36.030  14.296  -3.869  1.00 20.00     0.031 C 
HETATM    9  C6  UNL     1     -35.035  13.367  -4.556  1.00 20.00     0.168 C 
HETATM   10  O11 UNL     1     -34.923  13.683  -5.944  1.00 20.00    -0.391 OA
HETATM   11  C7  UNL     1     -34.440  15.009  -6.159  1.00 20.00     0.168 C 
HETATM   12  C4  UNL     1     -35.399  16.036  -5.566  1.00 20.00     0.031 C 
ENDBRANCH   4   7
TORSDOF 1
ENDMDL
MODEL 4
REMARK VINA RESULT:      -4.6      1.655      2.263
REMARK  1 active torsions:
REMARK  status: ('A' for Active; 'I' for Inactive)
REMARK    1  A    between atoms: C8_8  and  C9_9 
ROOT
HETATM    1  C1  UNL     1     -34.791  15.745  -1.916  1.00 20.00     0.006 C 
HETATM    2  C2  UNL     1     -34.793  16.724  -0.737  1.00 20.00     0.020 C 
HETATM    3  C5  UNL     1     -33.668  17.806  -2.540  1.00 20.00     0.025 C 
HETATM    4  C8  UNL     1     -34.284  16.537  -3.131  1.00 20.00    -0.009 C 
HETATM    5  C10 UNL     1     -34.591  18.096  -1.367  1.00 20.00     0.082 C 
HETATM    6 CL12 UNL     1     -33.895  19.263  -0.234  1.00 20.00    -0.125 Cl
ENDROOT
BRANCH   4   7
HETATM    7  C9  UNL     1     -33.305  15.746  -4.002  1.00 20.00    -0.006 C 
HETATM    8  C3  UNL     1     -33.292  16.261  -5.448  1.00 20.00     0.031 C 
HETATM    9  C6  UNL     1     -34.521  15.809  -6.229  1.00 20.00     0.168 C 
HETATM   10  O11 UNL     1     -34.656  14.389  -6.183  1.00 20.00    -0.391 OA
HETATM   11  C7  UNL     1     -34.833  13.906  -4.851  1.00 20.00     0.168 C 
HETATM   12  C4  UNL     1     -33.623  14.245  -3.988  1.00 20.00     0.031 C 
ENDBRANCH   4   7
TORSDOF 1
ENDMDL
MODEL 5
REMARK VINA RESULT:      -4.4      2.180      3.018
REMARK  1 active torsions:
REMARK  status: ('A' for Active; 'I' for Inactive)
REMARK    1  A    between atoms: C8_8  and  C9_9 
ROOT
HETATM    1  C1  UNL     1     -33.640  16.893  -1.572  1.00 20.00     0.006 C 
HETATM    2  C2  UNL     1     -34.279  17.986  -0.710  1.00 20.00     0.020 C 
HETATM    3  C5  UNL     1     -35.942  17.255  -2.255  1.00 20.00     0.025 C 
HETATM    4  C8  UNL     1     -34.781  16.270  -2.391  1.00 20.00    -0.009 C 
HETATM    5  C10 UNL     1     -35.779  17.750  -0.826  1.00 20.00     0.082 C 
HETATM    6 CL12 UNL     1     -36.720  19.214  -0.508  1.00 20.00    -0.125 Cl
ENDROOT
BRANCH   4   7
HETATM    7  C9  UNL     1     -34.399  15.992  -3.847  1.00 20.00    -0.006 C 
HETATM    8  C3  UNL     1     -35.481  15.179  -4.570  1.00 20.00     0.031 C 
HETATM    9  C6  UNL     1     -35.457  13.708  -4.170  1.00 20.00     0.168 C 
HETATM   10  O11 UNL     1     -34.160  13.149  -4.377  1.00 20.00    -0.391 OA
HETATM   11  C7  UNL     1     -33.162  13.791  -3.584  1.00 20.00     0.168 C 
HETATM   12  C4  UNL     1     -33.050  15.267  -3.948  1.00 20.00     0.031 C 
ENDBRANCH   4   7
TORSDOF 1
ENDMDL
MODEL 6
REMARK VINA RESULT:      -4.4      1.440      2.207
REMARK  1 active torsions:
REMARK  status: ('A' for Active; 'I' for Inactive)
REMARK    1  A    between atoms: C8_8  and  C9_9 
ROOT
HETATM    1  C1  UNL     1     -33.539  18.748  -1.713  1.00 20.00     0.006 C 
HETATM    2  C2  UNL     1     -33.669  19.171  -0.246  1.00 20.00     0.020 C 
HETATM    3  C5  UNL     1     -34.678  17.018  -0.444  1.00 20.00     0.025 C 
HETATM    4  C8  UNL     1     -33.971  17.275  -1.776  1.00 20.00    -0.009 C 
HETATM    5  C10 UNL     1     -33.866  17.869   0.520  1.00 20.00     0.082 C 
HETATM    6 CL12 UNL     1     -34.694  18.113   2.065  1.00 20.00    -0.125 Cl
ENDROOT
BRANCH   4   7
HETATM    7  C9  UNL     1     -34.846  16.953  -2.990  1.00 20.00    -0.006 C 
HETATM    8  C3  UNL     1     -35.377  15.514  -2.938  1.00 20.00     0.031 C 
HETATM    9  C6  UNL     1     -34.305  14.494  -3.305  1.00 20.00     0.168 C 
HETATM   10  O11 UNL     1     -33.735  14.793  -4.578  1.00 20.00    -0.391 OA
HETATM   11  C7  UNL     1     -33.091  16.067  -4.596  1.00 20.00     0.168 C 
HETATM   12  C4  UNL     1     -34.091  17.182  -4.306  1.00 20.00     0.031 C 
ENDBRANCH   4   7
TORSDOF 1
ENDMDL
MODEL 7
REMARK VINA RESULT:      -4.1      3.270      4.895
REMARK  1 active torsions:
REMARK  status: ('A' for Active; 'I' for Inactive)
REMARK    1  A    between atoms: C8_8  and  C9_9 
ROOT
HETATM    1  C1  UNL     1     -36.340  16.474  -3.885  1.00 20.00     0.006 C 
HETATM    2  C2  UNL     1     -36.142  15.242  -4.775  1.00 20.00     0.020 C 
HETATM    3  C5  UNL     1     -34.517  15.113  -3.033  1.00 20.00     0.025 C 
HETATM    4  C8  UNL     1     -35.458  16.256  -2.647  1.00 20.00    -0.009 C 
HETATM    5  C10 UNL     1     -35.413  14.236  -3.893  1.00 20.00     0.082 C 
HETATM    6 CL12 UNL     1     -34.496  13.053  -4.836  1.00 20.00    -0.125 Cl
ENDROOT
BRANCH   4   7
HETATM    7  C9  UNL     1     -34.715  17.518  -2.203  1.00 20.00    -0.006 C 
HETATM    8  C3  UNL     1     -33.968  17.300  -0.880  1.00 20.00     0.031 C 
HETATM    9  C6  UNL     1     -34.912  17.304   0.318  1.00 20.00     0.168 C 
HETATM   10  O11 UNL     1     -35.686  18.502   0.348  1.00 20.00    -0.391 OA
HETATM   11  C7  UNL     1     -36.513  18.641  -0.807  1.00 20.00     0.168 C 
HETATM   12  C4  UNL     1     -35.665  18.716  -2.072  1.00 20.00     0.031 C 
ENDBRANCH   4   7
TORSDOF 1
ENDMDL
MODEL 8
REMARK VINA RESULT:      -4.1      2.705      4.298
REMARK  1 active torsions:
REMARK  status: ('A' for Active; 'I' for Inactive)
REMARK    1  A    between atoms: C8_8  and  C9_9 
ROOT
HETATM    1  C1  UNL     1     -33.520  15.484  -4.543  1.00 20.00     0.006 C 
HETATM    2  C2  UNL     1     -33.291  15.726  -3.048  1.00 20.00     0.020 C 
HETATM    3  C5  UNL     1     -35.554  16.320  -3.513  1.00 20.00     0.025 C 
HETATM    4  C8  UNL     1     -35.030  15.639  -4.778  1.00 20.00    -0.009 C 
HETATM    5  C10 UNL     1     -34.684  15.701  -2.430  1.00 20.00     0.082 C 
HETATM    6 CL12 UNL     1     -34.763  16.597  -0.907  1.00 20.00    -0.125 Cl
ENDROOT
BRANCH   4   7
HETATM    7  C9  UNL     1     -35.367  16.410  -6.057  1.00 20.00    -0.006 C 
HETATM    8  C3  UNL     1     -36.883  16.558  -6.244  1.00 20.00     0.031 C 
HETATM    9  C6  UNL     1     -37.530  15.264  -6.726  1.00 20.00     0.168 C 
HETATM   10  O11 UNL     1     -36.901  14.796  -7.918  1.00 20.00    -0.391 OA
HETATM   11  C7  UNL     1     -35.519  14.497  -7.719  1.00 20.00     0.168 C 
HETATM   12  C4  UNL     1     -34.752  15.745  -7.295  1.00 20.00     0.031 C 
ENDBRANCH   4   7
TORSDOF 1
ENDMDL
MODEL 9
REMARK VINA RESULT:      -4.0      2.162      3.238
REMARK  1 active torsions:
REMARK  status: ('A' for Active; 'I' for Inactive)
REMARK    1  A    between atoms: C8_8  and  C9_9 
ROOT
HETATM    1  C1  UNL     1     -33.591  16.816  -4.355  1.00 20.00     0.006 C 
HETATM    2  C2  UNL     1     -33.979  17.625  -3.113  1.00 20.00     0.020 C 
HETATM    3  C5  UNL     1     -34.207  15.320  -2.545  1.00 20.00     0.025 C 
HETATM    4  C8  UNL     1     -33.511  15.350  -3.906  1.00 20.00    -0.009 C 
HETATM    5  C10 UNL     1     -33.805  16.659  -1.948  1.00 20.00     0.082 C 
HETATM    6 CL12 UNL     1     -34.796  17.100  -0.551  1.00 20.00    -0.125 Cl
ENDROOT
BRANCH   4   7
HETATM    7  C9  UNL     1     -34.125  14.374  -4.914  1.00 20.00    -0.006 C 
HETATM    8  C3  UNL     1     -34.593  15.095  -6.185  1.00 20.00     0.031 C 
HETATM    9  C6  UNL     1     -35.896  15.856  -5.966  1.00 20.00     0.168 C 
HETATM   10  O11 UNL     1     -36.908  14.989  -5.454  1.00 20.00    -0.391 OA
HETATM   11  C7  UNL     1     -36.556  14.435  -4.188  1.00 20.00     0.168 C 
HETATM   12  C4  UNL     1     -35.292  13.589  -4.300  1.00 20.00     0.031 C 
ENDBRANCH   4   7
TORSDOF 1
ENDMDL
