MODEL 1
REMARK VINA RESULT:      -5.8      0.000      0.000
REMARK  3 active torsions:
REMARK  status: ('A' for Active; 'I' for Inactive)
REMARK    1  A    between atoms: C1_1  and  C4_4 
REMARK    2  A    between atoms: C1_1  and  C5_5 
REMARK    3  A    between atoms: C5_5  and  C6_6 
ROOT
HETATM    1  C1  UNL     1     -34.417   5.634   3.693  1.00 20.00     0.139 C 
HETATM    2  O7  UNL     1     -34.457   5.133   2.576  1.00 20.00    -0.297 OA
ENDROOT
BRANCH   1   3
HETATM    3  C4  UNL     1     -35.243   5.062   4.796  1.00 20.00     0.056 A 
HETATM    4  C2  UNL     1     -34.718   3.881   5.542  1.00 20.00     0.013 A 
HETATM    5  C3  UNL     1     -34.765   5.226   6.200  1.00 20.00     0.013 A 
ENDBRANCH   1   3
BRANCH   1   6
HETATM    6  C5  UNL     1     -33.571   6.829   4.071  1.00 20.00     0.196 C 
BRANCH   6   7
HETATM    7  C6  UNL     1     -32.249   6.864   3.340  1.00 20.00     0.394 C 
HETATM    8  F8  UNL     1     -32.382   7.371   2.097  1.00 20.00    -0.171 F 
HETATM    9  F9  UNL     1     -31.708   5.632   3.238  1.00 20.00    -0.171 F 
HETATM   10  F10 UNL     1     -31.366   7.642   4.005  1.00 20.00    -0.171 F 
ENDBRANCH   6   7
ENDBRANCH   1   6
TORSDOF 3
ENDMDL
MODEL 2
REMARK VINA RESULT:      -5.8      0.020      1.190
REMARK  3 active torsions:
REMARK  status: ('A' for Active; 'I' for Inactive)
REMARK    1  A    between atoms: C1_1  and  C4_4 
REMARK    2  A    between atoms: C1_1  and  C5_5 
REMARK    3  A    between atoms: C5_5  and  C6_6 
ROOT
HETATM    1  C1  UNL     1     -34.422   5.636   3.679  1.00 20.00     0.139 C 
HETATM    2  O7  UNL     1     -34.453   5.128   2.565  1.00 20.00    -0.297 OA
ENDROOT
BRANCH   1   3
HETATM    3  C4  UNL     1     -35.243   5.060   4.784  1.00 20.00     0.056 A 
HETATM    4  C2  UNL     1     -34.708   3.884   5.532  1.00 20.00     0.013 A 
HETATM    5  C3  UNL     1     -34.765   5.230   6.188  1.00 20.00     0.013 A 
ENDBRANCH   1   3
BRANCH   1   6
HETATM    6  C5  UNL     1     -33.593   6.845   4.052  1.00 20.00     0.196 C 
BRANCH   6   7
HETATM    7  C6  UNL     1     -32.251   6.869   3.359  1.00 20.00     0.394 C 
HETATM    8  F8  UNL     1     -31.733   5.629   3.237  1.00 20.00    -0.171 F 
HETATM    9  F9  UNL     1     -31.362   7.633   4.027  1.00 20.00    -0.171 F 
HETATM   10  F10 UNL     1     -32.374   7.383   2.114  1.00 20.00    -0.171 F 
ENDBRANCH   6   7
ENDBRANCH   1   6
TORSDOF 3
ENDMDL
MODEL 3
REMARK VINA RESULT:      -5.8      0.017      1.192
REMARK  3 active torsions:
REMARK  status: ('A' for Active; 'I' for Inactive)
REMARK    1  A    between atoms: C1_1  and  C4_4 
REMARK    2  A    between atoms: C1_1  and  C5_5 
REMARK    3  A    between atoms: C5_5  and  C6_6 
ROOT
HETATM    1  C1  UNL     1     -34.406   5.637   3.690  1.00 20.00     0.139 C 
HETATM    2  O7  UNL     1     -34.437   5.140   2.571  1.00 20.00    -0.297 OA
ENDROOT
BRANCH   1   3
HETATM    3  C4  UNL     1     -35.240   5.061   4.785  1.00 20.00     0.056 A 
HETATM    4  C2  UNL     1     -34.722   3.874   5.527  1.00 20.00     0.013 A 
HETATM    5  C3  UNL     1     -34.771   5.216   6.193  1.00 20.00     0.013 A 
ENDBRANCH   1   3
BRANCH   1   6
HETATM    6  C5  UNL     1     -33.563   6.832   4.078  1.00 20.00     0.196 C 
BRANCH   6   7
HETATM    7  C6  UNL     1     -32.244   6.879   3.345  1.00 20.00     0.394 C 
HETATM    8  F8  UNL     1     -31.346   7.654   3.990  1.00 20.00    -0.171 F 
HETATM    9  F9  UNL     1     -32.390   7.358   2.092  1.00 20.00    -0.171 F 
HETATM   10  F10 UNL     1     -31.715   5.638   3.248  1.00 20.00    -0.171 F 
ENDBRANCH   6   7
ENDBRANCH   1   6
TORSDOF 3
ENDMDL
MODEL 4
REMARK VINA RESULT:      -5.5      2.611      3.957
REMARK  3 active torsions:
REMARK  status: ('A' for Active; 'I' for Inactive)
REMARK    1  A    between atoms: C1_1  and  C4_4 
REMARK    2  A    between atoms: C1_1  and  C5_5 
REMARK    3  A    between atoms: C5_5  and  C6_6 
ROOT
HETATM    1  C1  UNL     1     -33.552   5.953   3.528  1.00 20.00     0.139 C 
HETATM    2  O7  UNL     1     -34.286   5.313   2.784  1.00 20.00    -0.297 OA
ENDROOT
BRANCH   1   3
HETATM    3  C4  UNL     1     -32.227   6.431   3.037  1.00 20.00     0.056 A 
HETATM    4  C2  UNL     1     -32.149   7.774   2.390  1.00 20.00     0.013 A 
HETATM    5  C3  UNL     1     -31.567   7.560   3.756  1.00 20.00     0.013 A 
ENDBRANCH   1   3
BRANCH   1   6
HETATM    6  C5  UNL     1     -33.881   6.315   4.959  1.00 20.00     0.196 C 
BRANCH   6   7
HETATM    7  C6  UNL     1     -34.680   5.245   5.664  1.00 20.00     0.394 C 
HETATM    8  F8  UNL     1     -33.964   4.111   5.818  1.00 20.00    -0.171 F 
HETATM    9  F9  UNL     1     -35.808   4.943   4.988  1.00 20.00    -0.171 F 
HETATM   10  F10 UNL     1     -35.044   5.666   6.897  1.00 20.00    -0.171 F 
ENDBRANCH   6   7
ENDBRANCH   1   6
TORSDOF 3
ENDMDL
MODEL 5
REMARK VINA RESULT:      -5.5      2.614      3.959
REMARK  3 active torsions:
REMARK  status: ('A' for Active; 'I' for Inactive)
REMARK    1  A    between atoms: C1_1  and  C4_4 
REMARK    2  A    between atoms: C1_1  and  C5_5 
REMARK    3  A    between atoms: C5_5  and  C6_6 
ROOT
HETATM    1  C1  UNL     1     -33.576   5.957   3.557  1.00 20.00     0.139 C 
HETATM    2  O7  UNL     1     -34.332   5.332   2.822  1.00 20.00    -0.297 OA
ENDROOT
BRANCH   1   3
HETATM    3  C4  UNL     1     -32.254   6.420   3.045  1.00 20.00     0.056 A 
HETATM    4  C2  UNL     1     -32.175   7.753   2.377  1.00 20.00     0.013 A 
HETATM    5  C3  UNL     1     -31.582   7.557   3.740  1.00 20.00     0.013 A 
ENDBRANCH   1   3
BRANCH   1   6
HETATM    6  C5  UNL     1     -33.875   6.314   4.995  1.00 20.00     0.196 C 
BRANCH   6   7
HETATM    7  C6  UNL     1     -34.688   5.257   5.704  1.00 20.00     0.394 C 
HETATM    8  F8  UNL     1     -35.790   4.923   4.999  1.00 20.00    -0.171 F 
HETATM    9  F9  UNL     1     -35.080   5.670   6.927  1.00 20.00    -0.171 F 
HETATM   10  F10 UNL     1     -33.954   4.133   5.869  1.00 20.00    -0.171 F 
ENDBRANCH   6   7
ENDBRANCH   1   6
TORSDOF 3
ENDMDL
MODEL 6
REMARK VINA RESULT:      -5.4      1.530      2.043
REMARK  3 active torsions:
REMARK  status: ('A' for Active; 'I' for Inactive)
REMARK    1  A    between atoms: C1_1  and  C4_4 
REMARK    2  A    between atoms: C1_1  and  C5_5 
REMARK    3  A    between atoms: C5_5  and  C6_6 
ROOT
HETATM    1  C1  UNL     1     -33.798   6.260   5.351  1.00 20.00     0.139 C 
HETATM    2  O7  UNL     1     -33.625   6.953   6.347  1.00 20.00    -0.297 OA
ENDROOT
BRANCH   1   3
HETATM    3  C4  UNL     1     -34.043   4.796   5.495  1.00 20.00     0.056 A 
HETATM    4  C2  UNL     1     -35.249   4.344   6.249  1.00 20.00     0.013 A 
HETATM    5  C3  UNL     1     -35.191   4.191   4.759  1.00 20.00     0.013 A 
ENDBRANCH   1   3
BRANCH   1   6
HETATM    6  C5  UNL     1     -33.785   6.778   3.930  1.00 20.00     0.196 C 
BRANCH   6   7
HETATM    7  C6  UNL     1     -32.395   6.844   3.345  1.00 20.00     0.394 C 
HETATM    8  F8  UNL     1     -31.877   5.612   3.155  1.00 20.00    -0.171 F 
HETATM    9  F9  UNL     1     -31.555   7.537   4.142  1.00 20.00    -0.171 F 
HETATM   10  F10 UNL     1     -32.420   7.464   2.143  1.00 20.00    -0.171 F 
ENDBRANCH   6   7
ENDBRANCH   1   6
TORSDOF 3
ENDMDL
MODEL 7
REMARK VINA RESULT:      -5.3      1.062      1.649
REMARK  3 active torsions:
REMARK  status: ('A' for Active; 'I' for Inactive)
REMARK    1  A    between atoms: C1_1  and  C4_4 
REMARK    2  A    between atoms: C1_1  and  C5_5 
REMARK    3  A    between atoms: C5_5  and  C6_6 
ROOT
HETATM    1  C1  UNL     1     -34.813   5.381   3.823  1.00 20.00     0.139 C 
HETATM    2  O7  UNL     1     -36.005   5.649   3.735  1.00 20.00    -0.297 OA
ENDROOT
BRANCH   1   3
HETATM    3  C4  UNL     1     -34.266   4.825   5.095  1.00 20.00     0.056 A 
HETATM    4  C2  UNL     1     -34.569   5.534   6.372  1.00 20.00     0.013 A 
HETATM    5  C3  UNL     1     -35.216   4.216   6.072  1.00 20.00     0.013 A 
ENDBRANCH   1   3
BRANCH   1   6
HETATM    6  C5  UNL     1     -33.804   5.570   2.713  1.00 20.00     0.196 C 
BRANCH   6   7
HETATM    7  C6  UNL     1     -32.670   6.488   3.104  1.00 20.00     0.394 C 
HETATM    8  F8  UNL     1     -32.979   7.222   4.194  1.00 20.00    -0.171 F 
HETATM    9  F9  UNL     1     -32.351   7.336   2.103  1.00 20.00    -0.171 F 
HETATM   10  F10 UNL     1     -31.563   5.770   3.398  1.00 20.00    -0.171 F 
ENDBRANCH   6   7
ENDBRANCH   1   6
TORSDOF 3
ENDMDL
MODEL 8
REMARK VINA RESULT:      -5.2      2.518      3.839
REMARK  3 active torsions:
REMARK  status: ('A' for Active; 'I' for Inactive)
REMARK    1  A    between atoms: C1_1  and  C4_4 
REMARK    2  A    between atoms: C1_1  and  C5_5 
REMARK    3  A    between atoms: C5_5  and  C6_6 
ROOT
HETATM    1  C1  UNL     1     -34.363   5.514   3.518  1.00 20.00     0.139 C 
HETATM    2  O7  UNL     1     -34.356   4.956   2.428  1.00 20.00    -0.297 OA
ENDROOT
BRANCH   1   3
HETATM    3  C4  UNL     1     -33.298   6.503   3.856  1.00 20.00     0.056 A 
HETATM    4  C2  UNL     1     -31.911   6.254   3.365  1.00 20.00     0.013 A 
HETATM    5  C3  UNL     1     -32.739   7.348   2.761  1.00 20.00     0.013 A 
ENDBRANCH   1   3
BRANCH   1   6
HETATM    6  C5  UNL     1     -35.396   5.281   4.598  1.00 20.00     0.196 C 
BRANCH   6   7
HETATM    7  C6  UNL     1     -34.793   4.763   5.882  1.00 20.00     0.394 C 
HETATM    8  F8  UNL     1     -34.344   5.770   6.661  1.00 20.00    -0.171 F 
HETATM    9  F9  UNL     1     -33.763   3.925   5.642  1.00 20.00    -0.171 F 
HETATM   10  F10 UNL     1     -35.717   4.079   6.593  1.00 20.00    -0.171 F 
ENDBRANCH   6   7
ENDBRANCH   1   6
TORSDOF 3
ENDMDL
MODEL 9
REMARK VINA RESULT:      -5.0      2.870      4.259
REMARK  3 active torsions:
REMARK  status: ('A' for Active; 'I' for Inactive)
REMARK    1  A    between atoms: C1_1  and  C4_4 
REMARK    2  A    between atoms: C1_1  and  C5_5 
REMARK    3  A    between atoms: C5_5  and  C6_6 
ROOT
HETATM    1  C1  UNL     1     -33.892   6.402   4.851  1.00 20.00     0.139 C 
HETATM    2  O7  UNL     1     -33.449   6.875   5.889  1.00 20.00    -0.297 OA
ENDROOT
BRANCH   1   3
HETATM    3  C4  UNL     1     -33.262   6.750   3.544  1.00 20.00     0.056 A 
HETATM    4  C2  UNL     1     -31.868   7.283   3.544  1.00 20.00     0.013 A 
HETATM    5  C3  UNL     1     -32.144   5.897   3.044  1.00 20.00     0.013 A 
ENDBRANCH   1   3
BRANCH   1   6
HETATM    6  C5  UNL     1     -35.071   5.458   4.769  1.00 20.00     0.196 C 
BRANCH   6   7
HETATM    7  C6  UNL     1     -34.874   4.205   5.588  1.00 20.00     0.394 C 
HETATM    8  F8  UNL     1     -35.707   4.169   6.649  1.00 20.00    -0.171 F 
HETATM    9  F9  UNL     1     -33.607   4.105   6.044  1.00 20.00    -0.171 F 
HETATM   10  F10 UNL     1     -35.123   3.108   4.837  1.00 20.00    -0.171 F 
ENDBRANCH   6   7
ENDBRANCH   1   6
TORSDOF 3
ENDMDL
