MODEL 1
REMARK VINA RESULT:      -4.7      0.000      0.000
REMARK  3 active torsions:
REMARK  status: ('A' for Active; 'I' for Inactive)
REMARK    1  A    between atoms: C3_3  and  C5_5 
REMARK    2  A    between atoms: C5_5  and  C6_6 
REMARK    3  A    between atoms: C6_6  and  C7_7 
ROOT
HETATM    1  C5  UNL     1     -34.014   6.776   3.504  1.00 20.00     0.006 C 
ENDROOT
BRANCH   1   2
HETATM    2  C3  UNL     1     -32.620   6.720   2.956  1.00 20.00    -0.014 A 
HETATM    3  C1  UNL     1     -32.040   7.906   2.238  1.00 20.00     0.005 A 
HETATM    4  C2  UNL     1     -31.523   7.525   3.596  1.00 20.00     0.005 A 
ENDBRANCH   1   2
BRANCH   1   5
HETATM    5  C6  UNL     1     -34.569   5.375   3.783  1.00 20.00     0.015 C 
BRANCH   5   6
HETATM    6  C7  UNL     1     -35.034   5.187   5.228  1.00 20.00     0.053 C 
HETATM    7  C4  UNL     1     -34.793   3.765   5.716  1.00 20.00     0.022 C 
HETATM    8 BR8  UNL     1     -34.058   6.404   6.416  1.00 20.00    -0.092 Br
ENDBRANCH   5   6
ENDBRANCH   1   5
TORSDOF 3
ENDMDL
MODEL 2
REMARK VINA RESULT:      -4.6      1.238      2.160
REMARK  3 active torsions:
REMARK  status: ('A' for Active; 'I' for Inactive)
REMARK    1  A    between atoms: C3_3  and  C5_5 
REMARK    2  A    between atoms: C5_5  and  C6_6 
REMARK    3  A    between atoms: C6_6  and  C7_7 
ROOT
HETATM    1  C5  UNL     1     -31.825   7.531   3.164  1.00 20.00     0.006 C 
ENDROOT
BRANCH   1   2
HETATM    2  C3  UNL     1     -32.498   8.147   1.975  1.00 20.00    -0.014 A 
HETATM    3  C1  UNL     1     -32.435   9.632   1.754  1.00 20.00     0.005 A 
HETATM    4  C2  UNL     1     -31.676   8.706   0.847  1.00 20.00     0.005 A 
ENDBRANCH   1   2
BRANCH   1   5
HETATM    5  C6  UNL     1     -32.504   6.222   3.583  1.00 20.00     0.015 C 
BRANCH   5   6
HETATM    6  C7  UNL     1     -33.934   6.419   4.091  1.00 20.00     0.053 C 
HETATM    7  C4  UNL     1     -34.877   5.360   3.538  1.00 20.00     0.022 C 
HETATM    8 BR8  UNL     1     -33.977   6.303   6.048  1.00 20.00    -0.092 Br
ENDBRANCH   5   6
ENDBRANCH   1   5
TORSDOF 3
ENDMDL
MODEL 3
REMARK VINA RESULT:      -4.4      2.221      4.248
REMARK  3 active torsions:
REMARK  status: ('A' for Active; 'I' for Inactive)
REMARK    1  A    between atoms: C3_3  and  C5_5 
REMARK    2  A    between atoms: C5_5  and  C6_6 
REMARK    3  A    between atoms: C6_6  and  C7_7 
ROOT
HETATM    1  C5  UNL     1     -34.273   5.833   3.685  1.00 20.00     0.006 C 
ENDROOT
BRANCH   1   2
HETATM    2  C3  UNL     1     -33.963   5.257   5.034  1.00 20.00    -0.014 A 
HETATM    3  C1  UNL     1     -34.331   6.010   6.282  1.00 20.00     0.005 A 
HETATM    4  C2  UNL     1     -35.073   4.756   5.915  1.00 20.00     0.005 A 
ENDBRANCH   1   2
BRANCH   1   5
HETATM    5  C6  UNL     1     -32.997   6.145   2.896  1.00 20.00     0.015 C 
BRANCH   5   6
HETATM    6  C7  UNL     1     -32.498   7.577   3.097  1.00 20.00     0.053 C 
HETATM    7  C4  UNL     1     -31.277   7.624   4.005  1.00 20.00     0.022 C 
HETATM    8 BR8  UNL     1     -31.995   8.366   1.373  1.00 20.00    -0.092 Br
ENDBRANCH   5   6
ENDBRANCH   1   5
TORSDOF 3
ENDMDL
MODEL 4
REMARK VINA RESULT:      -4.3      2.031      4.084
REMARK  3 active torsions:
REMARK  status: ('A' for Active; 'I' for Inactive)
REMARK    1  A    between atoms: C3_3  and  C5_5 
REMARK    2  A    between atoms: C5_5  and  C6_6 
REMARK    3  A    between atoms: C6_6  and  C7_7 
ROOT
HETATM    1  C5  UNL     1     -33.783   6.438   5.678  1.00 20.00     0.006 C 
ENDROOT
BRANCH   1   2
HETATM    2  C3  UNL     1     -34.844   5.406   5.915  1.00 20.00    -0.014 A 
HETATM    3  C1  UNL     1     -35.295   4.511   4.795  1.00 20.00     0.005 A 
HETATM    4  C2  UNL     1     -34.489   3.946   5.930  1.00 20.00     0.005 A 
ENDBRANCH   1   2
BRANCH   1   5
HETATM    5  C6  UNL     1     -33.763   6.903   4.217  1.00 20.00     0.015 C 
BRANCH   5   6
HETATM    6  C7  UNL     1     -32.387   6.772   3.561  1.00 20.00     0.053 C 
HETATM    7  C4  UNL     1     -32.219   5.424   2.874  1.00 20.00     0.022 C 
HETATM    8 BR8  UNL     1     -32.149   8.171   2.207  1.00 20.00    -0.092 Br
ENDBRANCH   5   6
ENDBRANCH   1   5
TORSDOF 3
ENDMDL
MODEL 5
REMARK VINA RESULT:      -3.8      1.561      4.291
REMARK  3 active torsions:
REMARK  status: ('A' for Active; 'I' for Inactive)
REMARK    1  A    between atoms: C3_3  and  C5_5 
REMARK    2  A    between atoms: C5_5  and  C6_6 
REMARK    3  A    between atoms: C6_6  and  C7_7 
ROOT
HETATM    1  C5  UNL     1     -33.560   6.231   4.542  1.00 20.00     0.006 C 
ENDROOT
BRANCH   1   2
HETATM    2  C3  UNL     1     -34.835   5.493   4.818  1.00 20.00    -0.014 A 
HETATM    3  C1  UNL     1     -34.827   3.997   4.970  1.00 20.00     0.005 A 
HETATM    4  C2  UNL     1     -35.073   4.873   6.166  1.00 20.00     0.005 A 
ENDBRANCH   1   2
BRANCH   1   5
HETATM    5  C6  UNL     1     -33.298   6.367   3.038  1.00 20.00     0.015 C 
BRANCH   5   6
HETATM    6  C7  UNL     1     -32.035   7.169   2.716  1.00 20.00     0.053 C 
HETATM    7  C4  UNL     1     -32.336   8.341   1.792  1.00 20.00     0.022 C 
HETATM    8 BR8  UNL     1     -31.252   7.887   4.364  1.00 20.00    -0.092 Br
ENDBRANCH   5   6
ENDBRANCH   1   5
TORSDOF 3
ENDMDL
MODEL 6
REMARK VINA RESULT:      -3.7     11.590     12.258
REMARK  3 active torsions:
REMARK  status: ('A' for Active; 'I' for Inactive)
REMARK    1  A    between atoms: C3_3  and  C5_5 
REMARK    2  A    between atoms: C5_5  and  C6_6 
REMARK    3  A    between atoms: C6_6  and  C7_7 
ROOT
HETATM    1  C5  UNL     1     -35.497  16.720  -2.185  1.00 20.00     0.006 C 
ENDROOT
BRANCH   1   2
HETATM    2  C3  UNL     1     -34.572  16.572  -1.014  1.00 20.00    -0.014 A 
HETATM    3  C1  UNL     1     -33.670  17.705  -0.613  1.00 20.00     0.005 A 
HETATM    4  C2  UNL     1     -34.836  17.330   0.257  1.00 20.00     0.005 A 
ENDBRANCH   1   2
BRANCH   1   5
HETATM    5  C6  UNL     1     -35.545  15.444  -3.032  1.00 20.00     0.015 C 
BRANCH   5   6
HETATM    6  C7  UNL     1     -34.159  14.903  -3.389  1.00 20.00     0.053 C 
HETATM    7  C4  UNL     1     -34.244  13.543  -4.069  1.00 20.00     0.022 C 
HETATM    8 BR8  UNL     1     -33.249  16.134  -4.616  1.00 20.00    -0.092 Br
ENDBRANCH   5   6
ENDBRANCH   1   5
TORSDOF 3
ENDMDL
MODEL 7
REMARK VINA RESULT:      -3.7     11.845     12.800
REMARK  3 active torsions:
REMARK  status: ('A' for Active; 'I' for Inactive)
REMARK    1  A    between atoms: C3_3  and  C5_5 
REMARK    2  A    between atoms: C5_5  and  C6_6 
REMARK    3  A    between atoms: C6_6  and  C7_7 
ROOT
HETATM    1  C5  UNL     1     -33.475  15.748  -2.989  1.00 20.00     0.006 C 
ENDROOT
BRANCH   1   2
HETATM    2  C3  UNL     1     -34.209  16.825  -2.248  1.00 20.00    -0.014 A 
HETATM    3  C1  UNL     1     -34.701  16.582  -0.849  1.00 20.00     0.005 A 
HETATM    4  C2  UNL     1     -33.557  17.525  -1.089  1.00 20.00     0.005 A 
ENDBRANCH   1   2
BRANCH   1   5
HETATM    5  C6  UNL     1     -33.523  15.970  -4.505  1.00 20.00     0.015 C 
BRANCH   5   6
HETATM    6  C7  UNL     1     -34.673  15.228  -5.188  1.00 20.00     0.053 C 
HETATM    7  C4  UNL     1     -34.397  15.007  -6.669  1.00 20.00     0.022 C 
HETATM    8 BR8  UNL     1     -34.932  13.472  -4.355  1.00 20.00    -0.092 Br
ENDBRANCH   5   6
ENDBRANCH   1   5
TORSDOF 3
ENDMDL
MODEL 8
REMARK VINA RESULT:      -3.6     11.837     12.429
REMARK  3 active torsions:
REMARK  status: ('A' for Active; 'I' for Inactive)
REMARK    1  A    between atoms: C3_3  and  C5_5 
REMARK    2  A    between atoms: C5_5  and  C6_6 
REMARK    3  A    between atoms: C6_6  and  C7_7 
ROOT
HETATM    1  C5  UNL     1     -34.570  15.587  -2.621  1.00 20.00     0.006 C 
ENDROOT
BRANCH   1   2
HETATM    2  C3  UNL     1     -34.039  16.642  -1.698  1.00 20.00    -0.014 A 
HETATM    3  C1  UNL     1     -34.810  17.913  -1.478  1.00 20.00     0.005 A 
HETATM    4  C2  UNL     1     -34.709  16.896  -0.376  1.00 20.00     0.005 A 
ENDBRANCH   1   2
BRANCH   1   5
HETATM    5  C6  UNL     1     -33.518  15.150  -3.646  1.00 20.00     0.015 C 
BRANCH   5   6
HETATM    6  C7  UNL     1     -34.058  14.164  -4.684  1.00 20.00     0.053 C 
HETATM    7  C4  UNL     1     -35.317  13.464  -4.191  1.00 20.00     0.022 C 
HETATM    8 BR8  UNL     1     -34.506  15.108  -6.344  1.00 20.00    -0.092 Br
ENDBRANCH   5   6
ENDBRANCH   1   5
TORSDOF 3
ENDMDL
MODEL 9
REMARK VINA RESULT:      -3.6      2.650      4.733
REMARK  3 active torsions:
REMARK  status: ('A' for Active; 'I' for Inactive)
REMARK    1  A    between atoms: C3_3  and  C5_5 
REMARK    2  A    between atoms: C5_5  and  C6_6 
REMARK    3  A    between atoms: C6_6  and  C7_7 
ROOT
HETATM    1  C5  UNL     1     -32.444   6.336   3.277  1.00 20.00     0.006 C 
ENDROOT
BRANCH   1   2
HETATM    2  C3  UNL     1     -33.822   6.470   3.851  1.00 20.00    -0.014 A 
HETATM    3  C1  UNL     1     -34.842   5.388   3.634  1.00 20.00     0.005 A 
HETATM    4  C2  UNL     1     -34.251   5.599   4.999  1.00 20.00     0.005 A 
ENDBRANCH   1   2
BRANCH   1   5
HETATM    5  C6  UNL     1     -31.824   7.703   2.969  1.00 20.00     0.015 C 
BRANCH   5   6
HETATM    6  C7  UNL     1     -32.573   8.474   1.881  1.00 20.00     0.053 C 
HETATM    7  C4  UNL     1     -32.744   9.942   2.249  1.00 20.00     0.022 C 
HETATM    8 BR8  UNL     1     -31.584   8.390   0.190  1.00 20.00    -0.092 Br
ENDBRANCH   5   6
ENDBRANCH   1   5
TORSDOF 3
ENDMDL
