MODEL 1
REMARK VINA RESULT:      -4.5      0.000      0.000
REMARK  1 active torsions:
REMARK  status: ('A' for Active; 'I' for Inactive)
REMARK    1  A    between atoms: C4_4  and  C9_9 
ROOT
HETATM    1  C1  UNL     1     -34.732  16.555  -0.788  1.00 20.00     0.006 C 
HETATM    2  C2  UNL     1     -34.563  17.675   0.242  1.00 20.00     0.016 C 
HETATM    3  C3  UNL     1     -33.676  18.366  -1.925  1.00 20.00     0.021 C 
HETATM    4  C4  UNL     1     -33.682  16.839  -1.858  1.00 20.00    -0.006 C 
HETATM    5  C5  UNL     1     -33.802  18.795  -0.468  1.00 20.00     0.058 C 
HETATM    6 BR10 UNL     1     -32.023  19.002   0.321  1.00 20.00    -0.091 Br
ENDROOT
BRANCH   4   7
HETATM    7  C9  UNL     1     -33.996  16.185  -3.193  1.00 20.00    -0.048 C 
HETATM    8  C6  UNL     1     -35.350  15.453  -3.116  1.00 20.00     0.015 C 
HETATM    9  C7  UNL     1     -32.898  15.167  -3.553  1.00 20.00     0.015 C 
HETATM   10  C8  UNL     1     -34.069  17.254  -4.300  1.00 20.00     0.015 C 
ENDBRANCH   4   7
TORSDOF 1
ENDMDL
MODEL 2
REMARK VINA RESULT:      -4.2      1.823      2.713
REMARK  1 active torsions:
REMARK  status: ('A' for Active; 'I' for Inactive)
REMARK    1  A    between atoms: C4_4  and  C9_9 
ROOT
HETATM    1  C1  UNL     1     -36.109  16.113  -3.346  1.00 20.00     0.006 C 
HETATM    2  C2  UNL     1     -36.227  17.344  -2.445  1.00 20.00     0.016 C 
HETATM    3  C3  UNL     1     -33.899  16.629  -2.613  1.00 20.00     0.021 C 
HETATM    4  C4  UNL     1     -34.805  15.439  -2.927  1.00 20.00    -0.006 C 
HETATM    5  C5  UNL     1     -34.822  17.612  -1.904  1.00 20.00     0.058 C 
HETATM    6 BR10 UNL     1     -34.774  17.296   0.027  1.00 20.00    -0.091 Br
ENDROOT
BRANCH   4   7
HETATM    7  C9  UNL     1     -34.236  14.522  -3.997  1.00 20.00    -0.048 C 
HETATM    8  C6  UNL     1     -34.051  15.299  -5.315  1.00 20.00     0.015 C 
HETATM    9  C7  UNL     1     -35.193  13.341  -4.244  1.00 20.00     0.015 C 
HETATM   10  C8  UNL     1     -32.869  13.972  -3.546  1.00 20.00     0.015 C 
ENDBRANCH   4   7
TORSDOF 1
ENDMDL
MODEL 3
REMARK VINA RESULT:      -4.2      1.838      2.404
REMARK  1 active torsions:
REMARK  status: ('A' for Active; 'I' for Inactive)
REMARK    1  A    between atoms: C4_4  and  C9_9 
ROOT
HETATM    1  C1  UNL     1     -36.135  16.136  -3.357  1.00 20.00     0.006 C 
HETATM    2  C2  UNL     1     -36.240  17.366  -2.454  1.00 20.00     0.016 C 
HETATM    3  C3  UNL     1     -33.921  16.619  -2.613  1.00 20.00     0.021 C 
HETATM    4  C4  UNL     1     -34.842  15.443  -2.934  1.00 20.00    -0.006 C 
HETATM    5  C5  UNL     1     -34.834  17.613  -1.906  1.00 20.00     0.058 C 
HETATM    6 BR10 UNL     1     -34.799  17.292   0.024  1.00 20.00    -0.091 Br
ENDROOT
BRANCH   4   7
HETATM    7  C9  UNL     1     -34.281  14.520  -4.004  1.00 20.00    -0.048 C 
HETATM    8  C6  UNL     1     -35.247  13.344  -4.246  1.00 20.00     0.015 C 
HETATM    9  C7  UNL     1     -32.918  13.961  -3.556  1.00 20.00     0.015 C 
HETATM   10  C8  UNL     1     -34.095  15.294  -5.323  1.00 20.00     0.015 C 
ENDBRANCH   4   7
TORSDOF 1
ENDMDL
MODEL 4
REMARK VINA RESULT:      -4.2      1.838      2.741
REMARK  1 active torsions:
REMARK  status: ('A' for Active; 'I' for Inactive)
REMARK    1  A    between atoms: C4_4  and  C9_9 
ROOT
HETATM    1  C1  UNL     1     -36.148  16.129  -3.343  1.00 20.00     0.006 C 
HETATM    2  C2  UNL     1     -36.255  17.358  -2.438  1.00 20.00     0.016 C 
HETATM    3  C3  UNL     1     -33.932  16.628  -2.615  1.00 20.00     0.021 C 
HETATM    4  C4  UNL     1     -34.847  15.445  -2.931  1.00 20.00    -0.006 C 
HETATM    5  C5  UNL     1     -34.847  17.615  -1.900  1.00 20.00     0.058 C 
HETATM    6 BR10 UNL     1     -34.796  17.292   0.030  1.00 20.00    -0.091 Br
ENDROOT
BRANCH   4   7
HETATM    7  C9  UNL     1     -34.286  14.528  -4.005  1.00 20.00    -0.048 C 
HETATM    8  C6  UNL     1     -32.919  13.971  -3.562  1.00 20.00     0.015 C 
HETATM    9  C7  UNL     1     -34.105  15.306  -5.322  1.00 20.00     0.015 C 
HETATM   10  C8  UNL     1     -35.249  13.350  -4.248  1.00 20.00     0.015 C 
ENDBRANCH   4   7
TORSDOF 1
ENDMDL
MODEL 5
REMARK VINA RESULT:      -4.1      2.369      4.184
REMARK  1 active torsions:
REMARK  status: ('A' for Active; 'I' for Inactive)
REMARK    1  A    between atoms: C4_4  and  C9_9 
ROOT
HETATM    1  C1  UNL     1     -33.684  17.625  -3.524  1.00 20.00     0.006 C 
HETATM    2  C2  UNL     1     -33.966  16.536  -4.561  1.00 20.00     0.016 C 
HETATM    3  C3  UNL     1     -34.945  15.937  -2.407  1.00 20.00     0.021 C 
HETATM    4  C4  UNL     1     -33.803  16.925  -2.173  1.00 20.00    -0.006 C 
HETATM    5  C5  UNL     1     -34.692  15.416  -3.816  1.00 20.00     0.058 C 
HETATM    6 BR10 UNL     1     -33.564  13.818  -3.743  1.00 20.00    -0.091 Br
ENDROOT
BRANCH   4   7
HETATM    7  C9  UNL     1     -34.070  17.884  -1.024  1.00 20.00    -0.048 C 
HETATM    8  C6  UNL     1     -34.914  19.076  -1.517  1.00 20.00     0.015 C 
HETATM    9  C7  UNL     1     -32.740  18.414  -0.459  1.00 20.00     0.015 C 
HETATM   10  C8  UNL     1     -34.837  17.160   0.099  1.00 20.00     0.015 C 
ENDBRANCH   4   7
TORSDOF 1
ENDMDL
MODEL 6
REMARK VINA RESULT:      -4.1      2.391      4.192
REMARK  1 active torsions:
REMARK  status: ('A' for Active; 'I' for Inactive)
REMARK    1  A    between atoms: C4_4  and  C9_9 
ROOT
HETATM    1  C1  UNL     1     -33.665  17.592  -3.577  1.00 20.00     0.006 C 
HETATM    2  C2  UNL     1     -33.941  16.514  -4.628  1.00 20.00     0.016 C 
HETATM    3  C3  UNL     1     -34.999  15.930  -2.507  1.00 20.00     0.021 C 
HETATM    4  C4  UNL     1     -33.841  16.890  -2.234  1.00 20.00    -0.006 C 
HETATM    5  C5  UNL     1     -34.716  15.409  -3.911  1.00 20.00     0.058 C 
HETATM    6 BR10 UNL     1     -33.629  13.784  -3.810  1.00 20.00    -0.091 Br
ENDROOT
BRANCH   4   7
HETATM    7  C9  UNL     1     -34.120  17.850  -1.089  1.00 20.00    -0.048 C 
HETATM    8  C6  UNL     1     -32.794  18.394  -0.522  1.00 20.00     0.015 C 
HETATM    9  C7  UNL     1     -34.883  17.125   0.035  1.00 20.00     0.015 C 
HETATM   10  C8  UNL     1     -34.971  19.033  -1.589  1.00 20.00     0.015 C 
ENDBRANCH   4   7
TORSDOF 1
ENDMDL
MODEL 7
REMARK VINA RESULT:      -4.0      2.036      3.121
REMARK  1 active torsions:
REMARK  status: ('A' for Active; 'I' for Inactive)
REMARK    1  A    between atoms: C4_4  and  C9_9 
ROOT
HETATM    1  C1  UNL     1     -34.550  17.178  -4.383  1.00 20.00     0.006 C 
HETATM    2  C2  UNL     1     -33.851  17.813  -3.178  1.00 20.00     0.016 C 
HETATM    3  C3  UNL     1     -34.095  15.406  -2.852  1.00 20.00     0.021 C 
HETATM    4  C4  UNL     1     -35.149  15.878  -3.853  1.00 20.00    -0.006 C 
HETATM    5  C5  UNL     1     -33.648  16.690  -2.162  1.00 20.00     0.058 C 
HETATM    6 BR10 UNL     1     -34.749  17.011  -0.576  1.00 20.00    -0.091 Br
ENDROOT
BRANCH   4   7
HETATM    7  C9  UNL     1     -35.432  14.861  -4.945  1.00 20.00    -0.048 C 
HETATM    8  C6  UNL     1     -35.303  13.432  -4.382  1.00 20.00     0.015 C 
HETATM    9  C7  UNL     1     -34.430  15.034  -6.101  1.00 20.00     0.015 C 
HETATM   10  C8  UNL     1     -36.861  15.055  -5.489  1.00 20.00     0.015 C 
ENDBRANCH   4   7
TORSDOF 1
ENDMDL
MODEL 8
REMARK VINA RESULT:      -4.0      2.007      3.336
REMARK  1 active torsions:
REMARK  status: ('A' for Active; 'I' for Inactive)
REMARK    1  A    between atoms: C4_4  and  C9_9 
ROOT
HETATM    1  C1  UNL     1     -34.588  17.246  -4.332  1.00 20.00     0.006 C 
HETATM    2  C2  UNL     1     -33.896  17.884  -3.125  1.00 20.00     0.016 C 
HETATM    3  C3  UNL     1     -34.070  15.467  -2.831  1.00 20.00     0.021 C 
HETATM    4  C4  UNL     1     -35.146  15.924  -3.816  1.00 20.00    -0.006 C 
HETATM    5  C5  UNL     1     -33.653  16.752  -2.127  1.00 20.00     0.058 C 
HETATM    6 BR10 UNL     1     -34.748  17.020  -0.527  1.00 20.00    -0.091 Br
ENDROOT
BRANCH   4   7
HETATM    7  C9  UNL     1     -35.411  14.914  -4.920  1.00 20.00    -0.048 C 
HETATM    8  C6  UNL     1     -34.396  15.105  -6.064  1.00 20.00     0.015 C 
HETATM    9  C7  UNL     1     -36.834  15.103  -5.479  1.00 20.00     0.015 C 
HETATM   10  C8  UNL     1     -35.277  13.482  -4.368  1.00 20.00     0.015 C 
ENDBRANCH   4   7
TORSDOF 1
ENDMDL
MODEL 9
REMARK VINA RESULT:      -3.9      3.737      5.458
REMARK  1 active torsions:
REMARK  status: ('A' for Active; 'I' for Inactive)
REMARK    1  A    between atoms: C4_4  and  C9_9 
ROOT
HETATM    1  C1  UNL     1     -35.113  14.185  -6.199  1.00 20.00     0.006 C 
HETATM    2  C2  UNL     1     -35.160  14.807  -7.596  1.00 20.00     0.016 C 
HETATM    3  C3  UNL     1     -34.021  16.300  -6.036  1.00 20.00     0.021 C 
HETATM    4  C4  UNL     1     -34.937  15.365  -5.247  1.00 20.00    -0.006 C 
HETATM    5  C5  UNL     1     -34.544  16.199  -7.464  1.00 20.00     0.058 C 
HETATM    6 BR10 UNL     1     -35.907  17.569  -7.772  1.00 20.00    -0.091 Br
ENDROOT
BRANCH   4   7
HETATM    7  C9  UNL     1     -34.361  14.965  -3.898  1.00 20.00    -0.048 C 
HETATM    8  C6  UNL     1     -35.174  15.618  -2.763  1.00 20.00     0.015 C 
HETATM    9  C7  UNL     1     -32.896  15.427  -3.792  1.00 20.00     0.015 C 
HETATM   10  C8  UNL     1     -34.416  13.434  -3.735  1.00 20.00     0.015 C 
ENDBRANCH   4   7
TORSDOF 1
ENDMDL
