MODEL 1
REMARK VINA RESULT:      -5.0      0.000      0.000
REMARK  6 active torsions:
REMARK  status: ('A' for Active; 'I' for Inactive)
REMARK    1  A    between atoms: C3_3  and  C6_6 
REMARK    2  A    between atoms: C4_4  and  C5_5 
REMARK    3  A    between atoms: C4_4  and  C7_7 
REMARK    4  A    between atoms: C5_5  and  C8_8 
REMARK    5  A    between atoms: C6_6  and  C9_9 
REMARK    6  A    between atoms: C7_7  and  C9_9 
ROOT
HETATM    1  C7  UNL     1     -33.415   5.919   2.747  1.00 20.00     0.004 C 
ENDROOT
BRANCH   1   2
HETATM    2  C4  UNL     1     -32.030   6.321   3.262  1.00 20.00     0.001 C 
BRANCH   2   3
HETATM    3  C5  UNL     1     -31.781   7.819   3.071  1.00 20.00     0.015 C 
BRANCH   3   4
HETATM    4  C8  UNL     1     -32.004   8.232   1.622  1.00 20.00     0.114 C 
HETATM    5 CL10 UNL     1     -32.486   9.941   1.532  1.00 20.00    -0.130 Cl
ENDBRANCH   3   4
ENDBRANCH   2   3
ENDBRANCH   1   2
BRANCH   1   6
HETATM    6  C9  UNL     1     -34.406   5.545   3.867  1.00 20.00    -0.019 C 
HETATM    7  C2  UNL     1     -35.839   5.836   3.406  1.00 20.00     0.010 C 
BRANCH   6   8
HETATM    8  C6  UNL     1     -34.109   6.207   5.229  1.00 20.00     0.004 C 
BRANCH   8   9
HETATM    9  C3  UNL     1     -34.592   5.426   6.453  1.00 20.00    -0.004 C 
HETATM   10  C1  UNL     1     -34.827   3.961   6.116  1.00 20.00     0.005 C 
ENDBRANCH   8   9
ENDBRANCH   6   8
ENDBRANCH   1   6
TORSDOF 6
ENDMDL
MODEL 2
REMARK VINA RESULT:      -4.7      2.219      5.211
REMARK  6 active torsions:
REMARK  status: ('A' for Active; 'I' for Inactive)
REMARK    1  A    between atoms: C3_3  and  C6_6 
REMARK    2  A    between atoms: C4_4  and  C5_5 
REMARK    3  A    between atoms: C4_4  and  C7_7 
REMARK    4  A    between atoms: C5_5  and  C8_8 
REMARK    5  A    between atoms: C6_6  and  C9_9 
REMARK    6  A    between atoms: C7_7  and  C9_9 
ROOT
HETATM    1  C7  UNL     1     -32.841   6.047   3.142  1.00 20.00     0.004 C 
ENDROOT
BRANCH   1   2
HETATM    2  C4  UNL     1     -34.109   6.423   3.913  1.00 20.00     0.001 C 
BRANCH   2   3
HETATM    3  C5  UNL     1     -34.795   5.184   4.492  1.00 20.00     0.015 C 
BRANCH   3   4
HETATM    4  C8  UNL     1     -34.724   5.179   6.014  1.00 20.00     0.114 C 
HETATM    5 CL10 UNL     1     -33.976   6.680   6.605  1.00 20.00    -0.130 Cl
ENDBRANCH   3   4
ENDBRANCH   2   3
ENDBRANCH   1   2
BRANCH   1   6
HETATM    6  C9  UNL     1     -31.868   7.224   2.938  1.00 20.00    -0.019 C 
HETATM    7  C2  UNL     1     -31.321   7.682   4.295  1.00 20.00     0.010 C 
BRANCH   6   8
HETATM    8  C6  UNL     1     -32.457   8.407   2.142  1.00 20.00     0.004 C 
BRANCH   8   9
HETATM    9  C3  UNL     1     -31.735   8.737   0.833  1.00 20.00    -0.004 C 
HETATM   10  C1  UNL     1     -32.725   9.038  -0.282  1.00 20.00     0.005 C 
ENDBRANCH   8   9
ENDBRANCH   6   8
ENDBRANCH   1   6
TORSDOF 6
ENDMDL
MODEL 3
REMARK VINA RESULT:      -4.5      1.028      1.646
REMARK  6 active torsions:
REMARK  status: ('A' for Active; 'I' for Inactive)
REMARK    1  A    between atoms: C3_3  and  C6_6 
REMARK    2  A    between atoms: C4_4  and  C5_5 
REMARK    3  A    between atoms: C4_4  and  C7_7 
REMARK    4  A    between atoms: C5_5  and  C8_8 
REMARK    5  A    between atoms: C6_6  and  C9_9 
REMARK    6  A    between atoms: C7_7  and  C9_9 
ROOT
HETATM    1  C7  UNL     1     -32.718   6.048   3.352  1.00 20.00     0.004 C 
ENDROOT
BRANCH   1   2
HETATM    2  C4  UNL     1     -31.743   7.210   3.147  1.00 20.00     0.001 C 
BRANCH   2   3
HETATM    3  C5  UNL     1     -32.399   8.357   2.376  1.00 20.00     0.015 C 
BRANCH   3   4
HETATM    4  C8  UNL     1     -31.660   8.635   1.073  1.00 20.00     0.114 C 
HETATM    5 CL10 UNL     1     -32.809   9.087  -0.207  1.00 20.00    -0.130 Cl
ENDBRANCH   3   4
ENDBRANCH   2   3
ENDBRANCH   1   2
BRANCH   1   6
HETATM    6  C9  UNL     1     -33.994   6.440   4.124  1.00 20.00    -0.019 C 
HETATM    7  C2  UNL     1     -33.646   6.709   5.592  1.00 20.00     0.010 C 
BRANCH   6   8
HETATM    8  C6  UNL     1     -35.151   5.427   3.997  1.00 20.00     0.004 C 
BRANCH   8   9
HETATM    9  C3  UNL     1     -34.929   4.090   4.708  1.00 20.00    -0.004 C 
HETATM   10  C1  UNL     1     -35.212   4.204   6.199  1.00 20.00     0.005 C 
ENDBRANCH   8   9
ENDBRANCH   6   8
ENDBRANCH   1   6
TORSDOF 6
ENDMDL
MODEL 4
REMARK VINA RESULT:      -4.5      2.195      5.014
REMARK  6 active torsions:
REMARK  status: ('A' for Active; 'I' for Inactive)
REMARK    1  A    between atoms: C3_3  and  C6_6 
REMARK    2  A    between atoms: C4_4  and  C5_5 
REMARK    3  A    between atoms: C4_4  and  C7_7 
REMARK    4  A    between atoms: C5_5  and  C8_8 
REMARK    5  A    between atoms: C6_6  and  C9_9 
REMARK    6  A    between atoms: C7_7  and  C9_9 
ROOT
HETATM    1  C7  UNL     1     -34.149   6.530   3.555  1.00 20.00     0.004 C 
ENDROOT
BRANCH   1   2
HETATM    2  C4  UNL     1     -34.742   5.129   3.730  1.00 20.00     0.001 C 
BRANCH   2   3
HETATM    3  C5  UNL     1     -35.324   4.944   5.133  1.00 20.00     0.015 C 
BRANCH   3   4
HETATM    4  C8  UNL     1     -34.236   5.032   6.195  1.00 20.00     0.114 C 
HETATM    5 CL10 UNL     1     -33.983   6.723   6.685  1.00 20.00    -0.130 Cl
ENDBRANCH   3   4
ENDBRANCH   2   3
ENDBRANCH   1   2
BRANCH   1   6
HETATM    6  C9  UNL     1     -32.844   6.551   2.734  1.00 20.00    -0.019 C 
HETATM    7  C2  UNL     1     -31.934   5.402   3.182  1.00 20.00     0.010 C 
BRANCH   6   8
HETATM    8  C6  UNL     1     -32.098   7.901   2.760  1.00 20.00     0.004 C 
BRANCH   8   9
HETATM    9  C3  UNL     1     -31.822   8.520   1.387  1.00 20.00    -0.004 C 
HETATM   10  C1  UNL     1     -32.463   9.894   1.262  1.00 20.00     0.005 C 
ENDBRANCH   8   9
ENDBRANCH   6   8
ENDBRANCH   1   6
TORSDOF 6
ENDMDL
MODEL 5
REMARK VINA RESULT:      -4.2     10.879     11.955
REMARK  6 active torsions:
REMARK  status: ('A' for Active; 'I' for Inactive)
REMARK    1  A    between atoms: C3_3  and  C6_6 
REMARK    2  A    between atoms: C4_4  and  C5_5 
REMARK    3  A    between atoms: C4_4  and  C7_7 
REMARK    4  A    between atoms: C5_5  and  C8_8 
REMARK    5  A    between atoms: C6_6  and  C9_9 
REMARK    6  A    between atoms: C7_7  and  C9_9 
ROOT
HETATM    1  C7  UNL     1     -32.688  15.238  -3.685  1.00 20.00     0.004 C 
ENDROOT
BRANCH   1   2
HETATM    2  C4  UNL     1     -33.211  13.803  -3.568  1.00 20.00     0.001 C 
BRANCH   2   3
HETATM    3  C5  UNL     1     -34.707  13.731  -3.884  1.00 20.00     0.015 C 
BRANCH   3   4
HETATM    4  C8  UNL     1     -34.943  13.287  -5.322  1.00 20.00     0.114 C 
HETATM    5 CL10 UNL     1     -35.344  14.685  -6.345  1.00 20.00    -0.130 Cl
ENDBRANCH   3   4
ENDBRANCH   2   3
ENDBRANCH   1   2
BRANCH   1   6
HETATM    6  C9  UNL     1     -33.751  16.311  -3.378  1.00 20.00    -0.019 C 
HETATM    7  C2  UNL     1     -33.720  17.392  -4.464  1.00 20.00     0.010 C 
BRANCH   6   8
HETATM    8  C6  UNL     1     -33.646  16.927  -1.968  1.00 20.00     0.004 C 
BRANCH   8   9
HETATM    9  C3  UNL     1     -34.723  16.477  -0.978  1.00 20.00    -0.004 C 
HETATM   10  C1  UNL     1     -34.814  17.427   0.208  1.00 20.00     0.005 C 
ENDBRANCH   8   9
ENDBRANCH   6   8
ENDBRANCH   1   6
TORSDOF 6
ENDMDL
MODEL 6
REMARK VINA RESULT:      -4.1     10.762     12.069
REMARK  6 active torsions:
REMARK  status: ('A' for Active; 'I' for Inactive)
REMARK    1  A    between atoms: C3_3  and  C6_6 
REMARK    2  A    between atoms: C4_4  and  C5_5 
REMARK    3  A    between atoms: C4_4  and  C7_7 
REMARK    4  A    between atoms: C5_5  and  C8_8 
REMARK    5  A    between atoms: C6_6  and  C9_9 
REMARK    6  A    between atoms: C7_7  and  C9_9 
ROOT
HETATM    1  C7  UNL     1     -34.861  16.093  -2.218  1.00 20.00     0.004 C 
ENDROOT
BRANCH   1   2
HETATM    2  C4  UNL     1     -34.564  16.644  -0.821  1.00 20.00     0.001 C 
BRANCH   2   3
HETATM    3  C5  UNL     1     -33.536  17.776  -0.878  1.00 20.00     0.015 C 
BRANCH   3   4
HETATM    4  C8  UNL     1     -33.423  18.484   0.466  1.00 20.00     0.114 C 
HETATM    5 CL10 UNL     1     -31.733  18.933   0.790  1.00 20.00    -0.130 Cl
ENDBRANCH   3   4
ENDBRANCH   2   3
ENDBRANCH   1   2
BRANCH   1   6
HETATM    6  C9  UNL     1     -33.673  16.204  -3.193  1.00 20.00    -0.019 C 
HETATM    7  C2  UNL     1     -34.065  17.085  -4.385  1.00 20.00     0.010 C 
BRANCH   6   8
HETATM    8  C6  UNL     1     -33.103  14.848  -3.660  1.00 20.00     0.004 C 
BRANCH   8   9
HETATM    9  C3  UNL     1     -34.076  13.669  -3.582  1.00 20.00    -0.004 C 
HETATM   10  C1  UNL     1     -34.667  13.351  -4.947  1.00 20.00     0.005 C 
ENDBRANCH   8   9
ENDBRANCH   6   8
ENDBRANCH   1   6
TORSDOF 6
ENDMDL
MODEL 7
REMARK VINA RESULT:      -4.1     11.025     12.542
REMARK  6 active torsions:
REMARK  status: ('A' for Active; 'I' for Inactive)
REMARK    1  A    between atoms: C3_3  and  C6_6 
REMARK    2  A    between atoms: C4_4  and  C5_5 
REMARK    3  A    between atoms: C4_4  and  C7_7 
REMARK    4  A    between atoms: C5_5  and  C8_8 
REMARK    5  A    between atoms: C6_6  and  C9_9 
REMARK    6  A    between atoms: C7_7  and  C9_9 
ROOT
HETATM    1  C7  UNL     1     -33.110  16.179  -4.675  1.00 20.00     0.004 C 
ENDROOT
BRANCH   1   2
HETATM    2  C4  UNL     1     -34.307  16.385  -5.608  1.00 20.00     0.001 C 
BRANCH   2   3
HETATM    3  C5  UNL     1     -34.189  15.515  -6.861  1.00 20.00     0.015 C 
BRANCH   3   4
HETATM    4  C8  UNL     1     -35.368  14.557  -6.977  1.00 20.00     0.114 C 
HETATM    5 CL10 UNL     1     -36.598  14.936  -5.749  1.00 20.00    -0.130 Cl
ENDBRANCH   3   4
ENDBRANCH   2   3
ENDBRANCH   1   2
BRANCH   1   6
HETATM    6  C9  UNL     1     -33.451  15.384  -3.398  1.00 20.00    -0.019 C 
HETATM    7  C2  UNL     1     -33.408  13.882  -3.699  1.00 20.00     0.010 C 
BRANCH   6   8
HETATM    8  C6  UNL     1     -34.784  15.787  -2.734  1.00 20.00     0.004 C 
BRANCH   8   9
HETATM    9  C3  UNL     1     -34.664  16.325  -1.306  1.00 20.00    -0.004 C 
HETATM   10  C1  UNL     1     -33.651  17.458  -1.227  1.00 20.00     0.005 C 
ENDBRANCH   8   9
ENDBRANCH   6   8
ENDBRANCH   1   6
TORSDOF 6
ENDMDL
MODEL 8
REMARK VINA RESULT:      -4.1     11.293     12.315
REMARK  6 active torsions:
REMARK  status: ('A' for Active; 'I' for Inactive)
REMARK    1  A    between atoms: C3_3  and  C6_6 
REMARK    2  A    between atoms: C4_4  and  C5_5 
REMARK    3  A    between atoms: C4_4  and  C7_7 
REMARK    4  A    between atoms: C5_5  and  C8_8 
REMARK    5  A    between atoms: C6_6  and  C9_9 
REMARK    6  A    between atoms: C7_7  and  C9_9 
ROOT
HETATM    1  C7  UNL     1     -34.525  13.611  -5.211  1.00 20.00     0.004 C 
ENDROOT
BRANCH   1   2
HETATM    2  C4  UNL     1     -35.205  14.283  -6.407  1.00 20.00     0.001 C 
BRANCH   2   3
HETATM    3  C5  UNL     1     -34.320  15.378  -7.006  1.00 20.00     0.015 C 
BRANCH   3   4
HETATM    4  C8  UNL     1     -34.720  16.752  -6.485  1.00 20.00     0.114 C 
HETATM    5 CL10 UNL     1     -33.436  17.420  -5.450  1.00 20.00    -0.130 Cl
ENDBRANCH   3   4
ENDBRANCH   2   3
ENDBRANCH   1   2
BRANCH   1   6
HETATM    6  C9  UNL     1     -35.170  13.962  -3.856  1.00 20.00    -0.019 C 
HETATM    7  C2  UNL     1     -36.599  14.470  -4.081  1.00 20.00     0.010 C 
BRANCH   6   8
HETATM    8  C6  UNL     1     -34.351  14.949  -2.997  1.00 20.00     0.004 C 
BRANCH   8   9
HETATM    9  C3  UNL     1     -35.153  16.100  -2.384  1.00 20.00    -0.004 C 
HETATM   10  C1  UNL     1     -34.535  16.567  -1.074  1.00 20.00     0.005 C 
ENDBRANCH   8   9
ENDBRANCH   6   8
ENDBRANCH   1   6
TORSDOF 6
ENDMDL
MODEL 9
REMARK VINA RESULT:      -4.0     11.051     12.333
REMARK  6 active torsions:
REMARK  status: ('A' for Active; 'I' for Inactive)
REMARK    1  A    between atoms: C3_3  and  C6_6 
REMARK    2  A    between atoms: C4_4  and  C5_5 
REMARK    3  A    between atoms: C4_4  and  C7_7 
REMARK    4  A    between atoms: C5_5  and  C8_8 
REMARK    5  A    between atoms: C6_6  and  C9_9 
REMARK    6  A    between atoms: C7_7  and  C9_9 
ROOT
HETATM    1  C7  UNL     1     -35.774  16.704  -4.044  1.00 20.00     0.004 C 
ENDROOT
BRANCH   1   2
HETATM    2  C4  UNL     1     -35.760  15.505  -4.997  1.00 20.00     0.001 C 
BRANCH   2   3
HETATM    3  C5  UNL     1     -35.827  14.184  -4.228  1.00 20.00     0.015 C 
BRANCH   3   4
HETATM    4  C8  UNL     1     -34.719  13.236  -4.669  1.00 20.00     0.114 C 
HETATM    5 CL10 UNL     1     -33.226  13.560  -3.759  1.00 20.00    -0.130 Cl
ENDBRANCH   3   4
ENDBRANCH   2   3
ENDBRANCH   1   2
BRANCH   1   6
HETATM    6  C9  UNL     1     -34.376  17.294  -3.772  1.00 20.00    -0.019 C 
HETATM    7  C2  UNL     1     -33.458  17.016  -4.967  1.00 20.00     0.010 C 
BRANCH   6   8
HETATM    8  C6  UNL     1     -33.734  16.827  -2.449  1.00 20.00     0.004 C 
BRANCH   8   9
HETATM    9  C3  UNL     1     -34.714  16.291  -1.402  1.00 20.00    -0.004 C 
HETATM   10  C1  UNL     1     -34.734  17.174  -0.163  1.00 20.00     0.005 C 
ENDBRANCH   8   9
ENDBRANCH   6   8
ENDBRANCH   1   6
TORSDOF 6
ENDMDL
