MODEL 1
REMARK VINA RESULT:      -5.4      0.000      0.000
REMARK  1 active torsions:
REMARK  status: ('A' for Active; 'I' for Inactive)
REMARK    1  A    between atoms: C9_9  and  C10_10 
ROOT
HETATM    1  C1  UNL     1     -32.467   8.960   1.963  1.00 20.00     0.012 C 
HETATM    2  C2  UNL     1     -32.155   7.906   2.445  1.00 20.00    -0.117 C 
HETATM    3  C10 UNL     1     -31.758   6.622   3.023  1.00 20.00     0.098 C 
ENDROOT
BRANCH   3   4
HETATM    4  C9  UNL     1     -32.863   6.071   3.933  1.00 20.00     0.004 C 
HETATM    5  C5  UNL     1     -34.217   6.142   3.217  1.00 20.00     0.083 C 
HETATM    6  C3  UNL     1     -35.353   5.414   3.919  1.00 20.00     0.127 C 
HETATM    7  C4  UNL     1     -35.030   4.508   5.086  1.00 20.00     0.078 C 
HETATM    8  O11 UNL     1     -36.514   5.544   3.525  1.00 20.00    -0.298 OA
HETATM    9  C6  UNL     1     -34.608   5.257   6.347  1.00 20.00     0.007 C 
HETATM   10  C7  UNL     1     -34.091   6.680   6.151  1.00 20.00     0.001 C 
HETATM   11  C8  UNL     1     -32.844   6.818   5.278  1.00 20.00     0.006 C 
ENDBRANCH   3   4
TORSDOF 1
ENDMDL
MODEL 2
REMARK VINA RESULT:      -5.2     11.218     12.540
REMARK  1 active torsions:
REMARK  status: ('A' for Active; 'I' for Inactive)
REMARK    1  A    between atoms: C9_9  and  C10_10 
ROOT
HETATM    1  C1  UNL     1     -34.918  17.055  -0.172  1.00 20.00     0.012 C 
HETATM    2  C2  UNL     1     -34.234  16.892  -1.146  1.00 20.00    -0.117 C 
HETATM    3  C10 UNL     1     -33.385  16.702  -2.322  1.00 20.00     0.098 C 
ENDROOT
BRANCH   3   4
HETATM    4  C9  UNL     1     -34.184  16.078  -3.473  1.00 20.00     0.004 C 
HETATM    5  C5  UNL     1     -34.170  14.550  -3.353  1.00 20.00     0.083 C 
HETATM    6  C3  UNL     1     -35.118  13.823  -4.295  1.00 20.00     0.127 C 
HETATM    7  C4  UNL     1     -36.136  14.628  -5.071  1.00 20.00     0.078 C 
HETATM    8  O11 UNL     1     -35.069  12.596  -4.403  1.00 20.00    -0.298 OA
HETATM    9  C6  UNL     1     -35.530  15.475  -6.186  1.00 20.00     0.007 C 
HETATM   10  C7  UNL     1     -34.042  15.799  -6.061  1.00 20.00     0.001 C 
HETATM   11  C8  UNL     1     -33.638  16.590  -4.817  1.00 20.00     0.006 C 
ENDBRANCH   3   4
TORSDOF 1
ENDMDL
MODEL 3
REMARK VINA RESULT:      -5.2     10.953     12.049
REMARK  1 active torsions:
REMARK  status: ('A' for Active; 'I' for Inactive)
REMARK    1  A    between atoms: C9_9  and  C10_10 
ROOT
HETATM    1  C1  UNL     1     -34.749  17.028  -0.060  1.00 20.00     0.012 C 
HETATM    2  C2  UNL     1     -34.421  17.161  -1.208  1.00 20.00    -0.117 C 
HETATM    3  C10 UNL     1     -34.015  17.341  -2.602  1.00 20.00     0.098 C 
ENDROOT
BRANCH   3   4
HETATM    4  C9  UNL     1     -34.456  16.144  -3.454  1.00 20.00     0.004 C 
HETATM    5  C5  UNL     1     -35.885  15.732  -3.081  1.00 20.00     0.083 C 
HETATM    6  C3  UNL     1     -36.523  14.712  -4.011  1.00 20.00     0.127 C 
HETATM    7  C4  UNL     1     -35.831  14.379  -5.314  1.00 20.00     0.078 C 
HETATM    8  O11 UNL     1     -37.598  14.187  -3.717  1.00 20.00    -0.298 OA
HETATM    9  C6  UNL     1     -34.556  13.560  -5.140  1.00 20.00     0.007 C 
HETATM   10  C7  UNL     1     -33.892  13.618  -3.766  1.00 20.00     0.001 C 
HETATM   11  C8  UNL     1     -33.434  15.003  -3.309  1.00 20.00     0.006 C 
ENDBRANCH   3   4
TORSDOF 1
ENDMDL
MODEL 4
REMARK VINA RESULT:      -4.9     11.621     12.673
REMARK  1 active torsions:
REMARK  status: ('A' for Active; 'I' for Inactive)
REMARK    1  A    between atoms: C9_9  and  C10_10 
ROOT
HETATM    1  C1  UNL     1     -34.612  16.884  -0.704  1.00 20.00     0.012 C 
HETATM    2  C2  UNL     1     -34.197  16.422  -1.731  1.00 20.00    -0.117 C 
HETATM    3  C10 UNL     1     -33.674  15.859  -2.976  1.00 20.00     0.098 C 
ENDROOT
BRANCH   3   4
HETATM    4  C9  UNL     1     -34.801  15.658  -3.997  1.00 20.00     0.004 C 
HETATM    5  C5  UNL     1     -35.968  14.906  -3.348  1.00 20.00     0.083 C 
HETATM    6  C3  UNL     1     -37.239  14.849  -4.183  1.00 20.00     0.127 C 
HETATM    7  C4  UNL     1     -37.337  15.708  -5.424  1.00 20.00     0.078 C 
HETATM    8  O11 UNL     1     -38.180  14.132  -3.837  1.00 20.00    -0.298 OA
HETATM    9  C6  UNL     1     -36.451  15.232  -6.571  1.00 20.00     0.007 C 
HETATM   10  C7  UNL     1     -35.272  14.337  -6.195  1.00 20.00     0.001 C 
HETATM   11  C8  UNL     1     -34.244  14.959  -5.249  1.00 20.00     0.006 C 
ENDBRANCH   3   4
TORSDOF 1
ENDMDL
MODEL 5
REMARK VINA RESULT:      -4.6     11.637     12.528
REMARK  1 active torsions:
REMARK  status: ('A' for Active; 'I' for Inactive)
REMARK    1  A    between atoms: C9_9  and  C10_10 
ROOT
HETATM    1  C1  UNL     1     -34.734  17.199   0.099  1.00 20.00     0.012 C 
HETATM    2  C2  UNL     1     -34.277  17.220  -1.011  1.00 20.00    -0.117 C 
HETATM    3  C10 UNL     1     -33.711  17.262  -2.359  1.00 20.00     0.098 C 
ENDROOT
BRANCH   3   4
HETATM    4  C9  UNL     1     -34.175  16.054  -3.181  1.00 20.00     0.004 C 
HETATM    5  C5  UNL     1     -33.970  16.326  -4.676  1.00 20.00     0.083 C 
HETATM    6  C3  UNL     1     -34.171  15.120  -5.581  1.00 20.00     0.127 C 
HETATM    7  C4  UNL     1     -34.308  13.750  -4.955  1.00 20.00     0.078 C 
HETATM    8  O11 UNL     1     -34.197  15.258  -6.806  1.00 20.00    -0.298 OA
HETATM    9  C6  UNL     1     -35.630  13.538  -4.225  1.00 20.00     0.007 C 
HETATM   10  C7  UNL     1     -36.377  14.798  -3.790  1.00 20.00     0.001 C 
HETATM   11  C8  UNL     1     -35.629  15.709  -2.817  1.00 20.00     0.006 C 
ENDBRANCH   3   4
TORSDOF 1
ENDMDL
MODEL 6
REMARK VINA RESULT:      -4.5     11.300     13.317
REMARK  1 active torsions:
REMARK  status: ('A' for Active; 'I' for Inactive)
REMARK    1  A    between atoms: C9_9  and  C10_10 
ROOT
HETATM    1  C1  UNL     1     -37.305  16.553  -7.829  1.00 20.00     0.012 C 
HETATM    2  C2  UNL     1     -36.121  16.419  -7.678  1.00 20.00    -0.117 C 
HETATM    3  C10 UNL     1     -34.676  16.261  -7.513  1.00 20.00     0.098 C 
ENDROOT
BRANCH   3   4
HETATM    4  C9  UNL     1     -34.344  15.741  -6.109  1.00 20.00     0.004 C 
HETATM    5  C5  UNL     1     -34.941  14.342  -5.913  1.00 20.00     0.083 C 
HETATM    6  C3  UNL     1     -34.487  13.621  -4.653  1.00 20.00     0.127 C 
HETATM    7  C4  UNL     1     -33.345  14.202  -3.850  1.00 20.00     0.078 C 
HETATM    8  O11 UNL     1     -35.027  12.567  -4.309  1.00 20.00    -0.298 OA
HETATM    9  C6  UNL     1     -33.710  15.479  -3.098  1.00 20.00     0.007 C 
HETATM   10  C7  UNL     1     -34.921  16.251  -3.618  1.00 20.00     0.001 C 
HETATM   11  C8  UNL     1     -34.816  16.759  -5.056  1.00 20.00     0.006 C 
ENDBRANCH   3   4
TORSDOF 1
ENDMDL
MODEL 7
REMARK VINA RESULT:      -4.5      9.097     10.901
REMARK  1 active torsions:
REMARK  status: ('A' for Active; 'I' for Inactive)
REMARK    1  A    between atoms: C9_9  and  C10_10 
ROOT
HETATM    1  C1  UNL     1     -41.541   1.574  -3.675  1.00 20.00     0.012 C 
HETATM    2  C2  UNL     1     -42.236   2.536  -3.491  1.00 20.00    -0.117 C 
HETATM    3  C10 UNL     1     -43.094   3.701  -3.279  1.00 20.00     0.098 C 
ENDROOT
BRANCH   3   4
HETATM    4  C9  UNL     1     -42.460   4.667  -2.271  1.00 20.00     0.004 C 
HETATM    5  C5  UNL     1     -43.163   4.545  -0.914  1.00 20.00     0.083 C 
HETATM    6  C3  UNL     1     -42.479   5.278   0.231  1.00 20.00     0.127 C 
HETATM    7  C4  UNL     1     -41.092   5.839   0.014  1.00 20.00     0.078 C 
HETATM    8  O11 UNL     1     -43.040   5.387   1.323  1.00 20.00    -0.298 OA
HETATM    9  C6  UNL     1     -41.060   7.056  -0.906  1.00 20.00     0.007 C 
HETATM   10  C7  UNL     1     -42.251   7.231  -1.845  1.00 20.00     0.001 C 
HETATM   11  C8  UNL     1     -42.480   6.096  -2.843  1.00 20.00     0.006 C 
ENDBRANCH   3   4
TORSDOF 1
ENDMDL
MODEL 8
REMARK VINA RESULT:      -4.5     11.191     12.497
REMARK  1 active torsions:
REMARK  status: ('A' for Active; 'I' for Inactive)
REMARK    1  A    between atoms: C9_9  and  C10_10 
ROOT
HETATM    1  C1  UNL     1     -37.869  15.553  -7.083  1.00 20.00     0.012 C 
HETATM    2  C2  UNL     1     -37.699  15.277  -5.927  1.00 20.00    -0.117 C 
HETATM    3  C10 UNL     1     -37.510  14.936  -4.517  1.00 20.00     0.098 C 
ENDROOT
BRANCH   3   4
HETATM    4  C9  UNL     1     -36.061  15.194  -4.085  1.00 20.00     0.004 C 
HETATM    5  C5  UNL     1     -35.287  13.872  -4.032  1.00 20.00     0.083 C 
HETATM    6  C3  UNL     1     -33.784  14.016  -3.845  1.00 20.00     0.127 C 
HETATM    7  C4  UNL     1     -33.160  15.388  -3.968  1.00 20.00     0.078 C 
HETATM    8  O11 UNL     1     -33.086  13.024  -3.622  1.00 20.00    -0.298 OA
HETATM    9  C6  UNL     1     -33.487  16.317  -2.804  1.00 20.00     0.007 C 
HETATM   10  C7  UNL     1     -34.728  15.970  -1.983  1.00 20.00     0.001 C 
HETATM   11  C8  UNL     1     -36.049  15.963  -2.753  1.00 20.00     0.006 C 
ENDBRANCH   3   4
TORSDOF 1
ENDMDL
MODEL 9
REMARK VINA RESULT:      -4.4     11.283     12.470
REMARK  1 active torsions:
REMARK  status: ('A' for Active; 'I' for Inactive)
REMARK    1  A    between atoms: C9_9  and  C10_10 
ROOT
HETATM    1  C1  UNL     1     -39.170  14.747  -3.858  1.00 20.00     0.012 C 
HETATM    2  C2  UNL     1     -38.245  15.084  -4.546  1.00 20.00    -0.117 C 
HETATM    3  C10 UNL     1     -37.131  15.497  -5.399  1.00 20.00     0.098 C 
ENDROOT
BRANCH   3   4
HETATM    4  C9  UNL     1     -35.823  15.546  -4.599  1.00 20.00     0.004 C 
HETATM    5  C5  UNL     1     -35.229  14.137  -4.479  1.00 20.00     0.083 C 
HETATM    6  C3  UNL     1     -33.818  14.082  -3.912  1.00 20.00     0.127 C 
HETATM    7  C4  UNL     1     -33.046  15.372  -3.747  1.00 20.00     0.078 C 
HETATM    8  O11 UNL     1     -33.307  13.000  -3.616  1.00 20.00    -0.298 OA
HETATM    9  C6  UNL     1     -33.564  16.258  -2.618  1.00 20.00     0.007 C 
HETATM   10  C7  UNL     1     -35.003  16.015  -2.168  1.00 20.00     0.001 C 
HETATM   11  C8  UNL     1     -36.075  16.219  -3.239  1.00 20.00     0.006 C 
ENDBRANCH   3   4
TORSDOF 1
ENDMDL
