MODEL 1
REMARK VINA RESULT:      -5.8      0.000      0.000
REMARK  1 active torsions:
REMARK  status: ('A' for Active; 'I' for Inactive)
REMARK    1  A    between atoms: C6_6  and  C7_7 
ROOT
HETATM    1  C1  UNL     1     -35.001   4.108   5.170  1.00 20.00     0.002 C 
HETATM    2  C2  UNL     1     -35.156   5.134   4.043  1.00 20.00     0.006 C 
HETATM    3  C5  UNL     1     -34.352   4.846   6.342  1.00 20.00     0.020 C 
HETATM    4  C7  UNL     1     -34.245   6.308   4.421  1.00 20.00     0.008 C 
HETATM    5  C8  UNL     1     -34.393   6.318   5.947  1.00 20.00     0.086 C 
HETATM    6 CL9  UNL     1     -33.194   7.288   6.815  1.00 20.00    -0.125 Cl
ENDROOT
BRANCH   4   7
HETATM    7  C6  UNL     1     -32.842   6.095   3.911  1.00 20.00    -0.009 A 
HETATM    8  C3  UNL     1     -32.478   6.495   2.508  1.00 20.00     0.005 A 
HETATM    9  C4  UNL     1     -31.937   7.271   3.675  1.00 20.00     0.005 A 
ENDBRANCH   4   7
TORSDOF 1
ENDMDL
MODEL 2
REMARK VINA RESULT:      -4.3     11.782     12.650
REMARK  1 active torsions:
REMARK  status: ('A' for Active; 'I' for Inactive)
REMARK    1  A    between atoms: C6_6  and  C7_7 
ROOT
HETATM    1  C1  UNL     1     -33.294  13.798  -3.768  1.00 20.00     0.002 C 
HETATM    2  C2  UNL     1     -33.034  15.308  -3.768  1.00 20.00     0.006 C 
HETATM    3  C5  UNL     1     -34.813  13.619  -3.786  1.00 20.00     0.020 C 
HETATM    4  C7  UNL     1     -34.367  15.959  -3.380  1.00 20.00     0.008 C 
HETATM    5  C8  UNL     1     -35.366  15.014  -4.056  1.00 20.00     0.086 C 
HETATM    6 CL9  UNL     1     -37.047  15.191  -3.531  1.00 20.00    -0.125 Cl
ENDROOT
BRANCH   4   7
HETATM    7  C6  UNL     1     -34.501  16.075  -1.882  1.00 20.00    -0.009 A 
HETATM    8  C3  UNL     1     -33.804  17.184  -1.143  1.00 20.00     0.005 A 
HETATM    9  C4  UNL     1     -35.300  17.196  -1.280  1.00 20.00     0.005 A 
ENDBRANCH   4   7
TORSDOF 1
ENDMDL
MODEL 3
REMARK VINA RESULT:      -4.1     12.099     13.282
REMARK  1 active torsions:
REMARK  status: ('A' for Active; 'I' for Inactive)
REMARK    1  A    between atoms: C6_6  and  C7_7 
ROOT
HETATM    1  C1  UNL     1     -34.555  13.781  -4.704  1.00 20.00     0.002 C 
HETATM    2  C2  UNL     1     -33.747  14.002  -3.422  1.00 20.00     0.006 C 
HETATM    3  C5  UNL     1     -34.409  15.057  -5.536  1.00 20.00     0.020 C 
HETATM    4  C7  UNL     1     -33.493  15.513  -3.346  1.00 20.00     0.008 C 
HETATM    5  C8  UNL     1     -33.321  15.859  -4.830  1.00 20.00     0.086 C 
HETATM    6 CL9  UNL     1     -33.391  17.584  -5.216  1.00 20.00    -0.125 Cl
ENDROOT
BRANCH   4   7
HETATM    7  C6  UNL     1     -34.625  16.222  -2.646  1.00 20.00    -0.009 A 
HETATM    8  C3  UNL     1     -34.601  16.395  -1.153  1.00 20.00     0.005 A 
HETATM    9  C4  UNL     1     -34.410  17.585  -2.050  1.00 20.00     0.005 A 
ENDBRANCH   4   7
TORSDOF 1
ENDMDL
MODEL 4
REMARK VINA RESULT:      -4.0     12.220     13.723
REMARK  1 active torsions:
REMARK  status: ('A' for Active; 'I' for Inactive)
REMARK    1  A    between atoms: C6_6  and  C7_7 
ROOT
HETATM    1  C1  UNL     1     -33.563  13.621  -3.677  1.00 20.00     0.002 C 
HETATM    2  C2  UNL     1     -34.961  13.767  -4.285  1.00 20.00     0.006 C 
HETATM    3  C5  UNL     1     -32.902  14.998  -3.770  1.00 20.00     0.020 C 
HETATM    4  C7  UNL     1     -34.937  15.083  -5.072  1.00 20.00     0.008 C 
HETATM    5  C8  UNL     1     -34.026  15.941  -4.186  1.00 20.00     0.086 C 
HETATM    6 CL9  UNL     1     -33.423  17.425  -4.937  1.00 20.00    -0.125 Cl
ENDROOT
BRANCH   4   7
HETATM    7  C6  UNL     1     -34.447  14.866  -6.481  1.00 20.00    -0.009 A 
HETATM    8  C3  UNL     1     -35.406  14.445  -7.560  1.00 20.00     0.005 A 
HETATM    9  C4  UNL     1     -34.826  15.831  -7.570  1.00 20.00     0.005 A 
ENDBRANCH   4   7
TORSDOF 1
ENDMDL
MODEL 5
REMARK VINA RESULT:      -3.9     12.472     13.942
REMARK  1 active torsions:
REMARK  status: ('A' for Active; 'I' for Inactive)
REMARK    1  A    between atoms: C6_6  and  C7_7 
ROOT
HETATM    1  C1  UNL     1     -34.324  17.390  -2.918  1.00 20.00     0.002 C 
HETATM    2  C2  UNL     1     -33.555  17.622  -4.223  1.00 20.00     0.006 C 
HETATM    3  C5  UNL     1     -34.220  15.896  -2.611  1.00 20.00     0.020 C 
HETATM    4  C7  UNL     1     -33.375  16.233  -4.850  1.00 20.00     0.008 C 
HETATM    5  C8  UNL     1     -33.186  15.366  -3.599  1.00 20.00     0.086 C 
HETATM    6 CL9  UNL     1     -33.330  13.622  -3.862  1.00 20.00    -0.125 Cl
ENDROOT
BRANCH   4   7
HETATM    7  C6  UNL     1     -34.554  15.869  -5.715  1.00 20.00    -0.009 A 
HETATM    8  C3  UNL     1     -34.675  16.431  -7.105  1.00 20.00     0.005 A 
HETATM    9  C4  UNL     1     -34.367  14.973  -6.908  1.00 20.00     0.005 A 
ENDBRANCH   4   7
TORSDOF 1
ENDMDL
MODEL 6
REMARK VINA RESULT:      -3.9     11.993     13.397
REMARK  1 active torsions:
REMARK  status: ('A' for Active; 'I' for Inactive)
REMARK    1  A    between atoms: C6_6  and  C7_7 
ROOT
HETATM    1  C1  UNL     1     -34.562  13.256  -4.897  1.00 20.00     0.002 C 
HETATM    2  C2  UNL     1     -35.411  14.375  -5.509  1.00 20.00     0.006 C 
HETATM    3  C5  UNL     1     -34.054  13.781  -3.553  1.00 20.00     0.020 C 
HETATM    4  C7  UNL     1     -35.052  15.644  -4.725  1.00 20.00     0.008 C 
HETATM    5  C8  UNL     1     -34.832  15.072  -3.320  1.00 20.00     0.086 C 
HETATM    6 CL9  UNL     1     -34.022  16.157  -2.182  1.00 20.00    -0.125 Cl
ENDROOT
BRANCH   4   7
HETATM    7  C6  UNL     1     -33.860  16.341  -5.332  1.00 20.00    -0.009 A 
HETATM    8  C3  UNL     1     -34.054  17.371  -6.409  1.00 20.00     0.005 A 
HETATM    9  C4  UNL     1     -33.604  17.793  -5.039  1.00 20.00     0.005 A 
ENDBRANCH   4   7
TORSDOF 1
ENDMDL
MODEL 7
REMARK VINA RESULT:      -3.8     12.299     13.747
REMARK  1 active torsions:
REMARK  status: ('A' for Active; 'I' for Inactive)
REMARK    1  A    between atoms: C6_6  and  C7_7 
ROOT
HETATM    1  C1  UNL     1     -33.272  16.760  -5.171  1.00 20.00     0.002 C 
HETATM    2  C2  UNL     1     -33.731  17.895  -4.251  1.00 20.00     0.006 C 
HETATM    3  C5  UNL     1     -34.268  15.615  -4.980  1.00 20.00     0.020 C 
HETATM    4  C7  UNL     1     -34.717  17.257  -3.264  1.00 20.00     0.008 C 
HETATM    5  C8  UNL     1     -35.403  16.220  -4.161  1.00 20.00     0.086 C 
HETATM    6 CL9  UNL     1     -36.352  14.994  -3.308  1.00 20.00    -0.125 Cl
ENDROOT
BRANCH   4   7
HETATM    7  C6  UNL     1     -33.999  16.697  -2.063  1.00 20.00    -0.009 A 
HETATM    8  C3  UNL     1     -33.567  17.607  -0.947  1.00 20.00     0.005 A 
HETATM    9  C4  UNL     1     -34.691  16.635  -0.730  1.00 20.00     0.005 A 
ENDBRANCH   4   7
TORSDOF 1
ENDMDL
MODEL 8
REMARK VINA RESULT:      -3.8     12.068     12.953
REMARK  1 active torsions:
REMARK  status: ('A' for Active; 'I' for Inactive)
REMARK    1  A    between atoms: C6_6  and  C7_7 
ROOT
HETATM    1  C1  UNL     1     -36.156  14.896  -5.958  1.00 20.00     0.002 C 
HETATM    2  C2  UNL     1     -36.810  14.910  -4.573  1.00 20.00     0.006 C 
HETATM    3  C5  UNL     1     -34.765  14.285  -5.776  1.00 20.00     0.020 C 
HETATM    4  C7  UNL     1     -35.668  14.695  -3.572  1.00 20.00     0.008 C 
HETATM    5  C8  UNL     1     -34.766  13.734  -4.354  1.00 20.00     0.086 C 
HETATM    6 CL9  UNL     1     -33.133  13.533  -3.704  1.00 20.00    -0.125 Cl
ENDROOT
BRANCH   4   7
HETATM    7  C6  UNL     1     -35.031  16.005  -3.183  1.00 20.00    -0.009 A 
HETATM    8  C3  UNL     1     -35.750  16.954  -2.264  1.00 20.00     0.005 A 
HETATM    9  C4  UNL     1     -34.533  16.217  -1.781  1.00 20.00     0.005 A 
ENDBRANCH   4   7
TORSDOF 1
ENDMDL
MODEL 9
REMARK VINA RESULT:      -3.8     12.021     13.470
REMARK  1 active torsions:
REMARK  status: ('A' for Active; 'I' for Inactive)
REMARK    1  A    between atoms: C6_6  and  C7_7 
ROOT
HETATM    1  C1  UNL     1     -33.620  13.736  -3.696  1.00 20.00     0.002 C 
HETATM    2  C2  UNL     1     -34.507  13.200  -4.824  1.00 20.00     0.006 C 
HETATM    3  C5  UNL     1     -34.301  15.000  -3.170  1.00 20.00     0.020 C 
HETATM    4  C7  UNL     1     -35.444  14.355  -5.199  1.00 20.00     0.008 C 
HETATM    5  C8  UNL     1     -35.676  15.005  -3.830  1.00 20.00     0.086 C 
HETATM    6 CL9  UNL     1     -36.401  16.618  -3.874  1.00 20.00    -0.125 Cl
ENDROOT
BRANCH   4   7
HETATM    7  C6  UNL     1     -34.818  15.248  -6.240  1.00 20.00    -0.009 A 
HETATM    8  C3  UNL     1     -34.848  14.855  -7.691  1.00 20.00     0.005 A 
HETATM    9  C4  UNL     1     -35.686  16.005  -7.207  1.00 20.00     0.005 A 
ENDBRANCH   4   7
TORSDOF 1
ENDMDL
