MODEL 1
REMARK VINA RESULT:      -4.9      0.000      0.000
REMARK  2 active torsions:
REMARK  status: ('A' for Active; 'I' for Inactive)
REMARK    1  A    between atoms: C6_6  and  C7_7 
REMARK    2  A    between atoms: C8_8  and  O9_9 
ROOT
HETATM    1  C3  UNL     1     -34.469   5.435   3.040  1.00 20.00     0.007 C 
HETATM    2  C4  UNL     1     -35.524   5.173   4.121  1.00 20.00     0.032 C 
HETATM    3  C5  UNL     1     -33.587   6.268   5.098  1.00 20.00     0.036 C 
HETATM    4  C7  UNL     1     -33.151   5.607   3.791  1.00 20.00    -0.008 C 
HETATM    5  C8  UNL     1     -34.859   5.509   5.457  1.00 20.00     0.118 C 
ENDROOT
BRANCH   4   6
HETATM    6  C6  UNL     1     -32.126   6.423   3.021  1.00 20.00    -0.010 A 
HETATM    7  C1  UNL     1     -32.492   7.773   2.470  1.00 20.00     0.005 A 
HETATM    8  C2  UNL     1     -31.538   7.666   3.629  1.00 20.00     0.005 A 
ENDBRANCH   4   6
BRANCH   5   9
HETATM    9  O9  UNL     1     -34.502   4.307   6.135  1.00 20.00    -0.396 OA
HETATM   10  H23 UNL     1     -33.611   4.444   6.490  1.00 20.00     0.210 HD
ENDBRANCH   5   9
TORSDOF 2
ENDMDL
MODEL 2
REMARK VINA RESULT:      -4.8      2.043      3.748
REMARK  2 active torsions:
REMARK  status: ('A' for Active; 'I' for Inactive)
REMARK    1  A    between atoms: C6_6  and  C7_7 
REMARK    2  A    between atoms: C8_8  and  O9_9 
ROOT
HETATM    1  C3  UNL     1     -33.814   5.110   2.797  1.00 20.00     0.007 C 
HETATM    2  C4  UNL     1     -32.525   5.765   2.286  1.00 20.00     0.032 C 
HETATM    3  C5  UNL     1     -33.058   6.598   4.506  1.00 20.00     0.036 C 
HETATM    4  C7  UNL     1     -34.339   6.041   3.888  1.00 20.00    -0.008 C 
HETATM    5  C8  UNL     1     -32.179   6.866   3.290  1.00 20.00     0.118 C 
ENDROOT
BRANCH   4   6
HETATM    6  C6  UNL     1     -35.232   5.337   4.896  1.00 20.00    -0.010 A 
HETATM    7  C1  UNL     1     -34.846   3.990   5.440  1.00 20.00     0.005 A 
HETATM    8  C2  UNL     1     -34.797   5.203   6.328  1.00 20.00     0.005 A 
ENDBRANCH   4   6
BRANCH   5   9
HETATM    9  O9  UNL     1     -32.521   8.139   2.747  1.00 20.00    -0.396 OA
HETATM   10  H23 UNL     1     -33.332   8.422   3.196  1.00 20.00     0.210 HD
ENDBRANCH   5   9
TORSDOF 2
ENDMDL
MODEL 3
REMARK VINA RESULT:      -4.7      1.124      1.730
REMARK  2 active torsions:
REMARK  status: ('A' for Active; 'I' for Inactive)
REMARK    1  A    between atoms: C6_6  and  C7_7 
REMARK    2  A    between atoms: C8_8  and  O9_9 
ROOT
HETATM    1  C3  UNL     1     -33.544   6.327   5.270  1.00 20.00     0.007 C 
HETATM    2  C4  UNL     1     -34.705   5.429   5.712  1.00 20.00     0.032 C 
HETATM    3  C5  UNL     1     -34.144   4.979   3.391  1.00 20.00     0.036 C 
HETATM    4  C7  UNL     1     -33.622   6.371   3.745  1.00 20.00    -0.008 C 
HETATM    5  C8  UNL     1     -35.216   4.737   4.446  1.00 20.00     0.118 C 
ENDROOT
BRANCH   4   6
HETATM    6  C6  UNL     1     -32.290   6.695   3.088  1.00 20.00    -0.010 A 
HETATM    7  C1  UNL     1     -32.115   7.979   2.326  1.00 20.00     0.005 A 
HETATM    8  C2  UNL     1     -31.417   7.785   3.645  1.00 20.00     0.005 A 
ENDBRANCH   4   6
BRANCH   5   9
HETATM    9  O9  UNL     1     -36.430   5.348   4.019  1.00 20.00    -0.396 OA
HETATM   10  H23 UNL     1     -36.525   6.164   4.535  1.00 20.00     0.210 HD
ENDBRANCH   5   9
TORSDOF 2
ENDMDL
MODEL 4
REMARK VINA RESULT:      -4.6     11.650     12.135
REMARK  2 active torsions:
REMARK  status: ('A' for Active; 'I' for Inactive)
REMARK    1  A    between atoms: C6_6  and  C7_7 
REMARK    2  A    between atoms: C8_8  and  O9_9 
ROOT
HETATM    1  C3  UNL     1     -33.728  15.616  -4.068  1.00 20.00     0.007 C 
HETATM    2  C4  UNL     1     -34.109  14.521  -5.071  1.00 20.00     0.032 C 
HETATM    3  C5  UNL     1     -35.942  14.904  -3.522  1.00 20.00     0.036 C 
HETATM    4  C7  UNL     1     -34.656  15.414  -2.872  1.00 20.00    -0.008 C 
HETATM    5  C8  UNL     1     -35.430  13.929  -4.576  1.00 20.00     0.118 C 
ENDROOT
BRANCH   4   6
HETATM    6  C6  UNL     1     -34.861  16.677  -2.053  1.00 20.00    -0.010 A 
HETATM    7  C1  UNL     1     -34.681  16.649  -0.561  1.00 20.00     0.005 A 
HETATM    8  C2  UNL     1     -33.683  17.370  -1.426  1.00 20.00     0.005 A 
ENDBRANCH   4   6
BRANCH   5   9
HETATM    9  O9  UNL     1     -35.191  12.667  -3.958  1.00 20.00    -0.396 OA
HETATM   10  H23 UNL     1     -35.072  12.841  -3.012  1.00 20.00     0.210 HD
ENDBRANCH   5   9
TORSDOF 2
ENDMDL
MODEL 5
REMARK VINA RESULT:      -4.3     12.051     13.042
REMARK  2 active torsions:
REMARK  status: ('A' for Active; 'I' for Inactive)
REMARK    1  A    between atoms: C6_6  and  C7_7 
REMARK    2  A    between atoms: C8_8  and  O9_9 
ROOT
HETATM    1  C3  UNL     1     -33.970  17.779  -3.058  1.00 20.00     0.007 C 
HETATM    2  C4  UNL     1     -33.603  17.287  -4.463  1.00 20.00     0.032 C 
HETATM    3  C5  UNL     1     -34.175  15.399  -3.043  1.00 20.00     0.036 C 
HETATM    4  C7  UNL     1     -33.787  16.571  -2.143  1.00 20.00    -0.008 C 
HETATM    5  C8  UNL     1     -33.527  15.761  -4.374  1.00 20.00     0.118 C 
ENDROOT
BRANCH   4   6
HETATM    6  C6  UNL     1     -34.619  16.650  -0.874  1.00 20.00    -0.010 A 
HETATM    7  C1  UNL     1     -34.312  17.690   0.169  1.00 20.00     0.005 A 
HETATM    8  C2  UNL     1     -35.563  17.801  -0.659  1.00 20.00     0.005 A 
ENDBRANCH   4   6
BRANCH   5   9
HETATM    9  O9  UNL     1     -32.163  15.347  -4.351  1.00 20.00    -0.396 OA
HETATM   10  H23 UNL     1     -32.020  14.919  -3.493  1.00 20.00     0.210 HD
ENDBRANCH   5   9
TORSDOF 2
ENDMDL
MODEL 6
REMARK VINA RESULT:      -4.2     11.169     12.917
REMARK  2 active torsions:
REMARK  status: ('A' for Active; 'I' for Inactive)
REMARK    1  A    between atoms: C6_6  and  C7_7 
REMARK    2  A    between atoms: C8_8  and  O9_9 
ROOT
HETATM    1  C3  UNL     1     -33.456  15.218  -3.640  1.00 20.00     0.007 C 
HETATM    2  C4  UNL     1     -33.297  13.696  -3.728  1.00 20.00     0.032 C 
HETATM    3  C5  UNL     1     -34.779  14.479  -5.487  1.00 20.00     0.036 C 
HETATM    4  C7  UNL     1     -34.752  15.535  -4.383  1.00 20.00    -0.008 C 
HETATM    5  C8  UNL     1     -34.313  13.219  -4.767  1.00 20.00     0.118 C 
ENDROOT
BRANCH   4   6
HETATM    6  C6  UNL     1     -34.804  16.957  -4.915  1.00 20.00    -0.010 A 
HETATM    7  C1  UNL     1     -33.584  17.834  -4.854  1.00 20.00     0.005 A 
HETATM    8  C2  UNL     1     -34.075  17.319  -6.179  1.00 20.00     0.005 A 
ENDBRANCH   4   6
BRANCH   5   9
HETATM    9  O9  UNL     1     -35.430  12.624  -4.111  1.00 20.00    -0.396 OA
HETATM   10  H23 UNL     1     -35.148  12.435  -3.203  1.00 20.00     0.210 HD
ENDBRANCH   5   9
TORSDOF 2
ENDMDL
MODEL 7
REMARK VINA RESULT:      -4.2     11.449     12.149
REMARK  2 active torsions:
REMARK  status: ('A' for Active; 'I' for Inactive)
REMARK    1  A    between atoms: C6_6  and  C7_7 
REMARK    2  A    between atoms: C8_8  and  O9_9 
ROOT
HETATM    1  C3  UNL     1     -36.058  15.498  -3.219  1.00 20.00     0.007 C 
HETATM    2  C4  UNL     1     -36.535  14.305  -4.054  1.00 20.00     0.032 C 
HETATM    3  C5  UNL     1     -34.185  14.040  -3.493  1.00 20.00     0.036 C 
HETATM    4  C7  UNL     1     -34.539  15.522  -3.373  1.00 20.00    -0.008 C 
HETATM    5  C8  UNL     1     -35.281  13.499  -4.403  1.00 20.00     0.118 C 
ENDROOT
BRANCH   4   6
HETATM    6  C6  UNL     1     -33.831  16.214  -2.221  1.00 20.00    -0.010 A 
HETATM    7  C1  UNL     1     -34.109  17.661  -1.920  1.00 20.00     0.005 A 
HETATM    8  C2  UNL     1     -34.594  16.591  -0.981  1.00 20.00     0.005 A 
ENDBRANCH   4   6
BRANCH   5   9
HETATM    9  O9  UNL     1     -34.916  13.740  -5.759  1.00 20.00    -0.396 OA
HETATM   10  H23 UNL     1     -34.467  12.939  -6.071  1.00 20.00     0.210 HD
ENDBRANCH   5   9
TORSDOF 2
ENDMDL
MODEL 8
REMARK VINA RESULT:      -4.1      9.390     10.937
REMARK  2 active torsions:
REMARK  status: ('A' for Active; 'I' for Inactive)
REMARK    1  A    between atoms: C6_6  and  C7_7 
REMARK    2  A    between atoms: C8_8  and  O9_9 
ROOT
HETATM    1  C3  UNL     1     -40.820   4.494  -0.961  1.00 20.00     0.007 C 
HETATM    2  C4  UNL     1     -40.744   5.973  -0.564  1.00 20.00     0.032 C 
HETATM    3  C5  UNL     1     -42.614   5.613  -2.073  1.00 20.00     0.036 C 
HETATM    4  C7  UNL     1     -41.626   4.462  -2.258  1.00 20.00    -0.008 C 
HETATM    5  C8  UNL     1     -41.754   6.706  -1.449  1.00 20.00     0.118 C 
ENDROOT
BRANCH   4   6
HETATM    6  C6  UNL     1     -42.305   3.126  -2.507  1.00 20.00    -0.010 A 
HETATM    7  C1  UNL     1     -42.967   2.848  -3.829  1.00 20.00     0.005 A 
HETATM    8  C2  UNL     1     -41.696   2.134  -3.459  1.00 20.00     0.005 A 
ENDBRANCH   4   6
BRANCH   5   9
HETATM    9  O9  UNL     1     -41.070   7.403  -2.486  1.00 20.00    -0.396 OA
HETATM   10  H23 UNL     1     -40.530   6.745  -2.952  1.00 20.00     0.210 HD
ENDBRANCH   5   9
TORSDOF 2
ENDMDL
MODEL 9
REMARK VINA RESULT:      -4.1     11.647     13.355
REMARK  2 active torsions:
REMARK  status: ('A' for Active; 'I' for Inactive)
REMARK    1  A    between atoms: C6_6  and  C7_7 
REMARK    2  A    between atoms: C8_8  and  O9_9 
ROOT
HETATM    1  C3  UNL     1     -34.631  13.757  -5.165  1.00 20.00     0.007 C 
HETATM    2  C4  UNL     1     -33.875  13.778  -3.832  1.00 20.00     0.032 C 
HETATM    3  C5  UNL     1     -33.865  15.994  -4.829  1.00 20.00     0.036 C 
HETATM    4  C7  UNL     1     -34.131  14.976  -5.936  1.00 20.00    -0.008 C 
HETATM    5  C8  UNL     1     -33.209  15.154  -3.740  1.00 20.00     0.118 C 
ENDROOT
BRANCH   4   6
HETATM    6  C6  UNL     1     -35.119  15.471  -6.979  1.00 20.00    -0.010 A 
HETATM    7  C1  UNL     1     -35.780  14.499  -7.918  1.00 20.00     0.005 A 
HETATM    8  C2  UNL     1     -36.585  15.167  -6.836  1.00 20.00     0.005 A 
ENDBRANCH   4   6
BRANCH   5   9
HETATM    9  O9  UNL     1     -31.818  15.036  -4.025  1.00 20.00    -0.396 OA
HETATM   10  H23 UNL     1     -31.626  15.670  -4.732  1.00 20.00     0.210 HD
ENDBRANCH   5   9
TORSDOF 2
ENDMDL
