MODEL 1
REMARK VINA RESULT:      -5.5      0.000      0.000
REMARK  6 active torsions:
REMARK  status: ('A' for Active; 'I' for Inactive)
REMARK    1  A    between atoms: C4_4  and  C6_6 
REMARK    2  A    between atoms: C5_5  and  C9_9 
REMARK    3  A    between atoms: C6_6  and  C7_7 
REMARK    4  A    between atoms: C7_7  and  C8_8 
REMARK    5  A    between atoms: C8_8  and  C9_9 
REMARK    6  A    between atoms: C9_9  and  O10_10 
ROOT
HETATM    1  C1  UNL     1     -32.091   8.762   1.194  1.00 20.00     0.012 C 
HETATM    2  C2  UNL     1     -32.136   8.072   2.176  1.00 20.00    -0.117 C 
HETATM    3  C4  UNL     1     -32.190   7.230   3.380  1.00 20.00     0.093 C 
ENDROOT
BRANCH   3   4
HETATM    4  C6  UNL     1     -32.384   5.759   3.012  1.00 20.00     0.012 C 
BRANCH   4   5
HETATM    5  C7  UNL     1     -33.855   5.348   2.898  1.00 20.00     0.003 C 
BRANCH   5   6
HETATM    6  C8  UNL     1     -34.761   6.038   3.925  1.00 20.00     0.032 C 
BRANCH   6   7
HETATM    7  C9  UNL     1     -35.246   5.067   5.009  1.00 20.00     0.117 C 
BRANCH   7   8
HETATM    8  C5  UNL     1     -34.409   5.201   6.287  1.00 20.00     0.027 C 
HETATM    9  C3  UNL     1     -33.949   6.632   6.529  1.00 20.00     0.007 C 
ENDBRANCH   7   8
BRANCH   7  10
HETATM   10  O10 UNL     1     -35.167   3.730   4.521  1.00 20.00    -0.396 OA
HETATM   11  H26 UNL     1     -34.380   3.335   4.927  1.00 20.00     0.210 HD
ENDBRANCH   7  10
ENDBRANCH   6   7
ENDBRANCH   5   6
ENDBRANCH   4   5
ENDBRANCH   3   4
TORSDOF 6
ENDMDL
MODEL 2
REMARK VINA RESULT:      -5.0      1.839      4.592
REMARK  6 active torsions:
REMARK  status: ('A' for Active; 'I' for Inactive)
REMARK    1  A    between atoms: C4_4  and  C6_6 
REMARK    2  A    between atoms: C5_5  and  C9_9 
REMARK    3  A    between atoms: C6_6  and  C7_7 
REMARK    4  A    between atoms: C7_7  and  C8_8 
REMARK    5  A    between atoms: C8_8  and  C9_9 
REMARK    6  A    between atoms: C9_9  and  O10_10 
ROOT
HETATM    1  C1  UNL     1     -33.675   7.094   6.734  1.00 20.00     0.012 C 
HETATM    2  C2  UNL     1     -34.241   6.110   6.344  1.00 20.00    -0.117 C 
HETATM    3  C4  UNL     1     -34.935   4.904   5.869  1.00 20.00     0.093 C 
ENDROOT
BRANCH   3   4
HETATM    4  C6  UNL     1     -34.736   4.713   4.365  1.00 20.00     0.012 C 
BRANCH   4   5
HETATM    5  C7  UNL     1     -34.459   6.020   3.617  1.00 20.00     0.003 C 
BRANCH   5   6
HETATM    6  C8  UNL     1     -33.049   6.091   3.018  1.00 20.00     0.032 C 
BRANCH   6   7
HETATM    7  C9  UNL     1     -32.453   7.502   3.111  1.00 20.00     0.117 C 
BRANCH   7   8
HETATM    8  C5  UNL     1     -32.010   8.008   1.733  1.00 20.00     0.027 C 
HETATM    9  C3  UNL     1     -32.416   9.455   1.491  1.00 20.00     0.007 C 
ENDBRANCH   7   8
BRANCH   7  10
HETATM   10  O10 UNL     1     -31.338   7.491   4.000  1.00 20.00    -0.396 OA
HETATM   11  H26 UNL     1     -30.582   7.829   3.496  1.00 20.00     0.210 HD
ENDBRANCH   7  10
ENDBRANCH   6   7
ENDBRANCH   5   6
ENDBRANCH   4   5
ENDBRANCH   3   4
TORSDOF 6
ENDMDL
MODEL 3
REMARK VINA RESULT:      -4.9      1.504      1.837
REMARK  6 active torsions:
REMARK  status: ('A' for Active; 'I' for Inactive)
REMARK    1  A    between atoms: C4_4  and  C6_6 
REMARK    2  A    between atoms: C5_5  and  C9_9 
REMARK    3  A    between atoms: C6_6  and  C7_7 
REMARK    4  A    between atoms: C7_7  and  C8_8 
REMARK    5  A    between atoms: C8_8  and  C9_9 
REMARK    6  A    between atoms: C9_9  and  O10_10 
ROOT
HETATM    1  C1  UNL     1     -32.234   9.059   1.036  1.00 20.00     0.012 C 
HETATM    2  C2  UNL     1     -32.055   8.444   2.052  1.00 20.00    -0.117 C 
HETATM    3  C4  UNL     1     -31.834   7.692   3.296  1.00 20.00     0.093 C 
ENDROOT
BRANCH   3   4
HETATM    4  C6  UNL     1     -32.110   6.202   3.093  1.00 20.00     0.012 C 
BRANCH   4   5
HETATM    5  C7  UNL     1     -33.597   5.843   3.158  1.00 20.00     0.003 C 
BRANCH   5   6
HETATM    6  C8  UNL     1     -34.335   6.520   4.320  1.00 20.00     0.032 C 
BRANCH   6   7
HETATM    7  C9  UNL     1     -33.870   5.992   5.684  1.00 20.00     0.117 C 
BRANCH   7   8
HETATM    8  C5  UNL     1     -34.864   4.972   6.250  1.00 20.00     0.027 C 
HETATM    9  C3  UNL     1     -35.068   3.785   5.319  1.00 20.00     0.007 C 
ENDBRANCH   7   8
BRANCH   7  10
HETATM   10  O10 UNL     1     -33.728   7.081   6.594  1.00 20.00    -0.396 OA
HETATM   11  H26 UNL     1     -33.348   6.713   7.406  1.00 20.00     0.210 HD
ENDBRANCH   7  10
ENDBRANCH   6   7
ENDBRANCH   5   6
ENDBRANCH   4   5
ENDBRANCH   3   4
TORSDOF 6
ENDMDL
MODEL 4
REMARK VINA RESULT:      -4.6     11.095     12.255
REMARK  6 active torsions:
REMARK  status: ('A' for Active; 'I' for Inactive)
REMARK    1  A    between atoms: C4_4  and  C6_6 
REMARK    2  A    between atoms: C5_5  and  C9_9 
REMARK    3  A    between atoms: C6_6  and  C7_7 
REMARK    4  A    between atoms: C7_7  and  C8_8 
REMARK    5  A    between atoms: C8_8  and  C9_9 
REMARK    6  A    between atoms: C9_9  and  O10_10 
ROOT
HETATM    1  C1  UNL     1     -34.845  17.369   0.277  1.00 20.00     0.012 C 
HETATM    2  C2  UNL     1     -34.772  16.732  -0.738  1.00 20.00    -0.117 C 
HETATM    3  C4  UNL     1     -34.683  15.950  -1.980  1.00 20.00     0.093 C 
ENDROOT
BRANCH   3   4
HETATM    4  C6  UNL     1     -33.521  16.430  -2.849  1.00 20.00     0.012 C 
BRANCH   4   5
HETATM    5  C7  UNL     1     -33.215  15.499  -4.026  1.00 20.00     0.003 C 
BRANCH   5   6
HETATM    6  C8  UNL     1     -33.537  14.028  -3.737  1.00 20.00     0.032 C 
BRANCH   6   7
HETATM    7  C9  UNL     1     -34.469  13.424  -4.797  1.00 20.00     0.117 C 
BRANCH   7   8
HETATM    8  C5  UNL     1     -35.247  14.517  -5.538  1.00 20.00     0.027 C 
HETATM    9  C3  UNL     1     -35.122  14.391  -7.050  1.00 20.00     0.007 C 
ENDBRANCH   7   8
BRANCH   7  10
HETATM   10  O10 UNL     1     -35.382  12.525  -4.172  1.00 20.00    -0.396 OA
HETATM   11  H26 UNL     1     -35.035  12.354  -3.283  1.00 20.00     0.210 HD
ENDBRANCH   7  10
ENDBRANCH   6   7
ENDBRANCH   5   6
ENDBRANCH   4   5
ENDBRANCH   3   4
TORSDOF 6
ENDMDL
MODEL 5
REMARK VINA RESULT:      -4.5      2.031      4.932
REMARK  6 active torsions:
REMARK  status: ('A' for Active; 'I' for Inactive)
REMARK    1  A    between atoms: C4_4  and  C6_6 
REMARK    2  A    between atoms: C5_5  and  C9_9 
REMARK    3  A    between atoms: C6_6  and  C7_7 
REMARK    4  A    between atoms: C7_7  and  C8_8 
REMARK    5  A    between atoms: C8_8  and  C9_9 
REMARK    6  A    between atoms: C9_9  and  O10_10 
ROOT
HETATM    1  C1  UNL     1     -35.113   3.949   6.331  1.00 20.00     0.012 C 
HETATM    2  C2  UNL     1     -34.650   4.990   5.950  1.00 20.00    -0.117 C 
HETATM    3  C4  UNL     1     -34.083   6.264   5.486  1.00 20.00     0.093 C 
ENDROOT
BRANCH   3   4
HETATM    4  C6  UNL     1     -34.507   6.562   4.048  1.00 20.00     0.012 C 
BRANCH   4   5
HETATM    5  C7  UNL     1     -33.755   5.728   3.006  1.00 20.00     0.003 C 
BRANCH   5   6
HETATM    6  C8  UNL     1     -32.282   6.127   2.855  1.00 20.00     0.032 C 
BRANCH   6   7
HETATM    7  C9  UNL     1     -32.083   7.645   2.962  1.00 20.00     0.117 C 
BRANCH   7   8
HETATM    8  C5  UNL     1     -31.778   8.260   1.592  1.00 20.00     0.027 C 
HETATM    9  C3  UNL     1     -32.447   9.616   1.405  1.00 20.00     0.007 C 
ENDBRANCH   7   8
BRANCH   7  10
HETATM   10  O10 UNL     1     -31.012   7.923   3.862  1.00 20.00    -0.396 OA
HETATM   11  H26 UNL     1     -30.194   7.705   3.391  1.00 20.00     0.210 HD
ENDBRANCH   7  10
ENDBRANCH   6   7
ENDBRANCH   5   6
ENDBRANCH   4   5
ENDBRANCH   3   4
TORSDOF 6
ENDMDL
MODEL 6
REMARK VINA RESULT:      -4.3     11.219     12.438
REMARK  6 active torsions:
REMARK  status: ('A' for Active; 'I' for Inactive)
REMARK    1  A    between atoms: C4_4  and  C6_6 
REMARK    2  A    between atoms: C5_5  and  C9_9 
REMARK    3  A    between atoms: C6_6  and  C7_7 
REMARK    4  A    between atoms: C7_7  and  C8_8 
REMARK    5  A    between atoms: C8_8  and  C9_9 
REMARK    6  A    between atoms: C9_9  and  O10_10 
ROOT
HETATM    1  C1  UNL     1     -31.846  18.900   0.543  1.00 20.00     0.012 C 
HETATM    2  C2  UNL     1     -32.702  18.601  -0.244  1.00 20.00    -0.117 C 
HETATM    3  C4  UNL     1     -33.751  18.236  -1.207  1.00 20.00     0.093 C 
ENDROOT
BRANCH   3   4
HETATM    4  C6  UNL     1     -34.411  16.911  -0.825  1.00 20.00     0.012 C 
BRANCH   4   5
HETATM    5  C7  UNL     1     -34.515  15.924  -1.991  1.00 20.00     0.003 C 
BRANCH   5   6
HETATM    6  C8  UNL     1     -33.732  16.365  -3.233  1.00 20.00     0.032 C 
BRANCH   6   7
HETATM    7  C9  UNL     1     -33.276  15.169  -4.081  1.00 20.00     0.117 C 
BRANCH   7   8
HETATM    8  C5  UNL     1     -33.944  13.872  -3.612  1.00 20.00     0.027 C 
HETATM    9  C3  UNL     1     -34.834  13.259  -4.684  1.00 20.00     0.007 C 
ENDBRANCH   7   8
BRANCH   7  10
HETATM   10  O10 UNL     1     -31.858  15.038  -3.996  1.00 20.00    -0.396 OA
HETATM   11  H26 UNL     1     -31.578  15.574  -3.239  1.00 20.00     0.210 HD
ENDBRANCH   7  10
ENDBRANCH   6   7
ENDBRANCH   5   6
ENDBRANCH   4   5
ENDBRANCH   3   4
TORSDOF 6
ENDMDL
MODEL 7
REMARK VINA RESULT:      -4.1      2.420      5.334
REMARK  6 active torsions:
REMARK  status: ('A' for Active; 'I' for Inactive)
REMARK    1  A    between atoms: C4_4  and  C6_6 
REMARK    2  A    between atoms: C5_5  and  C9_9 
REMARK    3  A    between atoms: C6_6  and  C7_7 
REMARK    4  A    between atoms: C7_7  and  C8_8 
REMARK    5  A    between atoms: C8_8  and  C9_9 
REMARK    6  A    between atoms: C9_9  and  O10_10 
ROOT
HETATM    1  C1  UNL     1     -34.870   4.302   5.972  1.00 20.00     0.012 C 
HETATM    2  C2  UNL     1     -34.936   4.835   4.899  1.00 20.00    -0.117 C 
HETATM    3  C4  UNL     1     -35.019   5.489   3.584  1.00 20.00     0.093 C 
ENDROOT
BRANCH   3   4
HETATM    4  C6  UNL     1     -33.625   5.763   3.019  1.00 20.00     0.012 C 
BRANCH   4   5
HETATM    5  C7  UNL     1     -32.795   6.720   3.881  1.00 20.00     0.003 C 
BRANCH   5   6
HETATM    6  C8  UNL     1     -31.781   7.540   3.074  1.00 20.00     0.032 C 
BRANCH   6   7
HETATM    7  C9  UNL     1     -32.462   8.423   2.020  1.00 20.00     0.117 C 
BRANCH   7   8
HETATM    8  C5  UNL     1     -31.686   8.405   0.698  1.00 20.00     0.027 C 
HETATM    9  C3  UNL     1     -32.569   8.745  -0.495  1.00 20.00     0.007 C 
ENDBRANCH   7   8
BRANCH   7  10
HETATM   10  O10 UNL     1     -32.553   9.761   2.506  1.00 20.00    -0.396 OA
HETATM   11  H26 UNL     1     -32.883  10.298   1.770  1.00 20.00     0.210 HD
ENDBRANCH   7  10
ENDBRANCH   6   7
ENDBRANCH   5   6
ENDBRANCH   4   5
ENDBRANCH   3   4
TORSDOF 6
ENDMDL
MODEL 8
REMARK VINA RESULT:      -4.0     11.291     12.918
REMARK  6 active torsions:
REMARK  status: ('A' for Active; 'I' for Inactive)
REMARK    1  A    between atoms: C4_4  and  C6_6 
REMARK    2  A    between atoms: C5_5  and  C9_9 
REMARK    3  A    between atoms: C6_6  and  C7_7 
REMARK    4  A    between atoms: C7_7  and  C8_8 
REMARK    5  A    between atoms: C8_8  and  C9_9 
REMARK    6  A    between atoms: C9_9  and  O10_10 
ROOT
HETATM    1  C1  UNL     1     -33.569  17.870  -5.351  1.00 20.00     0.012 C 
HETATM    2  C2  UNL     1     -34.088  17.180  -6.186  1.00 20.00    -0.117 C 
HETATM    3  C4  UNL     1     -34.724  16.338  -7.209  1.00 20.00     0.093 C 
ENDROOT
BRANCH   3   4
HETATM    4  C6  UNL     1     -34.464  14.856  -6.939  1.00 20.00     0.012 C 
BRANCH   4   5
HETATM    5  C7  UNL     1     -35.232  14.313  -5.730  1.00 20.00     0.003 C 
BRANCH   5   6
HETATM    6  C8  UNL     1     -34.394  13.381  -4.846  1.00 20.00     0.032 C 
BRANCH   6   7
HETATM    7  C9  UNL     1     -33.852  14.100  -3.603  1.00 20.00     0.117 C 
BRANCH   7   8
HETATM    8  C5  UNL     1     -34.845  15.151  -3.095  1.00 20.00     0.027 C 
HETATM    9  C3  UNL     1     -34.201  16.131  -2.123  1.00 20.00     0.007 C 
ENDBRANCH   7   8
BRANCH   7  10
HETATM   10  O10 UNL     1     -32.609  14.725  -3.918  1.00 20.00    -0.396 OA
HETATM   11  H26 UNL     1     -32.777  15.679  -3.928  1.00 20.00     0.210 HD
ENDBRANCH   7  10
ENDBRANCH   6   7
ENDBRANCH   5   6
ENDBRANCH   4   5
ENDBRANCH   3   4
TORSDOF 6
ENDMDL
MODEL 9
REMARK VINA RESULT:      -4.0     11.169     12.779
REMARK  6 active torsions:
REMARK  status: ('A' for Active; 'I' for Inactive)
REMARK    1  A    between atoms: C4_4  and  C6_6 
REMARK    2  A    between atoms: C5_5  and  C9_9 
REMARK    3  A    between atoms: C6_6  and  C7_7 
REMARK    4  A    between atoms: C7_7  and  C8_8 
REMARK    5  A    between atoms: C8_8  and  C9_9 
REMARK    6  A    between atoms: C9_9  and  O10_10 
ROOT
HETATM    1  C1  UNL     1     -36.208  18.181  -4.358  1.00 20.00     0.012 C 
HETATM    2  C2  UNL     1     -35.106  17.838  -4.026  1.00 20.00    -0.117 C 
HETATM    3  C4  UNL     1     -33.756  17.420  -3.622  1.00 20.00     0.093 C 
ENDROOT
BRANCH   3   4
HETATM    4  C6  UNL     1     -33.816  16.403  -2.481  1.00 20.00     0.012 C 
BRANCH   4   5
HETATM    5  C7  UNL     1     -34.521  15.099  -2.864  1.00 20.00     0.003 C 
BRANCH   5   6
HETATM    6  C8  UNL     1     -33.643  14.152  -3.692  1.00 20.00     0.032 C 
BRANCH   6   7
HETATM    7  C9  UNL     1     -34.436  13.460  -4.809  1.00 20.00     0.117 C 
BRANCH   7   8
HETATM    8  C5  UNL     1     -35.214  14.480  -5.648  1.00 20.00     0.027 C 
HETATM    9  C3  UNL     1     -34.405  14.991  -6.832  1.00 20.00     0.007 C 
ENDBRANCH   7   8
BRANCH   7  10
HETATM   10  O10 UNL     1     -35.341  12.518  -4.237  1.00 20.00    -0.396 OA
HETATM   11  H26 UNL     1     -35.907  12.207  -4.961  1.00 20.00     0.210 HD
ENDBRANCH   7  10
ENDBRANCH   6   7
ENDBRANCH   5   6
ENDBRANCH   4   5
ENDBRANCH   3   4
TORSDOF 6
ENDMDL
