MODEL 1
REMARK VINA RESULT:      -4.9      0.000      0.000
REMARK  1 active torsions:
REMARK  status: ('A' for Active; 'I' for Inactive)
REMARK    1  A    between atoms: C8_8  and  C9_9 
ROOT
HETATM    1  C1  UNL     1     -34.784  13.265  -4.451  1.00 20.00     0.002 C 
HETATM    2  C2  UNL     1     -34.005  14.161  -3.490  1.00 20.00     0.005 C 
HETATM    3  C3  UNL     1     -35.246  14.032  -5.688  1.00 20.00     0.020 C 
HETATM    4  C5  UNL     1     -35.269  16.176  -4.346  1.00 20.00     0.025 C 
HETATM    5  C8  UNL     1     -34.809  15.407  -3.099  1.00 20.00    -0.007 C 
HETATM    6  C10 UNL     1     -36.052  15.271  -5.299  1.00 20.00     0.082 C 
HETATM    7 CL12 UNL     1     -36.508  16.182  -6.766  1.00 20.00    -0.125 Cl
ENDROOT
BRANCH   5   8
HETATM    8  C9  UNL     1     -33.996  16.304  -2.186  1.00 20.00     0.015 C 
HETATM    9  C4  UNL     1     -34.653  16.592  -0.853  1.00 20.00     0.033 C 
HETATM   10  C6  UNL     1     -33.906  17.832  -0.406  1.00 20.00     0.168 C 
HETATM   11  O11 UNL     1     -33.547  18.552  -1.594  1.00 20.00    -0.391 OA
HETATM   12  C7  UNL     1     -33.792  17.708  -2.729  1.00 20.00     0.172 C 
ENDBRANCH   5   8
TORSDOF 1
ENDMDL
MODEL 2
REMARK VINA RESULT:      -4.9      1.124      1.135
REMARK  1 active torsions:
REMARK  status: ('A' for Active; 'I' for Inactive)
REMARK    1  A    between atoms: C8_8  and  C9_9 
ROOT
HETATM    1  C1  UNL     1     -34.049  13.691  -4.375  1.00 20.00     0.002 C 
HETATM    2  C2  UNL     1     -33.493  14.882  -3.599  1.00 20.00     0.005 C 
HETATM    3  C3  UNL     1     -35.393  14.017  -5.024  1.00 20.00     0.020 C 
HETATM    4  C5  UNL     1     -35.845  15.729  -3.217  1.00 20.00     0.025 C 
HETATM    5  C8  UNL     1     -34.496  15.400  -2.559  1.00 20.00    -0.007 C 
HETATM    6  C10 UNL     1     -36.395  14.528  -3.988  1.00 20.00     0.082 C 
HETATM    7 CL12 UNL     1     -37.925  14.972  -4.794  1.00 20.00    -0.125 Cl
ENDROOT
BRANCH   5   8
HETATM    8  C9  UNL     1     -33.942  16.613  -1.838  1.00 20.00     0.015 C 
HETATM    9  C4  UNL     1     -34.612  16.907  -0.513  1.00 20.00     0.033 C 
HETATM   10  C6  UNL     1     -34.232  18.356  -0.293  1.00 20.00     0.168 C 
HETATM   11  O11 UNL     1     -34.127  18.960  -1.591  1.00 20.00    -0.391 OA
HETATM   12  C7  UNL     1     -34.159  17.920  -2.580  1.00 20.00     0.172 C 
ENDBRANCH   5   8
TORSDOF 1
ENDMDL
MODEL 3
REMARK VINA RESULT:      -4.9      3.217      5.130
REMARK  1 active torsions:
REMARK  status: ('A' for Active; 'I' for Inactive)
REMARK    1  A    between atoms: C8_8  and  C9_9 
ROOT
HETATM    1  C1  UNL     1     -33.759  18.795  -2.884  1.00 20.00     0.002 C 
HETATM    2  C2  UNL     1     -33.813  17.329  -3.310  1.00 20.00     0.005 C 
HETATM    3  C3  UNL     1     -33.417  18.940  -1.403  1.00 20.00     0.020 C 
HETATM    4  C5  UNL     1     -34.434  16.669  -0.949  1.00 20.00     0.025 C 
HETATM    5  C8  UNL     1     -34.783  16.521  -2.438  1.00 20.00    -0.007 C 
HETATM    6  C10 UNL     1     -34.387  18.140  -0.533  1.00 20.00     0.082 C 
HETATM    7 CL12 UNL     1     -33.911  18.271   1.183  1.00 20.00    -0.125 Cl
ENDROOT
BRANCH   5   8
HETATM    8  C9  UNL     1     -34.781  15.061  -2.847  1.00 20.00     0.015 C 
HETATM    9  C4  UNL     1     -33.617  14.666  -3.728  1.00 20.00     0.033 C 
HETATM   10  C6  UNL     1     -34.126  13.382  -4.351  1.00 20.00     0.168 C 
HETATM   11  O11 UNL     1     -35.551  13.512  -4.463  1.00 20.00    -0.391 OA
HETATM   12  C7  UNL     1     -35.963  14.667  -3.716  1.00 20.00     0.172 C 
ENDBRANCH   5   8
TORSDOF 1
ENDMDL
MODEL 4
REMARK VINA RESULT:      -4.8      1.867      2.663
REMARK  1 active torsions:
REMARK  status: ('A' for Active; 'I' for Inactive)
REMARK    1  A    between atoms: C8_8  and  C9_9 
ROOT
HETATM    1  C1  UNL     1     -33.304  16.746  -5.183  1.00 20.00     0.002 C 
HETATM    2  C2  UNL     1     -33.738  17.571  -3.973  1.00 20.00     0.005 C 
HETATM    3  C3  UNL     1     -34.120  15.462  -5.312  1.00 20.00     0.020 C 
HETATM    4  C5  UNL     1     -34.507  15.460  -2.812  1.00 20.00     0.025 C 
HETATM    5  C8  UNL     1     -33.683  16.750  -2.677  1.00 20.00    -0.007 C 
HETATM    6  C10 UNL     1     -34.061  14.640  -4.024  1.00 20.00     0.082 C 
HETATM    7 CL12 UNL     1     -35.088  13.187  -4.185  1.00 20.00    -0.125 Cl
ENDROOT
BRANCH   5   8
HETATM    8  C9  UNL     1     -34.166  17.574  -1.500  1.00 20.00     0.015 C 
HETATM    9  C4  UNL     1     -33.059  18.251  -0.722  1.00 20.00     0.033 C 
HETATM   10  C6  UNL     1     -33.748  18.550   0.594  1.00 20.00     0.168 C 
HETATM   11  O11 UNL     1     -34.714  17.509   0.802  1.00 20.00    -0.391 OA
HETATM   12  C7  UNL     1     -34.839  16.754  -0.413  1.00 20.00     0.172 C 
ENDBRANCH   5   8
TORSDOF 1
ENDMDL
MODEL 5
REMARK VINA RESULT:      -4.6      4.109      6.668
REMARK  1 active torsions:
REMARK  status: ('A' for Active; 'I' for Inactive)
REMARK    1  A    between atoms: C8_8  and  C9_9 
ROOT
HETATM    1  C1  UNL     1     -31.428  19.262   1.501  1.00 20.00     0.002 C 
HETATM    2  C2  UNL     1     -32.166  18.681   0.297  1.00 20.00     0.005 C 
HETATM    3  C3  UNL     1     -31.964  18.702   2.816  1.00 20.00     0.020 C 
HETATM    4  C5  UNL     1     -34.217  18.320   1.731  1.00 20.00     0.025 C 
HETATM    5  C8  UNL     1     -33.683  18.888   0.408  1.00 20.00    -0.007 C 
HETATM    6  C10 UNL     1     -33.474  18.912   2.930  1.00 20.00     0.082 C 
HETATM    7 CL12 UNL     1     -34.076  18.176   4.442  1.00 20.00    -0.125 Cl
ENDROOT
BRANCH   5   8
HETATM    8  C9  UNL     1     -34.397  18.258  -0.773  1.00 20.00     0.015 C 
HETATM    9  C4  UNL     1     -34.576  16.760  -0.662  1.00 20.00     0.033 C 
HETATM   10  C6  UNL     1     -34.831  16.375  -2.105  1.00 20.00     0.168 C 
HETATM   11  O11 UNL     1     -34.098  17.303  -2.918  1.00 20.00    -0.391 OA
HETATM   12  C7  UNL     1     -33.634  18.373  -2.081  1.00 20.00     0.172 C 
ENDBRANCH   5   8
TORSDOF 1
ENDMDL
MODEL 6
REMARK VINA RESULT:      -4.6      3.161      5.019
REMARK  1 active torsions:
REMARK  status: ('A' for Active; 'I' for Inactive)
REMARK    1  A    between atoms: C8_8  and  C9_9 
ROOT
HETATM    1  C1  UNL     1     -36.876  17.975  -2.058  1.00 20.00     0.002 C 
HETATM    2  C2  UNL     1     -36.296  17.084  -3.156  1.00 20.00     0.005 C 
HETATM    3  C3  UNL     1     -35.786  18.516  -1.136  1.00 20.00     0.020 C 
HETATM    4  C5  UNL     1     -34.354  16.495  -1.648  1.00 20.00     0.025 C 
HETATM    5  C8  UNL     1     -35.450  15.944  -2.573  1.00 20.00    -0.007 C 
HETATM    6  C10 UNL     1     -34.946  17.381  -0.551  1.00 20.00     0.082 C 
HETATM    7 CL12 UNL     1     -33.636  18.055   0.459  1.00 20.00    -0.125 Cl
ENDROOT
BRANCH   5   8
HETATM    8  C9  UNL     1     -34.845  15.106  -3.681  1.00 20.00     0.015 C 
HETATM    9  C4  UNL     1     -35.749  14.003  -4.189  1.00 20.00     0.033 C 
HETATM   10  C6  UNL     1     -34.757  13.084  -4.871  1.00 20.00     0.168 C 
HETATM   11  O11 UNL     1     -33.520  13.201  -4.153  1.00 20.00    -0.391 OA
HETATM   12  C7  UNL     1     -33.620  14.316  -3.253  1.00 20.00     0.172 C 
ENDBRANCH   5   8
TORSDOF 1
ENDMDL
MODEL 7
REMARK VINA RESULT:      -4.5     12.497     14.323
REMARK  1 active torsions:
REMARK  status: ('A' for Active; 'I' for Inactive)
REMARK    1  A    between atoms: C8_8  and  C9_9 
ROOT
HETATM    1  C1  UNL     1     -40.769   6.058  -0.351  1.00 20.00     0.002 C 
HETATM    2  C2  UNL     1     -41.267   4.662  -0.720  1.00 20.00     0.005 C 
HETATM    3  C3  UNL     1     -41.736   7.144  -0.818  1.00 20.00     0.020 C 
HETATM    4  C5  UNL     1     -42.524   5.634  -2.688  1.00 20.00     0.025 C 
HETATM    5  C8  UNL     1     -41.550   4.541  -2.224  1.00 20.00    -0.007 C 
HETATM    6  C10 UNL     1     -42.013   7.027  -2.317  1.00 20.00     0.082 C 
HETATM    7 CL12 UNL     1     -43.205   8.262  -2.810  1.00 20.00    -0.125 Cl
ENDROOT
BRANCH   5   8
HETATM    8  C9  UNL     1     -42.090   3.164  -2.557  1.00 20.00     0.015 C 
HETATM    9  C4  UNL     1     -41.169   2.328  -3.418  1.00 20.00     0.033 C 
HETATM   10  C6  UNL     1     -42.125   1.292  -3.973  1.00 20.00     0.168 C 
HETATM   11  O11 UNL     1     -43.405   1.930  -4.090  1.00 20.00    -0.391 OA
HETATM   12  C7  UNL     1     -43.351   3.189  -3.404  1.00 20.00     0.172 C 
ENDBRANCH   5   8
TORSDOF 1
ENDMDL
MODEL 8
REMARK VINA RESULT:      -4.5      3.414      5.568
REMARK  1 active torsions:
REMARK  status: ('A' for Active; 'I' for Inactive)
REMARK    1  A    between atoms: C8_8  and  C9_9 
ROOT
HETATM    1  C1  UNL     1     -33.079  19.170  -0.904  1.00 20.00     0.002 C 
HETATM    2  C2  UNL     1     -33.285  17.872  -1.682  1.00 20.00     0.005 C 
HETATM    3  C3  UNL     1     -33.247  18.959   0.599  1.00 20.00     0.020 C 
HETATM    4  C5  UNL     1     -34.805  17.017   0.149  1.00 20.00     0.025 C 
HETATM    5  C8  UNL     1     -34.642  17.229  -1.364  1.00 20.00    -0.007 C 
HETATM    6  C10 UNL     1     -34.601  18.323   0.918  1.00 20.00     0.082 C 
HETATM    7 CL12 UNL     1     -34.729  18.021   2.674  1.00 20.00    -0.125 Cl
ENDROOT
BRANCH   5   8
HETATM    8  C9  UNL     1     -34.801  15.919  -2.109  1.00 20.00     0.015 C 
HETATM    9  C4  UNL     1     -33.654  15.591  -3.040  1.00 20.00     0.033 C 
HETATM   10  C6  UNL     1     -34.288  14.568  -3.959  1.00 20.00     0.168 C 
HETATM   11  O11 UNL     1     -35.679  14.907  -4.061  1.00 20.00    -0.391 OA
HETATM   12  C7  UNL     1     -35.979  15.898  -3.067  1.00 20.00     0.172 C 
ENDBRANCH   5   8
TORSDOF 1
ENDMDL
MODEL 9
REMARK VINA RESULT:      -4.5      2.674      4.487
REMARK  1 active torsions:
REMARK  status: ('A' for Active; 'I' for Inactive)
REMARK    1  A    between atoms: C8_8  and  C9_9 
ROOT
HETATM    1  C1  UNL     1     -34.471  17.416  -0.587  1.00 20.00     0.002 C 
HETATM    2  C2  UNL     1     -34.327  16.242  -1.553  1.00 20.00     0.005 C 
HETATM    3  C3  UNL     1     -35.860  18.045  -0.666  1.00 20.00     0.020 C 
HETATM    4  C5  UNL     1     -36.068  17.276  -3.067  1.00 20.00     0.025 C 
HETATM    5  C8  UNL     1     -34.669  16.647  -2.993  1.00 20.00    -0.007 C 
HETATM    6  C10 UNL     1     -36.199  18.454  -2.099  1.00 20.00     0.082 C 
HETATM    7 CL12 UNL     1     -37.859  19.112  -2.165  1.00 20.00    -0.125 Cl
ENDROOT
BRANCH   5   8
HETATM    8  C9  UNL     1     -34.567  15.454  -3.923  1.00 20.00     0.015 C 
HETATM    9  C4  UNL     1     -35.698  14.458  -3.780  1.00 20.00     0.033 C 
HETATM   10  C6  UNL     1     -35.097  13.221  -4.414  1.00 20.00     0.168 C 
HETATM   11  O11 UNL     1     -33.685  13.271  -4.167  1.00 20.00    -0.391 OA
HETATM   12  C7  UNL     1     -33.357  14.574  -3.661  1.00 20.00     0.172 C 
ENDBRANCH   5   8
TORSDOF 1
ENDMDL
