MODEL 1
REMARK VINA RESULT:      -4.9      0.000      0.000
REMARK  4 active torsions:
REMARK  status: ('A' for Active; 'I' for Inactive)
REMARK    1  A    between atoms: C4_4  and  C8_8 
REMARK    2  A    between atoms: C5_5  and  C9_9 
REMARK    3  A    between atoms: C5_5  and  O11_11 
REMARK    4  A    between atoms: C9_9  and  C10_10 
ROOT
HETATM    1  C1  UNL     1     -34.549  13.441  -4.907  1.00 20.00     0.007 C 
HETATM    2  C2  UNL     1     -34.167  14.080  -3.565  1.00 20.00     0.038 C 
HETATM    3  C3  UNL     1     -34.358  15.853  -5.158  1.00 20.00     0.042 C 
HETATM    4  C4  UNL     1     -34.455  14.552  -5.962  1.00 20.00    -0.012 C 
HETATM    5  C5  UNL     1     -33.564  15.439  -3.921  1.00 20.00     0.058 C 
ENDROOT
BRANCH   5   6
HETATM    6  C9  UNL     1     -33.652  16.452  -2.791  1.00 20.00     0.037 C 
BRANCH   6   7
HETATM    7  C10 UNL     1     -34.776  16.109  -1.817  1.00 20.00    -0.002 C 
HETATM    8  C7  UNL     1     -34.629  16.866  -0.506  1.00 20.00     0.005 C 
ENDBRANCH   6   7
ENDBRANCH   5   6
BRANCH   5   9
HETATM    9  O11 UNL     1     -32.194  15.274  -4.286  1.00 20.00    -0.390 OA
HETATM   10  H31 UNL     1     -31.955  14.365  -4.052  1.00 20.00     0.210 HD
ENDBRANCH   5   9
BRANCH   4  11
HETATM   11  C8  UNL     1     -35.617  14.547  -6.942  1.00 20.00     0.000 C 
HETATM   12  C6  UNL     1     -36.816  15.252  -6.390  1.00 20.00     0.005 C 
ENDBRANCH   4  11
TORSDOF 4
ENDMDL
MODEL 2
REMARK VINA RESULT:      -4.7      1.025      4.703
REMARK  4 active torsions:
REMARK  status: ('A' for Active; 'I' for Inactive)
REMARK    1  A    between atoms: C4_4  and  C8_8 
REMARK    2  A    between atoms: C5_5  and  C9_9 
REMARK    3  A    between atoms: C5_5  and  O11_11 
REMARK    4  A    between atoms: C9_9  and  C10_10 
ROOT
HETATM    1  C1  UNL     1     -34.185  17.603  -3.274  1.00 20.00     0.007 C 
HETATM    2  C2  UNL     1     -34.332  16.966  -4.662  1.00 20.00     0.038 C 
HETATM    3  C3  UNL     1     -34.163  15.178  -3.083  1.00 20.00     0.042 C 
HETATM    4  C4  UNL     1     -33.860  16.461  -2.301  1.00 20.00    -0.012 C 
HETATM    5  C5  UNL     1     -33.784  15.546  -4.516  1.00 20.00     0.058 C 
ENDROOT
BRANCH   5   6
HETATM    6  C9  UNL     1     -34.338  14.576  -5.546  1.00 20.00     0.037 C 
BRANCH   6   7
HETATM    7  C10 UNL     1     -34.368  15.197  -6.940  1.00 20.00    -0.002 C 
HETATM    8  C7  UNL     1     -35.437  14.559  -7.813  1.00 20.00     0.005 C 
ENDBRANCH   6   7
ENDBRANCH   5   6
BRANCH   5   9
HETATM    9  O11 UNL     1     -32.360  15.569  -4.625  1.00 20.00    -0.390 OA
HETATM   10  H31 UNL     1     -32.127  16.434  -4.992  1.00 20.00     0.210 HD
ENDBRANCH   5   9
BRANCH   4  11
HETATM   11  C8  UNL     1     -34.628  16.552  -0.993  1.00 20.00     0.000 C 
HETATM   12  C6  UNL     1     -34.137  17.673  -0.133  1.00 20.00     0.005 C 
ENDBRANCH   4  11
TORSDOF 4
ENDMDL
MODEL 3
REMARK VINA RESULT:      -4.5      1.681      2.235
REMARK  4 active torsions:
REMARK  status: ('A' for Active; 'I' for Inactive)
REMARK    1  A    between atoms: C4_4  and  C8_8 
REMARK    2  A    between atoms: C5_5  and  C9_9 
REMARK    3  A    between atoms: C5_5  and  O11_11 
REMARK    4  A    between atoms: C9_9  and  C10_10 
ROOT
HETATM    1  C1  UNL     1     -36.670  14.934  -5.883  1.00 20.00     0.007 C 
HETATM    2  C2  UNL     1     -36.329  14.936  -4.387  1.00 20.00     0.038 C 
HETATM    3  C3  UNL     1     -34.325  14.375  -5.563  1.00 20.00     0.042 C 
HETATM    4  C4  UNL     1     -35.445  14.364  -6.610  1.00 20.00    -0.012 C 
HETATM    5  C5  UNL     1     -35.064  14.087  -4.259  1.00 20.00     0.058 C 
ENDROOT
BRANCH   5   6
HETATM    6  C9  UNL     1     -34.241  14.414  -3.023  1.00 20.00     0.037 C 
BRANCH   6   7
HETATM    7  C10 UNL     1     -34.117  15.921  -2.816  1.00 20.00    -0.002 C 
HETATM    8  C7  UNL     1     -34.599  16.335  -1.435  1.00 20.00     0.005 C 
ENDBRANCH   6   7
ENDBRANCH   5   6
BRANCH   5   9
HETATM    9  O11 UNL     1     -35.417  12.704  -4.224  1.00 20.00    -0.390 OA
HETATM   10  H31 UNL     1     -36.213  12.638  -3.676  1.00 20.00     0.210 HD
ENDBRANCH   5   9
BRANCH   4  11
HETATM   11  C8  UNL     1     -35.085  15.132  -7.870  1.00 20.00     0.000 C 
HETATM   12  C6  UNL     1     -34.697  16.546  -7.572  1.00 20.00     0.005 C 
ENDBRANCH   4  11
TORSDOF 4
ENDMDL
MODEL 4
REMARK VINA RESULT:      -4.4      1.122      4.433
REMARK  4 active torsions:
REMARK  status: ('A' for Active; 'I' for Inactive)
REMARK    1  A    between atoms: C4_4  and  C8_8 
REMARK    2  A    between atoms: C5_5  and  C9_9 
REMARK    3  A    between atoms: C5_5  and  O11_11 
REMARK    4  A    between atoms: C9_9  and  C10_10 
ROOT
HETATM    1  C1  UNL     1     -33.372  16.287  -3.325  1.00 20.00     0.007 C 
HETATM    2  C2  UNL     1     -33.400  15.573  -4.682  1.00 20.00     0.038 C 
HETATM    3  C3  UNL     1     -35.283  14.787  -3.436  1.00 20.00     0.042 C 
HETATM    4  C4  UNL     1     -34.448  15.620  -2.458  1.00 20.00    -0.012 C 
HETATM    5  C5  UNL     1     -34.255  14.324  -4.464  1.00 20.00     0.058 C 
ENDROOT
BRANCH   5   6
HETATM    6  C9  UNL     1     -34.887  13.795  -5.742  1.00 20.00     0.037 C 
BRANCH   6   7
HETATM    7  C10 UNL     1     -34.672  14.753  -6.911  1.00 20.00    -0.002 C 
HETATM    8  C7  UNL     1     -35.993  15.269  -7.459  1.00 20.00     0.005 C 
ENDBRANCH   6   7
ENDBRANCH   5   6
BRANCH   5   9
HETATM    9  O11 UNL     1     -33.456  13.292  -3.886  1.00 20.00    -0.390 OA
HETATM   10  H31 UNL     1     -32.608  13.699  -3.653  1.00 20.00     0.210 HD
ENDBRANCH   5   9
BRANCH   4  11
HETATM   11  C8  UNL     1     -35.281  16.615  -1.666  1.00 20.00     0.000 C 
HETATM   12  C6  UNL     1     -34.616  17.006  -0.384  1.00 20.00     0.005 C 
ENDBRANCH   4  11
TORSDOF 4
ENDMDL
MODEL 5
REMARK VINA RESULT:      -4.3      1.889      4.601
REMARK  4 active torsions:
REMARK  status: ('A' for Active; 'I' for Inactive)
REMARK    1  A    between atoms: C4_4  and  C8_8 
REMARK    2  A    between atoms: C5_5  and  C9_9 
REMARK    3  A    between atoms: C5_5  and  O11_11 
REMARK    4  A    between atoms: C9_9  and  C10_10 
ROOT
HETATM    1  C1  UNL     1     -34.241  14.127  -3.384  1.00 20.00     0.007 C 
HETATM    2  C2  UNL     1     -34.933  13.850  -4.725  1.00 20.00     0.038 C 
HETATM    3  C3  UNL     1     -35.753  15.952  -3.934  1.00 20.00     0.042 C 
HETATM    4  C4  UNL     1     -34.930  15.360  -2.784  1.00 20.00    -0.012 C 
HETATM    5  C5  UNL     1     -36.192  14.718  -4.718  1.00 20.00     0.058 C 
ENDROOT
BRANCH   5   6
HETATM    6  C9  UNL     1     -36.705  15.048  -6.110  1.00 20.00     0.037 C 
BRANCH   6   7
HETATM    7  C10 UNL     1     -35.734  14.579  -7.190  1.00 20.00    -0.002 C 
HETATM    8  C7  UNL     1     -35.086  15.753  -7.907  1.00 20.00     0.005 C 
ENDBRANCH   6   7
ENDBRANCH   5   6
BRANCH   5   9
HETATM    9  O11 UNL     1     -37.227  14.054  -3.992  1.00 20.00    -0.390 OA
HETATM   10  H31 UNL     1     -37.783  14.749  -3.610  1.00 20.00     0.210 HD
ENDBRANCH   5   9
BRANCH   4  11
HETATM   11  C8  UNL     1     -33.955  16.357  -2.181  1.00 20.00     0.000 C 
HETATM   12  C6  UNL     1     -34.403  16.834  -0.835  1.00 20.00     0.005 C 
ENDBRANCH   4  11
TORSDOF 4
ENDMDL
MODEL 6
REMARK VINA RESULT:      -4.1     12.462     13.859
REMARK  4 active torsions:
REMARK  status: ('A' for Active; 'I' for Inactive)
REMARK    1  A    between atoms: C4_4  and  C8_8 
REMARK    2  A    between atoms: C5_5  and  C9_9 
REMARK    3  A    between atoms: C5_5  and  O11_11 
REMARK    4  A    between atoms: C9_9  and  C10_10 
ROOT
HETATM    1  C1  UNL     1     -40.838   5.829  -0.684  1.00 20.00     0.007 C 
HETATM    2  C2  UNL     1     -40.866   4.423  -1.296  1.00 20.00     0.038 C 
HETATM    3  C3  UNL     1     -43.039   5.371  -1.612  1.00 20.00     0.042 C 
HETATM    4  C4  UNL     1     -42.285   6.341  -0.696  1.00 20.00    -0.012 C 
HETATM    5  C5  UNL     1     -42.344   4.036  -1.353  1.00 20.00     0.058 C 
ENDROOT
BRANCH   5   6
HETATM    6  C9  UNL     1     -42.654   2.989  -2.410  1.00 20.00     0.037 C 
BRANCH   6   7
HETATM    7  C10 UNL     1     -41.410   2.622  -3.216  1.00 20.00    -0.002 C 
HETATM    8  C7  UNL     1     -41.602   1.319  -3.976  1.00 20.00     0.005 C 
ENDBRANCH   6   7
ENDBRANCH   5   6
BRANCH   5   9
HETATM    9  O11 UNL     1     -42.758   3.540  -0.080  1.00 20.00    -0.390 OA
HETATM   10  H31 UNL     1     -43.473   2.909  -0.250  1.00 20.00     0.210 HD
ENDBRANCH   5   9
BRANCH   4  11
HETATM   11  C8  UNL     1     -42.405   7.789  -1.140  1.00 20.00     0.000 C 
HETATM   12  C6  UNL     1     -42.575   7.907  -2.622  1.00 20.00     0.005 C 
ENDBRANCH   4  11
TORSDOF 4
ENDMDL
MODEL 7
REMARK VINA RESULT:      -4.1      1.786      2.423
REMARK  4 active torsions:
REMARK  status: ('A' for Active; 'I' for Inactive)
REMARK    1  A    between atoms: C4_4  and  C8_8 
REMARK    2  A    between atoms: C5_5  and  C9_9 
REMARK    3  A    between atoms: C5_5  and  O11_11 
REMARK    4  A    between atoms: C9_9  and  C10_10 
ROOT
HETATM    1  C1  UNL     1     -35.529  16.406  -5.200  1.00 20.00     0.007 C 
HETATM    2  C2  UNL     1     -35.060  17.195  -3.972  1.00 20.00     0.038 C 
HETATM    3  C3  UNL     1     -34.516  14.900  -3.581  1.00 20.00     0.042 C 
HETATM    4  C4  UNL     1     -35.376  14.920  -4.849  1.00 20.00    -0.012 C 
HETATM    5  C5  UNL     1     -34.950  16.166  -2.847  1.00 20.00     0.058 C 
ENDROOT
BRANCH   5   6
HETATM    6  C9  UNL     1     -33.985  16.576  -1.745  1.00 20.00     0.037 C 
BRANCH   6   7
HETATM    7  C10 UNL     1     -34.720  16.884  -0.444  1.00 20.00    -0.002 C 
HETATM    8  C7  UNL     1     -34.072  18.039   0.303  1.00 20.00     0.005 C 
ENDBRANCH   6   7
ENDBRANCH   5   6
BRANCH   5   9
HETATM    9  O11 UNL     1     -36.238  15.947  -2.271  1.00 20.00    -0.390 OA
HETATM   10  H31 UNL     1     -36.383  16.667  -1.640  1.00 20.00     0.210 HD
ENDBRANCH   5   9
BRANCH   4  11
HETATM   11  C8  UNL     1     -34.783  14.096  -5.980  1.00 20.00     0.000 C 
HETATM   12  C6  UNL     1     -34.503  14.928  -7.192  1.00 20.00     0.005 C 
ENDBRANCH   4  11
TORSDOF 4
ENDMDL
MODEL 8
REMARK VINA RESULT:      -4.1      1.341      4.924
REMARK  4 active torsions:
REMARK  status: ('A' for Active; 'I' for Inactive)
REMARK    1  A    between atoms: C4_4  and  C8_8 
REMARK    2  A    between atoms: C5_5  and  C9_9 
REMARK    3  A    between atoms: C5_5  and  O11_11 
REMARK    4  A    between atoms: C9_9  and  C10_10 
ROOT
HETATM    1  C1  UNL     1     -33.717  18.093  -1.957  1.00 20.00     0.007 C 
HETATM    2  C2  UNL     1     -33.970  17.692  -3.416  1.00 20.00     0.038 C 
HETATM    3  C3  UNL     1     -34.882  15.960  -2.044  1.00 20.00     0.042 C 
HETATM    4  C4  UNL     1     -34.107  16.883  -1.098  1.00 20.00    -0.012 C 
HETATM    5  C5  UNL     1     -34.192  16.180  -3.388  1.00 20.00     0.058 C 
ENDROOT
BRANCH   5   6
HETATM    6  C9  UNL     1     -35.005  15.668  -4.566  1.00 20.00     0.037 C 
BRANCH   6   7
HETATM    7  C10 UNL     1     -34.320  14.485  -5.246  1.00 20.00    -0.002 C 
HETATM    8  C7  UNL     1     -34.890  13.160  -4.766  1.00 20.00     0.005 C 
ENDBRANCH   6   7
ENDBRANCH   5   6
BRANCH   5   9
HETATM    9  O11 UNL     1     -32.931  15.511  -3.374  1.00 20.00    -0.390 OA
HETATM   10  H31 UNL     1     -32.262  16.182  -3.575  1.00 20.00     0.210 HD
ENDBRANCH   5   9
BRANCH   4  11
HETATM   11  C8  UNL     1     -34.899  17.259   0.143  1.00 20.00     0.000 C 
HETATM   12  C6  UNL     1     -34.171  18.253   0.992  1.00 20.00     0.005 C 
ENDBRANCH   4  11
TORSDOF 4
ENDMDL
MODEL 9
REMARK VINA RESULT:      -4.1     10.836     12.116
REMARK  4 active torsions:
REMARK  status: ('A' for Active; 'I' for Inactive)
REMARK    1  A    between atoms: C4_4  and  C8_8 
REMARK    2  A    between atoms: C5_5  and  C9_9 
REMARK    3  A    between atoms: C5_5  and  O11_11 
REMARK    4  A    between atoms: C9_9  and  C10_10 
ROOT
HETATM    1  C1  UNL     1     -31.674   6.267   2.892  1.00 20.00     0.007 C 
HETATM    2  C2  UNL     1     -32.776   5.360   3.454  1.00 20.00     0.038 C 
HETATM    3  C3  UNL     1     -33.759   7.506   3.075  1.00 20.00     0.042 C 
HETATM    4  C4  UNL     1     -32.253   7.688   2.858  1.00 20.00    -0.012 C 
HETATM    5  C5  UNL     1     -33.833   6.309   4.019  1.00 20.00     0.058 C 
ENDROOT
BRANCH   5   6
HETATM    6  C9  UNL     1     -35.220   5.693   4.093  1.00 20.00     0.037 C 
BRANCH   6   7
HETATM    7  C10 UNL     1     -35.171   4.265   4.631  1.00 20.00    -0.002 C 
HETATM    8  C7  UNL     1     -35.136   4.243   6.151  1.00 20.00     0.005 C 
ENDBRANCH   6   7
ENDBRANCH   5   6
BRANCH   5   9
HETATM    9  O11 UNL     1     -33.447   6.730   5.328  1.00 20.00    -0.390 OA
HETATM   10  H31 UNL     1     -34.075   7.418   5.592  1.00 20.00     0.210 HD
ENDBRANCH   5   9
BRANCH   4  11
HETATM   11  C8  UNL     1     -31.926   8.438   1.578  1.00 20.00     0.000 C 
HETATM   12  C6  UNL     1     -32.546   9.800   1.553  1.00 20.00     0.005 C 
ENDBRANCH   4  11
TORSDOF 4
ENDMDL
