MODEL 1
REMARK VINA RESULT:      -4.8      0.000      0.000
REMARK  2 active torsions:
REMARK  status: ('A' for Active; 'I' for Inactive)
REMARK    1  A    between atoms: C2_2  and  C10_10 
REMARK    2  A    between atoms: C7_7  and  C10_10 
ROOT
HETATM    1  C1  UNL     1     -33.025  18.243  -0.396  1.00 20.00    -0.111 C 
HETATM    2  C2  UNL     1     -33.732  17.406  -0.886  1.00 20.00    -0.107 C 
HETATM    3  C9  UNL     1     -32.163  19.261   0.201  1.00 20.00     0.112 C 
ENDROOT
BRANCH   2   4
HETATM    4  C10 UNL     1     -34.587  16.381  -1.490  1.00 20.00     0.098 C 
BRANCH   4   5
HETATM    5  C7  UNL     1     -34.002  15.889  -2.812  1.00 20.00    -0.002 C 
HETATM    6  C4  UNL     1     -34.684  14.586  -3.254  1.00 20.00     0.005 C 
HETATM    7  C3  UNL     1     -34.153  14.101  -4.602  1.00 20.00     0.002 C 
HETATM    8  C5  UNL     1     -34.276  15.179  -5.677  1.00 20.00     0.020 C 
HETATM    9  C8  UNL     1     -33.592  16.474  -5.239  1.00 20.00     0.082 C 
HETATM   10  C6  UNL     1     -34.130  16.969  -3.897  1.00 20.00     0.025 C 
HETATM   11 CL11 UNL     1     -33.820  17.732  -6.487  1.00 20.00    -0.125 Cl
ENDBRANCH   4   5
ENDBRANCH   2   4
TORSDOF 2
ENDMDL
MODEL 2
REMARK VINA RESULT:      -4.7     11.735     12.977
REMARK  2 active torsions:
REMARK  status: ('A' for Active; 'I' for Inactive)
REMARK    1  A    between atoms: C2_2  and  C10_10 
REMARK    2  A    between atoms: C7_7  and  C10_10 
ROOT
HETATM    1  C1  UNL     1     -32.222   8.531   1.628  1.00 20.00    -0.111 C 
HETATM    2  C2  UNL     1     -32.360   7.435   2.098  1.00 20.00    -0.107 C 
HETATM    3  C9  UNL     1     -32.055   9.866   1.056  1.00 20.00     0.112 C 
ENDROOT
BRANCH   2   4
HETATM    4  C10 UNL     1     -32.539   6.099   2.673  1.00 20.00     0.098 C 
BRANCH   4   5
HETATM    5  C7  UNL     1     -33.628   6.107   3.744  1.00 20.00    -0.002 C 
HETATM    6  C4  UNL     1     -34.077   4.674   4.068  1.00 20.00     0.005 C 
HETATM    7  C3  UNL     1     -35.129   4.650   5.175  1.00 20.00     0.002 C 
HETATM    8  C5  UNL     1     -34.643   5.371   6.430  1.00 20.00     0.020 C 
HETATM    9  C8  UNL     1     -34.202   6.799   6.109  1.00 20.00     0.082 C 
HETATM   10  C6  UNL     1     -33.139   6.826   5.010  1.00 20.00     0.025 C 
HETATM   11 CL11 UNL     1     -33.570   7.585   7.585  1.00 20.00    -0.125 Cl
ENDBRANCH   4   5
ENDBRANCH   2   4
TORSDOF 2
ENDMDL
MODEL 3
REMARK VINA RESULT:      -4.6      2.426      2.896
REMARK  2 active torsions:
REMARK  status: ('A' for Active; 'I' for Inactive)
REMARK    1  A    between atoms: C2_2  and  C10_10 
REMARK    2  A    between atoms: C7_7  and  C10_10 
ROOT
HETATM    1  C1  UNL     1     -35.034  17.466   0.884  1.00 20.00    -0.111 C 
HETATM    2  C2  UNL     1     -34.619  17.146  -0.195  1.00 20.00    -0.107 C 
HETATM    3  C9  UNL     1     -35.540  17.856   2.199  1.00 20.00     0.112 C 
ENDROOT
BRANCH   2   4
HETATM    4  C10 UNL     1     -34.121  16.760  -1.519  1.00 20.00     0.098 C 
BRANCH   4   5
HETATM    5  C7  UNL     1     -35.123  15.861  -2.240  1.00 20.00    -0.002 C 
HETATM    6  C4  UNL     1     -36.177  16.705  -2.971  1.00 20.00     0.005 C 
HETATM    7  C3  UNL     1     -37.162  15.831  -3.745  1.00 20.00     0.002 C 
HETATM    8  C5  UNL     1     -36.443  14.891  -4.710  1.00 20.00     0.020 C 
HETATM    9  C8  UNL     1     -35.399  14.047  -3.981  1.00 20.00     0.082 C 
HETATM   10  C6  UNL     1     -34.403  14.919  -3.216  1.00 20.00     0.025 C 
HETATM   11 CL11 UNL     1     -34.528  13.015  -5.153  1.00 20.00    -0.125 Cl
ENDBRANCH   4   5
ENDBRANCH   2   4
TORSDOF 2
ENDMDL
MODEL 4
REMARK VINA RESULT:      -4.5      1.607      2.231
REMARK  2 active torsions:
REMARK  status: ('A' for Active; 'I' for Inactive)
REMARK    1  A    between atoms: C2_2  and  C10_10 
REMARK    2  A    between atoms: C7_7  and  C10_10 
ROOT
HETATM    1  C1  UNL     1     -32.916  18.334  -0.066  1.00 20.00    -0.111 C 
HETATM    2  C2  UNL     1     -33.766  17.572  -0.435  1.00 20.00    -0.107 C 
HETATM    3  C9  UNL     1     -31.879  19.263   0.381  1.00 20.00     0.112 C 
ENDROOT
BRANCH   2   4
HETATM    4  C10 UNL     1     -34.807  16.648  -0.893  1.00 20.00     0.098 C 
BRANCH   4   5
HETATM    5  C7  UNL     1     -34.827  16.559  -2.418  1.00 20.00    -0.002 C 
HETATM    6  C4  UNL     1     -33.751  17.471  -3.026  1.00 20.00     0.005 C 
HETATM    7  C3  UNL     1     -33.714  17.360  -4.550  1.00 20.00     0.002 C 
HETATM    8  C5  UNL     1     -33.531  15.915  -5.005  1.00 20.00     0.020 C 
HETATM    9  C8  UNL     1     -34.605  15.008  -4.404  1.00 20.00     0.082 C 
HETATM   10  C6  UNL     1     -34.636  15.106  -2.879  1.00 20.00     0.025 C 
HETATM   11 CL11 UNL     1     -34.315  13.315  -4.898  1.00 20.00    -0.125 Cl
ENDBRANCH   4   5
ENDBRANCH   2   4
TORSDOF 2
ENDMDL
MODEL 5
REMARK VINA RESULT:      -4.5      1.800      2.250
REMARK  2 active torsions:
REMARK  status: ('A' for Active; 'I' for Inactive)
REMARK    1  A    between atoms: C2_2  and  C10_10 
REMARK    2  A    between atoms: C7_7  and  C10_10 
ROOT
HETATM    1  C1  UNL     1     -34.419  17.302  -1.112  1.00 20.00    -0.111 C 
HETATM    2  C2  UNL     1     -34.094  17.334  -2.266  1.00 20.00    -0.107 C 
HETATM    3  C9  UNL     1     -34.815  17.262   0.295  1.00 20.00     0.112 C 
ENDROOT
BRANCH   2   4
HETATM    4  C10 UNL     1     -33.698  17.362  -3.677  1.00 20.00     0.098 C 
BRANCH   4   5
HETATM    5  C7  UNL     1     -33.644  15.951  -4.258  1.00 20.00    -0.002 C 
HETATM    6  C4  UNL     1     -34.115  14.921  -3.222  1.00 20.00     0.005 C 
HETATM    7  C3  UNL     1     -34.121  13.505  -3.796  1.00 20.00     0.002 C 
HETATM    8  C5  UNL     1     -34.952  13.419  -5.074  1.00 20.00     0.020 C 
HETATM    9  C8  UNL     1     -34.479  14.440  -6.108  1.00 20.00     0.082 C 
HETATM   10  C6  UNL     1     -34.484  15.860  -5.541  1.00 20.00     0.025 C 
HETATM   11 CL11 UNL     1     -35.521  14.361  -7.558  1.00 20.00    -0.125 Cl
ENDBRANCH   4   5
ENDBRANCH   2   4
TORSDOF 2
ENDMDL
MODEL 6
REMARK VINA RESULT:      -4.5     12.009     13.528
REMARK  2 active torsions:
REMARK  status: ('A' for Active; 'I' for Inactive)
REMARK    1  A    between atoms: C2_2  and  C10_10 
REMARK    2  A    between atoms: C7_7  and  C10_10 
ROOT
HETATM    1  C1  UNL     1     -41.945   9.008  -5.341  1.00 20.00    -0.111 C 
HETATM    2  C2  UNL     1     -42.342   8.587  -4.290  1.00 20.00    -0.107 C 
HETATM    3  C9  UNL     1     -41.460   9.522  -6.621  1.00 20.00     0.112 C 
ENDROOT
BRANCH   2   4
HETATM    4  C10 UNL     1     -42.823   8.080  -3.002  1.00 20.00     0.098 C 
BRANCH   4   5
HETATM    5  C7  UNL     1     -41.913   6.971  -2.476  1.00 20.00    -0.002 C 
HETATM    6  C4  UNL     1     -41.599   7.189  -0.989  1.00 20.00     0.005 C 
HETATM    7  C3  UNL     1     -40.732   6.064  -0.425  1.00 20.00     0.002 C 
HETATM    8  C5  UNL     1     -41.365   4.694  -0.660  1.00 20.00     0.020 C 
HETATM    9  C8  UNL     1     -41.672   4.475  -2.141  1.00 20.00     0.082 C 
HETATM   10  C6  UNL     1     -42.550   5.592  -2.705  1.00 20.00     0.025 C 
HETATM   11 CL11 UNL     1     -42.479   2.896  -2.366  1.00 20.00    -0.125 Cl
ENDBRANCH   4   5
ENDBRANCH   2   4
TORSDOF 2
ENDMDL
MODEL 7
REMARK VINA RESULT:      -4.5      1.907      2.728
REMARK  2 active torsions:
REMARK  status: ('A' for Active; 'I' for Inactive)
REMARK    1  A    between atoms: C2_2  and  C10_10 
REMARK    2  A    between atoms: C7_7  and  C10_10 
ROOT
HETATM    1  C1  UNL     1     -34.725  16.804  -0.756  1.00 20.00    -0.111 C 
HETATM    2  C2  UNL     1     -34.439  16.167  -1.732  1.00 20.00    -0.107 C 
HETATM    3  C9  UNL     1     -35.072  17.579   0.433  1.00 20.00     0.112 C 
ENDROOT
BRANCH   2   4
HETATM    4  C10 UNL     1     -34.082  15.384  -2.919  1.00 20.00     0.098 C 
BRANCH   4   5
HETATM    5  C7  UNL     1     -34.581  16.064  -4.192  1.00 20.00    -0.002 C 
HETATM    6  C4  UNL     1     -33.520  17.029  -4.741  1.00 20.00     0.005 C 
HETATM    7  C3  UNL     1     -33.973  17.683  -6.045  1.00 20.00     0.002 C 
HETATM    8  C5  UNL     1     -34.364  16.642  -7.091  1.00 20.00     0.020 C 
HETATM    9  C8  UNL     1     -35.424  15.685  -6.548  1.00 20.00     0.082 C 
HETATM   10  C6  UNL     1     -34.969  15.019  -5.250  1.00 20.00     0.025 C 
HETATM   11 CL11 UNL     1     -35.801  14.438  -7.771  1.00 20.00    -0.125 Cl
ENDBRANCH   4   5
ENDBRANCH   2   4
TORSDOF 2
ENDMDL
MODEL 8
REMARK VINA RESULT:      -4.3      3.086      5.972
REMARK  2 active torsions:
REMARK  status: ('A' for Active; 'I' for Inactive)
REMARK    1  A    between atoms: C2_2  and  C10_10 
REMARK    2  A    between atoms: C7_7  and  C10_10 
ROOT
HETATM    1  C1  UNL     1     -33.846  15.117  -3.183  1.00 20.00    -0.111 C 
HETATM    2  C2  UNL     1     -33.849  16.240  -2.758  1.00 20.00    -0.107 C 
HETATM    3  C9  UNL     1     -33.844  13.750  -3.700  1.00 20.00     0.112 C 
ENDROOT
BRANCH   2   4
HETATM    4  C10 UNL     1     -33.858  17.614  -2.248  1.00 20.00     0.098 C 
BRANCH   4   5
HETATM    5  C7  UNL     1     -33.624  17.638  -0.739  1.00 20.00    -0.002 C 
HETATM    6  C4  UNL     1     -32.654  18.766  -0.360  1.00 20.00     0.005 C 
HETATM    7  C3  UNL     1     -32.444  18.846   1.151  1.00 20.00     0.002 C 
HETATM    8  C5  UNL     1     -33.769  18.986   1.897  1.00 20.00     0.020 C 
HETATM    9  C8  UNL     1     -34.733  17.859   1.525  1.00 20.00     0.082 C 
HETATM   10  C6  UNL     1     -34.956  17.785   0.014  1.00 20.00     0.025 C 
HETATM   11 CL11 UNL     1     -36.296  18.098   2.358  1.00 20.00    -0.125 Cl
ENDBRANCH   4   5
ENDBRANCH   2   4
TORSDOF 2
ENDMDL
MODEL 9
REMARK VINA RESULT:      -4.3      2.295      2.673
REMARK  2 active torsions:
REMARK  status: ('A' for Active; 'I' for Inactive)
REMARK    1  A    between atoms: C2_2  and  C10_10 
REMARK    2  A    between atoms: C7_7  and  C10_10 
ROOT
HETATM    1  C1  UNL     1     -34.474  17.340  -0.753  1.00 20.00    -0.111 C 
HETATM    2  C2  UNL     1     -34.107  17.355  -1.895  1.00 20.00    -0.107 C 
HETATM    3  C9  UNL     1     -34.922  17.321   0.639  1.00 20.00     0.112 C 
ENDROOT
BRANCH   2   4
HETATM    4  C10 UNL     1     -33.669  17.371  -3.294  1.00 20.00     0.098 C 
BRANCH   4   5
HETATM    5  C7  UNL     1     -34.212  16.161  -4.051  1.00 20.00    -0.002 C 
HETATM    6  C4  UNL     1     -33.445  14.889  -3.659  1.00 20.00     0.005 C 
HETATM    7  C3  UNL     1     -34.004  13.654  -4.363  1.00 20.00     0.002 C 
HETATM    8  C5  UNL     1     -35.501  13.493  -4.112  1.00 20.00     0.020 C 
HETATM    9  C8  UNL     1     -36.266  14.756  -4.507  1.00 20.00     0.082 C 
HETATM   10  C6  UNL     1     -35.718  15.992  -3.794  1.00 20.00     0.025 C 
HETATM   11 CL11 UNL     1     -38.002  14.557  -4.130  1.00 20.00    -0.125 Cl
ENDBRANCH   4   5
ENDBRANCH   2   4
TORSDOF 2
ENDMDL
