MODEL 1
REMARK VINA RESULT:      -5.4      0.000      0.000
REMARK  2 active torsions:
REMARK  status: ('A' for Active; 'I' for Inactive)
REMARK    1  A    between atoms: C6_6  and  C9_9 
REMARK    2  A    between atoms: C8_8  and  C9_9 
ROOT
HETATM    1  C1  UNL     1     -32.174   9.527   1.053  1.00 20.00     0.012 C 
HETATM    2  C2  UNL     1     -32.147   8.603   1.819  1.00 20.00    -0.117 C 
HETATM    3  C8  UNL     1     -32.111   7.473   2.756  1.00 20.00     0.093 C 
ENDROOT
BRANCH   3   4
HETATM    4  C9  UNL     1     -33.454   6.765   2.785  1.00 20.00     0.017 C 
BRANCH   4   5
HETATM    5  C6  UNL     1     -33.561   5.847   3.993  1.00 20.00    -0.012 C 
HETATM    6  C3  UNL     1     -33.265   6.562   5.321  1.00 20.00     0.006 C 
HETATM    7  C4  UNL     1     -34.424   6.217   6.261  1.00 20.00     0.020 C 
HETATM    8  C7  UNL     1     -35.088   4.988   5.654  1.00 20.00     0.082 C 
HETATM    9  C5  UNL     1     -34.963   5.249   4.158  1.00 20.00     0.024 C 
HETATM   10 CL10 UNL     1     -34.218   3.500   6.122  1.00 20.00    -0.125 Cl
ENDBRANCH   4   5
ENDBRANCH   3   4
TORSDOF 2
ENDMDL
MODEL 2
REMARK VINA RESULT:      -4.9     11.091     11.993
REMARK  2 active torsions:
REMARK  status: ('A' for Active; 'I' for Inactive)
REMARK    1  A    between atoms: C6_6  and  C9_9 
REMARK    2  A    between atoms: C8_8  and  C9_9 
ROOT
HETATM    1  C1  UNL     1     -34.407  18.126   0.890  1.00 20.00     0.012 C 
HETATM    2  C2  UNL     1     -34.535  17.358  -0.024  1.00 20.00    -0.117 C 
HETATM    3  C8  UNL     1     -34.693  16.416  -1.139  1.00 20.00     0.093 C 
ENDROOT
BRANCH   3   4
HETATM    4  C9  UNL     1     -33.884  16.875  -2.340  1.00 20.00     0.017 C 
BRANCH   4   5
HETATM    5  C6  UNL     1     -34.040  15.909  -3.504  1.00 20.00    -0.012 C 
HETATM    6  C3  UNL     1     -32.835  14.970  -3.675  1.00 20.00     0.006 C 
HETATM    7  C4  UNL     1     -33.406  13.554  -3.776  1.00 20.00     0.020 C 
HETATM    8  C7  UNL     1     -34.878  13.732  -4.127  1.00 20.00     0.082 C 
HETATM    9  C5  UNL     1     -35.254  14.986  -3.346  1.00 20.00     0.024 C 
HETATM   10 CL10 UNL     1     -35.086  13.980  -5.883  1.00 20.00    -0.125 Cl
ENDBRANCH   4   5
ENDBRANCH   3   4
TORSDOF 2
ENDMDL
MODEL 3
REMARK VINA RESULT:      -4.8     11.456     12.295
REMARK  2 active torsions:
REMARK  status: ('A' for Active; 'I' for Inactive)
REMARK    1  A    between atoms: C6_6  and  C9_9 
REMARK    2  A    between atoms: C8_8  and  C9_9 
ROOT
HETATM    1  C1  UNL     1     -34.451  17.726   0.419  1.00 20.00     0.012 C 
HETATM    2  C2  UNL     1     -34.611  17.017  -0.537  1.00 20.00    -0.117 C 
HETATM    3  C8  UNL     1     -34.809  16.150  -1.705  1.00 20.00     0.093 C 
ENDROOT
BRANCH   3   4
HETATM    4  C9  UNL     1     -33.586  16.182  -2.604  1.00 20.00     0.017 C 
BRANCH   4   5
HETATM    5  C6  UNL     1     -33.851  15.453  -3.912  1.00 20.00    -0.012 C 
HETATM    6  C3  UNL     1     -33.676  13.930  -3.799  1.00 20.00     0.006 C 
HETATM    7  C4  UNL     1     -34.939  13.308  -4.401  1.00 20.00     0.020 C 
HETATM    8  C7  UNL     1     -35.573  14.409  -5.242  1.00 20.00     0.082 C 
HETATM    9  C5  UNL     1     -35.281  15.660  -4.424  1.00 20.00     0.024 C 
HETATM   10 CL10 UNL     1     -34.806  14.498  -6.853  1.00 20.00    -0.125 Cl
ENDBRANCH   4   5
ENDBRANCH   3   4
TORSDOF 2
ENDMDL
MODEL 4
REMARK VINA RESULT:      -4.7      1.125      1.639
REMARK  2 active torsions:
REMARK  status: ('A' for Active; 'I' for Inactive)
REMARK    1  A    between atoms: C6_6  and  C9_9 
REMARK    2  A    between atoms: C8_8  and  C9_9 
ROOT
HETATM    1  C1  UNL     1     -32.146   9.274   1.065  1.00 20.00     0.012 C 
HETATM    2  C2  UNL     1     -32.104   8.405   1.893  1.00 20.00    -0.117 C 
HETATM    3  C8  UNL     1     -32.050   7.345   2.907  1.00 20.00     0.093 C 
ENDROOT
BRANCH   3   4
HETATM    4  C9  UNL     1     -33.173   6.346   2.690  1.00 20.00     0.017 C 
BRANCH   4   5
HETATM    5  C6  UNL     1     -33.970   6.135   3.968  1.00 20.00    -0.012 C 
HETATM    6  C3  UNL     1     -35.274   5.354   3.742  1.00 20.00     0.006 C 
HETATM    7  C4  UNL     1     -35.286   4.231   4.783  1.00 20.00     0.020 C 
HETATM    8  C7  UNL     1     -34.278   4.650   5.846  1.00 20.00     0.082 C 
HETATM    9  C5  UNL     1     -33.195   5.335   5.022  1.00 20.00     0.024 C 
HETATM   10 CL10 UNL     1     -35.017   5.785   7.010  1.00 20.00    -0.125 Cl
ENDBRANCH   4   5
ENDBRANCH   3   4
TORSDOF 2
ENDMDL
MODEL 5
REMARK VINA RESULT:      -4.7     11.157     12.206
REMARK  2 active torsions:
REMARK  status: ('A' for Active; 'I' for Inactive)
REMARK    1  A    between atoms: C6_6  and  C9_9 
REMARK    2  A    between atoms: C8_8  and  C9_9 
ROOT
HETATM    1  C1  UNL     1     -34.416  15.130  -7.344  1.00 20.00     0.012 C 
HETATM    2  C2  UNL     1     -34.790  14.490  -6.400  1.00 20.00    -0.117 C 
HETATM    3  C8  UNL     1     -35.251  13.707  -5.245  1.00 20.00     0.093 C 
ENDROOT
BRANCH   3   4
HETATM    4  C9  UNL     1     -34.104  13.458  -4.281  1.00 20.00     0.017 C 
BRANCH   4   5
HETATM    5  C6  UNL     1     -34.058  14.529  -3.202  1.00 20.00    -0.012 C 
HETATM    6  C3  UNL     1     -33.069  15.662  -3.519  1.00 20.00     0.006 C 
HETATM    7  C4  UNL     1     -33.840  16.970  -3.323  1.00 20.00     0.020 C 
HETATM    8  C7  UNL     1     -35.053  16.605  -2.477  1.00 20.00     0.082 C 
HETATM    9  C5  UNL     1     -35.411  15.218  -2.995  1.00 20.00     0.024 C 
HETATM   10 CL10 UNL     1     -34.627  16.555  -0.744  1.00 20.00    -0.125 Cl
ENDBRANCH   4   5
ENDBRANCH   3   4
TORSDOF 2
ENDMDL
MODEL 6
REMARK VINA RESULT:      -4.4     11.822     13.064
REMARK  2 active torsions:
REMARK  status: ('A' for Active; 'I' for Inactive)
REMARK    1  A    between atoms: C6_6  and  C9_9 
REMARK    2  A    between atoms: C8_8  and  C9_9 
ROOT
HETATM    1  C1  UNL     1     -34.775  16.999  -0.227  1.00 20.00     0.012 C 
HETATM    2  C2  UNL     1     -34.339  16.673  -1.298  1.00 20.00    -0.117 C 
HETATM    3  C8  UNL     1     -33.804  16.278  -2.607  1.00 20.00     0.093 C 
ENDROOT
BRANCH   3   4
HETATM    4  C9  UNL     1     -34.466  14.998  -3.085  1.00 20.00     0.017 C 
BRANCH   4   5
HETATM    5  C6  UNL     1     -35.106  15.192  -4.451  1.00 20.00    -0.012 C 
HETATM    6  C3  UNL     1     -34.431  16.296  -5.281  1.00 20.00     0.006 C 
HETATM    7  C4  UNL     1     -34.147  15.685  -6.656  1.00 20.00     0.020 C 
HETATM    8  C7  UNL     1     -35.046  14.459  -6.750  1.00 20.00     0.082 C 
HETATM    9  C5  UNL     1     -35.037  13.932  -5.321  1.00 20.00     0.024 C 
HETATM   10 CL10 UNL     1     -36.695  14.919  -7.257  1.00 20.00    -0.125 Cl
ENDBRANCH   4   5
ENDBRANCH   3   4
TORSDOF 2
ENDMDL
MODEL 7
REMARK VINA RESULT:      -4.2     11.051     13.186
REMARK  2 active torsions:
REMARK  status: ('A' for Active; 'I' for Inactive)
REMARK    1  A    between atoms: C6_6  and  C9_9 
REMARK    2  A    between atoms: C8_8  and  C9_9 
ROOT
HETATM    1  C1  UNL     1     -37.611  16.311  -7.400  1.00 20.00     0.012 C 
HETATM    2  C2  UNL     1     -36.734  15.501  -7.523  1.00 20.00    -0.117 C 
HETATM    3  C8  UNL     1     -35.663  14.507  -7.675  1.00 20.00     0.093 C 
ENDROOT
BRANCH   3   4
HETATM    4  C9  UNL     1     -34.382  15.004  -7.027  1.00 20.00     0.017 C 
BRANCH   4   5
HETATM    5  C6  UNL     1     -34.510  15.024  -5.511  1.00 20.00    -0.012 C 
HETATM    6  C3  UNL     1     -34.378  13.630  -4.877  1.00 20.00     0.006 C 
HETATM    7  C4  UNL     1     -33.348  13.768  -3.752  1.00 20.00     0.020 C 
HETATM    8  C7  UNL     1     -33.264  15.260  -3.457  1.00 20.00     0.082 C 
HETATM    9  C5  UNL     1     -33.430  15.880  -4.839  1.00 20.00     0.024 C 
HETATM   10 CL10 UNL     1     -34.581  15.766  -2.362  1.00 20.00    -0.125 Cl
ENDBRANCH   4   5
ENDBRANCH   3   4
TORSDOF 2
ENDMDL
MODEL 8
REMARK VINA RESULT:      -4.2     11.179     12.249
REMARK  2 active torsions:
REMARK  status: ('A' for Active; 'I' for Inactive)
REMARK    1  A    between atoms: C6_6  and  C9_9 
REMARK    2  A    between atoms: C8_8  and  C9_9 
ROOT
HETATM    1  C1  UNL     1     -34.138  13.334  -4.193  1.00 20.00     0.012 C 
HETATM    2  C2  UNL     1     -34.427  14.286  -3.520  1.00 20.00    -0.117 C 
HETATM    3  C8  UNL     1     -34.784  15.447  -2.695  1.00 20.00     0.093 C 
ENDROOT
BRANCH   3   4
HETATM    4  C9  UNL     1     -33.626  16.427  -2.630  1.00 20.00     0.017 C 
BRANCH   4   5
HETATM    5  C6  UNL     1     -33.695  17.269  -1.365  1.00 20.00    -0.012 C 
HETATM    6  C3  UNL     1     -34.040  18.742  -1.640  1.00 20.00     0.006 C 
HETATM    7  C4  UNL     1     -35.189  19.097  -0.692  1.00 20.00     0.020 C 
HETATM    8  C7  UNL     1     -35.170  18.025   0.390  1.00 20.00     0.082 C 
HETATM    9  C5  UNL     1     -34.768  16.778  -0.386  1.00 20.00     0.024 C 
HETATM   10 CL10 UNL     1     -33.965  18.416   1.649  1.00 20.00    -0.125 Cl
ENDBRANCH   4   5
ENDBRANCH   3   4
TORSDOF 2
ENDMDL
MODEL 9
REMARK VINA RESULT:      -4.1     10.038     10.820
REMARK  2 active torsions:
REMARK  status: ('A' for Active; 'I' for Inactive)
REMARK    1  A    between atoms: C6_6  and  C9_9 
REMARK    2  A    between atoms: C8_8  and  C9_9 
ROOT
HETATM    1  C1  UNL     1     -41.662   9.237  -5.567  1.00 20.00     0.012 C 
HETATM    2  C2  UNL     1     -42.244   8.529  -4.791  1.00 20.00    -0.117 C 
HETATM    3  C8  UNL     1     -42.956   7.662  -3.844  1.00 20.00     0.093 C 
ENDROOT
BRANCH   3   4
HETATM    4  C9  UNL     1     -42.519   7.960  -2.420  1.00 20.00     0.017 C 
BRANCH   4   5
HETATM    5  C6  UNL     1     -42.437   6.684  -1.597  1.00 20.00    -0.012 C 
HETATM    6  C3  UNL     1     -42.769   5.421  -2.408  1.00 20.00     0.006 C 
HETATM    7  C4  UNL     1     -41.632   4.430  -2.143  1.00 20.00     0.020 C 
HETATM    8  C7  UNL     1     -40.947   4.927  -0.876  1.00 20.00     0.082 C 
HETATM    9  C5  UNL     1     -41.036   6.440  -1.023  1.00 20.00     0.024 C 
HETATM   10 CL10 UNL     1     -41.820   4.369   0.579  1.00 20.00    -0.125 Cl
ENDBRANCH   4   5
ENDBRANCH   3   4
TORSDOF 2
ENDMDL
