MODEL 1
REMARK VINA RESULT:      -4.9      0.000      0.000
REMARK  2 active torsions:
REMARK  status: ('A' for Active; 'I' for Inactive)
REMARK    1  A    between atoms: C4_4  and  C10_10 
REMARK    2  A    between atoms: C8_8  and  C10_10 
ROOT
HETATM    1  C5  UNL     1     -35.976  16.061  -3.271  1.00 20.00     0.006 C 
HETATM    2  C6  UNL     1     -36.602  14.771  -3.780  1.00 20.00     0.016 C 
HETATM    3  C7  UNL     1     -34.229  14.382  -3.341  1.00 20.00     0.020 C 
HETATM    4  C8  UNL     1     -34.749  15.565  -2.511  1.00 20.00    -0.009 C 
HETATM    5  C9  UNL     1     -35.409  13.923  -4.201  1.00 20.00     0.058 C 
HETATM    6 BR12 UNL     1     -35.015  14.227  -6.094  1.00 20.00    -0.091 Br
ENDROOT
BRANCH   4   7
HETATM    7  C10 UNL     1     -33.706  16.649  -2.294  1.00 20.00     0.043 C 
BRANCH   7   8
HETATM    8  C4  UNL     1     -33.883  17.340  -0.967  1.00 20.00    -0.051 A 
HETATM    9  C1  UNL     1     -34.925  17.036  -0.045  1.00 20.00     0.014 A 
HETATM   10  C2  UNL     1     -34.859  17.816   1.089  1.00 20.00     0.050 A 
HETATM   11  S11 UNL     1     -33.543  18.910   1.038  1.00 20.00    -0.113 SA
HETATM   12  C3  UNL     1     -33.059  18.343  -0.503  1.00 20.00     0.056 A 
ENDBRANCH   7   8
ENDBRANCH   4   7
TORSDOF 2
ENDMDL
MODEL 2
REMARK VINA RESULT:      -4.7      3.465      5.486
REMARK  2 active torsions:
REMARK  status: ('A' for Active; 'I' for Inactive)
REMARK    1  A    between atoms: C4_4  and  C10_10 
REMARK    2  A    between atoms: C8_8  and  C10_10 
ROOT
HETATM    1  C5  UNL     1     -34.626  17.016  -0.145  1.00 20.00     0.006 C 
HETATM    2  C6  UNL     1     -34.771  18.377   0.522  1.00 20.00     0.016 C 
HETATM    3  C7  UNL     1     -33.461  18.632  -1.526  1.00 20.00     0.020 C 
HETATM    4  C8  UNL     1     -34.348  17.380  -1.601  1.00 20.00    -0.009 C 
HETATM    5  C9  UNL     1     -33.690  19.225  -0.135  1.00 20.00     0.058 C 
HETATM    6 BR12 UNL     1     -32.041  19.125   0.915  1.00 20.00    -0.091 Br
ENDROOT
BRANCH   4   7
HETATM    7  C10 UNL     1     -33.717  16.244  -2.388  1.00 20.00     0.043 C 
BRANCH   7   8
HETATM    8  C4  UNL     1     -34.752  15.411  -3.099  1.00 20.00    -0.051 A 
HETATM    9  C1  UNL     1     -34.490  14.130  -3.665  1.00 20.00     0.014 A 
HETATM   10  C2  UNL     1     -35.608  13.586  -4.257  1.00 20.00     0.050 A 
HETATM   11  S11 UNL     1     -36.968  14.618  -4.128  1.00 20.00    -0.113 SA
HETATM   12  C3  UNL     1     -36.062  15.797  -3.280  1.00 20.00     0.056 A 
ENDBRANCH   7   8
ENDBRANCH   4   7
TORSDOF 2
ENDMDL
MODEL 3
REMARK VINA RESULT:      -4.7      3.745      5.504
REMARK  2 active torsions:
REMARK  status: ('A' for Active; 'I' for Inactive)
REMARK    1  A    between atoms: C4_4  and  C10_10 
REMARK    2  A    between atoms: C8_8  and  C10_10 
ROOT
HETATM    1  C5  UNL     1     -34.651  16.504  -0.890  1.00 20.00     0.006 C 
HETATM    2  C6  UNL     1     -35.159  17.776  -0.226  1.00 20.00     0.016 C 
HETATM    3  C7  UNL     1     -33.594  18.379  -2.005  1.00 20.00     0.020 C 
HETATM    4  C8  UNL     1     -34.205  16.993  -2.265  1.00 20.00    -0.009 C 
HETATM    5  C9  UNL     1     -34.162  18.842  -0.662  1.00 20.00     0.058 C 
HETATM    6 BR12 UNL     1     -32.724  18.982   0.659  1.00 20.00    -0.091 Br
ENDROOT
BRANCH   4   7
HETATM    7  C10 UNL     1     -33.248  16.036  -2.956  1.00 20.00     0.043 C 
BRANCH   7   8
HETATM    8  C4  UNL     1     -33.960  15.145  -3.940  1.00 20.00    -0.051 A 
HETATM    9  C1  UNL     1     -34.335  13.798  -3.666  1.00 20.00     0.014 A 
HETATM   10  C2  UNL     1     -34.970  13.208  -4.736  1.00 20.00     0.050 A 
HETATM   11  S11 UNL     1     -35.111  14.277  -6.066  1.00 20.00    -0.113 SA
HETATM   12  C3  UNL     1     -34.322  15.533  -5.211  1.00 20.00     0.056 A 
ENDBRANCH   7   8
ENDBRANCH   4   7
TORSDOF 2
ENDMDL
MODEL 4
REMARK VINA RESULT:      -4.7      3.397      5.375
REMARK  2 active torsions:
REMARK  status: ('A' for Active; 'I' for Inactive)
REMARK    1  A    between atoms: C4_4  and  C10_10 
REMARK    2  A    between atoms: C8_8  and  C10_10 
ROOT
HETATM    1  C5  UNL     1     -33.380  18.656  -1.008  1.00 20.00     0.006 C 
HETATM    2  C6  UNL     1     -33.542  18.525   0.500  1.00 20.00     0.016 C 
HETATM    3  C7  UNL     1     -34.751  16.701  -0.590  1.00 20.00     0.020 C 
HETATM    4  C8  UNL     1     -33.635  17.234  -1.501  1.00 20.00    -0.009 C 
HETATM    5  C9  UNL     1     -34.725  17.579   0.662  1.00 20.00     0.058 C 
HETATM    6 BR12 UNL     1     -36.384  18.611   0.790  1.00 20.00    -0.091 Br
ENDROOT
BRANCH   4   7
HETATM    7  C10 UNL     1     -33.985  17.172  -2.978  1.00 20.00     0.043 C 
BRANCH   7   8
HETATM    8  C4  UNL     1     -34.166  15.754  -3.453  1.00 20.00    -0.051 A 
HETATM    9  C1  UNL     1     -33.106  14.805  -3.546  1.00 20.00     0.014 A 
HETATM   10  C2  UNL     1     -33.542  13.584  -4.010  1.00 20.00     0.050 A 
HETATM   11  S11 UNL     1     -35.224  13.584  -4.331  1.00 20.00    -0.113 SA
HETATM   12  C3  UNL     1     -35.372  15.220  -3.850  1.00 20.00     0.056 A 
ENDBRANCH   7   8
ENDBRANCH   4   7
TORSDOF 2
ENDMDL
MODEL 5
REMARK VINA RESULT:      -4.7      1.130      1.154
REMARK  2 active torsions:
REMARK  status: ('A' for Active; 'I' for Inactive)
REMARK    1  A    between atoms: C4_4  and  C10_10 
REMARK    2  A    between atoms: C8_8  and  C10_10 
ROOT
HETATM    1  C5  UNL     1     -35.874  15.432  -3.393  1.00 20.00     0.006 C 
HETATM    2  C6  UNL     1     -36.290  14.153  -4.106  1.00 20.00     0.016 C 
HETATM    3  C7  UNL     1     -33.850  14.248  -4.006  1.00 20.00     0.020 C 
HETATM    4  C8  UNL     1     -34.473  15.098  -2.889  1.00 20.00    -0.009 C 
HETATM    5  C9  UNL     1     -35.024  13.701  -4.820  1.00 20.00     0.058 C 
HETATM    6 BR12 UNL     1     -34.985  14.443  -6.631  1.00 20.00    -0.091 Br
ENDROOT
BRANCH   4   7
HETATM    7  C10 UNL     1     -33.654  16.332  -2.547  1.00 20.00     0.043 C 
BRANCH   7   8
HETATM    8  C4  UNL     1     -34.372  17.230  -1.574  1.00 20.00    -0.051 A 
HETATM    9  C1  UNL     1     -34.731  16.844  -0.250  1.00 20.00     0.014 A 
HETATM   10  C2  UNL     1     -35.380  17.853   0.426  1.00 20.00     0.050 A 
HETATM   11  S11 UNL     1     -35.556  19.259  -0.534  1.00 20.00    -0.113 SA
HETATM   12  C3  UNL     1     -34.763  18.521  -1.859  1.00 20.00     0.056 A 
ENDBRANCH   7   8
ENDBRANCH   4   7
TORSDOF 2
ENDMDL
MODEL 6
REMARK VINA RESULT:      -4.4      1.683      2.287
REMARK  2 active torsions:
REMARK  status: ('A' for Active; 'I' for Inactive)
REMARK    1  A    between atoms: C4_4  and  C10_10 
REMARK    2  A    between atoms: C8_8  and  C10_10 
ROOT
HETATM    1  C5  UNL     1     -33.684  15.361  -3.202  1.00 20.00     0.006 C 
HETATM    2  C6  UNL     1     -33.003  15.847  -4.474  1.00 20.00     0.016 C 
HETATM    3  C7  UNL     1     -34.073  17.748  -3.371  1.00 20.00     0.020 C 
HETATM    4  C8  UNL     1     -33.774  16.630  -2.360  1.00 20.00    -0.009 C 
HETATM    5  C9  UNL     1     -33.635  17.208  -4.733  1.00 20.00     0.058 C 
HETATM    6 BR12 UNL     1     -35.192  17.003  -5.902  1.00 20.00    -0.091 Br
ENDROOT
BRANCH   4   7
HETATM    7  C10 UNL     1     -34.807  16.535  -1.249  1.00 20.00     0.043 C 
BRANCH   7   8
HETATM    8  C4  UNL     1     -34.449  17.407  -0.074  1.00 20.00    -0.051 A 
HETATM    9  C1  UNL     1     -35.236  17.509   1.110  1.00 20.00     0.014 A 
HETATM   10  C2  UNL     1     -34.684  18.376   2.026  1.00 20.00     0.050 A 
HETATM   11  S11 UNL     1     -33.223  19.064   1.459  1.00 20.00    -0.113 SA
HETATM   12  C3  UNL     1     -33.325  18.202  -0.017  1.00 20.00     0.056 A 
ENDBRANCH   7   8
ENDBRANCH   4   7
TORSDOF 2
ENDMDL
MODEL 7
REMARK VINA RESULT:      -4.4      2.253      3.471
REMARK  2 active torsions:
REMARK  status: ('A' for Active; 'I' for Inactive)
REMARK    1  A    between atoms: C4_4  and  C10_10 
REMARK    2  A    between atoms: C8_8  and  C10_10 
ROOT
HETATM    1  C5  UNL     1     -34.638  16.655  -0.779  1.00 20.00     0.006 C 
HETATM    2  C6  UNL     1     -34.378  15.951  -2.103  1.00 20.00     0.016 C 
HETATM    3  C7  UNL     1     -33.650  18.278  -2.284  1.00 20.00     0.020 C 
HETATM    4  C8  UNL     1     -33.657  17.823  -0.817  1.00 20.00    -0.009 C 
HETATM    5  C9  UNL     1     -34.177  17.091  -3.093  1.00 20.00     0.058 C 
HETATM    6 BR12 UNL     1     -35.888  17.555  -3.923  1.00 20.00    -0.091 Br
ENDROOT
BRANCH   4   7
HETATM    7  C10 UNL     1     -34.017  18.935   0.154  1.00 20.00     0.043 C 
BRANCH   7   8
HETATM    8  C4  UNL     1     -33.228  18.841   1.433  1.00 20.00    -0.051 A 
HETATM    9  C1  UNL     1     -31.812  18.984   1.506  1.00 20.00     0.014 A 
HETATM   10  C2  UNL     1     -31.343  18.853   2.794  1.00 20.00     0.050 A 
HETATM   11  S11 UNL     1     -32.608  18.558   3.910  1.00 20.00    -0.113 SA
HETATM   12  C3  UNL     1     -33.787  18.606   2.670  1.00 20.00     0.056 A 
ENDBRANCH   7   8
ENDBRANCH   4   7
TORSDOF 2
ENDMDL
MODEL 8
REMARK VINA RESULT:      -4.2     13.805     15.915
REMARK  2 active torsions:
REMARK  status: ('A' for Active; 'I' for Inactive)
REMARK    1  A    between atoms: C4_4  and  C10_10 
REMARK    2  A    between atoms: C8_8  and  C10_10 
ROOT
HETATM    1  C5  UNL     1     -40.822   4.623  -1.142  1.00 20.00     0.006 C 
HETATM    2  C6  UNL     1     -41.253   5.422   0.080  1.00 20.00     0.016 C 
HETATM    3  C7  UNL     1     -43.204   5.030  -1.340  1.00 20.00     0.020 C 
HETATM    4  C8  UNL     1     -42.124   3.967  -1.594  1.00 20.00    -0.009 C 
HETATM    5  C9  UNL     1     -42.607   5.996  -0.314  1.00 20.00     0.058 C 
HETATM    6 BR12 UNL     1     -42.368   7.764  -1.120  1.00 20.00    -0.091 Br
ENDROOT
BRANCH   4   7
HETATM    7  C10 UNL     1     -42.080   3.490  -3.036  1.00 20.00     0.043 C 
BRANCH   7   8
HETATM    8  C4  UNL     1     -42.317   2.006  -3.144  1.00 20.00    -0.051 A 
HETATM    9  C1  UNL     1     -41.504   1.124  -3.912  1.00 20.00     0.014 A 
HETATM   10  C2  UNL     1     -41.941  -0.180  -3.840  1.00 20.00     0.050 A 
HETATM   11  S11 UNL     1     -43.328  -0.337  -2.849  1.00 20.00    -0.113 SA
HETATM   12  C3  UNL     1     -43.347   1.342  -2.513  1.00 20.00     0.056 A 
ENDBRANCH   7   8
ENDBRANCH   4   7
TORSDOF 2
ENDMDL
MODEL 9
REMARK VINA RESULT:      -4.2      3.657      5.495
REMARK  2 active torsions:
REMARK  status: ('A' for Active; 'I' for Inactive)
REMARK    1  A    between atoms: C4_4  and  C10_10 
REMARK    2  A    between atoms: C8_8  and  C10_10 
ROOT
HETATM    1  C5  UNL     1     -33.670  15.889  -2.731  1.00 20.00     0.006 C 
HETATM    2  C6  UNL     1     -34.623  16.663  -1.830  1.00 20.00     0.016 C 
HETATM    3  C7  UNL     1     -35.929  15.286  -3.371  1.00 20.00     0.020 C 
HETATM    4  C8  UNL     1     -34.519  14.705  -3.184  1.00 20.00    -0.009 C 
HETATM    5  C9  UNL     1     -35.962  16.577  -2.551  1.00 20.00     0.058 C 
HETATM    6 BR12 UNL     1     -36.174  18.118  -3.739  1.00 20.00    -0.091 Br
ENDROOT
BRANCH   4   7
HETATM    7  C10 UNL     1     -33.978  14.030  -4.433  1.00 20.00     0.043 C 
BRANCH   7   8
HETATM    8  C4  UNL     1     -34.430  14.728  -5.689  1.00 20.00    -0.051 A 
HETATM    9  C1  UNL     1     -33.965  16.013  -6.096  1.00 20.00     0.014 A 
HETATM   10  C2  UNL     1     -34.539  16.420  -7.280  1.00 20.00     0.050 A 
HETATM   11  S11 UNL     1     -35.633  15.256  -7.897  1.00 20.00    -0.113 SA
HETATM   12  C3  UNL     1     -35.341  14.203  -6.579  1.00 20.00     0.056 A 
ENDBRANCH   7   8
ENDBRANCH   4   7
TORSDOF 2
ENDMDL
