MODEL 1
REMARK VINA RESULT:      -5.3      0.000      0.000
REMARK  1 active torsions:
REMARK  status: ('A' for Active; 'I' for Inactive)
REMARK    1  A    between atoms: C4_4  and  C9_9 
ROOT
HETATM    1  C1  UNL     1     -34.401  16.117  -1.605  1.00 20.00     0.052 A 
HETATM    2  C2  UNL     1     -33.778  17.764  -3.204  1.00 20.00     0.123 A 
HETATM    3  C3  UNL     1     -34.483  18.445  -1.126  1.00 20.00     0.158 A 
HETATM    4  C4  UNL     1     -33.941  16.426  -2.880  1.00 20.00    -0.034 A 
HETATM    5  C5  UNL     1     -34.680  17.140  -0.705  1.00 20.00     0.134 A 
HETATM    6  N11 UNL     1     -34.037  18.785  -2.358  1.00 20.00    -0.269 NA
HETATM    7  F12 UNL     1     -35.123  16.872   0.527  1.00 20.00    -0.205 F 
ENDROOT
BRANCH   4   8
HETATM    8  C9  UNL     1     -33.630  15.337  -3.882  1.00 20.00     0.021 C 
HETATM    9  C6  UNL     1     -34.204  13.950  -3.516  1.00 20.00     0.011 C 
HETATM   10  C7  UNL     1     -35.148  13.578  -4.657  1.00 20.00     0.021 C 
HETATM   11  C10 UNL     1     -34.542  14.290  -5.855  1.00 20.00     0.083 C 
HETATM   12  C8  UNL     1     -34.172  15.655  -5.288  1.00 20.00     0.029 C 
HETATM   13 CL13 UNL     1     -35.673  14.406  -7.210  1.00 20.00    -0.125 Cl
ENDBRANCH   4   8
TORSDOF 1
ENDMDL
MODEL 2
REMARK VINA RESULT:      -5.2      3.614      5.241
REMARK  1 active torsions:
REMARK  status: ('A' for Active; 'I' for Inactive)
REMARK    1  A    between atoms: C4_4  and  C9_9 
ROOT
HETATM    1  C1  UNL     1     -33.833  15.293  -2.903  1.00 20.00     0.052 A 
HETATM    2  C2  UNL     1     -36.169  15.595  -3.231  1.00 20.00     0.123 A 
HETATM    3  C3  UNL     1     -35.168  13.698  -4.055  1.00 20.00     0.158 A 
HETATM    4  C4  UNL     1     -34.972  16.069  -2.719  1.00 20.00    -0.034 A 
HETATM    5  C5  UNL     1     -33.924  14.083  -3.582  1.00 20.00     0.134 A 
HETATM    6  N11 UNL     1     -36.298  14.426  -3.896  1.00 20.00    -0.269 NA
HETATM    7  F12 UNL     1     -32.846  13.317  -3.772  1.00 20.00    -0.205 F 
ENDROOT
BRANCH   4   8
HETATM    8  C9  UNL     1     -34.906  17.390  -1.985  1.00 20.00     0.021 C 
HETATM    9  C6  UNL     1     -35.509  17.361  -0.563  1.00 20.00     0.011 C 
HETATM   10  C7  UNL     1     -34.366  17.728   0.381  1.00 20.00     0.021 C 
HETATM   11  C10 UNL     1     -33.485  18.624  -0.475  1.00 20.00     0.083 C 
HETATM   12  C8  UNL     1     -33.461  17.899  -1.814  1.00 20.00     0.029 C 
HETATM   13 CL13 UNL     1     -31.867  18.827   0.210  1.00 20.00    -0.125 Cl
ENDBRANCH   4   8
TORSDOF 1
ENDMDL
MODEL 3
REMARK VINA RESULT:      -5.2      3.548      5.188
REMARK  1 active torsions:
REMARK  status: ('A' for Active; 'I' for Inactive)
REMARK    1  A    between atoms: C4_4  and  C9_9 
ROOT
HETATM    1  C1  UNL     1     -35.764  15.340  -3.240  1.00 20.00     0.052 A 
HETATM    2  C2  UNL     1     -33.587  14.399  -3.413  1.00 20.00     0.123 A 
HETATM    3  C3  UNL     1     -35.344  13.328  -4.437  1.00 20.00     0.158 A 
HETATM    4  C4  UNL     1     -34.410  15.405  -2.934  1.00 20.00    -0.034 A 
HETATM    5  C5  UNL     1     -36.249  14.284  -4.006  1.00 20.00     0.134 A 
HETATM    6  N11 UNL     1     -34.020  13.359  -4.159  1.00 20.00    -0.269 NA
HETATM    7  F12 UNL     1     -37.546  14.197  -4.315  1.00 20.00    -0.205 F 
ENDROOT
BRANCH   4   8
HETATM    8  C9  UNL     1     -33.853  16.540  -2.103  1.00 20.00     0.021 C 
HETATM    9  C6  UNL     1     -33.958  17.931  -2.768  1.00 20.00     0.011 C 
HETATM   10  C7  UNL     1     -34.821  18.774  -1.833  1.00 20.00     0.021 C 
HETATM   11  C10 UNL     1     -34.537  18.174  -0.465  1.00 20.00     0.083 C 
HETATM   12  C8  UNL     1     -34.558  16.676  -0.740  1.00 20.00     0.029 C 
HETATM   13 CL13 UNL     1     -35.738  18.655   0.741  1.00 20.00    -0.125 Cl
ENDBRANCH   4   8
TORSDOF 1
ENDMDL
MODEL 4
REMARK VINA RESULT:      -5.2      3.654      5.383
REMARK  1 active torsions:
REMARK  status: ('A' for Active; 'I' for Inactive)
REMARK    1  A    between atoms: C4_4  and  C9_9 
ROOT
HETATM    1  C1  UNL     1     -34.128  15.516  -5.111  1.00 20.00     0.052 A 
HETATM    2  C2  UNL     1     -34.462  13.956  -3.347  1.00 20.00     0.123 A 
HETATM    3  C3  UNL     1     -34.835  13.280  -5.511  1.00 20.00     0.158 A 
HETATM    4  C4  UNL     1     -34.107  15.233  -3.750  1.00 20.00    -0.034 A 
HETATM    5  C5  UNL     1     -34.498  14.526  -6.015  1.00 20.00     0.134 A 
HETATM    6  N11 UNL     1     -34.827  12.969  -4.195  1.00 20.00    -0.269 NA
HETATM    7  F12 UNL     1     -34.526  14.770  -7.329  1.00 20.00    -0.205 F 
ENDROOT
BRANCH   4   8
HETATM    8  C9  UNL     1     -33.710  16.288  -2.741  1.00 20.00     0.021 C 
HETATM    9  C6  UNL     1     -33.773  17.737  -3.273  1.00 20.00     0.011 C 
HETATM   10  C7  UNL     1     -34.786  18.460  -2.387  1.00 20.00     0.021 C 
HETATM   11  C10 UNL     1     -34.670  17.728  -1.060  1.00 20.00     0.083 C 
HETATM   12  C8  UNL     1     -34.599  16.266  -1.483  1.00 20.00     0.029 C 
HETATM   13 CL13 UNL     1     -36.042  18.055   0.008  1.00 20.00    -0.125 Cl
ENDBRANCH   4   8
TORSDOF 1
ENDMDL
MODEL 5
REMARK VINA RESULT:      -5.1      3.746      5.408
REMARK  1 active torsions:
REMARK  status: ('A' for Active; 'I' for Inactive)
REMARK    1  A    between atoms: C4_4  and  C9_9 
ROOT
HETATM    1  C1  UNL     1     -33.920  15.013  -3.083  1.00 20.00     0.052 A 
HETATM    2  C2  UNL     1     -36.246  15.471  -3.271  1.00 20.00     0.123 A 
HETATM    3  C3  UNL     1     -35.405  13.574  -4.257  1.00 20.00     0.158 A 
HETATM    4  C4  UNL     1     -34.998  15.842  -2.795  1.00 20.00    -0.034 A 
HETATM    5  C5  UNL     1     -34.118  13.856  -3.827  1.00 20.00     0.134 A 
HETATM    6  N11 UNL     1     -36.478  14.355  -3.997  1.00 20.00    -0.269 NA
HETATM    7  F12 UNL     1     -33.099  13.041  -4.118  1.00 20.00    -0.205 F 
ENDROOT
BRANCH   4   8
HETATM    8  C9  UNL     1     -34.815  17.108  -1.988  1.00 20.00     0.021 C 
HETATM    9  C6  UNL     1     -36.009  18.087  -2.056  1.00 20.00     0.011 C 
HETATM   10  C7  UNL     1     -36.507  18.234  -0.620  1.00 20.00     0.021 C 
HETATM   11  C10 UNL     1     -35.250  18.010   0.206  1.00 20.00     0.083 C 
HETATM   12  C8  UNL     1     -34.591  16.827  -0.490  1.00 20.00     0.029 C 
HETATM   13 CL13 UNL     1     -35.616  17.674   1.905  1.00 20.00    -0.125 Cl
ENDBRANCH   4   8
TORSDOF 1
ENDMDL
MODEL 6
REMARK VINA RESULT:      -5.1      3.338      5.086
REMARK  1 active torsions:
REMARK  status: ('A' for Active; 'I' for Inactive)
REMARK    1  A    between atoms: C4_4  and  C9_9 
ROOT
HETATM    1  C1  UNL     1     -34.522  14.844  -3.034  1.00 20.00     0.052 A 
HETATM    2  C2  UNL     1     -33.574  16.579  -4.356  1.00 20.00     0.123 A 
HETATM    3  C3  UNL     1     -34.382  14.701  -5.404  1.00 20.00     0.158 A 
HETATM    4  C4  UNL     1     -33.918  16.094  -3.104  1.00 20.00    -0.034 A 
HETATM    5  C5  UNL     1     -34.763  14.127  -4.201  1.00 20.00     0.134 A 
HETATM    6  N11 UNL     1     -33.792  15.913  -5.511  1.00 20.00    -0.269 NA
HETATM    7  F12 UNL     1     -35.344  12.924  -4.163  1.00 20.00    -0.205 F 
ENDROOT
BRANCH   4   8
HETATM    8  C9  UNL     1     -33.642  16.898  -1.852  1.00 20.00     0.021 C 
HETATM    9  C6  UNL     1     -33.662  18.429  -2.059  1.00 20.00     0.011 C 
HETATM   10  C7  UNL     1     -34.771  18.956  -1.152  1.00 20.00     0.021 C 
HETATM   11  C10 UNL     1     -34.792  17.951  -0.012  1.00 20.00     0.083 C 
HETATM   12  C8  UNL     1     -34.662  16.616  -0.732  1.00 20.00     0.029 C 
HETATM   13 CL13 UNL     1     -36.274  18.057   0.949  1.00 20.00    -0.125 Cl
ENDBRANCH   4   8
TORSDOF 1
ENDMDL
MODEL 7
REMARK VINA RESULT:      -4.8      3.552      5.357
REMARK  1 active torsions:
REMARK  status: ('A' for Active; 'I' for Inactive)
REMARK    1  A    between atoms: C4_4  and  C9_9 
ROOT
HETATM    1  C1  UNL     1     -34.359  15.843  -2.272  1.00 20.00     0.052 A 
HETATM    2  C2  UNL     1     -33.652  17.596  -3.716  1.00 20.00     0.123 A 
HETATM    3  C3  UNL     1     -33.642  15.437  -4.503  1.00 20.00     0.158 A 
HETATM    4  C4  UNL     1     -34.126  17.198  -2.476  1.00 20.00    -0.034 A 
HETATM    5  C5  UNL     1     -34.115  14.939  -3.300  1.00 20.00     0.134 A 
HETATM    6  N11 UNL     1     -33.403  16.748  -4.738  1.00 20.00    -0.269 NA
HETATM    7  F12 UNL     1     -34.331  13.630  -3.132  1.00 20.00    -0.205 F 
ENDROOT
BRANCH   4   8
HETATM    8  C9  UNL     1     -34.382  18.207  -1.378  1.00 20.00     0.021 C 
HETATM    9  C6  UNL     1     -35.395  17.744  -0.308  1.00 20.00     0.011 C 
HETATM   10  C7  UNL     1     -34.631  17.741   1.014  1.00 20.00     0.021 C 
HETATM   11  C10 UNL     1     -33.590  18.831   0.813  1.00 20.00     0.083 C 
HETATM   12  C8  UNL     1     -33.101  18.578  -0.607  1.00 20.00     0.029 C 
HETATM   13 CL13 UNL     1     -32.283  18.738   2.003  1.00 20.00    -0.125 Cl
ENDBRANCH   4   8
TORSDOF 1
ENDMDL
MODEL 8
REMARK VINA RESULT:      -4.8      1.762      2.226
REMARK  1 active torsions:
REMARK  status: ('A' for Active; 'I' for Inactive)
REMARK    1  A    between atoms: C4_4  and  C9_9 
ROOT
HETATM    1  C1  UNL     1     -34.832  16.999  -0.318  1.00 20.00     0.052 A 
HETATM    2  C2  UNL     1     -33.258  18.564  -1.172  1.00 20.00     0.123 A 
HETATM    3  C3  UNL     1     -33.796  18.636   1.061  1.00 20.00     0.158 A 
HETATM    4  C4  UNL     1     -34.113  17.497  -1.398  1.00 20.00    -0.034 A 
HETATM    5  C5  UNL     1     -34.676  17.573   0.939  1.00 20.00     0.134 A 
HETATM    6  N11 UNL     1     -33.080  19.148   0.034  1.00 20.00    -0.269 NA
HETATM    7  F12 UNL     1     -35.354  17.113   1.995  1.00 20.00    -0.205 F 
ENDROOT
BRANCH   4   8
HETATM    8  C9  UNL     1     -34.261  16.895  -2.778  1.00 20.00     0.021 C 
HETATM    9  C6  UNL     1     -33.458  15.592  -2.995  1.00 20.00     0.011 C 
HETATM   10  C7  UNL     1     -34.492  14.518  -3.324  1.00 20.00     0.021 C 
HETATM   11  C10 UNL     1     -35.608  15.305  -3.993  1.00 20.00     0.083 C 
HETATM   12  C8  UNL     1     -35.722  16.545  -3.117  1.00 20.00     0.029 C 
HETATM   13 CL13 UNL     1     -37.121  14.391  -4.069  1.00 20.00    -0.125 Cl
ENDBRANCH   4   8
TORSDOF 1
ENDMDL
MODEL 9
REMARK VINA RESULT:      -4.6      3.924      5.931
REMARK  1 active torsions:
REMARK  status: ('A' for Active; 'I' for Inactive)
REMARK    1  A    between atoms: C4_4  and  C9_9 
ROOT
HETATM    1  C1  UNL     1     -34.370  16.718  -1.276  1.00 20.00     0.052 A 
HETATM    2  C2  UNL     1     -33.878  18.837  -2.239  1.00 20.00     0.123 A 
HETATM    3  C3  UNL     1     -33.739  16.959  -3.557  1.00 20.00     0.158 A 
HETATM    4  C4  UNL     1     -34.255  18.096  -1.130  1.00 20.00    -0.034 A 
HETATM    5  C5  UNL     1     -34.109  16.131  -2.509  1.00 20.00     0.134 A 
HETATM    6  N11 UNL     1     -33.616  18.302  -3.452  1.00 20.00    -0.269 NA
HETATM    7  F12 UNL     1     -34.213  14.809  -2.678  1.00 20.00    -0.205 F 
ENDROOT
BRANCH   4   8
HETATM    8  C9  UNL     1     -34.532  18.765   0.198  1.00 20.00     0.021 C 
HETATM    9  C6  UNL     1     -35.623  18.074   1.046  1.00 20.00     0.011 C 
HETATM   10  C7  UNL     1     -34.936  17.655   2.344  1.00 20.00     0.021 C 
HETATM   11  C10 UNL     1     -33.842  18.698   2.509  1.00 20.00     0.083 C 
HETATM   12  C8  UNL     1     -33.283  18.830   1.098  1.00 20.00     0.029 C 
HETATM   13 CL13 UNL     1     -32.611  18.200   3.677  1.00 20.00    -0.125 Cl
ENDBRANCH   4   8
TORSDOF 1
ENDMDL
