MODEL 1
REMARK VINA RESULT:      -4.9      0.000      0.000
REMARK  5 active torsions:
REMARK  status: ('A' for Active; 'I' for Inactive)
REMARK    1  A    between atoms: C2_2  and  C8_8 
REMARK    2  A    between atoms: C3_3  and  C9_9 
REMARK    3  A    between atoms: C3_3  and  C11_11 
REMARK    4  A    between atoms: C8_8  and  C10_10 
REMARK    5  A    between atoms: C9_9  and  C10_10 
ROOT
HETATM    1  C1  UNL     1     -34.793  17.206   0.104  1.00 20.00    -0.111 C 
HETATM    2  C2  UNL     1     -34.377  16.861  -0.969  1.00 20.00    -0.107 C 
HETATM    3  C4  UNL     1     -35.306  17.623   1.407  1.00 20.00     0.112 C 
ENDROOT
BRANCH   2   4
HETATM    4  C8  UNL     1     -33.872  16.446  -2.284  1.00 20.00     0.094 C 
BRANCH   4   5
HETATM    5  C10 UNL     1     -34.361  15.049  -2.683  1.00 20.00     0.020 C 
BRANCH   5   6
HETATM    6  C9  UNL     1     -33.596  14.428  -3.855  1.00 20.00     0.080 C 
BRANCH   6   7
HETATM    7  C3  UNL     1     -34.505  13.892  -4.956  1.00 20.00     0.134 C 
HETATM    8  O12 UNL     1     -34.804  12.696  -4.997  1.00 20.00    -0.297 OA
BRANCH   7   9
HETATM    9  C11 UNL     1     -35.049  14.891  -5.997  1.00 20.00     0.009 C 
HETATM   10  C5  UNL     1     -36.406  15.450  -5.549  1.00 20.00     0.022 C 
HETATM   11  C6  UNL     1     -35.237  14.177  -7.347  1.00 20.00     0.022 C 
HETATM   12  C7  UNL     1     -34.035  16.028  -6.177  1.00 20.00     0.022 C 
ENDBRANCH   7   9
ENDBRANCH   6   7
ENDBRANCH   5   6
ENDBRANCH   4   5
ENDBRANCH   2   4
TORSDOF 5
ENDMDL
MODEL 2
REMARK VINA RESULT:      -4.8      1.405      2.315
REMARK  5 active torsions:
REMARK  status: ('A' for Active; 'I' for Inactive)
REMARK    1  A    between atoms: C2_2  and  C8_8 
REMARK    2  A    between atoms: C3_3  and  C9_9 
REMARK    3  A    between atoms: C3_3  and  C11_11 
REMARK    4  A    between atoms: C8_8  and  C10_10 
REMARK    5  A    between atoms: C9_9  and  C10_10 
ROOT
HETATM    1  C1  UNL     1     -34.255  16.425  -1.634  1.00 20.00    -0.111 C 
HETATM    2  C2  UNL     1     -33.733  15.890  -2.573  1.00 20.00    -0.107 C 
HETATM    3  C4  UNL     1     -34.885  17.076  -0.487  1.00 20.00     0.112 C 
ENDROOT
BRANCH   2   4
HETATM    4  C8  UNL     1     -33.091  15.230  -3.718  1.00 20.00     0.094 C 
BRANCH   4   5
HETATM    5  C10 UNL     1     -33.535  13.772  -3.876  1.00 20.00     0.020 C 
BRANCH   5   6
HETATM    6  C9  UNL     1     -35.037  13.596  -4.115  1.00 20.00     0.080 C 
BRANCH   6   7
HETATM    7  C3  UNL     1     -35.554  14.379  -5.318  1.00 20.00     0.134 C 
HETATM    8  O12 UNL     1     -35.092  14.177  -6.444  1.00 20.00    -0.297 OA
BRANCH   7   9
HETATM    9  C11 UNL     1     -36.676  15.410  -5.084  1.00 20.00     0.009 C 
HETATM   10  C5  UNL     1     -37.771  15.265  -6.150  1.00 20.00     0.022 C 
HETATM   11  C6  UNL     1     -36.096  16.832  -5.172  1.00 20.00     0.022 C 
HETATM   12  C7  UNL     1     -37.263  15.202  -3.683  1.00 20.00     0.022 C 
ENDBRANCH   7   9
ENDBRANCH   6   7
ENDBRANCH   5   6
ENDBRANCH   4   5
ENDBRANCH   2   4
TORSDOF 5
ENDMDL
MODEL 3
REMARK VINA RESULT:      -4.8      1.229      1.769
REMARK  5 active torsions:
REMARK  status: ('A' for Active; 'I' for Inactive)
REMARK    1  A    between atoms: C2_2  and  C8_8 
REMARK    2  A    between atoms: C3_3  and  C9_9 
REMARK    3  A    between atoms: C3_3  and  C11_11 
REMARK    4  A    between atoms: C8_8  and  C10_10 
REMARK    5  A    between atoms: C9_9  and  C10_10 
ROOT
HETATM    1  C1  UNL     1     -34.311  16.486  -1.580  1.00 20.00    -0.111 C 
HETATM    2  C2  UNL     1     -33.805  15.940  -2.521  1.00 20.00    -0.107 C 
HETATM    3  C4  UNL     1     -34.922  17.153  -0.431  1.00 20.00     0.112 C 
ENDROOT
BRANCH   2   4
HETATM    4  C8  UNL     1     -33.181  15.267  -3.669  1.00 20.00     0.094 C 
BRANCH   4   5
HETATM    5  C10 UNL     1     -33.559  13.784  -3.752  1.00 20.00     0.020 C 
BRANCH   5   6
HETATM    6  C9  UNL     1     -34.434  13.427  -4.957  1.00 20.00     0.080 C 
BRANCH   6   7
HETATM    7  C3  UNL     1     -35.661  14.321  -5.101  1.00 20.00     0.134 C 
HETATM    8  O12 UNL     1     -36.569  14.280  -4.267  1.00 20.00    -0.297 OA
BRANCH   7   9
HETATM    9  C11 UNL     1     -35.721  15.282  -6.305  1.00 20.00     0.009 C 
HETATM   10  C5  UNL     1     -35.768  16.740  -5.828  1.00 20.00     0.022 C 
HETATM   11  C6  UNL     1     -36.989  14.997  -7.129  1.00 20.00     0.022 C 
HETATM   12  C7  UNL     1     -34.492  15.049  -7.193  1.00 20.00     0.022 C 
ENDBRANCH   7   9
ENDBRANCH   6   7
ENDBRANCH   5   6
ENDBRANCH   4   5
ENDBRANCH   2   4
TORSDOF 5
ENDMDL
MODEL 4
REMARK VINA RESULT:      -4.7      1.477      2.082
REMARK  5 active torsions:
REMARK  status: ('A' for Active; 'I' for Inactive)
REMARK    1  A    between atoms: C2_2  and  C8_8 
REMARK    2  A    between atoms: C3_3  and  C9_9 
REMARK    3  A    between atoms: C3_3  and  C11_11 
REMARK    4  A    between atoms: C8_8  and  C10_10 
REMARK    5  A    between atoms: C9_9  and  C10_10 
ROOT
HETATM    1  C1  UNL     1     -34.730  17.641   0.710  1.00 20.00    -0.111 C 
HETATM    2  C2  UNL     1     -34.750  16.985  -0.295  1.00 20.00    -0.107 C 
HETATM    3  C4  UNL     1     -34.711  18.441   1.933  1.00 20.00     0.112 C 
ENDROOT
BRANCH   2   4
HETATM    4  C8  UNL     1     -34.777  16.188  -1.530  1.00 20.00     0.094 C 
BRANCH   4   5
HETATM    5  C10 UNL     1     -33.620  16.534  -2.473  1.00 20.00     0.020 C 
BRANCH   5   6
HETATM    6  C9  UNL     1     -33.234  15.405  -3.433  1.00 20.00     0.080 C 
BRANCH   6   7
HETATM    7  C3  UNL     1     -33.729  15.627  -4.858  1.00 20.00     0.134 C 
HETATM    8  O12 UNL     1     -33.245  16.519  -5.559  1.00 20.00    -0.297 OA
BRANCH   7   9
HETATM    9  C11 UNL     1     -34.834  14.695  -5.395  1.00 20.00     0.009 C 
HETATM   10  C5  UNL     1     -34.795  14.641  -6.928  1.00 20.00     0.022 C 
HETATM   11  C6  UNL     1     -36.212  15.227  -4.961  1.00 20.00     0.022 C 
HETATM   12  C7  UNL     1     -34.638  13.293  -4.804  1.00 20.00     0.022 C 
ENDBRANCH   7   9
ENDBRANCH   6   7
ENDBRANCH   5   6
ENDBRANCH   4   5
ENDBRANCH   2   4
TORSDOF 5
ENDMDL
MODEL 5
REMARK VINA RESULT:      -4.5      1.467      2.767
REMARK  5 active torsions:
REMARK  status: ('A' for Active; 'I' for Inactive)
REMARK    1  A    between atoms: C2_2  and  C8_8 
REMARK    2  A    between atoms: C3_3  and  C9_9 
REMARK    3  A    between atoms: C3_3  and  C11_11 
REMARK    4  A    between atoms: C8_8  and  C10_10 
REMARK    5  A    between atoms: C9_9  and  C10_10 
ROOT
HETATM    1  C1  UNL     1     -34.404  15.926  -2.032  1.00 20.00    -0.111 C 
HETATM    2  C2  UNL     1     -34.066  15.102  -2.837  1.00 20.00    -0.107 C 
HETATM    3  C4  UNL     1     -34.810  16.928  -1.048  1.00 20.00     0.112 C 
ENDROOT
BRANCH   2   4
HETATM    4  C8  UNL     1     -33.652  14.089  -3.817  1.00 20.00     0.094 C 
BRANCH   4   5
HETATM    5  C10 UNL     1     -34.839  13.509  -4.594  1.00 20.00     0.020 C 
BRANCH   5   6
HETATM    6  C9  UNL     1     -35.667  14.555  -5.345  1.00 20.00     0.080 C 
BRANCH   6   7
HETATM    7  C3  UNL     1     -34.846  15.387  -6.326  1.00 20.00     0.134 C 
HETATM    8  O12 UNL     1     -34.192  14.841  -7.218  1.00 20.00    -0.297 OA
BRANCH   7   9
HETATM    9  C11 UNL     1     -34.875  16.921  -6.176  1.00 20.00     0.009 C 
HETATM   10  C5  UNL     1     -35.101  17.591  -7.538  1.00 20.00     0.022 C 
HETATM   11  C6  UNL     1     -33.530  17.409  -5.610  1.00 20.00     0.022 C 
HETATM   12  C7  UNL     1     -35.992  17.308  -5.198  1.00 20.00     0.022 C 
ENDBRANCH   7   9
ENDBRANCH   6   7
ENDBRANCH   5   6
ENDBRANCH   4   5
ENDBRANCH   2   4
TORSDOF 5
ENDMDL
MODEL 6
REMARK VINA RESULT:      -4.4     11.600     13.108
REMARK  5 active torsions:
REMARK  status: ('A' for Active; 'I' for Inactive)
REMARK    1  A    between atoms: C2_2  and  C8_8 
REMARK    2  A    between atoms: C3_3  and  C9_9 
REMARK    3  A    between atoms: C3_3  and  C11_11 
REMARK    4  A    between atoms: C8_8  and  C10_10 
REMARK    5  A    between atoms: C9_9  and  C10_10 
ROOT
HETATM    1  C1  UNL     1     -32.172   8.754   1.633  1.00 20.00    -0.111 C 
HETATM    2  C2  UNL     1     -32.191   7.816   2.381  1.00 20.00    -0.107 C 
HETATM    3  C4  UNL     1     -32.147   9.893   0.716  1.00 20.00     0.112 C 
ENDROOT
BRANCH   2   4
HETATM    4  C8  UNL     1     -32.207   6.666   3.296  1.00 20.00     0.094 C 
BRANCH   4   5
HETATM    5  C10 UNL     1     -33.287   5.643   2.930  1.00 20.00     0.020 C 
BRANCH   5   6
HETATM    6  C9  UNL     1     -34.600   5.815   3.701  1.00 20.00     0.080 C 
BRANCH   6   7
HETATM    7  C3  UNL     1     -34.837   4.727   4.743  1.00 20.00     0.134 C 
HETATM    8  O12 UNL     1     -35.301   3.633   4.414  1.00 20.00    -0.297 OA
BRANCH   7   9
HETATM    9  C11 UNL     1     -34.463   5.033   6.208  1.00 20.00     0.009 C 
HETATM   10  C5  UNL     1     -34.066   6.507   6.365  1.00 20.00     0.022 C 
HETATM   11  C6  UNL     1     -33.268   4.159   6.627  1.00 20.00     0.022 C 
HETATM   12  C7  UNL     1     -35.658   4.701   7.109  1.00 20.00     0.022 C 
ENDBRANCH   7   9
ENDBRANCH   6   7
ENDBRANCH   5   6
ENDBRANCH   4   5
ENDBRANCH   2   4
TORSDOF 5
ENDMDL
MODEL 7
REMARK VINA RESULT:      -4.3      1.544      2.128
REMARK  5 active torsions:
REMARK  status: ('A' for Active; 'I' for Inactive)
REMARK    1  A    between atoms: C2_2  and  C8_8 
REMARK    2  A    between atoms: C3_3  and  C9_9 
REMARK    3  A    between atoms: C3_3  and  C11_11 
REMARK    4  A    between atoms: C8_8  and  C10_10 
REMARK    5  A    between atoms: C9_9  and  C10_10 
ROOT
HETATM    1  C1  UNL     1     -32.825  18.485  -0.142  1.00 20.00    -0.111 C 
HETATM    2  C2  UNL     1     -33.698  18.048  -0.840  1.00 20.00    -0.107 C 
HETATM    3  C4  UNL     1     -31.758  19.013   0.707  1.00 20.00     0.112 C 
ENDROOT
BRANCH   2   4
HETATM    4  C8  UNL     1     -34.767  17.505  -1.690  1.00 20.00     0.094 C 
BRANCH   4   5
HETATM    5  C10 UNL     1     -34.691  15.981  -1.822  1.00 20.00     0.020 C 
BRANCH   5   6
HETATM    6  C9  UNL     1     -33.763  15.493  -2.938  1.00 20.00     0.080 C 
BRANCH   6   7
HETATM    7  C3  UNL     1     -34.431  14.514  -3.897  1.00 20.00     0.134 C 
HETATM    8  O12 UNL     1     -34.469  13.308  -3.639  1.00 20.00    -0.297 OA
BRANCH   7   9
HETATM    9  C11 UNL     1     -35.069  15.079  -5.182  1.00 20.00     0.009 C 
HETATM   10  C5  UNL     1     -34.987  14.053  -6.320  1.00 20.00     0.022 C 
HETATM   11  C6  UNL     1     -34.316  16.350  -5.615  1.00 20.00     0.022 C 
HETATM   12  C7  UNL     1     -36.531  15.444  -4.897  1.00 20.00     0.022 C 
ENDBRANCH   7   9
ENDBRANCH   6   7
ENDBRANCH   5   6
ENDBRANCH   4   5
ENDBRANCH   2   4
TORSDOF 5
ENDMDL
MODEL 8
REMARK VINA RESULT:      -4.3      1.743      2.843
REMARK  5 active torsions:
REMARK  status: ('A' for Active; 'I' for Inactive)
REMARK    1  A    between atoms: C2_2  and  C8_8 
REMARK    2  A    between atoms: C3_3  and  C9_9 
REMARK    3  A    between atoms: C3_3  and  C11_11 
REMARK    4  A    between atoms: C8_8  and  C10_10 
REMARK    5  A    between atoms: C9_9  and  C10_10 
ROOT
HETATM    1  C1  UNL     1     -34.176  17.561  -1.771  1.00 20.00    -0.111 C 
HETATM    2  C2  UNL     1     -33.857  18.156  -2.763  1.00 20.00    -0.107 C 
HETATM    3  C4  UNL     1     -34.561  16.830  -0.564  1.00 20.00     0.112 C 
ENDROOT
BRANCH   2   4
HETATM    4  C8  UNL     1     -33.468  18.879  -3.981  1.00 20.00     0.094 C 
BRANCH   4   5
HETATM    5  C10 UNL     1     -33.847  18.120  -5.257  1.00 20.00     0.020 C 
BRANCH   5   6
HETATM    6  C9  UNL     1     -33.305  16.689  -5.318  1.00 20.00     0.080 C 
BRANCH   6   7
HETATM    7  C3  UNL     1     -34.392  15.637  -5.511  1.00 20.00     0.134 C 
HETATM    8  O12 UNL     1     -35.132  15.672  -6.497  1.00 20.00    -0.297 OA
BRANCH   7   9
HETATM    9  C11 UNL     1     -34.523  14.527  -4.449  1.00 20.00     0.009 C 
HETATM   10  C5  UNL     1     -35.720  14.802  -3.528  1.00 20.00     0.022 C 
HETATM   11  C6  UNL     1     -33.247  14.483  -3.590  1.00 20.00     0.022 C 
HETATM   12  C7  UNL     1     -34.691  13.176  -5.155  1.00 20.00     0.022 C 
ENDBRANCH   7   9
ENDBRANCH   6   7
ENDBRANCH   5   6
ENDBRANCH   4   5
ENDBRANCH   2   4
TORSDOF 5
ENDMDL
MODEL 9
REMARK VINA RESULT:      -4.3      1.443      2.320
REMARK  5 active torsions:
REMARK  status: ('A' for Active; 'I' for Inactive)
REMARK    1  A    between atoms: C2_2  and  C8_8 
REMARK    2  A    between atoms: C3_3  and  C9_9 
REMARK    3  A    between atoms: C3_3  and  C11_11 
REMARK    4  A    between atoms: C8_8  and  C10_10 
REMARK    5  A    between atoms: C9_9  and  C10_10 
ROOT
HETATM    1  C1  UNL     1     -34.845  17.952   1.786  1.00 20.00    -0.111 C 
HETATM    2  C2  UNL     1     -34.461  17.779   0.662  1.00 20.00    -0.107 C 
HETATM    3  C4  UNL     1     -35.307  18.165   3.157  1.00 20.00     0.112 C 
ENDROOT
BRANCH   2   4
HETATM    4  C8  UNL     1     -33.986  17.563  -0.711  1.00 20.00     0.094 C 
BRANCH   4   5
HETATM    5  C10 UNL     1     -34.640  16.344  -1.370  1.00 20.00     0.020 C 
BRANCH   5   6
HETATM    6  C9  UNL     1     -35.166  16.604  -2.786  1.00 20.00     0.080 C 
BRANCH   6   7
HETATM    7  C3  UNL     1     -35.358  15.331  -3.603  1.00 20.00     0.134 C 
HETATM    8  O12 UNL     1     -36.414  14.697  -3.539  1.00 20.00    -0.297 OA
BRANCH   7   9
HETATM    9  C11 UNL     1     -34.203  14.875  -4.517  1.00 20.00     0.009 C 
HETATM   10  C5  UNL     1     -34.747  14.362  -5.857  1.00 20.00     0.022 C 
HETATM   11  C6  UNL     1     -33.427  13.734  -3.837  1.00 20.00     0.022 C 
HETATM   12  C7  UNL     1     -33.248  16.055  -4.744  1.00 20.00     0.022 C 
ENDBRANCH   7   9
ENDBRANCH   6   7
ENDBRANCH   5   6
ENDBRANCH   4   5
ENDBRANCH   2   4
TORSDOF 5
ENDMDL
