MODEL 1
REMARK VINA RESULT:      -4.9      0.000      0.000
REMARK  2 active torsions:
REMARK  status: ('A' for Active; 'I' for Inactive)
REMARK    1  A    between atoms: C7_7  and  C10_10 
REMARK    2  A    between atoms: C9_9  and  C10_10 
ROOT
HETATM    1  C2  UNL     1     -33.828  14.003  -3.689  1.00 20.00     0.006 C 
HETATM    2  C3  UNL     1     -34.733  13.227  -4.637  1.00 20.00     0.020 C 
HETATM    3  C5  UNL     1     -35.688  15.416  -4.445  1.00 20.00     0.025 C 
HETATM    4  C7  UNL     1     -34.621  15.269  -3.345  1.00 20.00    -0.011 C 
HETATM    5  C8  UNL     1     -35.407  14.314  -5.465  1.00 20.00     0.082 C 
HETATM    6 CL12 UNL     1     -34.311  14.908  -6.746  1.00 20.00    -0.125 Cl
ENDROOT
BRANCH   4   7
HETATM    7  C10 UNL     1     -33.728  16.495  -3.219  1.00 20.00     0.036 C 
BRANCH   7   8
HETATM    8  C9  UNL     1     -33.603  16.958  -1.780  1.00 20.00     0.121 C 
HETATM    9  C4  UNL     1     -34.747  16.497  -0.894  1.00 20.00     0.034 C 
HETATM   10  C1  UNL     1     -34.739  17.556   0.180  1.00 20.00     0.029 C 
HETATM   11  C6  UNL     1     -34.415  18.804  -0.613  1.00 20.00     0.168 C 
HETATM   12  O11 UNL     1     -33.608  18.394  -1.727  1.00 20.00    -0.386 OA
ENDBRANCH   7   8
ENDBRANCH   4   7
TORSDOF 2
ENDMDL
MODEL 2
REMARK VINA RESULT:      -4.6      2.608      4.966
REMARK  2 active torsions:
REMARK  status: ('A' for Active; 'I' for Inactive)
REMARK    1  A    between atoms: C7_7  and  C10_10 
REMARK    2  A    between atoms: C9_9  and  C10_10 
ROOT
HETATM    1  C2  UNL     1     -34.630  16.368  -1.050  1.00 20.00     0.006 C 
HETATM    2  C3  UNL     1     -33.640  17.526  -1.026  1.00 20.00     0.020 C 
HETATM    3  C5  UNL     1     -34.076  17.069  -3.337  1.00 20.00     0.025 C 
HETATM    4  C7  UNL     1     -34.645  15.901  -2.510  1.00 20.00    -0.011 C 
HETATM    5  C8  UNL     1     -33.868  18.224  -2.361  1.00 20.00     0.082 C 
HETATM    6 CL12 UNL     1     -35.322  19.261  -2.294  1.00 20.00    -0.125 Cl
ENDROOT
BRANCH   4   7
HETATM    7  C10 UNL     1     -36.033  15.474  -2.966  1.00 20.00     0.036 C 
BRANCH   7   8
HETATM    8  C9  UNL     1     -35.972  14.370  -4.004  1.00 20.00     0.121 C 
HETATM    9  C4  UNL     1     -34.698  13.545  -3.937  1.00 20.00     0.034 C 
HETATM   10  C1  UNL     1     -34.594  13.038  -5.353  1.00 20.00     0.029 C 
HETATM   11  C6  UNL     1     -35.073  14.234  -6.149  1.00 20.00     0.168 C 
HETATM   12  O11 UNL     1     -36.012  14.937  -5.324  1.00 20.00    -0.386 OA
ENDBRANCH   7   8
ENDBRANCH   4   7
TORSDOF 2
ENDMDL
MODEL 3
REMARK VINA RESULT:      -4.5      1.461      1.870
REMARK  2 active torsions:
REMARK  status: ('A' for Active; 'I' for Inactive)
REMARK    1  A    between atoms: C7_7  and  C10_10 
REMARK    2  A    between atoms: C9_9  and  C10_10 
ROOT
HETATM    1  C2  UNL     1     -34.282  16.270  -5.735  1.00 20.00     0.006 C 
HETATM    2  C3  UNL     1     -34.294  14.773  -6.019  1.00 20.00     0.020 C 
HETATM    3  C5  UNL     1     -33.260  15.037  -3.874  1.00 20.00     0.025 C 
HETATM    4  C7  UNL     1     -33.350  16.428  -4.528  1.00 20.00    -0.011 C 
HETATM    5  C8  UNL     1     -34.236  14.142  -4.634  1.00 20.00     0.082 C 
HETATM    6 CL12 UNL     1     -35.846  14.166  -3.858  1.00 20.00    -0.125 Cl
ENDROOT
BRANCH   4   7
HETATM    7  C10 UNL     1     -33.829  17.505  -3.565  1.00 20.00     0.036 C 
BRANCH   7   8
HETATM    8  C9  UNL     1     -33.766  17.041  -2.122  1.00 20.00     0.121 C 
HETATM    9  C4  UNL     1     -35.132  16.838  -1.490  1.00 20.00     0.034 C 
HETATM   10  C1  UNL     1     -34.819  17.037  -0.029  1.00 20.00     0.029 C 
HETATM   11  C6  UNL     1     -33.801  18.157  -0.076  1.00 20.00     0.168 C 
HETATM   12  O11 UNL     1     -33.097  18.029  -1.320  1.00 20.00    -0.386 OA
ENDBRANCH   7   8
ENDBRANCH   4   7
TORSDOF 2
ENDMDL
MODEL 4
REMARK VINA RESULT:      -4.5      2.435      5.017
REMARK  2 active torsions:
REMARK  status: ('A' for Active; 'I' for Inactive)
REMARK    1  A    between atoms: C7_7  and  C10_10 
REMARK    2  A    between atoms: C9_9  and  C10_10 
ROOT
HETATM    1  C2  UNL     1     -34.735  16.382  -1.055  1.00 20.00     0.006 C 
HETATM    2  C3  UNL     1     -34.985  17.435   0.016  1.00 20.00     0.020 C 
HETATM    3  C5  UNL     1     -33.554  18.463  -1.608  1.00 20.00     0.025 C 
HETATM    4  C7  UNL     1     -33.587  16.951  -1.898  1.00 20.00    -0.011 C 
HETATM    5  C8  UNL     1     -34.756  18.753  -0.712  1.00 20.00     0.082 C 
HETATM    6 CL12 UNL     1     -36.182  19.190  -1.697  1.00 20.00    -0.125 Cl
ENDROOT
BRANCH   4   7
HETATM    7  C10 UNL     1     -33.745  16.636  -3.379  1.00 20.00     0.036 C 
BRANCH   7   8
HETATM    8  C9  UNL     1     -34.478  15.327  -3.603  1.00 20.00     0.121 C 
HETATM    9  C4  UNL     1     -33.553  14.146  -3.837  1.00 20.00     0.034 C 
HETATM   10  C1  UNL     1     -34.440  13.224  -4.635  1.00 20.00     0.029 C 
HETATM   11  C6  UNL     1     -35.198  14.199  -5.510  1.00 20.00     0.168 C 
HETATM   12  O11 UNL     1     -35.306  15.426  -4.773  1.00 20.00    -0.386 OA
ENDBRANCH   7   8
ENDBRANCH   4   7
TORSDOF 2
ENDMDL
MODEL 5
REMARK VINA RESULT:      -4.5     11.189     12.080
REMARK  2 active torsions:
REMARK  status: ('A' for Active; 'I' for Inactive)
REMARK    1  A    between atoms: C7_7  and  C10_10 
REMARK    2  A    between atoms: C9_9  and  C10_10 
ROOT
HETATM    1  C2  UNL     1     -33.558   6.482   5.583  1.00 20.00     0.006 C 
HETATM    2  C3  UNL     1     -34.690   5.777   6.320  1.00 20.00     0.020 C 
HETATM    3  C5  UNL     1     -35.109   5.449   3.983  1.00 20.00     0.025 C 
HETATM    4  C7  UNL     1     -34.016   6.524   4.120  1.00 20.00    -0.011 C 
HETATM    5  C8  UNL     1     -35.169   4.725   5.327  1.00 20.00     0.082 C 
HETATM    6 CL12 UNL     1     -34.077   3.310   5.327  1.00 20.00    -0.125 Cl
ENDROOT
BRANCH   4   7
HETATM    7  C10 UNL     1     -32.862   6.322   3.148  1.00 20.00     0.036 C 
BRANCH   7   8
HETATM    8  C9  UNL     1     -32.210   7.636   2.764  1.00 20.00     0.121 C 
HETATM    9  C4  UNL     1     -33.191   8.789   2.649  1.00 20.00     0.034 C 
HETATM   10  C1  UNL     1     -32.473   9.700   1.687  1.00 20.00     0.029 C 
HETATM   11  C6  UNL     1     -31.846   8.711   0.728  1.00 20.00     0.168 C 
HETATM   12  O11 UNL     1     -31.586   7.513   1.475  1.00 20.00    -0.386 OA
ENDBRANCH   7   8
ENDBRANCH   4   7
TORSDOF 2
ENDMDL
MODEL 6
REMARK VINA RESULT:      -4.5      2.716      5.313
REMARK  2 active torsions:
REMARK  status: ('A' for Active; 'I' for Inactive)
REMARK    1  A    between atoms: C7_7  and  C10_10 
REMARK    2  A    between atoms: C9_9  and  C10_10 
ROOT
HETATM    1  C2  UNL     1     -34.729  18.338  -2.329  1.00 20.00     0.006 C 
HETATM    2  C3  UNL     1     -34.913  19.196  -1.085  1.00 20.00     0.020 C 
HETATM    3  C5  UNL     1     -34.670  16.942  -0.309  1.00 20.00     0.025 C 
HETATM    4  C7  UNL     1     -34.890  16.896  -1.833  1.00 20.00    -0.011 C 
HETATM    5  C8  UNL     1     -34.260  18.376   0.021  1.00 20.00     0.082 C 
HETATM    6 CL12 UNL     1     -32.482  18.548  -0.026  1.00 20.00    -0.125 Cl
ENDROOT
BRANCH   4   7
HETATM    7  C10 UNL     1     -33.946  15.932  -2.538  1.00 20.00     0.036 C 
BRANCH   7   8
HETATM    8  C9  UNL     1     -34.700  14.861  -3.302  1.00 20.00     0.121 C 
HETATM    9  C4  UNL     1     -33.826  13.697  -3.735  1.00 20.00     0.034 C 
HETATM   10  C1  UNL     1     -34.582  13.184  -4.935  1.00 20.00     0.029 C 
HETATM   11  C6  UNL     1     -35.070  14.469  -5.570  1.00 20.00     0.168 C 
HETATM   12  O11 UNL     1     -35.251  15.418  -4.508  1.00 20.00    -0.386 OA
ENDBRANCH   7   8
ENDBRANCH   4   7
TORSDOF 2
ENDMDL
MODEL 7
REMARK VINA RESULT:      -4.3      1.661      2.360
REMARK  2 active torsions:
REMARK  status: ('A' for Active; 'I' for Inactive)
REMARK    1  A    between atoms: C7_7  and  C10_10 
REMARK    2  A    between atoms: C9_9  and  C10_10 
ROOT
HETATM    1  C2  UNL     1     -34.779  16.835  -3.929  1.00 20.00     0.006 C 
HETATM    2  C3  UNL     1     -34.368  16.053  -5.170  1.00 20.00     0.020 C 
HETATM    3  C5  UNL     1     -33.314  14.962  -3.315  1.00 20.00     0.025 C 
HETATM    4  C7  UNL     1     -33.855  16.316  -2.821  1.00 20.00    -0.011 C 
HETATM    5  C8  UNL     1     -34.033  14.668  -4.630  1.00 20.00     0.082 C 
HETATM    6 CL12 UNL     1     -35.522  13.724  -4.335  1.00 20.00    -0.125 Cl
ENDROOT
BRANCH   4   7
HETATM    7  C10 UNL     1     -34.563  16.216  -1.477  1.00 20.00     0.036 C 
BRANCH   7   8
HETATM    8  C9  UNL     1     -34.586  17.547  -0.751  1.00 20.00     0.121 C 
HETATM    9  C4  UNL     1     -33.210  18.161  -0.566  1.00 20.00     0.034 C 
HETATM   10  C1  UNL     1     -33.426  19.021   0.654  1.00 20.00     0.029 C 
HETATM   11  C6  UNL     1     -34.349  18.157   1.486  1.00 20.00     0.168 C 
HETATM   12  O11 UNL     1     -35.127  17.373   0.570  1.00 20.00    -0.386 OA
ENDBRANCH   7   8
ENDBRANCH   4   7
TORSDOF 2
ENDMDL
MODEL 8
REMARK VINA RESULT:      -4.3     13.381     15.421
REMARK  2 active torsions:
REMARK  status: ('A' for Active; 'I' for Inactive)
REMARK    1  A    between atoms: C7_7  and  C10_10 
REMARK    2  A    between atoms: C9_9  and  C10_10 
ROOT
HETATM    1  C2  UNL     1     -40.917   4.550  -1.244  1.00 20.00     0.006 C 
HETATM    2  C3  UNL     1     -40.708   5.808  -0.410  1.00 20.00     0.020 C 
HETATM    3  C5  UNL     1     -42.597   6.248  -1.817  1.00 20.00     0.025 C 
HETATM    4  C7  UNL     1     -41.912   4.970  -2.334  1.00 20.00    -0.011 C 
HETATM    5  C8  UNL     1     -42.083   6.465  -0.396  1.00 20.00     0.082 C 
HETATM    6 CL12 UNL     1     -43.156   5.667   0.790  1.00 20.00    -0.125 Cl
ENDROOT
BRANCH   4   7
HETATM    7  C10 UNL     1     -42.901   3.863  -2.671  1.00 20.00     0.036 C 
BRANCH   7   8
HETATM    8  C9  UNL     1     -42.250   2.494  -2.636  1.00 20.00     0.121 C 
HETATM    9  C4  UNL     1     -41.693   2.053  -3.979  1.00 20.00     0.034 C 
HETATM   10  C1  UNL     1     -41.730   0.552  -3.841  1.00 20.00     0.029 C 
HETATM   11  C6  UNL     1     -43.021   0.339  -3.079  1.00 20.00     0.168 C 
HETATM   12  O11 UNL     1     -43.219   1.501  -2.260  1.00 20.00    -0.386 OA
ENDBRANCH   7   8
ENDBRANCH   4   7
TORSDOF 2
ENDMDL
MODEL 9
REMARK VINA RESULT:      -4.3      2.663      5.036
REMARK  2 active torsions:
REMARK  status: ('A' for Active; 'I' for Inactive)
REMARK    1  A    between atoms: C7_7  and  C10_10 
REMARK    2  A    between atoms: C9_9  and  C10_10 
ROOT
HETATM    1  C2  UNL     1     -35.145  15.572  -2.872  1.00 20.00     0.006 C 
HETATM    2  C3  UNL     1     -33.766  16.158  -2.595  1.00 20.00     0.020 C 
HETATM    3  C5  UNL     1     -33.397  14.140  -3.833  1.00 20.00     0.025 C 
HETATM    4  C7  UNL     1     -34.868  14.151  -3.378  1.00 20.00    -0.011 C 
HETATM    5  C8  UNL     1     -32.897  15.577  -3.703  1.00 20.00     0.082 C 
HETATM    6 CL12 UNL     1     -33.141  16.469  -5.233  1.00 20.00    -0.125 Cl
ENDROOT
BRANCH   4   7
HETATM    7  C10 UNL     1     -35.831  13.732  -4.479  1.00 20.00     0.036 C 
BRANCH   7   8
HETATM    8  C9  UNL     1     -35.872  14.742  -5.609  1.00 20.00     0.121 C 
HETATM    9  C4  UNL     1     -37.277  15.197  -5.966  1.00 20.00     0.034 C 
HETATM   10  C1  UNL     1     -37.103  15.607  -7.406  1.00 20.00     0.029 C 
HETATM   11  C6  UNL     1     -36.140  14.556  -7.917  1.00 20.00     0.168 C 
HETATM   12  O11 UNL     1     -35.325  14.160  -6.804  1.00 20.00    -0.386 OA
ENDBRANCH   7   8
ENDBRANCH   4   7
TORSDOF 2
ENDMDL
