MODEL 1
REMARK VINA RESULT:      -5.7      0.000      0.000
REMARK  1 active torsions:
REMARK  status: ('A' for Active; 'I' for Inactive)
REMARK    1  A    between atoms: C8_8  and  C9_9 
ROOT
HETATM    1  C1  UNL     1     -31.842   8.132   2.068  1.00 20.00     0.012 C 
HETATM    2  C2  UNL     1     -32.326   7.247   2.720  1.00 20.00    -0.117 C 
HETATM    3  C9  UNL     1     -32.906   6.160   3.514  1.00 20.00     0.098 C 
ENDROOT
BRANCH   3   4
HETATM    4  C8  UNL     1     -34.288   6.547   4.047  1.00 20.00     0.004 C 
HETATM    5  C5  UNL     1     -35.277   5.385   3.914  1.00 20.00     0.083 C 
HETATM    6  C3  UNL     1     -35.025   4.320   4.959  1.00 20.00     0.127 C 
HETATM    7  C4  UNL     1     -34.909   4.791   6.390  1.00 20.00     0.078 C 
HETATM    8  O10 UNL     1     -35.014   3.124   4.671  1.00 20.00    -0.298 OA
HETATM    9  C6  UNL     1     -33.917   5.939   6.499  1.00 20.00     0.008 C 
HETATM   10  C7  UNL     1     -34.222   7.053   5.497  1.00 20.00     0.006 C 
ENDBRANCH   3   4
TORSDOF 1
ENDMDL
MODEL 2
REMARK VINA RESULT:      -5.5     11.628     12.829
REMARK  1 active torsions:
REMARK  status: ('A' for Active; 'I' for Inactive)
REMARK    1  A    between atoms: C8_8  and  C9_9 
ROOT
HETATM    1  C1  UNL     1     -33.708  17.713  -0.758  1.00 20.00     0.012 C 
HETATM    2  C2  UNL     1     -34.027  16.831  -1.507  1.00 20.00    -0.117 C 
HETATM    3  C9  UNL     1     -34.427  15.753  -2.417  1.00 20.00     0.098 C 
ENDROOT
BRANCH   3   4
HETATM    4  C8  UNL     1     -33.295  15.403  -3.386  1.00 20.00     0.004 C 
HETATM    5  C5  UNL     1     -33.297  13.909  -3.723  1.00 20.00     0.083 C 
HETATM    6  C3  UNL     1     -34.410  13.560  -4.687  1.00 20.00     0.127 C 
HETATM    7  C4  UNL     1     -34.518  14.411  -5.932  1.00 20.00     0.078 C 
HETATM    8  O10 UNL     1     -35.125  12.574  -4.516  1.00 20.00    -0.298 OA
HETATM    9  C6  UNL     1     -34.522  15.890  -5.571  1.00 20.00     0.008 C 
HETATM   10  C7  UNL     1     -33.349  16.257  -4.663  1.00 20.00     0.006 C 
ENDBRANCH   3   4
TORSDOF 1
ENDMDL
MODEL 3
REMARK VINA RESULT:      -5.0     11.676     12.460
REMARK  1 active torsions:
REMARK  status: ('A' for Active; 'I' for Inactive)
REMARK    1  A    between atoms: C8_8  and  C9_9 
ROOT
HETATM    1  C1  UNL     1     -33.534  17.912  -0.627  1.00 20.00     0.012 C 
HETATM    2  C2  UNL     1     -34.068  17.019  -1.224  1.00 20.00    -0.117 C 
HETATM    3  C9  UNL     1     -34.726  15.923  -1.944  1.00 20.00     0.098 C 
ENDROOT
BRANCH   3   4
HETATM    4  C8  UNL     1     -34.530  16.063  -3.456  1.00 20.00     0.004 C 
HETATM    5  C5  UNL     1     -33.311  15.267  -3.932  1.00 20.00     0.083 C 
HETATM    6  C3  UNL     1     -33.599  13.782  -3.971  1.00 20.00     0.127 C 
HETATM    7  C4  UNL     1     -34.858  13.358  -4.694  1.00 20.00     0.078 C 
HETATM    8  O10 UNL     1     -32.802  12.957  -3.527  1.00 20.00    -0.298 OA
HETATM    9  C6  UNL     1     -36.055  14.156  -4.199  1.00 20.00     0.008 C 
HETATM   10  C7  UNL     1     -35.791  15.661  -4.236  1.00 20.00     0.006 C 
ENDBRANCH   3   4
TORSDOF 1
ENDMDL
MODEL 4
REMARK VINA RESULT:      -4.6     12.205     13.172
REMARK  1 active torsions:
REMARK  status: ('A' for Active; 'I' for Inactive)
REMARK    1  A    between atoms: C8_8  and  C9_9 
ROOT
HETATM    1  C1  UNL     1     -34.680  16.686  -0.801  1.00 20.00     0.012 C 
HETATM    2  C2  UNL     1     -34.355  16.172  -1.836  1.00 20.00    -0.117 C 
HETATM    3  C9  UNL     1     -33.950  15.552  -3.101  1.00 20.00     0.098 C 
ENDROOT
BRANCH   3   4
HETATM    4  C8  UNL     1     -34.866  14.376  -3.455  1.00 20.00     0.004 C 
HETATM    5  C5  UNL     1     -36.318  14.835  -3.614  1.00 20.00     0.083 C 
HETATM    6  C3  UNL     1     -36.528  15.566  -4.923  1.00 20.00     0.127 C 
HETATM    7  C4  UNL     1     -36.022  14.877  -6.170  1.00 20.00     0.078 C 
HETATM    8  O10 UNL     1     -37.166  16.616  -4.980  1.00 20.00    -0.298 OA
HETATM    9  C6  UNL     1     -34.576  14.438  -5.990  1.00 20.00     0.008 C 
HETATM   10  C7  UNL     1     -34.382  13.630  -4.707  1.00 20.00     0.006 C 
ENDBRANCH   3   4
TORSDOF 1
ENDMDL
MODEL 5
REMARK VINA RESULT:      -4.6     12.390     13.400
REMARK  1 active torsions:
REMARK  status: ('A' for Active; 'I' for Inactive)
REMARK    1  A    between atoms: C8_8  and  C9_9 
ROOT
HETATM    1  C1  UNL     1     -34.760  16.974  -0.526  1.00 20.00     0.012 C 
HETATM    2  C2  UNL     1     -34.538  16.295  -1.490  1.00 20.00    -0.117 C 
HETATM    3  C9  UNL     1     -34.254  15.465  -2.665  1.00 20.00     0.098 C 
ENDROOT
BRANCH   3   4
HETATM    4  C8  UNL     1     -35.517  15.251  -3.504  1.00 20.00     0.004 C 
HETATM    5  C5  UNL     1     -35.602  16.270  -4.645  1.00 20.00     0.083 C 
HETATM    6  C3  UNL     1     -34.639  15.933  -5.763  1.00 20.00     0.127 C 
HETATM    7  C4  UNL     1     -34.678  14.513  -6.281  1.00 20.00     0.078 C 
HETATM    8  O10 UNL     1     -33.935  16.792  -6.290  1.00 20.00    -0.298 OA
HETATM    9  C6  UNL     1     -34.584  13.520  -5.132  1.00 20.00     0.008 C 
HETATM   10  C7  UNL     1     -35.612  13.814  -4.039  1.00 20.00     0.006 C 
ENDBRANCH   3   4
TORSDOF 1
ENDMDL
MODEL 6
REMARK VINA RESULT:      -4.3      1.638      2.492
REMARK  1 active torsions:
REMARK  status: ('A' for Active; 'I' for Inactive)
REMARK    1  A    between atoms: C8_8  and  C9_9 
ROOT
HETATM    1  C1  UNL     1     -31.713   8.768   1.053  1.00 20.00     0.012 C 
HETATM    2  C2  UNL     1     -32.435   8.314   1.897  1.00 20.00    -0.117 C 
HETATM    3  C9  UNL     1     -33.323   7.769   2.929  1.00 20.00     0.098 C 
ENDROOT
BRANCH   3   4
HETATM    4  C8  UNL     1     -33.003   6.298   3.208  1.00 20.00     0.004 C 
HETATM    5  C5  UNL     1     -32.709   6.068   4.693  1.00 20.00     0.083 C 
HETATM    6  C3  UNL     1     -33.977   6.088   5.519  1.00 20.00     0.127 C 
HETATM    7  C4  UNL     1     -35.113   5.215   5.034  1.00 20.00     0.078 C 
HETATM    8  O10 UNL     1     -34.045   6.703   6.582  1.00 20.00    -0.298 OA
HETATM    9  C6  UNL     1     -35.392   5.467   3.560  1.00 20.00     0.008 C 
HETATM   10  C7  UNL     1     -34.122   5.366   2.715  1.00 20.00     0.006 C 
ENDBRANCH   3   4
TORSDOF 1
ENDMDL
MODEL 7
REMARK VINA RESULT:      -4.3     12.541     13.696
REMARK  1 active torsions:
REMARK  status: ('A' for Active; 'I' for Inactive)
REMARK    1  A    between atoms: C8_8  and  C9_9 
ROOT
HETATM    1  C1  UNL     1     -35.679  17.892   0.633  1.00 20.00     0.012 C 
HETATM    2  C2  UNL     1     -35.007  17.322  -0.182  1.00 20.00    -0.117 C 
HETATM    3  C9  UNL     1     -34.177  16.627  -1.170  1.00 20.00     0.098 C 
ENDROOT
BRANCH   3   4
HETATM    4  C8  UNL     1     -35.007  16.207  -2.387  1.00 20.00     0.004 C 
HETATM    5  C5  UNL     1     -35.167  17.367  -3.374  1.00 20.00     0.083 C 
HETATM    6  C3  UNL     1     -33.895  17.609  -4.157  1.00 20.00     0.127 C 
HETATM    7  C4  UNL     1     -33.267  16.401  -4.815  1.00 20.00     0.078 C 
HETATM    8  O10 UNL     1     -33.451  18.742  -4.334  1.00 20.00    -0.298 OA
HETATM    9  C6  UNL     1     -33.111  15.266  -3.814  1.00 20.00     0.008 C 
HETATM   10  C7  UNL     1     -34.419  14.969  -3.081  1.00 20.00     0.006 C 
ENDBRANCH   3   4
TORSDOF 1
ENDMDL
MODEL 8
REMARK VINA RESULT:      -4.3     11.468     13.613
REMARK  1 active torsions:
REMARK  status: ('A' for Active; 'I' for Inactive)
REMARK    1  A    between atoms: C8_8  and  C9_9 
ROOT
HETATM    1  C1  UNL     1     -34.456  18.237  -7.847  1.00 20.00     0.012 C 
HETATM    2  C2  UNL     1     -34.400  17.188  -7.266  1.00 20.00    -0.117 C 
HETATM    3  C9  UNL     1     -34.326  15.901  -6.567  1.00 20.00     0.098 C 
ENDROOT
BRANCH   3   4
HETATM    4  C8  UNL     1     -34.949  15.999  -5.171  1.00 20.00     0.004 C 
HETATM    5  C5  UNL     1     -35.694  14.711  -4.807  1.00 20.00     0.083 C 
HETATM    6  C3  UNL     1     -34.734  13.598  -4.447  1.00 20.00     0.127 C 
HETATM    7  C4  UNL     1     -33.666  13.930  -3.430  1.00 20.00     0.078 C 
HETATM    8  O10 UNL     1     -34.877  12.456  -4.884  1.00 20.00    -0.298 OA
HETATM    9  C6  UNL     1     -32.936  15.207  -3.817  1.00 20.00     0.008 C 
HETATM   10  C7  UNL     1     -33.905  16.354  -4.101  1.00 20.00     0.006 C 
ENDBRANCH   3   4
TORSDOF 1
ENDMDL
MODEL 9
REMARK VINA RESULT:      -4.3     11.590     13.087
REMARK  1 active torsions:
REMARK  status: ('A' for Active; 'I' for Inactive)
REMARK    1  A    between atoms: C8_8  and  C9_9 
ROOT
HETATM    1  C1  UNL     1     -37.982  15.540  -6.491  1.00 20.00     0.012 C 
HETATM    2  C2  UNL     1     -36.930  15.859  -6.010  1.00 20.00    -0.117 C 
HETATM    3  C9  UNL     1     -35.641  16.254  -5.433  1.00 20.00     0.098 C 
ENDROOT
BRANCH   3   4
HETATM    4  C8  UNL     1     -35.554  15.853  -3.957  1.00 20.00     0.004 C 
HETATM    5  C5  UNL     1     -35.847  14.362  -3.771  1.00 20.00     0.083 C 
HETATM    6  C3  UNL     1     -34.678  13.507  -4.211  1.00 20.00     0.127 C 
HETATM    7  C4  UNL     1     -33.322  13.882  -3.656  1.00 20.00     0.078 C 
HETATM    8  O10 UNL     1     -34.837  12.502  -4.902  1.00 20.00    -0.298 OA
HETATM    9  C6  UNL     1     -33.050  15.365  -3.860  1.00 20.00     0.008 C 
HETATM   10  C7  UNL     1     -34.198  16.231  -3.341  1.00 20.00     0.006 C 
ENDBRANCH   3   4
TORSDOF 1
ENDMDL
