MODEL 1
REMARK VINA RESULT:      -6.0      0.000      0.000
REMARK  2 active torsions:
REMARK  status: ('A' for Active; 'I' for Inactive)
REMARK    1  A    between atoms: C8_8  and  C10_10 
REMARK    2  A    between atoms: C9_9  and  C10_10 
ROOT
HETATM    1  C1  UNL     1     -32.155   8.739   1.266  1.00 20.00     0.012 C 
HETATM    2  C2  UNL     1     -32.061   8.021   2.223  1.00 20.00    -0.117 C 
HETATM    3  C9  UNL     1     -31.944   7.146   3.397  1.00 20.00     0.093 C 
ENDROOT
BRANCH   3   4
HETATM    4  C10 UNL     1     -32.823   5.920   3.225  1.00 20.00     0.017 C 
BRANCH   4   5
HETATM    5  C8  UNL     1     -34.269   6.228   3.626  1.00 20.00    -0.007 C 
HETATM    6  C5  UNL     1     -34.320   7.208   4.801  1.00 20.00     0.082 C 
HETATM    7  C3  UNL     1     -33.961   6.531   6.106  1.00 20.00     0.127 C 
HETATM    8  C4  UNL     1     -34.691   5.245   6.421  1.00 20.00     0.078 C 
HETATM    9  O11 UNL     1     -33.192   7.050   6.912  1.00 20.00    -0.298 OA
HETATM   10  C6  UNL     1     -34.619   4.284   5.243  1.00 20.00     0.008 C 
HETATM   11  C7  UNL     1     -35.060   4.948   3.939  1.00 20.00     0.005 C 
ENDBRANCH   4   5
ENDBRANCH   3   4
TORSDOF 2
ENDMDL
MODEL 2
REMARK VINA RESULT:      -5.4     11.097     12.123
REMARK  2 active torsions:
REMARK  status: ('A' for Active; 'I' for Inactive)
REMARK    1  A    between atoms: C8_8  and  C10_10 
REMARK    2  A    between atoms: C9_9  and  C10_10 
ROOT
HETATM    1  C1  UNL     1     -35.225  17.658   1.225  1.00 20.00     0.012 C 
HETATM    2  C2  UNL     1     -34.682  17.436   0.178  1.00 20.00    -0.117 C 
HETATM    3  C9  UNL     1     -34.014  17.167  -1.103  1.00 20.00     0.093 C 
ENDROOT
BRANCH   3   4
HETATM    4  C10 UNL     1     -34.674  15.991  -1.800  1.00 20.00     0.017 C 
BRANCH   4   5
HETATM    5  C8  UNL     1     -34.455  16.066  -3.314  1.00 20.00    -0.007 C 
HETATM    6  C5  UNL     1     -35.770  15.869  -4.074  1.00 20.00     0.082 C 
HETATM    7  C3  UNL     1     -36.199  14.418  -4.073  1.00 20.00     0.127 C 
HETATM    8  C4  UNL     1     -35.157  13.406  -4.491  1.00 20.00     0.078 C 
HETATM    9  O11 UNL     1     -37.361  14.088  -3.842  1.00 20.00    -0.298 OA
HETATM   10  C6  UNL     1     -33.863  13.616  -3.718  1.00 20.00     0.008 C 
HETATM   11  C7  UNL     1     -33.388  15.067  -3.788  1.00 20.00     0.005 C 
ENDBRANCH   4   5
ENDBRANCH   3   4
TORSDOF 2
ENDMDL
MODEL 3
REMARK VINA RESULT:      -5.2     11.615     12.654
REMARK  2 active torsions:
REMARK  status: ('A' for Active; 'I' for Inactive)
REMARK    1  A    between atoms: C8_8  and  C10_10 
REMARK    2  A    between atoms: C9_9  and  C10_10 
ROOT
HETATM    1  C1  UNL     1     -35.040  17.355   0.335  1.00 20.00     0.012 C 
HETATM    2  C2  UNL     1     -34.441  17.151  -0.685  1.00 20.00    -0.117 C 
HETATM    3  C9  UNL     1     -33.705  16.905  -1.932  1.00 20.00     0.093 C 
ENDROOT
BRANCH   3   4
HETATM    4  C10 UNL     1     -34.135  15.584  -2.542  1.00 20.00     0.017 C 
BRANCH   4   5
HETATM    5  C8  UNL     1     -35.327  15.783  -3.484  1.00 20.00    -0.007 C 
HETATM    6  C5  UNL     1     -35.944  14.441  -3.888  1.00 20.00     0.082 C 
HETATM    7  C3  UNL     1     -35.088  13.721  -4.907  1.00 20.00     0.127 C 
HETATM    8  C4  UNL     1     -34.659  14.523  -6.114  1.00 20.00     0.078 C 
HETATM    9  O11 UNL     1     -34.839  12.521  -4.808  1.00 20.00    -0.298 OA
HETATM   10  C6  UNL     1     -34.041  15.847  -5.688  1.00 20.00     0.008 C 
HETATM   11  C7  UNL     1     -34.945  16.611  -4.721  1.00 20.00     0.005 C 
ENDBRANCH   4   5
ENDBRANCH   3   4
TORSDOF 2
ENDMDL
MODEL 4
REMARK VINA RESULT:      -5.2     11.540     12.730
REMARK  2 active torsions:
REMARK  status: ('A' for Active; 'I' for Inactive)
REMARK    1  A    between atoms: C8_8  and  C10_10 
REMARK    2  A    between atoms: C9_9  and  C10_10 
ROOT
HETATM    1  C1  UNL     1     -35.080  17.325   0.549  1.00 20.00     0.012 C 
HETATM    2  C2  UNL     1     -34.508  17.164  -0.493  1.00 20.00    -0.117 C 
HETATM    3  C9  UNL     1     -33.805  16.969  -1.768  1.00 20.00     0.093 C 
ENDROOT
BRANCH   3   4
HETATM    4  C10 UNL     1     -34.302  15.710  -2.453  1.00 20.00     0.017 C 
BRANCH   4   5
HETATM    5  C8  UNL     1     -33.279  15.210  -3.479  1.00 20.00    -0.007 C 
HETATM    6  C5  UNL     1     -33.306  16.064  -4.749  1.00 20.00     0.082 C 
HETATM    7  C3  UNL     1     -34.515  15.751  -5.603  1.00 20.00     0.127 C 
HETATM    8  C4  UNL     1     -34.766  14.292  -5.908  1.00 20.00     0.078 C 
HETATM    9  O11 UNL     1     -35.199  16.641  -6.106  1.00 20.00    -0.298 OA
HETATM   10  C6  UNL     1     -34.743  13.464  -4.631  1.00 20.00     0.008 C 
HETATM   11  C7  UNL     1     -33.480  13.722  -3.809  1.00 20.00     0.005 C 
ENDBRANCH   4   5
ENDBRANCH   3   4
TORSDOF 2
ENDMDL
MODEL 5
REMARK VINA RESULT:      -5.2     11.682     12.737
REMARK  2 active torsions:
REMARK  status: ('A' for Active; 'I' for Inactive)
REMARK    1  A    between atoms: C8_8  and  C10_10 
REMARK    2  A    between atoms: C9_9  and  C10_10 
ROOT
HETATM    1  C1  UNL     1     -35.150  17.396   0.737  1.00 20.00     0.012 C 
HETATM    2  C2  UNL     1     -34.668  17.077  -0.314  1.00 20.00    -0.117 C 
HETATM    3  C9  UNL     1     -34.073  16.688  -1.600  1.00 20.00     0.093 C 
ENDROOT
BRANCH   3   4
HETATM    4  C10 UNL     1     -35.005  15.750  -2.345  1.00 20.00     0.017 C 
BRANCH   4   5
HETATM    5  C8  UNL     1     -34.209  14.695  -3.118  1.00 20.00    -0.007 C 
HETATM    6  C5  UNL     1     -33.023  15.325  -3.854  1.00 20.00     0.082 C 
HETATM    7  C3  UNL     1     -33.472  16.080  -5.086  1.00 20.00     0.127 C 
HETATM    8  C4  UNL     1     -34.387  15.341  -6.035  1.00 20.00     0.078 C 
HETATM    9  O11 UNL     1     -33.036  17.199  -5.351  1.00 20.00    -0.298 OA
HETATM   10  C6  UNL     1     -35.561  14.731  -5.283  1.00 20.00     0.008 C 
HETATM   11  C7  UNL     1     -35.101  13.900  -4.085  1.00 20.00     0.005 C 
ENDBRANCH   4   5
ENDBRANCH   3   4
TORSDOF 2
ENDMDL
MODEL 6
REMARK VINA RESULT:      -4.7     11.263     13.128
REMARK  2 active torsions:
REMARK  status: ('A' for Active; 'I' for Inactive)
REMARK    1  A    between atoms: C8_8  and  C10_10 
REMARK    2  A    between atoms: C9_9  and  C10_10 
ROOT
HETATM    1  C1  UNL     1     -38.826  14.702  -4.271  1.00 20.00     0.012 C 
HETATM    2  C2  UNL     1     -38.027  15.206  -5.011  1.00 20.00    -0.117 C 
HETATM    3  C9  UNL     1     -37.051  15.822  -5.920  1.00 20.00     0.093 C 
ENDROOT
BRANCH   3   4
HETATM    4  C10 UNL     1     -35.865  16.351  -5.135  1.00 20.00     0.017 C 
BRANCH   4   5
HETATM    5  C8  UNL     1     -34.549  15.845  -5.733  1.00 20.00    -0.007 C 
HETATM    6  C5  UNL     1     -34.585  14.330  -5.951  1.00 20.00     0.082 C 
HETATM    7  C3  UNL     1     -34.437  13.578  -4.647  1.00 20.00     0.127 C 
HETATM    8  C4  UNL     1     -33.281  13.985  -3.761  1.00 20.00     0.078 C 
HETATM    9  O11 UNL     1     -35.156  12.620  -4.369  1.00 20.00    -0.298 OA
HETATM   10  C6  UNL     1     -33.270  15.492  -3.552  1.00 20.00     0.008 C 
HETATM   11  C7  UNL     1     -33.339  16.251  -4.877  1.00 20.00     0.005 C 
ENDBRANCH   4   5
ENDBRANCH   3   4
TORSDOF 2
ENDMDL
MODEL 7
REMARK VINA RESULT:      -4.5     11.590     12.850
REMARK  2 active torsions:
REMARK  status: ('A' for Active; 'I' for Inactive)
REMARK    1  A    between atoms: C8_8  and  C10_10 
REMARK    2  A    between atoms: C9_9  and  C10_10 
ROOT
HETATM    1  C1  UNL     1     -35.439  14.461  -7.453  1.00 20.00     0.012 C 
HETATM    2  C2  UNL     1     -35.162  14.010  -6.376  1.00 20.00    -0.117 C 
HETATM    3  C9  UNL     1     -34.820  13.453  -5.060  1.00 20.00     0.093 C 
ENDROOT
BRANCH   3   4
HETATM    4  C10 UNL     1     -35.367  14.343  -3.958  1.00 20.00     0.017 C 
BRANCH   4   5
HETATM    5  C8  UNL     1     -34.240  14.820  -3.037  1.00 20.00    -0.007 C 
HETATM    6  C5  UNL     1     -34.739  15.888  -2.060  1.00 20.00     0.082 C 
HETATM    7  C3  UNL     1     -34.926  17.224  -2.745  1.00 20.00     0.127 C 
HETATM    8  C4  UNL     1     -33.766  17.726  -3.573  1.00 20.00     0.078 C 
HETATM    9  O11 UNL     1     -35.929  17.911  -2.557  1.00 20.00    -0.298 OA
HETATM   10  C6  UNL     1     -33.293  16.652  -4.542  1.00 20.00     0.008 C 
HETATM   11  C7  UNL     1     -33.026  15.324  -3.834  1.00 20.00     0.005 C 
ENDBRANCH   4   5
ENDBRANCH   3   4
TORSDOF 2
ENDMDL
MODEL 8
REMARK VINA RESULT:      -4.5     11.781     12.893
REMARK  2 active torsions:
REMARK  status: ('A' for Active; 'I' for Inactive)
REMARK    1  A    between atoms: C8_8  and  C10_10 
REMARK    2  A    between atoms: C9_9  and  C10_10 
ROOT
HETATM    1  C1  UNL     1     -33.592  18.293  -1.449  1.00 20.00     0.012 C 
HETATM    2  C2  UNL     1     -34.066  17.210  -1.655  1.00 20.00    -0.117 C 
HETATM    3  C9  UNL     1     -34.650  15.885  -1.904  1.00 20.00     0.093 C 
ENDROOT
BRANCH   3   4
HETATM    4  C10 UNL     1     -34.113  15.312  -3.203  1.00 20.00     0.017 C 
BRANCH   4   5
HETATM    5  C8  UNL     1     -35.011  14.179  -3.708  1.00 20.00    -0.007 C 
HETATM    6  C5  UNL     1     -34.530  13.654  -5.064  1.00 20.00     0.082 C 
HETATM    7  C3  UNL     1     -34.878  14.609  -6.184  1.00 20.00     0.127 C 
HETATM    8  C4  UNL     1     -36.313  15.081  -6.248  1.00 20.00     0.078 C 
HETATM    9  O11 UNL     1     -34.062  14.906  -7.056  1.00 20.00    -0.298 OA
HETATM   10  C6  UNL     1     -36.766  15.605  -4.893  1.00 20.00     0.008 C 
HETATM   11  C7  UNL     1     -36.487  14.604  -3.773  1.00 20.00     0.005 C 
ENDBRANCH   4   5
ENDBRANCH   3   4
TORSDOF 2
ENDMDL
MODEL 9
REMARK VINA RESULT:      -4.5     11.153     13.322
REMARK  2 active torsions:
REMARK  status: ('A' for Active; 'I' for Inactive)
REMARK    1  A    between atoms: C8_8  and  C10_10 
REMARK    2  A    between atoms: C9_9  and  C10_10 
ROOT
HETATM    1  C1  UNL     1     -34.224  18.669  -7.710  1.00 20.00     0.012 C 
HETATM    2  C2  UNL     1     -33.908  18.437  -6.576  1.00 20.00    -0.117 C 
HETATM    3  C9  UNL     1     -33.521  18.158  -5.186  1.00 20.00     0.093 C 
ENDROOT
BRANCH   3   4
HETATM    4  C10 UNL     1     -33.357  16.663  -4.979  1.00 20.00     0.017 C 
BRANCH   4   5
HETATM    5  C8  UNL     1     -34.576  16.078  -4.260  1.00 20.00    -0.007 C 
HETATM    6  C5  UNL     1     -34.161  15.003  -3.252  1.00 20.00     0.082 C 
HETATM    7  C3  UNL     1     -33.781  13.712  -3.942  1.00 20.00     0.127 C 
HETATM    8  C4  UNL     1     -34.765  13.174  -4.955  1.00 20.00     0.078 C 
HETATM    9  O11 UNL     1     -32.774  13.081  -3.623  1.00 20.00    -0.298 OA
HETATM   10  C6  UNL     1     -35.157  14.256  -5.951  1.00 20.00     0.008 C 
HETATM   11  C7  UNL     1     -35.618  15.534  -5.250  1.00 20.00     0.005 C 
ENDBRANCH   4   5
ENDBRANCH   3   4
TORSDOF 2
ENDMDL
