MODEL 1
REMARK VINA RESULT:      -4.6      0.000      0.000
REMARK  4 active torsions:
REMARK  status: ('A' for Active; 'I' for Inactive)
REMARK    1  A    between atoms: C5_5  and  C8_8 
REMARK    2  A    between atoms: C6_6  and  C9_9 
REMARK    3  A    between atoms: C9_9  and  C10_10 
REMARK    4  A    between atoms: C10_10  and  C11_11 
ROOT
HETATM    1  C1  UNL     1     -36.358  14.698  -3.772  1.00 20.00     0.001 C 
HETATM    2  C2  UNL     1     -35.393  13.718  -4.436  1.00 20.00     0.005 C 
HETATM    3  C3  UNL     1     -35.686  15.477  -2.645  1.00 20.00     0.005 C 
HETATM    4  C4  UNL     1     -33.447  15.199  -3.789  1.00 20.00     0.009 C 
HETATM    5  C5  UNL     1     -34.097  14.385  -4.919  1.00 20.00    -0.014 C 
HETATM    6  C6  UNL     1     -34.414  16.190  -3.123  1.00 20.00    -0.014 C 
ENDROOT
BRANCH   6   7
HETATM    7  C9  UNL     1     -33.731  16.906  -1.959  1.00 20.00     0.005 C 
BRANCH   7   8
HETATM    8  C10 UNL     1     -34.530  16.745  -0.670  1.00 20.00     0.015 C 
BRANCH   8   9
HETATM    9  C11 UNL     1     -34.267  17.908   0.277  1.00 20.00     0.114 C 
HETATM   10 CL12 UNL     1     -32.628  18.551   0.029  1.00 20.00    -0.130 Cl
ENDBRANCH   8   9
ENDBRANCH   7   8
ENDBRANCH   6   7
BRANCH   5  11
HETATM   11  C8  UNL     1     -34.331  15.237  -6.169  1.00 20.00     0.000 C 
HETATM   12  C7  UNL     1     -35.129  14.501  -7.195  1.00 20.00     0.005 C 
ENDBRANCH   5  11
TORSDOF 4
ENDMDL
MODEL 2
REMARK VINA RESULT:      -4.6      1.478      2.254
REMARK  4 active torsions:
REMARK  status: ('A' for Active; 'I' for Inactive)
REMARK    1  A    between atoms: C5_5  and  C8_8 
REMARK    2  A    between atoms: C6_6  and  C9_9 
REMARK    3  A    between atoms: C9_9  and  C10_10 
REMARK    4  A    between atoms: C10_10  and  C11_11 
ROOT
HETATM    1  C1  UNL     1     -33.847  16.780  -4.728  1.00 20.00     0.001 C 
HETATM    2  C2  UNL     1     -35.137  15.964  -4.745  1.00 20.00     0.005 C 
HETATM    3  C3  UNL     1     -33.700  17.579  -3.437  1.00 20.00     0.005 C 
HETATM    4  C4  UNL     1     -35.105  15.866  -2.218  1.00 20.00     0.009 C 
HETATM    5  C5  UNL     1     -35.292  15.061  -3.513  1.00 20.00    -0.014 C 
HETATM    6  C6  UNL     1     -33.804  16.683  -2.195  1.00 20.00    -0.014 C 
ENDROOT
BRANCH   6   7
HETATM    7  C9  UNL     1     -33.718  17.522  -0.921  1.00 20.00     0.005 C 
BRANCH   7   8
HETATM    8  C10 UNL     1     -34.820  17.142   0.062  1.00 20.00     0.015 C 
BRANCH   8   9
HETATM    9  C11 UNL     1     -35.004  18.229   1.113  1.00 20.00     0.114 C 
HETATM   10 CL12 UNL     1     -33.458  18.581   1.917  1.00 20.00    -0.130 Cl
ENDBRANCH   8   9
ENDBRANCH   7   8
ENDBRANCH   6   7
BRANCH   5  11
HETATM   11  C8  UNL     1     -34.350  13.856  -3.573  1.00 20.00     0.000 C 
HETATM   12  C7  UNL     1     -34.477  13.122  -4.868  1.00 20.00     0.005 C 
ENDBRANCH   5  11
TORSDOF 4
ENDMDL
MODEL 3
REMARK VINA RESULT:      -4.6      2.433      5.188
REMARK  4 active torsions:
REMARK  status: ('A' for Active; 'I' for Inactive)
REMARK    1  A    between atoms: C5_5  and  C8_8 
REMARK    2  A    between atoms: C6_6  and  C9_9 
REMARK    3  A    between atoms: C9_9  and  C10_10 
REMARK    4  A    between atoms: C10_10  and  C11_11 
ROOT
HETATM    1  C1  UNL     1     -35.452  18.337  -3.084  1.00 20.00     0.001 C 
HETATM    2  C2  UNL     1     -34.067  18.128  -2.479  1.00 20.00     0.005 C 
HETATM    3  C3  UNL     1     -35.911  17.120  -3.881  1.00 20.00     0.005 C 
HETATM    4  C4  UNL     1     -34.465  15.630  -2.436  1.00 20.00     0.009 C 
HETATM    5  C5  UNL     1     -33.965  16.845  -1.640  1.00 20.00    -0.014 C 
HETATM    6  C6  UNL     1     -35.863  15.836  -3.041  1.00 20.00    -0.014 C 
ENDROOT
BRANCH   6   7
HETATM    7  C9  UNL     1     -36.265  14.628  -3.885  1.00 20.00     0.005 C 
BRANCH   7   8
HETATM    8  C10 UNL     1     -35.117  13.631  -4.001  1.00 20.00     0.015 C 
BRANCH   8   9
HETATM    9  C11 UNL     1     -34.762  13.384  -5.461  1.00 20.00     0.114 C 
HETATM   10 CL12 UNL     1     -34.350  14.915  -6.266  1.00 20.00    -0.130 Cl
ENDBRANCH   8   9
ENDBRANCH   7   8
ENDBRANCH   6   7
BRANCH   5  11
HETATM   11  C8  UNL     1     -34.695  16.986  -0.301  1.00 20.00     0.000 C 
HETATM   12  C7  UNL     1     -34.123  18.092   0.523  1.00 20.00     0.005 C 
ENDBRANCH   5  11
TORSDOF 4
ENDMDL
MODEL 4
REMARK VINA RESULT:      -4.6     11.274     12.218
REMARK  4 active torsions:
REMARK  status: ('A' for Active; 'I' for Inactive)
REMARK    1  A    between atoms: C5_5  and  C8_8 
REMARK    2  A    between atoms: C6_6  and  C9_9 
REMARK    3  A    between atoms: C9_9  and  C10_10 
REMARK    4  A    between atoms: C10_10  and  C11_11 
ROOT
HETATM    1  C1  UNL     1     -34.457   4.898   2.915  1.00 20.00     0.001 C 
HETATM    2  C2  UNL     1     -35.400   5.526   3.939  1.00 20.00     0.005 C 
HETATM    3  C3  UNL     1     -33.368   5.872   2.477  1.00 20.00     0.005 C 
HETATM    4  C4  UNL     1     -33.544   7.067   4.699  1.00 20.00     0.009 C 
HETATM    5  C5  UNL     1     -34.664   6.117   5.150  1.00 20.00    -0.014 C 
HETATM    6  C6  UNL     1     -32.590   6.435   3.674  1.00 20.00    -0.014 C 
ENDROOT
BRANCH   6   7
HETATM    7  C9  UNL     1     -31.552   7.455   3.206  1.00 20.00     0.005 C 
BRANCH   7   8
HETATM    8  C10 UNL     1     -32.204   8.572   2.399  1.00 20.00     0.015 C 
BRANCH   8   9
HETATM    9  C11 UNL     1     -31.584   8.665   1.011  1.00 20.00     0.114 C 
HETATM   10 CL12 UNL     1     -32.834   9.022  -0.203  1.00 20.00    -0.130 Cl
ENDBRANCH   8   9
ENDBRANCH   7   8
ENDBRANCH   6   7
BRANCH   5  11
HETATM   11  C8  UNL     1     -34.138   5.022   6.082  1.00 20.00     0.000 C 
HETATM   12  C7  UNL     1     -35.104   3.890   6.200  1.00 20.00     0.005 C 
ENDBRANCH   5  11
TORSDOF 4
ENDMDL
MODEL 5
REMARK VINA RESULT:      -4.6      2.746      6.041
REMARK  4 active torsions:
REMARK  status: ('A' for Active; 'I' for Inactive)
REMARK    1  A    between atoms: C5_5  and  C8_8 
REMARK    2  A    between atoms: C6_6  and  C9_9 
REMARK    3  A    between atoms: C9_9  and  C10_10 
REMARK    4  A    between atoms: C10_10  and  C11_11 
ROOT
HETATM    1  C1  UNL     1     -34.743  17.487   0.725  1.00 20.00     0.001 C 
HETATM    2  C2  UNL     1     -34.362  18.965   0.728  1.00 20.00     0.005 C 
HETATM    3  C3  UNL     1     -34.878  16.940  -0.693  1.00 20.00     0.005 C 
HETATM    4  C4  UNL     1     -33.235  18.676  -1.518  1.00 20.00     0.009 C 
HETATM    5  C5  UNL     1     -33.106  19.263  -0.104  1.00 20.00    -0.014 C 
HETATM    6  C6  UNL     1     -33.612  17.186  -1.523  1.00 20.00    -0.014 C 
ENDROOT
BRANCH   6   7
HETATM    7  C9  UNL     1     -33.803  16.687  -2.955  1.00 20.00     0.005 C 
BRANCH   7   8
HETATM    8  C10 UNL     1     -34.427  15.296  -2.972  1.00 20.00     0.015 C 
BRANCH   8   9
HETATM    9  C11 UNL     1     -33.571  14.331  -3.782  1.00 20.00     0.114 C 
HETATM   10 CL12 UNL     1     -34.595  13.118  -4.585  1.00 20.00    -0.130 Cl
ENDBRANCH   8   9
ENDBRANCH   7   8
ENDBRANCH   6   7
BRANCH   5  11
HETATM   11  C8  UNL     1     -31.835  18.778   0.599  1.00 20.00     0.000 C 
HETATM   12  C7  UNL     1     -31.780  19.240   2.018  1.00 20.00     0.005 C 
ENDBRANCH   5  11
TORSDOF 4
ENDMDL
MODEL 6
REMARK VINA RESULT:      -4.4      0.951      2.219
REMARK  4 active torsions:
REMARK  status: ('A' for Active; 'I' for Inactive)
REMARK    1  A    between atoms: C5_5  and  C8_8 
REMARK    2  A    between atoms: C6_6  and  C9_9 
REMARK    3  A    between atoms: C9_9  and  C10_10 
REMARK    4  A    between atoms: C10_10  and  C11_11 
ROOT
HETATM    1  C1  UNL     1     -33.786  13.914  -4.227  1.00 20.00     0.001 C 
HETATM    2  C2  UNL     1     -34.688  14.518  -5.302  1.00 20.00     0.005 C 
HETATM    3  C3  UNL     1     -33.277  14.975  -3.256  1.00 20.00     0.005 C 
HETATM    4  C4  UNL     1     -35.328  16.381  -3.715  1.00 20.00     0.009 C 
HETATM    5  C5  UNL     1     -35.846  15.341  -4.721  1.00 20.00    -0.014 C 
HETATM    6  C6  UNL     1     -34.426  15.775  -2.629  1.00 20.00    -0.014 C 
ENDROOT
BRANCH   6   7
HETATM    7  C9  UNL     1     -33.880  16.870  -1.713  1.00 20.00     0.005 C 
BRANCH   7   8
HETATM    8  C10 UNL     1     -34.664  16.936  -0.407  1.00 20.00     0.015 C 
BRANCH   8   9
HETATM    9  C11 UNL     1     -34.138  18.055   0.481  1.00 20.00     0.114 C 
HETATM   10 CL12 UNL     1     -32.596  18.677  -0.151  1.00 20.00    -0.130 Cl
ENDBRANCH   8   9
ENDBRANCH   7   8
ENDBRANCH   6   7
BRANCH   5  11
HETATM   11  C8  UNL     1     -36.924  14.445  -4.106  1.00 20.00     0.000 C 
HETATM   12  C7  UNL     1     -38.098  15.239  -3.635  1.00 20.00     0.005 C 
ENDBRANCH   5  11
TORSDOF 4
ENDMDL
MODEL 7
REMARK VINA RESULT:      -4.4      2.357      5.405
REMARK  4 active torsions:
REMARK  status: ('A' for Active; 'I' for Inactive)
REMARK    1  A    between atoms: C5_5  and  C8_8 
REMARK    2  A    between atoms: C6_6  and  C9_9 
REMARK    3  A    between atoms: C9_9  and  C10_10 
REMARK    4  A    between atoms: C10_10  and  C11_11 
ROOT
HETATM    1  C1  UNL     1     -33.487  18.894  -2.020  1.00 20.00     0.001 C 
HETATM    2  C2  UNL     1     -33.192  18.066  -0.772  1.00 20.00     0.005 C 
HETATM    3  C3  UNL     1     -33.861  18.012  -3.208  1.00 20.00     0.005 C 
HETATM    4  C4  UNL     1     -34.724  16.241  -1.621  1.00 20.00     0.009 C 
HETATM    5  C5  UNL     1     -34.328  17.099  -0.409  1.00 20.00    -0.014 C 
HETATM    6  C6  UNL     1     -35.028  17.072  -2.877  1.00 20.00    -0.014 C 
ENDROOT
BRANCH   6   7
HETATM    7  C9  UNL     1     -35.334  16.159  -4.064  1.00 20.00     0.005 C 
BRANCH   7   8
HETATM    8  C10 UNL     1     -35.804  14.787  -3.595  1.00 20.00     0.015 C 
BRANCH   8   9
HETATM    9  C11 UNL     1     -35.044  13.681  -4.315  1.00 20.00     0.114 C 
HETATM   10 CL12 UNL     1     -33.351  13.639  -3.774  1.00 20.00    -0.130 Cl
ENDBRANCH   8   9
ENDBRANCH   7   8
ENDBRANCH   6   7
BRANCH   5  11
HETATM   11  C8  UNL     1     -35.532  17.837   0.181  1.00 20.00     0.000 C 
HETATM   12  C7  UNL     1     -35.558  17.745   1.671  1.00 20.00     0.005 C 
ENDBRANCH   5  11
TORSDOF 4
ENDMDL
MODEL 8
REMARK VINA RESULT:      -4.2      2.879      5.308
REMARK  4 active torsions:
REMARK  status: ('A' for Active; 'I' for Inactive)
REMARK    1  A    between atoms: C5_5  and  C8_8 
REMARK    2  A    between atoms: C6_6  and  C9_9 
REMARK    3  A    between atoms: C9_9  and  C10_10 
REMARK    4  A    between atoms: C10_10  and  C11_11 
ROOT
HETATM    1  C1  UNL     1     -33.263  16.575  -4.974  1.00 20.00     0.001 C 
HETATM    2  C2  UNL     1     -33.007  15.558  -3.864  1.00 20.00     0.005 C 
HETATM    3  C3  UNL     1     -33.843  15.915  -6.222  1.00 20.00     0.005 C 
HETATM    4  C4  UNL     1     -34.846  14.088  -4.789  1.00 20.00     0.009 C 
HETATM    5  C5  UNL     1     -34.246  14.718  -3.522  1.00 20.00    -0.014 C 
HETATM    6  C6  UNL     1     -35.111  15.110  -5.906  1.00 20.00    -0.014 C 
ENDROOT
BRANCH   6   7
HETATM    7  C9  UNL     1     -35.628  14.410  -7.162  1.00 20.00     0.005 C 
BRANCH   7   8
HETATM    8  C10 UNL     1     -36.946  15.020  -7.628  1.00 20.00     0.015 C 
BRANCH   8   9
HETATM    9  C11 UNL     1     -37.507  15.962  -6.572  1.00 20.00     0.114 C 
HETATM   10 CL12 UNL     1     -38.677  15.108  -5.539  1.00 20.00    -0.130 Cl
ENDBRANCH   8   9
ENDBRANCH   7   8
ENDBRANCH   6   7
BRANCH   5  11
HETATM   11  C8  UNL     1     -35.285  15.531  -2.746  1.00 20.00     0.000 C 
HETATM   12  C7  UNL     1     -34.669  16.253  -1.593  1.00 20.00     0.005 C 
ENDBRANCH   5  11
TORSDOF 4
ENDMDL
MODEL 9
REMARK VINA RESULT:      -4.2     12.500     14.387
REMARK  4 active torsions:
REMARK  status: ('A' for Active; 'I' for Inactive)
REMARK    1  A    between atoms: C5_5  and  C8_8 
REMARK    2  A    between atoms: C6_6  and  C9_9 
REMARK    3  A    between atoms: C9_9  and  C10_10 
REMARK    4  A    between atoms: C10_10  and  C11_11 
ROOT
HETATM    1  C1  UNL     1     -40.750   5.900  -0.660  1.00 20.00     0.001 C 
HETATM    2  C2  UNL     1     -41.968   6.815  -0.564  1.00 20.00     0.005 C 
HETATM    3  C3  UNL     1     -41.139   4.482  -1.068  1.00 20.00     0.005 C 
HETATM    4  C4  UNL     1     -43.175   5.385  -2.265  1.00 20.00     0.009 C 
HETATM    5  C5  UNL     1     -42.820   6.819  -1.841  1.00 20.00    -0.014 C 
HETATM    6  C6  UNL     1     -41.950   4.464  -2.370  1.00 20.00    -0.014 C 
ENDROOT
BRANCH   6   7
HETATM    7  C9  UNL     1     -42.380   3.038  -2.714  1.00 20.00     0.005 C 
BRANCH   7   8
HETATM    8  C10 UNL     1     -41.291   2.310  -3.496  1.00 20.00     0.015 C 
BRANCH   8   9
HETATM    9  C11 UNL     1     -41.781   0.944  -3.956  1.00 20.00     0.114 C 
HETATM   10 CL12 UNL     1     -42.974   0.293  -2.809  1.00 20.00    -0.130 Cl
ENDBRANCH   8   9
ENDBRANCH   7   8
ENDBRANCH   6   7
BRANCH   5  11
HETATM   11  C8  UNL     1     -42.139   7.593  -2.973  1.00 20.00     0.000 C 
HETATM   12  C7  UNL     1     -43.025   7.713  -4.169  1.00 20.00     0.005 C 
ENDBRANCH   5  11
TORSDOF 4
ENDMDL
