MODEL 1
REMARK VINA RESULT:      -5.3      0.000      0.000
REMARK  6 active torsions:
REMARK  status: ('A' for Active; 'I' for Inactive)
REMARK    1  A    between atoms: C2_2  and  C7_7 
REMARK    2  A    between atoms: C5_5  and  C10_10 
REMARK    3  A    between atoms: C7_7  and  C8_8 
REMARK    4  A    between atoms: C8_8  and  C9_9 
REMARK    5  A    between atoms: C9_9  and  C10_10 
REMARK    6  A    between atoms: C10_10  and  O11_11 
ROOT
HETATM    1  C1  UNL     1     -32.166   8.776   1.349  1.00 20.00    -0.111 C 
HETATM    2  C2  UNL     1     -31.970   8.069   2.300  1.00 20.00    -0.107 C 
HETATM    3  C6  UNL     1     -32.403   9.637   0.191  1.00 20.00     0.112 C 
ENDROOT
BRANCH   2   4
HETATM    4  C7  UNL     1     -31.730   7.204   3.464  1.00 20.00     0.094 C 
BRANCH   4   5
HETATM    5  C8  UNL     1     -32.214   5.778   3.200  1.00 20.00     0.014 C 
BRANCH   5   6
HETATM    6  C9  UNL     1     -33.695   5.757   2.814  1.00 20.00     0.033 C 
BRANCH   6   7
HETATM    7  C10 UNL     1     -34.638   5.938   4.007  1.00 20.00     0.122 C 
BRANCH   7   8
HETATM    8  C5  UNL     1     -34.173   5.223   5.242  1.00 20.00     0.014 A 
HETATM    9  C3  UNL     1     -34.401   5.829   6.599  1.00 20.00     0.007 A 
HETATM   10  C4  UNL     1     -35.172   4.607   6.182  1.00 20.00     0.007 A 
ENDBRANCH   7   8
BRANCH   7  11
HETATM   11  O11 UNL     1     -35.912   5.417   3.624  1.00 20.00    -0.395 OA
HETATM   12  H27 UNL     1     -35.875   5.281   2.667  1.00 20.00     0.210 HD
ENDBRANCH   7  11
ENDBRANCH   6   7
ENDBRANCH   5   6
ENDBRANCH   4   5
ENDBRANCH   2   4
TORSDOF 6
ENDMDL
MODEL 2
REMARK VINA RESULT:      -5.0     10.687     12.075
REMARK  6 active torsions:
REMARK  status: ('A' for Active; 'I' for Inactive)
REMARK    1  A    between atoms: C2_2  and  C7_7 
REMARK    2  A    between atoms: C5_5  and  C10_10 
REMARK    3  A    between atoms: C7_7  and  C8_8 
REMARK    4  A    between atoms: C8_8  and  C9_9 
REMARK    5  A    between atoms: C9_9  and  C10_10 
REMARK    6  A    between atoms: C10_10  and  O11_11 
ROOT
HETATM    1  C1  UNL     1     -34.775  17.153   0.020  1.00 20.00    -0.111 C 
HETATM    2  C2  UNL     1     -34.379  16.798  -1.057  1.00 20.00    -0.107 C 
HETATM    3  C6  UNL     1     -35.257  17.584   1.331  1.00 20.00     0.112 C 
ENDROOT
BRANCH   2   4
HETATM    4  C7  UNL     1     -33.896  16.364  -2.376  1.00 20.00     0.094 C 
BRANCH   4   5
HETATM    5  C8  UNL     1     -34.676  15.147  -2.875  1.00 20.00     0.014 C 
BRANCH   5   6
HETATM    6  C9  UNL     1     -33.760  14.163  -3.605  1.00 20.00     0.033 C 
BRANCH   6   7
HETATM    7  C10 UNL     1     -34.419  13.503  -4.821  1.00 20.00     0.122 C 
BRANCH   7   8
HETATM    8  C5  UNL     1     -35.142  14.478  -5.703  1.00 20.00     0.014 A 
HETATM    9  C3  UNL     1     -34.372  15.382  -6.624  1.00 20.00     0.007 A 
HETATM   10  C4  UNL     1     -35.196  14.259  -7.189  1.00 20.00     0.007 A 
ENDBRANCH   7   8
BRANCH   7  11
HETATM   11  O11 UNL     1     -35.355  12.544  -4.328  1.00 20.00    -0.395 OA
HETATM   12  H27 UNL     1     -35.932  13.017  -3.711  1.00 20.00     0.210 HD
ENDBRANCH   7  11
ENDBRANCH   6   7
ENDBRANCH   5   6
ENDBRANCH   4   5
ENDBRANCH   2   4
TORSDOF 6
ENDMDL
MODEL 3
REMARK VINA RESULT:      -4.9      1.435      1.737
REMARK  6 active torsions:
REMARK  status: ('A' for Active; 'I' for Inactive)
REMARK    1  A    between atoms: C2_2  and  C7_7 
REMARK    2  A    between atoms: C5_5  and  C10_10 
REMARK    3  A    between atoms: C7_7  and  C8_8 
REMARK    4  A    between atoms: C8_8  and  C9_9 
REMARK    5  A    between atoms: C9_9  and  C10_10 
REMARK    6  A    between atoms: C10_10  and  O11_11 
ROOT
HETATM    1  C1  UNL     1     -32.138   8.815   1.348  1.00 20.00    -0.111 C 
HETATM    2  C2  UNL     1     -31.937   8.017   2.224  1.00 20.00    -0.107 C 
HETATM    3  C6  UNL     1     -32.382   9.785   0.282  1.00 20.00     0.112 C 
ENDROOT
BRANCH   2   4
HETATM    4  C7  UNL     1     -31.690   7.042   3.295  1.00 20.00     0.094 C 
BRANCH   4   5
HETATM    5  C8  UNL     1     -32.871   6.082   3.450  1.00 20.00     0.014 C 
BRANCH   5   6
HETATM    6  C9  UNL     1     -33.931   6.655   4.393  1.00 20.00     0.033 C 
BRANCH   6   7
HETATM    7  C10 UNL     1     -33.804   6.146   5.832  1.00 20.00     0.122 C 
BRANCH   7   8
HETATM    8  C5  UNL     1     -34.781   5.056   6.162  1.00 20.00     0.014 A 
HETATM    9  C3  UNL     1     -35.431   4.262   5.063  1.00 20.00     0.007 A 
HETATM   10  C4  UNL     1     -34.407   3.615   5.953  1.00 20.00     0.007 A 
ENDBRANCH   7   8
BRANCH   7  11
HETATM   11  O11 UNL     1     -34.042   7.257   6.698  1.00 20.00    -0.395 OA
HETATM   12  H27 UNL     1     -33.916   8.053   6.162  1.00 20.00     0.210 HD
ENDBRANCH   7  11
ENDBRANCH   6   7
ENDBRANCH   5   6
ENDBRANCH   4   5
ENDBRANCH   2   4
TORSDOF 6
ENDMDL
MODEL 4
REMARK VINA RESULT:      -4.5      1.473      4.597
REMARK  6 active torsions:
REMARK  status: ('A' for Active; 'I' for Inactive)
REMARK    1  A    between atoms: C2_2  and  C7_7 
REMARK    2  A    between atoms: C5_5  and  C10_10 
REMARK    3  A    between atoms: C7_7  and  C8_8 
REMARK    4  A    between atoms: C8_8  and  C9_9 
REMARK    5  A    between atoms: C9_9  and  C10_10 
REMARK    6  A    between atoms: C10_10  and  O11_11 
ROOT
HETATM    1  C1  UNL     1     -33.952   6.531   6.741  1.00 20.00    -0.111 C 
HETATM    2  C2  UNL     1     -34.506   5.513   6.428  1.00 20.00    -0.107 C 
HETATM    3  C6  UNL     1     -33.276   7.771   7.120  1.00 20.00     0.112 C 
ENDROOT
BRANCH   2   4
HETATM    4  C7  UNL     1     -35.184   4.267   6.044  1.00 20.00     0.094 C 
BRANCH   4   5
HETATM    5  C8  UNL     1     -35.181   4.082   4.526  1.00 20.00     0.014 C 
BRANCH   5   6
HETATM    6  C9  UNL     1     -35.014   5.422   3.805  1.00 20.00     0.033 C 
BRANCH   6   7
HETATM    7  C10 UNL     1     -33.626   5.614   3.187  1.00 20.00     0.122 C 
BRANCH   7   8
HETATM    8  C5  UNL     1     -33.125   7.024   3.284  1.00 20.00     0.014 A 
HETATM    9  C3  UNL     1     -31.693   7.296   3.653  1.00 20.00     0.007 A 
HETATM   10  C4  UNL     1     -32.172   7.562   2.253  1.00 20.00     0.007 A 
ENDBRANCH   7   8
BRANCH   7  11
HETATM   11  O11 UNL     1     -33.721   5.251   1.808  1.00 20.00    -0.395 OA
HETATM   12  H27 UNL     1     -34.665   5.242   1.593  1.00 20.00     0.210 HD
ENDBRANCH   7  11
ENDBRANCH   6   7
ENDBRANCH   5   6
ENDBRANCH   4   5
ENDBRANCH   2   4
TORSDOF 6
ENDMDL
MODEL 5
REMARK VINA RESULT:      -4.4     10.932     11.984
REMARK  6 active torsions:
REMARK  status: ('A' for Active; 'I' for Inactive)
REMARK    1  A    between atoms: C2_2  and  C7_7 
REMARK    2  A    between atoms: C5_5  and  C10_10 
REMARK    3  A    between atoms: C7_7  and  C8_8 
REMARK    4  A    between atoms: C8_8  and  C9_9 
REMARK    5  A    between atoms: C9_9  and  C10_10 
REMARK    6  A    between atoms: C10_10  and  O11_11 
ROOT
HETATM    1  C1  UNL     1     -34.298  16.459  -1.528  1.00 20.00    -0.111 C 
HETATM    2  C2  UNL     1     -33.845  15.980  -2.532  1.00 20.00    -0.107 C 
HETATM    3  C6  UNL     1     -34.850  17.041  -0.306  1.00 20.00     0.112 C 
ENDROOT
BRANCH   2   4
HETATM    4  C7  UNL     1     -33.292  15.396  -3.762  1.00 20.00     0.094 C 
BRANCH   4   5
HETATM    5  C8  UNL     1     -33.498  13.881  -3.793  1.00 20.00     0.014 C 
BRANCH   5   6
HETATM    6  C9  UNL     1     -34.829  13.515  -4.454  1.00 20.00     0.033 C 
BRANCH   6   7
HETATM    7  C10 UNL     1     -35.334  14.578  -5.435  1.00 20.00     0.122 C 
BRANCH   7   8
HETATM    8  C5  UNL     1     -36.739  15.024  -5.152  1.00 20.00     0.014 A 
HETATM    9  C3  UNL     1     -37.300  14.922  -3.761  1.00 20.00     0.007 A 
HETATM   10  C4  UNL     1     -36.990  16.270  -4.350  1.00 20.00     0.007 A 
ENDBRANCH   7   8
BRANCH   7  11
HETATM   11  O11 UNL     1     -35.286  14.005  -6.743  1.00 20.00    -0.395 OA
HETATM   12  H27 UNL     1     -34.836  14.650  -7.307  1.00 20.00     0.210 HD
ENDBRANCH   7  11
ENDBRANCH   6   7
ENDBRANCH   5   6
ENDBRANCH   4   5
ENDBRANCH   2   4
TORSDOF 6
ENDMDL
MODEL 6
REMARK VINA RESULT:      -4.4     11.254     12.581
REMARK  6 active torsions:
REMARK  status: ('A' for Active; 'I' for Inactive)
REMARK    1  A    between atoms: C2_2  and  C7_7 
REMARK    2  A    between atoms: C5_5  and  C10_10 
REMARK    3  A    between atoms: C7_7  and  C8_8 
REMARK    4  A    between atoms: C8_8  and  C9_9 
REMARK    5  A    between atoms: C9_9  and  C10_10 
REMARK    6  A    between atoms: C10_10  and  O11_11 
ROOT
HETATM    1  C1  UNL     1     -35.077  17.421   0.862  1.00 20.00    -0.111 C 
HETATM    2  C2  UNL     1     -34.594  17.176  -0.210  1.00 20.00    -0.107 C 
HETATM    3  C6  UNL     1     -35.664  17.718   2.168  1.00 20.00     0.112 C 
ENDROOT
BRANCH   2   4
HETATM    4  C7  UNL     1     -34.006  16.878  -1.523  1.00 20.00     0.094 C 
BRANCH   4   5
HETATM    5  C8  UNL     1     -34.884  15.906  -2.313  1.00 20.00     0.014 C 
BRANCH   5   6
HETATM    6  C9  UNL     1     -34.039  14.996  -3.207  1.00 20.00     0.033 C 
BRANCH   6   7
HETATM    7  C10 UNL     1     -33.893  15.515  -4.641  1.00 20.00     0.122 C 
BRANCH   7   8
HETATM    8  C5  UNL     1     -34.380  14.543  -5.674  1.00 20.00     0.014 A 
HETATM    9  C3  UNL     1     -35.724  14.734  -6.321  1.00 20.00     0.007 A 
HETATM   10  C4  UNL     1     -34.468  14.953  -7.118  1.00 20.00     0.007 A 
ENDBRANCH   7   8
BRANCH   7  11
HETATM   11  O11 UNL     1     -32.505  15.768  -4.862  1.00 20.00    -0.395 OA
HETATM   12  H27 UNL     1     -32.404  15.924  -5.812  1.00 20.00     0.210 HD
ENDBRANCH   7  11
ENDBRANCH   6   7
ENDBRANCH   5   6
ENDBRANCH   4   5
ENDBRANCH   2   4
TORSDOF 6
ENDMDL
MODEL 7
REMARK VINA RESULT:      -4.3     10.822     11.938
REMARK  6 active torsions:
REMARK  status: ('A' for Active; 'I' for Inactive)
REMARK    1  A    between atoms: C2_2  and  C7_7 
REMARK    2  A    between atoms: C5_5  and  C10_10 
REMARK    3  A    between atoms: C7_7  and  C8_8 
REMARK    4  A    between atoms: C8_8  and  C9_9 
REMARK    5  A    between atoms: C9_9  and  C10_10 
REMARK    6  A    between atoms: C10_10  and  O11_11 
ROOT
HETATM    1  C1  UNL     1     -34.845  17.287   0.420  1.00 20.00    -0.111 C 
HETATM    2  C2  UNL     1     -34.617  16.838  -0.670  1.00 20.00    -0.107 C 
HETATM    3  C6  UNL     1     -35.121  17.834   1.748  1.00 20.00     0.112 C 
ENDROOT
BRANCH   2   4
HETATM    4  C7  UNL     1     -34.338  16.289  -2.004  1.00 20.00     0.094 C 
BRANCH   4   5
HETATM    5  C8  UNL     1     -34.915  17.184  -3.101  1.00 20.00     0.014 C 
BRANCH   5   6
HETATM    6  C9  UNL     1     -36.018  16.465  -3.881  1.00 20.00     0.033 C 
BRANCH   6   7
HETATM    7  C10 UNL     1     -36.287  15.041  -3.385  1.00 20.00     0.122 C 
BRANCH   7   8
HETATM    8  C5  UNL     1     -35.975  13.989  -4.408  1.00 20.00     0.014 A 
HETATM    9  C3  UNL     1     -34.952  14.252  -5.478  1.00 20.00     0.007 A 
HETATM   10  C4  UNL     1     -34.655  13.272  -4.378  1.00 20.00     0.007 A 
ENDBRANCH   7   8
BRANCH   7  11
HETATM   11  O11 UNL     1     -37.673  14.963  -3.049  1.00 20.00    -0.395 OA
HETATM   12  H27 UNL     1     -38.161  15.044  -3.881  1.00 20.00     0.210 HD
ENDBRANCH   7  11
ENDBRANCH   6   7
ENDBRANCH   5   6
ENDBRANCH   4   5
ENDBRANCH   2   4
TORSDOF 6
ENDMDL
MODEL 8
REMARK VINA RESULT:      -4.3     10.598     12.580
REMARK  6 active torsions:
REMARK  status: ('A' for Active; 'I' for Inactive)
REMARK    1  A    between atoms: C2_2  and  C7_7 
REMARK    2  A    between atoms: C5_5  and  C10_10 
REMARK    3  A    between atoms: C7_7  and  C8_8 
REMARK    4  A    between atoms: C8_8  and  C9_9 
REMARK    5  A    between atoms: C9_9  and  C10_10 
REMARK    6  A    between atoms: C10_10  and  O11_11 
ROOT
HETATM    1  C1  UNL     1     -34.118  17.541  -6.334  1.00 20.00    -0.111 C 
HETATM    2  C2  UNL     1     -34.222  16.427  -6.771  1.00 20.00    -0.107 C 
HETATM    3  C6  UNL     1     -33.990  18.896  -5.801  1.00 20.00     0.112 C 
ENDROOT
BRANCH   2   4
HETATM    4  C7  UNL     1     -34.349  15.063  -7.304  1.00 20.00     0.094 C 
BRANCH   4   5
HETATM    5  C8  UNL     1     -35.507  14.317  -6.640  1.00 20.00     0.014 C 
BRANCH   5   6
HETATM    6  C9  UNL     1     -35.707  14.778  -5.194  1.00 20.00     0.033 C 
BRANCH   6   7
HETATM    7  C10 UNL     1     -35.291  13.731  -4.157  1.00 20.00     0.122 C 
BRANCH   7   8
HETATM    8  C5  UNL     1     -34.233  14.221  -3.212  1.00 20.00     0.014 A 
HETATM    9  C3  UNL     1     -32.977  14.853  -3.744  1.00 20.00     0.007 A 
HETATM   10  C4  UNL     1     -34.001  15.696  -3.036  1.00 20.00     0.007 A 
ENDBRANCH   7   8
BRANCH   7  11
HETATM   11  O11 UNL     1     -34.785  12.602  -4.872  1.00 20.00    -0.395 OA
HETATM   12  H27 UNL     1     -35.237  11.826  -4.512  1.00 20.00     0.210 HD
ENDBRANCH   7  11
ENDBRANCH   6   7
ENDBRANCH   5   6
ENDBRANCH   4   5
ENDBRANCH   2   4
TORSDOF 6
ENDMDL
MODEL 9
REMARK VINA RESULT:      -4.3     10.907     12.546
REMARK  6 active torsions:
REMARK  status: ('A' for Active; 'I' for Inactive)
REMARK    1  A    between atoms: C2_2  and  C7_7 
REMARK    2  A    between atoms: C5_5  and  C10_10 
REMARK    3  A    between atoms: C7_7  and  C8_8 
REMARK    4  A    between atoms: C8_8  and  C9_9 
REMARK    5  A    between atoms: C9_9  and  C10_10 
REMARK    6  A    between atoms: C10_10  and  O11_11 
ROOT
HETATM    1  C1  UNL     1     -34.654  16.400  -6.953  1.00 20.00    -0.111 C 
HETATM    2  C2  UNL     1     -34.834  15.272  -6.582  1.00 20.00    -0.107 C 
HETATM    3  C6  UNL     1     -34.435  17.772  -7.406  1.00 20.00     0.112 C 
ENDROOT
BRANCH   2   4
HETATM    4  C7  UNL     1     -35.052  13.892  -6.127  1.00 20.00     0.094 C 
BRANCH   4   5
HETATM    5  C8  UNL     1     -35.065  13.809  -4.600  1.00 20.00     0.014 C 
BRANCH   5   6
HETATM    6  C9  UNL     1     -33.656  13.588  -4.045  1.00 20.00     0.033 C 
BRANCH   6   7
HETATM    7  C10 UNL     1     -33.045  14.842  -3.412  1.00 20.00     0.122 C 
BRANCH   7   8
HETATM    8  C5  UNL     1     -34.072  15.856  -3.000  1.00 20.00     0.014 A 
HETATM    9  C3  UNL     1     -33.788  16.806  -1.870  1.00 20.00     0.007 A 
HETATM   10  C4  UNL     1     -33.850  17.315  -3.283  1.00 20.00     0.007 A 
ENDBRANCH   7   8
BRANCH   7  11
HETATM   11  O11 UNL     1     -32.179  15.430  -4.384  1.00 20.00    -0.395 OA
HETATM   12  H27 UNL     1     -32.233  14.870  -5.172  1.00 20.00     0.210 HD
ENDBRANCH   7  11
ENDBRANCH   6   7
ENDBRANCH   5   6
ENDBRANCH   4   5
ENDBRANCH   2   4
TORSDOF 6
ENDMDL
