MODEL 1
REMARK VINA RESULT:      -4.6      0.000      0.000
REMARK  2 active torsions:
REMARK  status: ('A' for Active; 'I' for Inactive)
REMARK    1  A    between atoms: C4_4  and  C10_10 
REMARK    2  A    between atoms: C8_8  and  C10_10 
ROOT
HETATM    1  C5  UNL     1     -34.417  16.987  -0.511  1.00 20.00     0.006 C 
HETATM    2  C6  UNL     1     -34.428  18.138   0.498  1.00 20.00     0.020 C 
HETATM    3  C7  UNL     1     -33.540  19.029  -1.518  1.00 20.00     0.025 C 
HETATM    4  C8  UNL     1     -33.743  17.532  -1.780  1.00 20.00    -0.009 C 
HETATM    5  C9  UNL     1     -33.387  19.129  -0.005  1.00 20.00     0.082 C 
HETATM    6 CL12 UNL     1     -31.747  18.644   0.509  1.00 20.00    -0.125 Cl
ENDROOT
BRANCH   4   7
HETATM    7  C10 UNL     1     -34.545  17.262  -3.044  1.00 20.00     0.043 C 
BRANCH   7   8
HETATM    8  C4  UNL     1     -34.467  15.816  -3.459  1.00 20.00    -0.051 A 
HETATM    9  C1  UNL     1     -33.255  15.069  -3.512  1.00 20.00     0.014 A 
HETATM   10  C2  UNL     1     -33.464  13.771  -3.923  1.00 20.00     0.050 A 
HETATM   11  S11 UNL     1     -35.118  13.457  -4.242  1.00 20.00    -0.113 SA
HETATM   12  C3  UNL     1     -35.557  15.060  -3.831  1.00 20.00     0.056 A 
ENDBRANCH   7   8
ENDBRANCH   4   7
TORSDOF 2
ENDMDL
MODEL 2
REMARK VINA RESULT:      -4.6      3.504      5.549
REMARK  2 active torsions:
REMARK  status: ('A' for Active; 'I' for Inactive)
REMARK    1  A    between atoms: C4_4  and  C10_10 
REMARK    2  A    between atoms: C8_8  and  C10_10 
ROOT
HETATM    1  C5  UNL     1     -34.894  13.932  -3.785  1.00 20.00     0.006 C 
HETATM    2  C6  UNL     1     -34.814  13.305  -5.179  1.00 20.00     0.020 C 
HETATM    3  C7  UNL     1     -34.030  15.536  -5.407  1.00 20.00     0.025 C 
HETATM    4  C8  UNL     1     -34.490  15.405  -3.950  1.00 20.00    -0.009 C 
HETATM    5  C9  UNL     1     -34.831  14.477  -6.152  1.00 20.00     0.082 C 
HETATM    6 CL12 UNL     1     -36.503  15.029  -6.454  1.00 20.00    -0.125 Cl
ENDROOT
BRANCH   4   7
HETATM    7  C10 UNL     1     -33.426  15.848  -2.958  1.00 20.00     0.043 C 
BRANCH   7   8
HETATM    8  C4  UNL     1     -33.951  16.884  -1.998  1.00 20.00    -0.051 A 
HETATM    9  C1  UNL     1     -34.647  16.571  -0.795  1.00 20.00     0.014 A 
HETATM   10  C2  UNL     1     -35.016  17.703  -0.102  1.00 20.00     0.050 A 
HETATM   11  S11 UNL     1     -34.524  19.136  -0.902  1.00 20.00    -0.113 SA
HETATM   12  C3  UNL     1     -33.814  18.243  -2.179  1.00 20.00     0.056 A 
ENDBRANCH   7   8
ENDBRANCH   4   7
TORSDOF 2
ENDMDL
MODEL 3
REMARK VINA RESULT:      -4.5      3.419      5.409
REMARK  2 active torsions:
REMARK  status: ('A' for Active; 'I' for Inactive)
REMARK    1  A    between atoms: C4_4  and  C10_10 
REMARK    2  A    between atoms: C8_8  and  C10_10 
ROOT
HETATM    1  C5  UNL     1     -34.517  14.278  -3.366  1.00 20.00     0.006 C 
HETATM    2  C6  UNL     1     -35.246  14.142  -4.705  1.00 20.00     0.020 C 
HETATM    3  C7  UNL     1     -35.648  16.360  -3.952  1.00 20.00     0.025 C 
HETATM    4  C8  UNL     1     -34.865  15.674  -2.826  1.00 20.00    -0.009 C 
HETATM    5  C9  UNL     1     -36.329  15.214  -4.689  1.00 20.00     0.082 C 
HETATM    6 CL12 UNL     1     -37.772  14.646  -3.803  1.00 20.00    -0.125 Cl
ENDROOT
BRANCH   4   7
HETATM    7  C10 UNL     1     -33.642  16.469  -2.394  1.00 20.00     0.043 C 
BRANCH   7   8
HETATM    8  C4  UNL     1     -33.882  17.213  -1.107  1.00 20.00    -0.051 A 
HETATM    9  C1  UNL     1     -34.957  16.930  -0.215  1.00 20.00     0.014 A 
HETATM   10  C2  UNL     1     -34.946  17.757   0.886  1.00 20.00     0.050 A 
HETATM   11  S11 UNL     1     -33.644  18.869   0.843  1.00 20.00    -0.113 SA
HETATM   12  C3  UNL     1     -33.091  18.245  -0.653  1.00 20.00     0.056 A 
ENDBRANCH   7   8
ENDBRANCH   4   7
TORSDOF 2
ENDMDL
MODEL 4
REMARK VINA RESULT:      -4.5      1.757      1.949
REMARK  2 active torsions:
REMARK  status: ('A' for Active; 'I' for Inactive)
REMARK    1  A    between atoms: C4_4  and  C10_10 
REMARK    2  A    between atoms: C8_8  and  C10_10 
ROOT
HETATM    1  C5  UNL     1     -35.592  17.105  -2.090  1.00 20.00     0.006 C 
HETATM    2  C6  UNL     1     -35.790  18.381  -1.268  1.00 20.00     0.020 C 
HETATM    3  C7  UNL     1     -33.569  17.652  -0.841  1.00 20.00     0.025 C 
HETATM    4  C8  UNL     1     -34.195  16.573  -1.731  1.00 20.00    -0.009 C 
HETATM    5  C9  UNL     1     -34.758  18.308  -0.150  1.00 20.00     0.082 C 
HETATM    6 CL12 UNL     1     -35.353  17.302   1.200  1.00 20.00    -0.125 Cl
ENDROOT
BRANCH   4   7
HETATM    7  C10 UNL     1     -33.346  16.255  -2.952  1.00 20.00     0.043 C 
BRANCH   7   8
HETATM    8  C4  UNL     1     -34.024  15.267  -3.865  1.00 20.00    -0.051 A 
HETATM    9  C1  UNL     1     -34.372  13.940  -3.479  1.00 20.00     0.014 A 
HETATM   10  C2  UNL     1     -34.982  13.248  -4.503  1.00 20.00     0.050 A 
HETATM   11  S11 UNL     1     -35.132  14.196  -5.921  1.00 20.00    -0.113 SA
HETATM   12  C3  UNL     1     -34.381  15.538  -5.167  1.00 20.00     0.056 A 
ENDBRANCH   7   8
ENDBRANCH   4   7
TORSDOF 2
ENDMDL
MODEL 5
REMARK VINA RESULT:      -4.4      1.800      2.245
REMARK  2 active torsions:
REMARK  status: ('A' for Active; 'I' for Inactive)
REMARK    1  A    between atoms: C4_4  and  C10_10 
REMARK    2  A    between atoms: C8_8  and  C10_10 
ROOT
HETATM    1  C5  UNL     1     -33.301  18.158  -1.563  1.00 20.00     0.006 C 
HETATM    2  C6  UNL     1     -33.774  18.195  -0.108  1.00 20.00     0.020 C 
HETATM    3  C7  UNL     1     -34.788  16.282  -1.087  1.00 20.00     0.025 C 
HETATM    4  C8  UNL     1     -34.040  16.985  -2.227  1.00 20.00    -0.009 C 
HETATM    5  C9  UNL     1     -35.067  17.390  -0.080  1.00 20.00     0.082 C 
HETATM    6 CL12 UNL     1     -36.452  18.394  -0.596  1.00 20.00    -0.125 Cl
ENDROOT
BRANCH   4   7
HETATM    7  C10 UNL     1     -33.113  16.048  -2.984  1.00 20.00     0.043 C 
BRANCH   7   8
HETATM    8  C4  UNL     1     -33.868  15.169  -3.947  1.00 20.00    -0.051 A 
HETATM    9  C1  UNL     1     -34.074  13.773  -3.753  1.00 20.00     0.014 A 
HETATM   10  C2  UNL     1     -34.796  13.209  -4.782  1.00 20.00     0.050 A 
HETATM   11  S11 UNL     1     -35.222  14.361  -5.976  1.00 20.00    -0.113 SA
HETATM   12  C3  UNL     1     -34.440  15.619  -5.117  1.00 20.00     0.056 A 
ENDBRANCH   7   8
ENDBRANCH   4   7
TORSDOF 2
ENDMDL
MODEL 6
REMARK VINA RESULT:      -4.4     13.852     15.970
REMARK  2 active torsions:
REMARK  status: ('A' for Active; 'I' for Inactive)
REMARK    1  A    between atoms: C4_4  and  C10_10 
REMARK    2  A    between atoms: C8_8  and  C10_10 
ROOT
HETATM    1  C5  UNL     1     -43.199   2.325  -2.204  1.00 20.00     0.006 C 
HETATM    2  C6  UNL     1     -43.161   0.921  -2.813  1.00 20.00     0.020 C 
HETATM    3  C7  UNL     1     -41.286   2.081  -3.699  1.00 20.00     0.025 C 
HETATM    4  C8  UNL     1     -42.051   3.110  -2.858  1.00 20.00    -0.009 C 
HETATM    5  C9  UNL     1     -42.341   1.054  -4.090  1.00 20.00     0.082 C 
HETATM    6 CL12 UNL     1     -43.353   1.652  -5.436  1.00 20.00    -0.125 Cl
ENDROOT
BRANCH   4   7
HETATM    7  C10 UNL     1     -41.163   3.819  -1.849  1.00 20.00     0.043 C 
BRANCH   7   8
HETATM    8  C4  UNL     1     -41.482   5.288  -1.756  1.00 20.00    -0.051 A 
HETATM    9  C1  UNL     1     -40.919   6.163  -0.781  1.00 20.00     0.014 A 
HETATM   10  C2  UNL     1     -41.379   7.454  -0.918  1.00 20.00     0.050 A 
HETATM   11  S11 UNL     1     -42.484   7.609  -2.217  1.00 20.00    -0.113 SA
HETATM   12  C3  UNL     1     -42.350   5.945  -2.600  1.00 20.00     0.056 A 
ENDBRANCH   7   8
ENDBRANCH   4   7
TORSDOF 2
ENDMDL
MODEL 7
REMARK VINA RESULT:      -4.3      3.376      5.553
REMARK  2 active torsions:
REMARK  status: ('A' for Active; 'I' for Inactive)
REMARK    1  A    between atoms: C4_4  and  C10_10 
REMARK    2  A    between atoms: C8_8  and  C10_10 
ROOT
HETATM    1  C5  UNL     1     -36.100  16.012  -4.653  1.00 20.00     0.006 C 
HETATM    2  C6  UNL     1     -36.499  15.061  -5.784  1.00 20.00     0.020 C 
HETATM    3  C7  UNL     1     -34.603  14.087  -4.735  1.00 20.00     0.025 C 
HETATM    4  C8  UNL     1     -34.811  15.439  -4.043  1.00 20.00    -0.009 C 
HETATM    5  C9  UNL     1     -35.242  14.262  -6.106  1.00 20.00     0.082 C 
HETATM    6 CL12 UNL     1     -34.170  15.178  -7.203  1.00 20.00    -0.125 Cl
ENDROOT
BRANCH   4   7
HETATM    7  C10 UNL     1     -34.869  15.320  -2.528  1.00 20.00     0.043 C 
BRANCH   7   8
HETATM    8  C4  UNL     1     -34.426  16.588  -1.848  1.00 20.00    -0.051 A 
HETATM    9  C1  UNL     1     -34.633  16.861  -0.465  1.00 20.00     0.014 A 
HETATM   10  C2  UNL     1     -34.131  18.091  -0.100  1.00 20.00     0.050 A 
HETATM   11  S11 UNL     1     -33.414  18.911  -1.422  1.00 20.00    -0.113 SA
HETATM   12  C3  UNL     1     -33.774  17.620  -2.487  1.00 20.00     0.056 A 
ENDBRANCH   7   8
ENDBRANCH   4   7
TORSDOF 2
ENDMDL
MODEL 8
REMARK VINA RESULT:      -4.3      2.384      3.362
REMARK  2 active torsions:
REMARK  status: ('A' for Active; 'I' for Inactive)
REMARK    1  A    between atoms: C4_4  and  C10_10 
REMARK    2  A    between atoms: C8_8  and  C10_10 
ROOT
HETATM    1  C5  UNL     1     -35.858  15.337  -3.188  1.00 20.00     0.006 C 
HETATM    2  C6  UNL     1     -35.904  16.833  -2.869  1.00 20.00     0.020 C 
HETATM    3  C7  UNL     1     -33.611  16.214  -2.825  1.00 20.00     0.025 C 
HETATM    4  C8  UNL     1     -34.387  14.912  -3.054  1.00 20.00    -0.009 C 
HETATM    5  C9  UNL     1     -34.607  17.130  -2.127  1.00 20.00     0.082 C 
HETATM    6 CL12 UNL     1     -34.757  16.717  -0.395  1.00 20.00    -0.125 Cl
ENDROOT
BRANCH   4   7
HETATM    7  C10 UNL     1     -33.880  14.130  -4.255  1.00 20.00     0.043 C 
BRANCH   7   8
HETATM    8  C4  UNL     1     -34.384  14.706  -5.552  1.00 20.00    -0.051 A 
HETATM    9  C1  UNL     1     -33.942  15.949  -6.094  1.00 20.00     0.014 A 
HETATM   10  C2  UNL     1     -34.561  16.241  -7.289  1.00 20.00     0.050 A 
HETATM   11  S11 UNL     1     -35.670  15.020  -7.755  1.00 20.00    -0.113 SA
HETATM   12  C3  UNL     1     -35.323  14.097  -6.355  1.00 20.00     0.056 A 
ENDBRANCH   7   8
ENDBRANCH   4   7
TORSDOF 2
ENDMDL
MODEL 9
REMARK VINA RESULT:      -4.1      3.299      5.178
REMARK  2 active torsions:
REMARK  status: ('A' for Active; 'I' for Inactive)
REMARK    1  A    between atoms: C4_4  and  C10_10 
REMARK    2  A    between atoms: C8_8  and  C10_10 
ROOT
HETATM    1  C5  UNL     1     -34.745  14.814  -3.072  1.00 20.00     0.006 C 
HETATM    2  C6  UNL     1     -34.047  14.357  -4.355  1.00 20.00     0.020 C 
HETATM    3  C7  UNL     1     -33.483  16.647  -4.070  1.00 20.00     0.025 C 
HETATM    4  C8  UNL     1     -34.471  16.320  -2.944  1.00 20.00    -0.009 C 
HETATM    5  C9  UNL     1     -33.799  15.628  -5.157  1.00 20.00     0.082 C 
HETATM    6 CL12 UNL     1     -35.258  16.095  -6.074  1.00 20.00    -0.125 Cl
ENDROOT
BRANCH   4   7
HETATM    7  C10 UNL     1     -33.950  16.718  -1.573  1.00 20.00     0.043 C 
BRANCH   7   8
HETATM    8  C4  UNL     1     -35.013  17.386  -0.741  1.00 20.00    -0.051 A 
HETATM    9  C1  UNL     1     -35.018  17.392   0.684  1.00 20.00     0.014 A 
HETATM   10  C2  UNL     1     -36.101  18.072   1.195  1.00 20.00     0.050 A 
HETATM   11  S11 UNL     1     -37.107  18.700  -0.042  1.00 20.00    -0.113 SA
HETATM   12  C3  UNL     1     -36.092  18.062  -1.265  1.00 20.00     0.056 A 
ENDBRANCH   7   8
ENDBRANCH   4   7
TORSDOF 2
ENDMDL
