MODEL 1
REMARK VINA RESULT:      -4.2      0.000      0.000
REMARK  1 active torsions:
REMARK  status: ('A' for Active; 'I' for Inactive)
REMARK    1  A    between atoms: C6_6  and  C7_7 
ROOT
HETATM    1  C3  UNL     1     -33.320   6.407   5.667  1.00 20.00     0.006 C 
HETATM    2  C4  UNL     1     -34.643   5.940   6.279  1.00 20.00     0.020 C 
HETATM    3  C5  UNL     1     -34.826   5.566   3.939  1.00 20.00     0.025 C 
HETATM    4  C7  UNL     1     -33.395   6.067   4.169  1.00 20.00    -0.009 C 
HETATM    5  C8  UNL     1     -35.232   4.956   5.275  1.00 20.00     0.082 C 
HETATM    6 CL9  UNL     1     -34.519   3.333   5.484  1.00 20.00    -0.125 Cl
ENDROOT
BRANCH   4   7
HETATM    7  C6  UNL     1     -33.034   7.241   3.272  1.00 20.00    -0.010 A 
HETATM    8  C1  UNL     1     -31.677   7.879   3.368  1.00 20.00     0.005 A 
HETATM    9  C2  UNL     1     -32.040   7.065   2.158  1.00 20.00     0.005 A 
ENDBRANCH   4   7
TORSDOF 1
ENDMDL
MODEL 2
REMARK VINA RESULT:      -4.2     11.885     13.509
REMARK  1 active torsions:
REMARK  status: ('A' for Active; 'I' for Inactive)
REMARK    1  A    between atoms: C6_6  and  C7_7 
ROOT
HETATM    1  C3  UNL     1     -34.438  13.735  -4.909  1.00 20.00     0.006 C 
HETATM    2  C4  UNL     1     -33.406  13.780  -3.779  1.00 20.00     0.020 C 
HETATM    3  C5  UNL     1     -33.366  15.926  -4.798  1.00 20.00     0.025 C 
HETATM    4  C7  UNL     1     -34.490  15.154  -5.499  1.00 20.00    -0.009 C 
HETATM    5  C8  UNL     1     -33.240  15.255  -3.436  1.00 20.00     0.082 C 
HETATM    6 CL9  UNL     1     -34.531  15.799  -2.329  1.00 20.00    -0.125 Cl
ENDROOT
BRANCH   4   7
HETATM    7  C6  UNL     1     -34.358  15.174  -7.015  1.00 20.00    -0.010 A 
HETATM    8  C1  UNL     1     -35.411  14.534  -7.876  1.00 20.00     0.005 A 
HETATM    9  C2  UNL     1     -35.276  16.031  -7.843  1.00 20.00     0.005 A 
ENDBRANCH   4   7
TORSDOF 1
ENDMDL
MODEL 3
REMARK VINA RESULT:      -4.2     11.835     12.476
REMARK  1 active torsions:
REMARK  status: ('A' for Active; 'I' for Inactive)
REMARK    1  A    between atoms: C6_6  and  C7_7 
ROOT
HETATM    1  C3  UNL     1     -33.276  14.921  -3.367  1.00 20.00     0.006 C 
HETATM    2  C4  UNL     1     -33.652  13.593  -4.028  1.00 20.00     0.020 C 
HETATM    3  C5  UNL     1     -35.701  14.690  -3.531  1.00 20.00     0.025 C 
HETATM    4  C7  UNL     1     -34.595  15.679  -3.142  1.00 20.00    -0.009 C 
HETATM    5  C8  UNL     1     -35.056  13.798  -4.585  1.00 20.00     0.082 C 
HETATM    6 CL9  UNL     1     -34.998  14.615  -6.171  1.00 20.00    -0.125 Cl
ENDROOT
BRANCH   4   7
HETATM    7  C6  UNL     1     -34.749  16.200  -1.721  1.00 20.00    -0.010 A 
HETATM    8  C1  UNL     1     -33.788  17.221  -1.181  1.00 20.00     0.005 A 
HETATM    9  C2  UNL     1     -35.209  17.610  -1.478  1.00 20.00     0.005 A 
ENDBRANCH   4   7
TORSDOF 1
ENDMDL
MODEL 4
REMARK VINA RESULT:      -4.1      2.438      4.105
REMARK  1 active torsions:
REMARK  status: ('A' for Active; 'I' for Inactive)
REMARK    1  A    between atoms: C6_6  and  C7_7 
ROOT
HETATM    1  C3  UNL     1     -32.702   7.312   4.832  1.00 20.00     0.006 C 
HETATM    2  C4  UNL     1     -31.422   7.665   4.071  1.00 20.00     0.020 C 
HETATM    3  C5  UNL     1     -32.645   6.192   2.664  1.00 20.00     0.025 C 
HETATM    4  C7  UNL     1     -33.544   6.446   3.880  1.00 20.00    -0.009 C 
HETATM    5  C8  UNL     1     -31.739   7.415   2.602  1.00 20.00     0.082 C 
HETATM    6 CL9  UNL     1     -32.592   8.812   1.889  1.00 20.00    -0.125 Cl
ENDROOT
BRANCH   4   7
HETATM    7  C6  UNL     1     -34.036   5.159   4.524  1.00 20.00    -0.010 A 
HETATM    8  C1  UNL     1     -34.722   5.194   5.860  1.00 20.00     0.005 A 
HETATM    9  C2  UNL     1     -35.510   4.877   4.620  1.00 20.00     0.005 A 
ENDBRANCH   4   7
TORSDOF 1
ENDMDL
MODEL 5
REMARK VINA RESULT:      -4.0     11.891     12.680
REMARK  1 active torsions:
REMARK  status: ('A' for Active; 'I' for Inactive)
REMARK    1  A    between atoms: C6_6  and  C7_7 
ROOT
HETATM    1  C3  UNL     1     -35.687  16.297  -3.462  1.00 20.00     0.006 C 
HETATM    2  C4  UNL     1     -35.231  15.849  -4.852  1.00 20.00     0.020 C 
HETATM    3  C5  UNL     1     -33.517  15.183  -3.346  1.00 20.00     0.025 C 
HETATM    4  C7  UNL     1     -34.632  15.773  -2.473  1.00 20.00    -0.009 C 
HETATM    5  C8  UNL     1     -34.232  14.724  -4.611  1.00 20.00     0.082 C 
HETATM    6 CL9  UNL     1     -35.074  13.172  -4.346  1.00 20.00    -0.125 Cl
ENDROOT
BRANCH   4   7
HETATM    7  C6  UNL     1     -34.125  16.844  -1.520  1.00 20.00    -0.010 A 
HETATM    8  C1  UNL     1     -34.972  18.046  -1.211  1.00 20.00     0.005 A 
HETATM    9  C2  UNL     1     -34.743  16.999  -0.158  1.00 20.00     0.005 A 
ENDBRANCH   4   7
TORSDOF 1
ENDMDL
MODEL 6
REMARK VINA RESULT:      -4.0     11.759     12.891
REMARK  1 active torsions:
REMARK  status: ('A' for Active; 'I' for Inactive)
REMARK    1  A    between atoms: C6_6  and  C7_7 
ROOT
HETATM    1  C3  UNL     1     -33.817  17.250  -3.435  1.00 20.00     0.006 C 
HETATM    2  C4  UNL     1     -34.489  18.375  -2.645  1.00 20.00     0.020 C 
HETATM    3  C5  UNL     1     -34.739  16.406  -1.338  1.00 20.00     0.025 C 
HETATM    4  C7  UNL     1     -33.882  15.999  -2.543  1.00 20.00    -0.009 C 
HETATM    5  C8  UNL     1     -34.502  17.905  -1.196  1.00 20.00     0.082 C 
HETATM    6 CL9  UNL     1     -32.935  18.236  -0.407  1.00 20.00    -0.125 Cl
ENDROOT
BRANCH   4   7
HETATM    7  C6  UNL     1     -34.432  14.779  -3.267  1.00 20.00    -0.010 A 
HETATM    8  C1  UNL     1     -34.250  14.633  -4.752  1.00 20.00     0.005 A 
HETATM    9  C2  UNL     1     -33.496  13.736  -3.811  1.00 20.00     0.005 A 
ENDBRANCH   4   7
TORSDOF 1
ENDMDL
MODEL 7
REMARK VINA RESULT:      -3.9     12.134     13.163
REMARK  1 active torsions:
REMARK  status: ('A' for Active; 'I' for Inactive)
REMARK    1  A    between atoms: C6_6  and  C7_7 
ROOT
HETATM    1  C3  UNL     1     -33.783  17.258  -3.921  1.00 20.00     0.006 C 
HETATM    2  C4  UNL     1     -33.337  16.301  -5.029  1.00 20.00     0.020 C 
HETATM    3  C5  UNL     1     -34.163  14.936  -3.268  1.00 20.00     0.025 C 
HETATM    4  C7  UNL     1     -34.416  16.383  -2.826  1.00 20.00    -0.009 C 
HETATM    5  C8  UNL     1     -34.109  15.010  -4.789  1.00 20.00     0.082 C 
HETATM    6 CL9  UNL     1     -35.750  15.111  -5.485  1.00 20.00    -0.125 Cl
ENDROOT
BRANCH   4   7
HETATM    7  C6  UNL     1     -33.868  16.676  -1.438  1.00 20.00    -0.010 A 
HETATM    8  C1  UNL     1     -33.902  18.075  -0.890  1.00 20.00     0.005 A 
HETATM    9  C2  UNL     1     -34.803  17.020  -0.312  1.00 20.00     0.005 A 
ENDBRANCH   4   7
TORSDOF 1
ENDMDL
MODEL 8
REMARK VINA RESULT:      -3.9     12.022     13.032
REMARK  1 active torsions:
REMARK  status: ('A' for Active; 'I' for Inactive)
REMARK    1  A    between atoms: C6_6  and  C7_7 
ROOT
HETATM    1  C3  UNL     1     -34.639  16.416  -1.081  1.00 20.00     0.006 C 
HETATM    2  C4  UNL     1     -35.346  16.084  -2.397  1.00 20.00     0.020 C 
HETATM    3  C5  UNL     1     -33.675  17.688  -2.928  1.00 20.00     0.025 C 
HETATM    4  C7  UNL     1     -33.489  17.371  -1.439  1.00 20.00    -0.009 C 
HETATM    5  C8  UNL     1     -34.355  16.448  -3.496  1.00 20.00     0.082 C 
HETATM    6 CL9  UNL     1     -33.178  15.130  -3.752  1.00 20.00    -0.125 Cl
ENDROOT
BRANCH   4   7
HETATM    7  C6  UNL     1     -33.461  18.621  -0.573  1.00 20.00    -0.010 A 
HETATM    8  C1  UNL     1     -33.504  18.506   0.925  1.00 20.00     0.005 A 
HETATM    9  C2  UNL     1     -32.241  18.950   0.242  1.00 20.00     0.005 A 
ENDBRANCH   4   7
TORSDOF 1
ENDMDL
MODEL 9
REMARK VINA RESULT:      -3.8      9.607     10.946
REMARK  1 active torsions:
REMARK  status: ('A' for Active; 'I' for Inactive)
REMARK    1  A    between atoms: C6_6  and  C7_7 
ROOT
HETATM    1  C3  UNL     1     -40.866   4.380  -1.226  1.00 20.00     0.006 C 
HETATM    2  C4  UNL     1     -40.949   5.852  -0.815  1.00 20.00     0.020 C 
HETATM    3  C5  UNL     1     -43.080   5.290  -1.704  1.00 20.00     0.025 C 
HETATM    4  C7  UNL     1     -42.274   3.986  -1.701  1.00 20.00    -0.009 C 
HETATM    5  C8  UNL     1     -42.433   6.136  -0.614  1.00 20.00     0.082 C 
HETATM    6 CL9  UNL     1     -42.966   5.614   1.008  1.00 20.00    -0.125 Cl
ENDROOT
BRANCH   4   7
HETATM    7  C6  UNL     1     -42.274   3.295  -3.056  1.00 20.00    -0.010 A 
HETATM    8  C1  UNL     1     -41.225   2.268  -3.383  1.00 20.00     0.005 A 
HETATM    9  C2  UNL     1     -42.650   1.843  -3.165  1.00 20.00     0.005 A 
ENDBRANCH   4   7
TORSDOF 1
ENDMDL
