MODEL 1
REMARK VINA RESULT:      -5.4      0.000      0.000
REMARK  4 active torsions:
REMARK  status: ('A' for Active; 'I' for Inactive)
REMARK    1  A    between atoms: C5_5  and  C6_6 
REMARK    2  A    between atoms: C6_6  and  C7_7 
REMARK    3  A    between atoms: C7_7  and  C9_9 
REMARK    4  A    between atoms: C8_8  and  C9_9 
ROOT
HETATM    1  C1  UNL     1     -32.161   9.081   0.857  1.00 20.00     0.012 C 
HETATM    2  C2  UNL     1     -31.858   8.464   1.842  1.00 20.00    -0.117 C 
HETATM    3  C5  UNL     1     -31.483   7.711   3.047  1.00 20.00     0.093 C 
ENDROOT
BRANCH   3   4
HETATM    4  C6  UNL     1     -32.262   6.400   3.178  1.00 20.00     0.014 C 
BRANCH   4   5
HETATM    5  C7  UNL     1     -33.735   6.618   3.549  1.00 20.00     0.021 C 
BRANCH   5   6
HETATM    6  C9  UNL     1     -34.410   5.367   4.138  1.00 20.00     0.085 C 
HETATM    7 CL10 UNL     1     -36.164   5.444   3.740  1.00 20.00    -0.125 Cl
BRANCH   6   8
HETATM    8  C8  UNL     1     -34.188   5.143   5.655  1.00 20.00    -0.004 C 
HETATM    9  C3  UNL     1     -34.096   6.468   6.423  1.00 20.00     0.011 C 
HETATM   10  C4  UNL     1     -35.235   4.238   6.311  1.00 20.00     0.011 C 
ENDBRANCH   6   8
ENDBRANCH   5   6
ENDBRANCH   4   5
ENDBRANCH   3   4
TORSDOF 4
ENDMDL
MODEL 2
REMARK VINA RESULT:      -5.0      1.575      1.936
REMARK  4 active torsions:
REMARK  status: ('A' for Active; 'I' for Inactive)
REMARK    1  A    between atoms: C5_5  and  C6_6 
REMARK    2  A    between atoms: C6_6  and  C7_7 
REMARK    3  A    between atoms: C7_7  and  C9_9 
REMARK    4  A    between atoms: C8_8  and  C9_9 
ROOT
HETATM    1  C1  UNL     1     -32.506   9.463   0.180  1.00 20.00     0.012 C 
HETATM    2  C2  UNL     1     -32.159   8.916   1.190  1.00 20.00    -0.117 C 
HETATM    3  C5  UNL     1     -31.729   8.247   2.427  1.00 20.00     0.093 C 
ENDROOT
BRANCH   3   4
HETATM    4  C6  UNL     1     -32.517   6.963   2.697  1.00 20.00     0.014 C 
BRANCH   4   5
HETATM    5  C7  UNL     1     -32.447   6.520   4.164  1.00 20.00     0.021 C 
BRANCH   5   6
HETATM    6  C9  UNL     1     -33.820   6.482   4.858  1.00 20.00     0.085 C 
HETATM    7 CL10 UNL     1     -33.573   6.882   6.596  1.00 20.00    -0.125 Cl
BRANCH   6   8
HETATM    8  C8  UNL     1     -34.612   5.160   4.694  1.00 20.00    -0.004 C 
HETATM    9  C3  UNL     1     -35.046   4.580   6.046  1.00 20.00     0.011 C 
HETATM   10  C4  UNL     1     -35.826   5.274   3.766  1.00 20.00     0.011 C 
ENDBRANCH   6   8
ENDBRANCH   5   6
ENDBRANCH   4   5
ENDBRANCH   3   4
TORSDOF 4
ENDMDL
MODEL 3
REMARK VINA RESULT:      -4.6      2.015      5.388
REMARK  4 active torsions:
REMARK  status: ('A' for Active; 'I' for Inactive)
REMARK    1  A    between atoms: C5_5  and  C6_6 
REMARK    2  A    between atoms: C6_6  and  C7_7 
REMARK    3  A    between atoms: C7_7  and  C9_9 
REMARK    4  A    between atoms: C8_8  and  C9_9 
ROOT
HETATM    1  C1  UNL     1     -35.123   4.251   6.140  1.00 20.00     0.012 C 
HETATM    2  C2  UNL     1     -35.004   4.754   5.057  1.00 20.00    -0.117 C 
HETATM    3  C5  UNL     1     -34.860   5.366   3.728  1.00 20.00     0.093 C 
ENDROOT
BRANCH   3   4
HETATM    4  C6  UNL     1     -33.875   6.537   3.732  1.00 20.00     0.014 C 
BRANCH   4   5
HETATM    5  C7  UNL     1     -32.559   6.211   3.013  1.00 20.00     0.021 C 
BRANCH   5   6
HETATM    6  C9  UNL     1     -31.723   7.455   2.671  1.00 20.00     0.085 C 
HETATM    7 CL10 UNL     1     -31.329   8.299   4.212  1.00 20.00    -0.125 Cl
BRANCH   6   8
HETATM    8  C8  UNL     1     -32.363   8.427   1.648  1.00 20.00    -0.004 C 
HETATM    9  C3  UNL     1     -32.610   9.815   2.252  1.00 20.00     0.011 C 
HETATM   10  C4  UNL     1     -31.574   8.565   0.342  1.00 20.00     0.011 C 
ENDBRANCH   6   8
ENDBRANCH   5   6
ENDBRANCH   4   5
ENDBRANCH   3   4
TORSDOF 4
ENDMDL
MODEL 4
REMARK VINA RESULT:      -4.5      1.492      4.629
REMARK  4 active torsions:
REMARK  status: ('A' for Active; 'I' for Inactive)
REMARK    1  A    between atoms: C5_5  and  C6_6 
REMARK    2  A    between atoms: C6_6  and  C7_7 
REMARK    3  A    between atoms: C7_7  and  C9_9 
REMARK    4  A    between atoms: C8_8  and  C9_9 
ROOT
HETATM    1  C1  UNL     1     -33.611   7.141   6.801  1.00 20.00     0.012 C 
HETATM    2  C2  UNL     1     -34.160   6.195   6.306  1.00 20.00    -0.117 C 
HETATM    3  C5  UNL     1     -34.831   5.034   5.704  1.00 20.00     0.093 C 
ENDROOT
BRANCH   3   4
HETATM    4  C6  UNL     1     -34.646   4.979   4.186  1.00 20.00     0.014 C 
BRANCH   4   5
HETATM    5  C7  UNL     1     -34.456   6.367   3.559  1.00 20.00     0.021 C 
BRANCH   5   6
HETATM    6  C9  UNL     1     -33.166   6.494   2.731  1.00 20.00     0.085 C 
HETATM    7 CL10 UNL     1     -32.085   5.125   3.175  1.00 20.00    -0.125 Cl
BRANCH   6   8
HETATM    8  C8  UNL     1     -32.430   7.853   2.851  1.00 20.00    -0.004 C 
HETATM    9  C3  UNL     1     -31.255   7.783   3.834  1.00 20.00     0.011 C 
HETATM   10  C4  UNL     1     -31.949   8.420   1.511  1.00 20.00     0.011 C 
ENDBRANCH   6   8
ENDBRANCH   5   6
ENDBRANCH   4   5
ENDBRANCH   3   4
TORSDOF 4
ENDMDL
MODEL 5
REMARK VINA RESULT:      -4.4     11.407     12.811
REMARK  4 active torsions:
REMARK  status: ('A' for Active; 'I' for Inactive)
REMARK    1  A    between atoms: C5_5  and  C6_6 
REMARK    2  A    between atoms: C6_6  and  C7_7 
REMARK    3  A    between atoms: C7_7  and  C9_9 
REMARK    4  A    between atoms: C8_8  and  C9_9 
ROOT
HETATM    1  C1  UNL     1     -34.732  17.385   0.296  1.00 20.00     0.012 C 
HETATM    2  C2  UNL     1     -34.740  16.741  -0.716  1.00 20.00    -0.117 C 
HETATM    3  C5  UNL     1     -34.753  15.949  -1.955  1.00 20.00     0.093 C 
ENDROOT
BRANCH   3   4
HETATM    4  C6  UNL     1     -33.588  16.302  -2.882  1.00 20.00     0.014 C 
BRANCH   4   5
HETATM    5  C7  UNL     1     -33.310  15.214  -3.929  1.00 20.00     0.021 C 
BRANCH   5   6
HETATM    6  C9  UNL     1     -34.534  14.872  -4.795  1.00 20.00     0.085 C 
HETATM    7 CL10 UNL     1     -35.002  13.169  -4.447  1.00 20.00    -0.125 Cl
BRANCH   6   8
HETATM    8  C8  UNL     1     -34.358  15.105  -6.317  1.00 20.00    -0.004 C 
HETATM    9  C3  UNL     1     -35.428  14.373  -7.137  1.00 20.00     0.011 C 
HETATM   10  C4  UNL     1     -34.320  16.583  -6.720  1.00 20.00     0.011 C 
ENDBRANCH   6   8
ENDBRANCH   5   6
ENDBRANCH   4   5
ENDBRANCH   3   4
TORSDOF 4
ENDMDL
MODEL 6
REMARK VINA RESULT:      -4.3     11.050     12.083
REMARK  4 active torsions:
REMARK  status: ('A' for Active; 'I' for Inactive)
REMARK    1  A    between atoms: C5_5  and  C6_6 
REMARK    2  A    between atoms: C6_6  and  C7_7 
REMARK    3  A    between atoms: C7_7  and  C9_9 
REMARK    4  A    between atoms: C8_8  and  C9_9 
ROOT
HETATM    1  C1  UNL     1     -34.898  14.657  -6.891  1.00 20.00     0.012 C 
HETATM    2  C2  UNL     1     -34.849  14.070  -5.845  1.00 20.00    -0.117 C 
HETATM    3  C5  UNL     1     -34.794  13.350  -4.564  1.00 20.00     0.093 C 
ENDROOT
BRANCH   3   4
HETATM    4  C6  UNL     1     -33.605  13.786  -3.704  1.00 20.00     0.014 C 
BRANCH   4   5
HETATM    5  C7  UNL     1     -33.531  15.307  -3.520  1.00 20.00     0.021 C 
BRANCH   5   6
HETATM    6  C9  UNL     1     -34.524  15.846  -2.475  1.00 20.00     0.085 C 
HETATM    7 CL10 UNL     1     -35.926  16.553  -3.356  1.00 20.00    -0.125 Cl
BRANCH   6   8
HETATM    8  C8  UNL     1     -33.936  16.855  -1.456  1.00 20.00    -0.004 C 
HETATM    9  C3  UNL     1     -33.676  18.227  -2.092  1.00 20.00     0.011 C 
HETATM   10  C4  UNL     1     -34.780  17.024  -0.189  1.00 20.00     0.011 C 
ENDBRANCH   6   8
ENDBRANCH   5   6
ENDBRANCH   4   5
ENDBRANCH   3   4
TORSDOF 4
ENDMDL
MODEL 7
REMARK VINA RESULT:      -4.3     10.987     12.805
REMARK  4 active torsions:
REMARK  status: ('A' for Active; 'I' for Inactive)
REMARK    1  A    between atoms: C5_5  and  C6_6 
REMARK    2  A    between atoms: C6_6  and  C7_7 
REMARK    3  A    between atoms: C7_7  and  C9_9 
REMARK    4  A    between atoms: C8_8  and  C9_9 
ROOT
HETATM    1  C1  UNL     1     -35.103  14.670  -6.906  1.00 20.00     0.012 C 
HETATM    2  C2  UNL     1     -34.835  14.006  -5.943  1.00 20.00    -0.117 C 
HETATM    3  C5  UNL     1     -34.510  13.189  -4.765  1.00 20.00     0.093 C 
ENDROOT
BRANCH   3   4
HETATM    4  C6  UNL     1     -34.338  14.034  -3.501  1.00 20.00     0.014 C 
BRANCH   4   5
HETATM    5  C7  UNL     1     -33.247  15.104  -3.644  1.00 20.00     0.021 C 
BRANCH   5   6
HETATM    6  C9  UNL     1     -33.621  16.450  -3.000  1.00 20.00     0.085 C 
HETATM    7 CL10 UNL     1     -34.737  16.116  -1.627  1.00 20.00    -0.125 Cl
BRANCH   6   8
HETATM    8  C8  UNL     1     -34.217  17.506  -3.964  1.00 20.00    -0.004 C 
HETATM    9  C3  UNL     1     -33.470  17.545  -5.304  1.00 20.00     0.011 C 
HETATM   10  C4  UNL     1     -35.720  17.343  -4.215  1.00 20.00     0.011 C 
ENDBRANCH   6   8
ENDBRANCH   5   6
ENDBRANCH   4   5
ENDBRANCH   3   4
TORSDOF 4
ENDMDL
MODEL 8
REMARK VINA RESULT:      -4.3     11.834     12.813
REMARK  4 active torsions:
REMARK  status: ('A' for Active; 'I' for Inactive)
REMARK    1  A    between atoms: C5_5  and  C6_6 
REMARK    2  A    between atoms: C6_6  and  C7_7 
REMARK    3  A    between atoms: C7_7  and  C9_9 
REMARK    4  A    between atoms: C8_8  and  C9_9 
ROOT
HETATM    1  C1  UNL     1     -34.789  17.611   0.644  1.00 20.00     0.012 C 
HETATM    2  C2  UNL     1     -34.776  16.969  -0.370  1.00 20.00    -0.117 C 
HETATM    3  C5  UNL     1     -34.762  16.181  -1.611  1.00 20.00     0.093 C 
ENDROOT
BRANCH   3   4
HETATM    4  C6  UNL     1     -33.586  16.546  -2.519  1.00 20.00     0.014 C 
BRANCH   4   5
HETATM    5  C7  UNL     1     -33.140  15.381  -3.412  1.00 20.00     0.021 C 
BRANCH   5   6
HETATM    6  C9  UNL     1     -33.363  15.640  -4.912  1.00 20.00     0.085 C 
HETATM    7 CL10 UNL     1     -33.440  17.422  -5.162  1.00 20.00    -0.125 Cl
BRANCH   6   8
HETATM    8  C8  UNL     1     -34.593  14.932  -5.534  1.00 20.00    -0.004 C 
HETATM    9  C3  UNL     1     -34.561  14.968  -7.067  1.00 20.00     0.011 C 
HETATM   10  C4  UNL     1     -34.790  13.490  -5.055  1.00 20.00     0.011 C 
ENDBRANCH   6   8
ENDBRANCH   5   6
ENDBRANCH   4   5
ENDBRANCH   3   4
TORSDOF 4
ENDMDL
MODEL 9
REMARK VINA RESULT:      -4.3     11.314     12.621
REMARK  4 active torsions:
REMARK  status: ('A' for Active; 'I' for Inactive)
REMARK    1  A    between atoms: C5_5  and  C6_6 
REMARK    2  A    between atoms: C6_6  and  C7_7 
REMARK    3  A    between atoms: C7_7  and  C9_9 
REMARK    4  A    between atoms: C8_8  and  C9_9 
ROOT
HETATM    1  C1  UNL     1     -35.016  17.720   0.977  1.00 20.00     0.012 C 
HETATM    2  C2  UNL     1     -34.565  17.368  -0.077  1.00 20.00    -0.117 C 
HETATM    3  C5  UNL     1     -34.010  16.939  -1.369  1.00 20.00     0.093 C 
ENDROOT
BRANCH   3   4
HETATM    4  C6  UNL     1     -34.948  15.991  -2.119  1.00 20.00     0.014 C 
BRANCH   4   5
HETATM    5  C7  UNL     1     -34.205  15.061  -3.087  1.00 20.00     0.021 C 
BRANCH   5   6
HETATM    6  C9  UNL     1     -34.959  14.820  -4.406  1.00 20.00     0.085 C 
HETATM    7 CL10 UNL     1     -34.777  13.082  -4.840  1.00 20.00    -0.125 Cl
BRANCH   6   8
HETATM    8  C8  UNL     1     -34.549  15.739  -5.585  1.00 20.00    -0.004 C 
HETATM    9  C3  UNL     1     -33.247  16.497  -5.294  1.00 20.00     0.011 C 
HETATM   10  C4  UNL     1     -34.435  15.014  -6.929  1.00 20.00     0.011 C 
ENDBRANCH   6   8
ENDBRANCH   5   6
ENDBRANCH   4   5
ENDBRANCH   3   4
TORSDOF 4
ENDMDL
