MODEL 1
REMARK VINA RESULT:      -5.2      0.000      0.000
REMARK  6 active torsions:
REMARK  status: ('A' for Active; 'I' for Inactive)
REMARK    1  A    between atoms: C3_3  and  C10_10 
REMARK    2  A    between atoms: C6_6  and  C11_11 
REMARK    3  A    between atoms: C7_7  and  C8_8 
REMARK    4  A    between atoms: C7_7  and  C9_9 
REMARK    5  A    between atoms: C8_8  and  C10_10 
REMARK    6  A    between atoms: C9_9  and  C11_11 
ROOT
HETATM    1  C7  UNL     1     -33.738   5.432   2.879  1.00 20.00     0.002 C 
ENDROOT
BRANCH   1   2
HETATM    2  C8  UNL     1     -32.391   6.075   2.524  1.00 20.00     0.020 C 
BRANCH   2   3
HETATM    3  C10 UNL     1     -32.289   7.586   2.783  1.00 20.00     0.086 C 
HETATM    4 CL12 UNL     1     -31.212   7.943   4.163  1.00 20.00    -0.125 Cl
BRANCH   3   5
HETATM    5  C3  UNL     1     -31.835   8.369   1.588  1.00 20.00     0.004 A 
HETATM    6  C1  UNL     1     -32.822   8.780   0.531  1.00 20.00     0.006 A 
HETATM    7  C2  UNL     1     -32.219   9.815   1.440  1.00 20.00     0.006 A 
ENDBRANCH   3   5
ENDBRANCH   2   3
ENDBRANCH   1   2
BRANCH   1   8
HETATM    8  C9  UNL     1     -34.466   6.244   3.957  1.00 20.00     0.004 C 
BRANCH   8   9
HETATM    9  C11 UNL     1     -35.055   5.378   5.089  1.00 20.00    -0.019 C 
HETATM   10  C5  UNL     1     -34.903   3.895   4.735  1.00 20.00     0.010 C 
BRANCH   9  11
HETATM   11  C6  UNL     1     -34.478   5.683   6.486  1.00 20.00    -0.000 C 
HETATM   12  C4  UNL     1     -33.694   6.983   6.596  1.00 20.00     0.005 C 
ENDBRANCH   9  11
ENDBRANCH   8   9
ENDBRANCH   1   8
TORSDOF 6
ENDMDL
MODEL 2
REMARK VINA RESULT:      -5.0      0.501      1.652
REMARK  6 active torsions:
REMARK  status: ('A' for Active; 'I' for Inactive)
REMARK    1  A    between atoms: C3_3  and  C10_10 
REMARK    2  A    between atoms: C6_6  and  C11_11 
REMARK    3  A    between atoms: C7_7  and  C8_8 
REMARK    4  A    between atoms: C7_7  and  C9_9 
REMARK    5  A    between atoms: C8_8  and  C10_10 
REMARK    6  A    between atoms: C9_9  and  C11_11 
ROOT
HETATM    1  C7  UNL     1     -33.740   5.631   3.028  1.00 20.00     0.002 C 
ENDROOT
BRANCH   1   2
HETATM    2  C8  UNL     1     -32.417   6.218   2.518  1.00 20.00     0.020 C 
BRANCH   2   3
HETATM    3  C10 UNL     1     -32.223   7.722   2.763  1.00 20.00     0.086 C 
HETATM    4 CL12 UNL     1     -31.069   8.027   4.093  1.00 20.00    -0.125 Cl
BRANCH   3   5
HETATM    5  C3  UNL     1     -31.779   8.475   1.544  1.00 20.00     0.004 A 
HETATM    6  C1  UNL     1     -32.764   8.806   0.457  1.00 20.00     0.006 A 
HETATM    7  C2  UNL     1     -32.215   9.898   1.333  1.00 20.00     0.006 A 
ENDBRANCH   3   5
ENDBRANCH   2   3
ENDBRANCH   1   2
BRANCH   1   8
HETATM    8  C9  UNL     1     -34.307   6.472   4.177  1.00 20.00     0.004 C 
BRANCH   8   9
HETATM    9  C11 UNL     1     -33.882   5.976   5.574  1.00 20.00    -0.019 C 
HETATM   10  C5  UNL     1     -33.677   7.174   6.506  1.00 20.00     0.010 C 
BRANCH   9  11
HETATM   11  C6  UNL     1     -34.837   4.938   6.196  1.00 20.00    -0.000 C 
HETATM   12  C4  UNL     1     -35.154   3.736   5.317  1.00 20.00     0.005 C 
ENDBRANCH   9  11
ENDBRANCH   8   9
ENDBRANCH   1   8
TORSDOF 6
ENDMDL
MODEL 3
REMARK VINA RESULT:      -4.8      1.830      5.441
REMARK  6 active torsions:
REMARK  status: ('A' for Active; 'I' for Inactive)
REMARK    1  A    between atoms: C3_3  and  C10_10 
REMARK    2  A    between atoms: C6_6  and  C11_11 
REMARK    3  A    between atoms: C7_7  and  C8_8 
REMARK    4  A    between atoms: C7_7  and  C9_9 
REMARK    5  A    between atoms: C8_8  and  C10_10 
REMARK    6  A    between atoms: C9_9  and  C11_11 
ROOT
HETATM    1  C7  UNL     1     -31.836   6.439   3.189  1.00 20.00     0.002 C 
ENDROOT
BRANCH   1   2
HETATM    2  C8  UNL     1     -33.276   6.003   2.886  1.00 20.00     0.020 C 
BRANCH   2   3
HETATM    3  C10 UNL     1     -34.287   6.221   4.021  1.00 20.00     0.086 C 
HETATM    4 CL12 UNL     1     -35.850   5.432   3.668  1.00 20.00    -0.125 Cl
BRANCH   3   5
HETATM    5  C3  UNL     1     -33.793   5.759   5.359  1.00 20.00     0.004 A 
HETATM    6  C1  UNL     1     -33.987   6.621   6.577  1.00 20.00     0.006 A 
HETATM    7  C2  UNL     1     -34.770   5.347   6.425  1.00 20.00     0.006 A 
ENDBRANCH   3   5
ENDBRANCH   2   3
ENDBRANCH   1   2
BRANCH   1   8
HETATM    8  C9  UNL     1     -31.698   7.964   3.119  1.00 20.00     0.004 C 
BRANCH   8   9
HETATM    9  C11 UNL     1     -32.422   8.594   1.912  1.00 20.00    -0.019 C 
HETATM   10  C5  UNL     1     -32.735  10.064   2.209  1.00 20.00     0.010 C 
BRANCH   9  11
HETATM   11  C6  UNL     1     -31.674   8.441   0.573  1.00 20.00    -0.000 C 
HETATM   12  C4  UNL     1     -32.521   8.655  -0.674  1.00 20.00     0.005 C 
ENDBRANCH   9  11
ENDBRANCH   8   9
ENDBRANCH   1   8
TORSDOF 6
ENDMDL
MODEL 4
REMARK VINA RESULT:      -4.6     10.668     12.255
REMARK  6 active torsions:
REMARK  status: ('A' for Active; 'I' for Inactive)
REMARK    1  A    between atoms: C3_3  and  C10_10 
REMARK    2  A    between atoms: C6_6  and  C11_11 
REMARK    3  A    between atoms: C7_7  and  C8_8 
REMARK    4  A    between atoms: C7_7  and  C9_9 
REMARK    5  A    between atoms: C8_8  and  C10_10 
REMARK    6  A    between atoms: C9_9  and  C11_11 
ROOT
HETATM    1  C7  UNL     1     -34.439  13.653  -3.790  1.00 20.00     0.002 C 
ENDROOT
BRANCH   1   2
HETATM    2  C8  UNL     1     -33.211  14.567  -3.679  1.00 20.00     0.020 C 
BRANCH   2   3
HETATM    3  C10 UNL     1     -33.458  15.929  -3.015  1.00 20.00     0.086 C 
HETATM    4 CL12 UNL     1     -33.568  17.240  -4.224  1.00 20.00    -0.125 Cl
BRANCH   3   5
HETATM    5  C3  UNL     1     -34.679  15.959  -2.144  1.00 20.00     0.004 A 
HETATM    6  C1  UNL     1     -34.641  16.649  -0.809  1.00 20.00     0.006 A 
HETATM    7  C2  UNL     1     -35.432  17.244  -1.940  1.00 20.00     0.006 A 
ENDBRANCH   3   5
ENDBRANCH   2   3
ENDBRANCH   1   2
BRANCH   1   8
HETATM    8  C9  UNL     1     -34.820  13.421  -5.257  1.00 20.00     0.004 C 
BRANCH   8   9
HETATM    9  C11 UNL     1     -35.391  14.674  -5.951  1.00 20.00    -0.019 C 
HETATM   10  C5  UNL     1     -35.462  14.438  -7.463  1.00 20.00     0.010 C 
BRANCH   9  11
HETATM   11  C6  UNL     1     -36.749  15.145  -5.393  1.00 20.00    -0.000 C 
HETATM   12  C4  UNL     1     -36.949  16.654  -5.356  1.00 20.00     0.005 C 
ENDBRANCH   9  11
ENDBRANCH   8   9
ENDBRANCH   1   8
TORSDOF 6
ENDMDL
MODEL 5
REMARK VINA RESULT:      -4.6      1.383      5.226
REMARK  6 active torsions:
REMARK  status: ('A' for Active; 'I' for Inactive)
REMARK    1  A    between atoms: C3_3  and  C10_10 
REMARK    2  A    between atoms: C6_6  and  C11_11 
REMARK    3  A    between atoms: C7_7  and  C8_8 
REMARK    4  A    between atoms: C7_7  and  C9_9 
REMARK    5  A    between atoms: C8_8  and  C10_10 
REMARK    6  A    between atoms: C9_9  and  C11_11 
ROOT
HETATM    1  C7  UNL     1     -33.865   5.720   2.872  1.00 20.00     0.002 C 
ENDROOT
BRANCH   1   2
HETATM    2  C8  UNL     1     -34.431   6.309   4.171  1.00 20.00     0.020 C 
BRANCH   2   3
HETATM    3  C10 UNL     1     -33.662   5.950   5.451  1.00 20.00     0.086 C 
HETATM    4 CL12 UNL     1     -33.835   7.218   6.698  1.00 20.00    -0.125 Cl
BRANCH   3   5
HETATM    5  C3  UNL     1     -34.059   4.627   6.037  1.00 20.00     0.004 A 
HETATM    6  C1  UNL     1     -35.407   4.457   6.681  1.00 20.00     0.006 A 
HETATM    7  C2  UNL     1     -35.112   3.789   5.367  1.00 20.00     0.006 A 
ENDBRANCH   3   5
ENDBRANCH   2   3
ENDBRANCH   1   2
BRANCH   1   8
HETATM    8  C9  UNL     1     -32.400   6.128   2.677  1.00 20.00     0.004 C 
BRANCH   8   9
HETATM    9  C11 UNL     1     -32.162   7.648   2.790  1.00 20.00    -0.019 C 
HETATM   10  C5  UNL     1     -31.084   7.923   3.842  1.00 20.00     0.010 C 
BRANCH   9  11
HETATM   11  C6  UNL     1     -31.831   8.339   1.453  1.00 20.00    -0.000 C 
HETATM   12  C4  UNL     1     -32.417   9.734   1.280  1.00 20.00     0.005 C 
ENDBRANCH   9  11
ENDBRANCH   8   9
ENDBRANCH   1   8
TORSDOF 6
ENDMDL
MODEL 6
REMARK VINA RESULT:      -4.5     10.766     12.363
REMARK  6 active torsions:
REMARK  status: ('A' for Active; 'I' for Inactive)
REMARK    1  A    between atoms: C3_3  and  C10_10 
REMARK    2  A    between atoms: C6_6  and  C11_11 
REMARK    3  A    between atoms: C7_7  and  C8_8 
REMARK    4  A    between atoms: C7_7  and  C9_9 
REMARK    5  A    between atoms: C8_8  and  C10_10 
REMARK    6  A    between atoms: C9_9  and  C11_11 
ROOT
HETATM    1  C7  UNL     1     -33.171  16.267  -4.883  1.00 20.00     0.002 C 
ENDROOT
BRANCH   1   2
HETATM    2  C8  UNL     1     -33.716  17.687  -4.680  1.00 20.00     0.020 C 
BRANCH   2   3
HETATM    3  C10 UNL     1     -34.271  17.989  -3.281  1.00 20.00     0.086 C 
HETATM    4 CL12 UNL     1     -36.058  17.998  -3.271  1.00 20.00    -0.125 Cl
BRANCH   3   5
HETATM    5  C3  UNL     1     -33.777  17.047  -2.224  1.00 20.00     0.004 A 
HETATM    6  C1  UNL     1     -33.635  17.512  -0.800  1.00 20.00     0.006 A 
HETATM    7  C2  UNL     1     -34.717  16.535  -1.167  1.00 20.00     0.006 A 
ENDBRANCH   3   5
ENDBRANCH   2   3
ENDBRANCH   1   2
BRANCH   1   8
HETATM    8  C9  UNL     1     -34.208  15.374  -5.575  1.00 20.00     0.004 C 
BRANCH   8   9
HETATM    9  C11 UNL     1     -34.639  14.159  -4.729  1.00 20.00    -0.019 C 
HETATM   10  C5  UNL     1     -33.483  13.728  -3.821  1.00 20.00     0.010 C 
BRANCH   9  11
HETATM   11  C6  UNL     1     -35.935  14.374  -3.923  1.00 20.00    -0.000 C 
HETATM   12  C4  UNL     1     -37.114  14.916  -4.720  1.00 20.00     0.005 C 
ENDBRANCH   9  11
ENDBRANCH   8   9
ENDBRANCH   1   8
TORSDOF 6
ENDMDL
MODEL 7
REMARK VINA RESULT:      -4.5     10.730     12.237
REMARK  6 active torsions:
REMARK  status: ('A' for Active; 'I' for Inactive)
REMARK    1  A    between atoms: C3_3  and  C10_10 
REMARK    2  A    between atoms: C6_6  and  C11_11 
REMARK    3  A    between atoms: C7_7  and  C8_8 
REMARK    4  A    between atoms: C7_7  and  C9_9 
REMARK    5  A    between atoms: C8_8  and  C10_10 
REMARK    6  A    between atoms: C9_9  and  C11_11 
ROOT
HETATM    1  C7  UNL     1     -34.241  13.749  -3.601  1.00 20.00     0.002 C 
ENDROOT
BRANCH   1   2
HETATM    2  C8  UNL     1     -34.798  13.422  -4.993  1.00 20.00     0.020 C 
BRANCH   2   3
HETATM    3  C10 UNL     1     -35.394  14.608  -5.765  1.00 20.00     0.086 C 
HETATM    4 CL12 UNL     1     -35.491  14.270  -7.517  1.00 20.00    -0.125 Cl
BRANCH   3   5
HETATM    5  C3  UNL     1     -36.746  15.027  -5.268  1.00 20.00     0.004 A 
HETATM    6  C1  UNL     1     -37.027  16.473  -4.963  1.00 20.00     0.006 A 
HETATM    7  C2  UNL     1     -37.666  15.818  -6.156  1.00 20.00     0.006 A 
ENDBRANCH   3   5
ENDBRANCH   2   3
ENDBRANCH   1   2
BRANCH   1   8
HETATM    8  C9  UNL     1     -33.166  14.839  -3.683  1.00 20.00     0.004 C 
BRANCH   8   9
HETATM    9  C11 UNL     1     -33.516  16.113  -2.886  1.00 20.00    -0.019 C 
HETATM   10  C5  UNL     1     -33.654  17.299  -3.845  1.00 20.00     0.010 C 
BRANCH   9  11
HETATM   11  C6  UNL     1     -34.758  15.974  -1.984  1.00 20.00    -0.000 C 
HETATM   12  C4  UNL     1     -34.693  16.735  -0.666  1.00 20.00     0.005 C 
ENDBRANCH   9  11
ENDBRANCH   8   9
ENDBRANCH   1   8
TORSDOF 6
ENDMDL
MODEL 8
REMARK VINA RESULT:      -4.5     10.562     11.710
REMARK  6 active torsions:
REMARK  status: ('A' for Active; 'I' for Inactive)
REMARK    1  A    between atoms: C3_3  and  C10_10 
REMARK    2  A    between atoms: C6_6  and  C11_11 
REMARK    3  A    between atoms: C7_7  and  C8_8 
REMARK    4  A    between atoms: C7_7  and  C9_9 
REMARK    5  A    between atoms: C8_8  and  C10_10 
REMARK    6  A    between atoms: C9_9  and  C11_11 
ROOT
HETATM    1  C7  UNL     1     -34.728  16.468  -1.309  1.00 20.00     0.002 C 
ENDROOT
BRANCH   1   2
HETATM    2  C8  UNL     1     -35.175  16.835  -2.730  1.00 20.00     0.020 C 
BRANCH   2   3
HETATM    3  C10 UNL     1     -34.730  15.866  -3.836  1.00 20.00     0.086 C 
HETATM    4 CL12 UNL     1     -33.174  16.364  -4.558  1.00 20.00    -0.125 Cl
BRANCH   3   5
HETATM    5  C3  UNL     1     -34.626  14.442  -3.377  1.00 20.00     0.004 A 
HETATM    6  C1  UNL     1     -34.993  13.317  -4.306  1.00 20.00     0.006 A 
HETATM    7  C2  UNL     1     -33.555  13.544  -3.932  1.00 20.00     0.006 A 
ENDBRANCH   3   5
ENDBRANCH   2   3
ENDBRANCH   1   2
BRANCH   1   8
HETATM    8  C9  UNL     1     -33.704  17.479  -0.778  1.00 20.00     0.004 C 
BRANCH   8   9
HETATM    9  C11 UNL     1     -34.222  18.317   0.409  1.00 20.00    -0.019 C 
HETATM   10  C5  UNL     1     -35.243  17.501   1.208  1.00 20.00     0.010 C 
BRANCH   9  11
HETATM   11  C6  UNL     1     -33.114  18.877   1.321  1.00 20.00    -0.000 C 
HETATM   12  C4  UNL     1     -31.737  18.986   0.680  1.00 20.00     0.005 C 
ENDBRANCH   9  11
ENDBRANCH   8   9
ENDBRANCH   1   8
TORSDOF 6
ENDMDL
MODEL 9
REMARK VINA RESULT:      -4.5      1.432      5.693
REMARK  6 active torsions:
REMARK  status: ('A' for Active; 'I' for Inactive)
REMARK    1  A    between atoms: C3_3  and  C10_10 
REMARK    2  A    between atoms: C6_6  and  C11_11 
REMARK    3  A    between atoms: C7_7  and  C8_8 
REMARK    4  A    between atoms: C7_7  and  C9_9 
REMARK    5  A    between atoms: C8_8  and  C10_10 
REMARK    6  A    between atoms: C9_9  and  C11_11 
ROOT
HETATM    1  C7  UNL     1     -32.300   6.598   3.094  1.00 20.00     0.002 C 
ENDROOT
BRANCH   1   2
HETATM    2  C8  UNL     1     -33.670   6.653   3.783  1.00 20.00     0.020 C 
BRANCH   2   3
HETATM    3  C10 UNL     1     -33.756   5.946   5.144  1.00 20.00     0.086 C 
HETATM    4 CL12 UNL     1     -33.611   7.106   6.496  1.00 20.00    -0.125 Cl
BRANCH   3   5
HETATM    5  C3  UNL     1     -35.006   5.137   5.322  1.00 20.00     0.004 A 
HETATM    6  C1  UNL     1     -34.945   3.634   5.305  1.00 20.00     0.006 A 
HETATM    7  C2  UNL     1     -35.231   4.360   6.590  1.00 20.00     0.006 A 
ENDBRANCH   3   5
ENDBRANCH   2   3
ENDBRANCH   1   2
BRANCH   1   8
HETATM    8  C9  UNL     1     -31.732   8.008   2.891  1.00 20.00     0.004 C 
BRANCH   8   9
HETATM    9  C11 UNL     1     -32.415   8.791   1.753  1.00 20.00    -0.019 C 
HETATM   10  C5  UNL     1     -32.657  10.238   2.195  1.00 20.00     0.010 C 
BRANCH   9  11
HETATM   11  C6  UNL     1     -31.667   8.734   0.406  1.00 20.00    -0.000 C 
HETATM   12  C4  UNL     1     -32.548   8.529  -0.819  1.00 20.00     0.005 C 
ENDBRANCH   9  11
ENDBRANCH   8   9
ENDBRANCH   1   8
TORSDOF 6
ENDMDL
