MODEL 1
REMARK VINA RESULT:      -5.4      0.000      0.000
REMARK  4 active torsions:
REMARK  status: ('A' for Active; 'I' for Inactive)
REMARK    1  A    between atoms: C4_4  and  C6_6 
REMARK    2  A    between atoms: C5_5  and  C8_8 
REMARK    3  A    between atoms: C6_6  and  C7_7 
REMARK    4  A    between atoms: C7_7  and  C8_8 
ROOT
HETATM    1  C1  UNL     1     -32.207   9.047   1.144  1.00 20.00     0.012 C 
HETATM    2  C2  UNL     1     -32.064   8.287   2.063  1.00 20.00    -0.117 C 
HETATM    3  C4  UNL     1     -31.885   7.359   3.189  1.00 20.00     0.093 C 
ENDROOT
BRANCH   3   4
HETATM    4  C6  UNL     1     -32.921   6.233   3.183  1.00 20.00     0.014 C 
BRANCH   4   5
HETATM    5  C7  UNL     1     -34.074   6.484   4.168  1.00 20.00     0.021 C 
BRANCH   5   6
HETATM    6  C8  UNL     1     -33.772   5.978   5.588  1.00 20.00     0.082 C 
HETATM    7 CL9  UNL     1     -33.601   7.357   6.719  1.00 20.00    -0.125 Cl
BRANCH   6   8
HETATM    8  C5  UNL     1     -34.823   4.985   6.108  1.00 20.00     0.016 C 
HETATM    9  C3  UNL     1     -35.121   3.805   5.191  1.00 20.00     0.006 C 
ENDBRANCH   6   8
ENDBRANCH   5   6
ENDBRANCH   4   5
ENDBRANCH   3   4
TORSDOF 4
ENDMDL
MODEL 2
REMARK VINA RESULT:      -5.1      1.833      1.999
REMARK  4 active torsions:
REMARK  status: ('A' for Active; 'I' for Inactive)
REMARK    1  A    between atoms: C4_4  and  C6_6 
REMARK    2  A    between atoms: C5_5  and  C8_8 
REMARK    3  A    between atoms: C6_6  and  C7_7 
REMARK    4  A    between atoms: C7_7  and  C8_8 
ROOT
HETATM    1  C1  UNL     1     -32.235   8.951   1.003  1.00 20.00     0.012 C 
HETATM    2  C2  UNL     1     -31.954   8.373   2.018  1.00 20.00    -0.117 C 
HETATM    3  C4  UNL     1     -31.607   7.670   3.261  1.00 20.00     0.093 C 
ENDROOT
BRANCH   3   4
HETATM    4  C6  UNL     1     -32.344   6.336   3.398  1.00 20.00     0.014 C 
BRANCH   4   5
HETATM    5  C7  UNL     1     -33.548   6.419   4.350  1.00 20.00     0.021 C 
BRANCH   5   6
HETATM    6  C8  UNL     1     -34.770   5.635   3.844  1.00 20.00     0.082 C 
HETATM    7 CL9  UNL     1     -34.473   5.013   2.190  1.00 20.00    -0.125 Cl
BRANCH   6   8
HETATM    8  C5  UNL     1     -35.177   4.488   4.783  1.00 20.00     0.016 C 
HETATM    9  C3  UNL     1     -34.797   4.671   6.246  1.00 20.00     0.006 C 
ENDBRANCH   6   8
ENDBRANCH   5   6
ENDBRANCH   4   5
ENDBRANCH   3   4
TORSDOF 4
ENDMDL
MODEL 3
REMARK VINA RESULT:      -5.1      1.724      2.162
REMARK  4 active torsions:
REMARK  status: ('A' for Active; 'I' for Inactive)
REMARK    1  A    between atoms: C4_4  and  C6_6 
REMARK    2  A    between atoms: C5_5  and  C8_8 
REMARK    3  A    between atoms: C6_6  and  C7_7 
REMARK    4  A    between atoms: C7_7  and  C8_8 
ROOT
HETATM    1  C1  UNL     1     -32.051   8.452   1.902  1.00 20.00     0.012 C 
HETATM    2  C2  UNL     1     -32.176   7.429   2.519  1.00 20.00    -0.117 C 
HETATM    3  C4  UNL     1     -32.323   6.177   3.274  1.00 20.00     0.093 C 
ENDROOT
BRANCH   3   4
HETATM    4  C6  UNL     1     -33.701   5.541   3.080  1.00 20.00     0.014 C 
BRANCH   4   5
HETATM    5  C7  UNL     1     -34.766   6.136   4.016  1.00 20.00     0.021 C 
BRANCH   5   6
HETATM    6  C8  UNL     1     -35.146   5.194   5.170  1.00 20.00     0.082 C 
HETATM    7 CL9  UNL     1     -34.766   3.496   4.741  1.00 20.00    -0.125 Cl
BRANCH   6   8
HETATM    8  C5  UNL     1     -34.477   5.574   6.500  1.00 20.00     0.016 C 
HETATM    9  C3  UNL     1     -33.799   6.938   6.528  1.00 20.00     0.006 C 
ENDBRANCH   6   8
ENDBRANCH   5   6
ENDBRANCH   4   5
ENDBRANCH   3   4
TORSDOF 4
ENDMDL
MODEL 4
REMARK VINA RESULT:      -4.8      1.428      5.011
REMARK  4 active torsions:
REMARK  status: ('A' for Active; 'I' for Inactive)
REMARK    1  A    between atoms: C4_4  and  C6_6 
REMARK    2  A    between atoms: C5_5  and  C8_8 
REMARK    3  A    between atoms: C6_6  and  C7_7 
REMARK    4  A    between atoms: C7_7  and  C8_8 
ROOT
HETATM    1  C1  UNL     1     -35.164   4.270   6.281  1.00 20.00     0.012 C 
HETATM    2  C2  UNL     1     -34.656   5.136   5.622  1.00 20.00    -0.117 C 
HETATM    3  C4  UNL     1     -34.034   6.197   4.818  1.00 20.00     0.093 C 
ENDROOT
BRANCH   3   4
HETATM    4  C6  UNL     1     -33.944   5.826   3.337  1.00 20.00     0.014 C 
BRANCH   4   5
HETATM    5  C7  UNL     1     -32.581   6.178   2.719  1.00 20.00     0.021 C 
BRANCH   5   6
HETATM    6  C8  UNL     1     -32.214   7.662   2.879  1.00 20.00     0.082 C 
HETATM    7 CL9  UNL     1     -30.942   7.860   4.126  1.00 20.00    -0.125 Cl
BRANCH   6   8
HETATM    8  C5  UNL     1     -31.779   8.319   1.560  1.00 20.00     0.016 C 
HETATM    9  C3  UNL     1     -32.467   9.636   1.224  1.00 20.00     0.006 C 
ENDBRANCH   6   8
ENDBRANCH   5   6
ENDBRANCH   4   5
ENDBRANCH   3   4
TORSDOF 4
ENDMDL
MODEL 5
REMARK VINA RESULT:      -4.4      1.747      4.832
REMARK  4 active torsions:
REMARK  status: ('A' for Active; 'I' for Inactive)
REMARK    1  A    between atoms: C4_4  and  C6_6 
REMARK    2  A    between atoms: C5_5  and  C8_8 
REMARK    3  A    between atoms: C6_6  and  C7_7 
REMARK    4  A    between atoms: C7_7  and  C8_8 
ROOT
HETATM    1  C1  UNL     1     -35.136   3.763   5.392  1.00 20.00     0.012 C 
HETATM    2  C2  UNL     1     -34.837   4.779   5.959  1.00 20.00    -0.117 C 
HETATM    3  C4  UNL     1     -34.473   6.021   6.654  1.00 20.00     0.093 C 
ENDROOT
BRANCH   3   4
HETATM    4  C6  UNL     1     -33.405   6.817   5.900  1.00 20.00     0.014 C 
BRANCH   4   5
HETATM    5  C7  UNL     1     -33.741   6.997   4.411  1.00 20.00     0.021 C 
BRANCH   5   6
HETATM    6  C8  UNL     1     -32.835   6.169   3.486  1.00 20.00     0.082 C 
HETATM    7 CL9  UNL     1     -33.821   5.250   2.305  1.00 20.00    -0.125 Cl
BRANCH   6   8
HETATM    8  C5  UNL     1     -31.781   7.018   2.759  1.00 20.00     0.016 C 
HETATM    9  C3  UNL     1     -32.296   8.307   2.131  1.00 20.00     0.006 C 
ENDBRANCH   6   8
ENDBRANCH   5   6
ENDBRANCH   4   5
ENDBRANCH   3   4
TORSDOF 4
ENDMDL
MODEL 6
REMARK VINA RESULT:      -4.2      2.000      4.554
REMARK  4 active torsions:
REMARK  status: ('A' for Active; 'I' for Inactive)
REMARK    1  A    between atoms: C4_4  and  C6_6 
REMARK    2  A    between atoms: C5_5  and  C8_8 
REMARK    3  A    between atoms: C6_6  and  C7_7 
REMARK    4  A    between atoms: C7_7  and  C8_8 
ROOT
HETATM    1  C1  UNL     1     -33.698   7.228   6.919  1.00 20.00     0.012 C 
HETATM    2  C2  UNL     1     -34.176   6.215   6.485  1.00 20.00    -0.117 C 
HETATM    3  C4  UNL     1     -34.759   4.974   5.957  1.00 20.00     0.093 C 
ENDROOT
BRANCH   3   4
HETATM    4  C6  UNL     1     -35.105   5.082   4.471  1.00 20.00     0.014 C 
BRANCH   4   5
HETATM    5  C7  UNL     1     -34.385   6.249   3.778  1.00 20.00     0.021 C 
BRANCH   5   6
HETATM    6  C8  UNL     1     -32.903   5.955   3.490  1.00 20.00     0.082 C 
HETATM    7 CL9  UNL     1     -32.733   5.041   1.958  1.00 20.00    -0.125 Cl
BRANCH   6   8
HETATM    8  C5  UNL     1     -32.035   7.223   3.458  1.00 20.00     0.016 C 
HETATM    9  C3  UNL     1     -32.109   8.036   2.172  1.00 20.00     0.006 C 
ENDBRANCH   6   8
ENDBRANCH   5   6
ENDBRANCH   4   5
ENDBRANCH   3   4
TORSDOF 4
ENDMDL
MODEL 7
REMARK VINA RESULT:      -4.2     11.326     12.248
REMARK  4 active torsions:
REMARK  status: ('A' for Active; 'I' for Inactive)
REMARK    1  A    between atoms: C4_4  and  C6_6 
REMARK    2  A    between atoms: C5_5  and  C8_8 
REMARK    3  A    between atoms: C6_6  and  C7_7 
REMARK    4  A    between atoms: C7_7  and  C8_8 
ROOT
HETATM    1  C1  UNL     1     -34.609  15.165  -6.924  1.00 20.00     0.012 C 
HETATM    2  C2  UNL     1     -34.663  14.313  -6.079  1.00 20.00    -0.117 C 
HETATM    3  C4  UNL     1     -34.731  13.267  -5.049  1.00 20.00     0.093 C 
ENDROOT
BRANCH   3   4
HETATM    4  C6  UNL     1     -34.449  13.814  -3.648  1.00 20.00     0.014 C 
BRANCH   4   5
HETATM    5  C7  UNL     1     -33.219  14.735  -3.608  1.00 20.00     0.021 C 
BRANCH   5   6
HETATM    6  C8  UNL     1     -33.505  16.091  -2.943  1.00 20.00     0.082 C 
HETATM    7 CL9  UNL     1     -33.665  17.375  -4.183  1.00 20.00    -0.125 Cl
BRANCH   6   8
HETATM    8  C5  UNL     1     -34.745  16.065  -2.035  1.00 20.00     0.016 C 
HETATM    9  C3  UNL     1     -34.585  16.752  -0.685  1.00 20.00     0.006 C 
ENDBRANCH   6   8
ENDBRANCH   5   6
ENDBRANCH   4   5
ENDBRANCH   3   4
TORSDOF 4
ENDMDL
MODEL 8
REMARK VINA RESULT:      -4.1     11.515     12.453
REMARK  4 active torsions:
REMARK  status: ('A' for Active; 'I' for Inactive)
REMARK    1  A    between atoms: C4_4  and  C6_6 
REMARK    2  A    between atoms: C5_5  and  C8_8 
REMARK    3  A    between atoms: C6_6  and  C7_7 
REMARK    4  A    between atoms: C7_7  and  C8_8 
ROOT
HETATM    1  C1  UNL     1     -34.608  16.389  -1.534  1.00 20.00     0.012 C 
HETATM    2  C2  UNL     1     -33.974  15.926  -2.443  1.00 20.00    -0.117 C 
HETATM    3  C4  UNL     1     -33.198  15.363  -3.556  1.00 20.00     0.093 C 
ENDROOT
BRANCH   3   4
HETATM    4  C6  UNL     1     -33.439  13.862  -3.731  1.00 20.00     0.014 C 
BRANCH   4   5
HETATM    5  C7  UNL     1     -34.450  13.550  -4.845  1.00 20.00     0.021 C 
BRANCH   5   6
HETATM    6  C8  UNL     1     -34.971  14.810  -5.555  1.00 20.00     0.082 C 
HETATM    7 CL9  UNL     1     -34.500  14.793  -7.284  1.00 20.00    -0.125 Cl
BRANCH   6   8
HETATM    8  C5  UNL     1     -36.490  14.994  -5.415  1.00 20.00     0.016 C 
HETATM    9  C3  UNL     1     -37.074  14.614  -4.060  1.00 20.00     0.006 C 
ENDBRANCH   6   8
ENDBRANCH   5   6
ENDBRANCH   4   5
ENDBRANCH   3   4
TORSDOF 4
ENDMDL
MODEL 9
REMARK VINA RESULT:      -4.1     10.954     12.217
REMARK  4 active torsions:
REMARK  status: ('A' for Active; 'I' for Inactive)
REMARK    1  A    between atoms: C4_4  and  C6_6 
REMARK    2  A    between atoms: C5_5  and  C8_8 
REMARK    3  A    between atoms: C6_6  and  C7_7 
REMARK    4  A    between atoms: C7_7  and  C8_8 
ROOT
HETATM    1  C1  UNL     1     -34.587  16.583  -0.904  1.00 20.00     0.012 C 
HETATM    2  C2  UNL     1     -34.198  16.502  -2.038  1.00 20.00    -0.117 C 
HETATM    3  C4  UNL     1     -33.724  16.406  -3.425  1.00 20.00     0.093 C 
ENDROOT
BRANCH   3   4
HETATM    4  C6  UNL     1     -33.196  15.010  -3.763  1.00 20.00     0.014 C 
BRANCH   4   5
HETATM    5  C7  UNL     1     -34.168  13.893  -3.351  1.00 20.00     0.021 C 
BRANCH   5   6
HETATM    6  C8  UNL     1     -35.268  13.638  -4.393  1.00 20.00     0.082 C 
HETATM    7 CL9  UNL     1     -36.773  14.498  -3.937  1.00 20.00    -0.125 Cl
BRANCH   6   8
HETATM    8  C5  UNL     1     -34.844  14.021  -5.820  1.00 20.00     0.016 C 
HETATM    9  C3  UNL     1     -35.789  14.961  -6.556  1.00 20.00     0.006 C 
ENDBRANCH   6   8
ENDBRANCH   5   6
ENDBRANCH   4   5
ENDBRANCH   3   4
TORSDOF 4
ENDMDL
