MODEL 1
REMARK VINA RESULT:      -4.9      0.000      0.000
REMARK  2 active torsions:
REMARK  status: ('A' for Active; 'I' for Inactive)
REMARK    1  A    between atoms: C6_6  and  C7_7 
REMARK    2  A    between atoms: C8_8  and  O9_9 
ROOT
HETATM    1  C3  UNL     1     -35.307   5.483   3.793  1.00 20.00     0.007 C 
HETATM    2  C4  UNL     1     -35.170   4.285   4.727  1.00 20.00     0.032 C 
HETATM    3  C5  UNL     1     -34.349   6.329   5.808  1.00 20.00     0.036 C 
HETATM    4  C7  UNL     1     -34.259   6.477   4.286  1.00 20.00    -0.008 C 
HETATM    5  C8  UNL     1     -34.682   4.857   6.059  1.00 20.00     0.118 C 
ENDROOT
BRANCH   4   6
HETATM    6  C6  UNL     1     -32.862   6.163   3.755  1.00 20.00    -0.010 A 
HETATM    7  C1  UNL     1     -32.374   6.802   2.484  1.00 20.00     0.005 A 
HETATM    8  C2  UNL     1     -31.780   7.207   3.805  1.00 20.00     0.005 A 
ENDBRANCH   4   6
BRANCH   5   9
HETATM    9  O9  UNL     1     -33.514   4.169   6.488  1.00 20.00    -0.396 OA
HETATM   10  H23 UNL     1     -33.462   4.285   7.450  1.00 20.00     0.210 HD
ENDBRANCH   5   9
TORSDOF 2
ENDMDL
MODEL 2
REMARK VINA RESULT:      -4.5     12.079     13.589
REMARK  2 active torsions:
REMARK  status: ('A' for Active; 'I' for Inactive)
REMARK    1  A    between atoms: C6_6  and  C7_7 
REMARK    2  A    between atoms: C8_8  and  O9_9 
ROOT
HETATM    1  C3  UNL     1     -34.887  13.355  -4.210  1.00 20.00     0.007 C 
HETATM    2  C4  UNL     1     -33.462  13.729  -3.817  1.00 20.00     0.032 C 
HETATM    3  C5  UNL     1     -34.734  15.723  -4.471  1.00 20.00     0.036 C 
HETATM    4  C7  UNL     1     -35.339  14.483  -5.136  1.00 20.00    -0.008 C 
HETATM    5  C8  UNL     1     -33.412  15.258  -3.857  1.00 20.00     0.118 C 
ENDROOT
BRANCH   4   6
HETATM    6  C6  UNL     1     -34.844  14.294  -6.568  1.00 20.00    -0.010 A 
HETATM    7  C1  UNL     1     -35.771  14.538  -7.727  1.00 20.00     0.005 A 
HETATM    8  C2  UNL     1     -34.636  15.486  -7.460  1.00 20.00     0.005 A 
ENDBRANCH   4   6
BRANCH   5   9
HETATM    9  O9  UNL     1     -32.330  15.690  -4.672  1.00 20.00    -0.396 OA
HETATM   10  H23 UNL     1     -31.538  15.676  -4.111  1.00 20.00     0.210 HD
ENDBRANCH   5   9
TORSDOF 2
ENDMDL
MODEL 3
REMARK VINA RESULT:      -4.4     11.526     12.561
REMARK  2 active torsions:
REMARK  status: ('A' for Active; 'I' for Inactive)
REMARK    1  A    between atoms: C6_6  and  C7_7 
REMARK    2  A    between atoms: C8_8  and  O9_9 
ROOT
HETATM    1  C3  UNL     1     -32.713  14.788  -3.587  1.00 20.00     0.007 C 
HETATM    2  C4  UNL     1     -33.246  13.375  -3.800  1.00 20.00     0.032 C 
HETATM    3  C5  UNL     1     -34.743  15.032  -4.819  1.00 20.00     0.036 C 
HETATM    4  C7  UNL     1     -33.946  15.683  -3.684  1.00 20.00    -0.008 C 
HETATM    5  C8  UNL     1     -34.472  13.530  -4.702  1.00 20.00     0.118 C 
ENDROOT
BRANCH   4   6
HETATM    6  C6  UNL     1     -34.735  15.734  -2.378  1.00 20.00    -0.010 A 
HETATM    7  C1  UNL     1     -34.342  16.698  -1.293  1.00 20.00     0.005 A 
HETATM    8  C2  UNL     1     -35.612  16.915  -2.067  1.00 20.00     0.005 A 
ENDBRANCH   4   6
BRANCH   5   9
HETATM    9  O9  UNL     1     -35.596  12.887  -4.116  1.00 20.00    -0.396 OA
HETATM   10  H23 UNL     1     -35.498  11.939  -4.297  1.00 20.00     0.210 HD
ENDBRANCH   5   9
TORSDOF 2
ENDMDL
MODEL 4
REMARK VINA RESULT:      -4.3     12.097     12.799
REMARK  2 active torsions:
REMARK  status: ('A' for Active; 'I' for Inactive)
REMARK    1  A    between atoms: C6_6  and  C7_7 
REMARK    2  A    between atoms: C8_8  and  O9_9 
ROOT
HETATM    1  C3  UNL     1     -34.683  16.021  -5.022  1.00 20.00     0.007 C 
HETATM    2  C4  UNL     1     -34.386  14.561  -5.344  1.00 20.00     0.032 C 
HETATM    3  C5  UNL     1     -36.249  14.740  -3.756  1.00 20.00     0.036 C 
HETATM    4  C7  UNL     1     -35.361  15.984  -3.654  1.00 20.00    -0.008 C 
HETATM    5  C8  UNL     1     -35.477  13.754  -4.636  1.00 20.00     0.118 C 
ENDROOT
BRANCH   4   6
HETATM    6  C6  UNL     1     -34.357  15.886  -2.508  1.00 20.00    -0.010 A 
HETATM    7  C1  UNL     1     -33.719  17.130  -1.952  1.00 20.00     0.005 A 
HETATM    8  C2  UNL     1     -34.726  16.372  -1.134  1.00 20.00     0.005 A 
ENDBRANCH   4   6
BRANCH   5   9
HETATM    9  O9  UNL     1     -34.890  12.746  -3.822  1.00 20.00    -0.396 OA
HETATM   10  H23 UNL     1     -35.411  11.940  -3.962  1.00 20.00     0.210 HD
ENDBRANCH   5   9
TORSDOF 2
ENDMDL
MODEL 5
REMARK VINA RESULT:      -4.3     12.025     13.058
REMARK  2 active torsions:
REMARK  status: ('A' for Active; 'I' for Inactive)
REMARK    1  A    between atoms: C6_6  and  C7_7 
REMARK    2  A    between atoms: C8_8  and  O9_9 
ROOT
HETATM    1  C3  UNL     1     -33.397  13.719  -3.696  1.00 20.00     0.007 C 
HETATM    2  C4  UNL     1     -34.419  13.349  -4.767  1.00 20.00     0.032 C 
HETATM    3  C5  UNL     1     -33.825  15.726  -4.914  1.00 20.00     0.036 C 
HETATM    4  C7  UNL     1     -33.583  15.220  -3.489  1.00 20.00    -0.008 C 
HETATM    5  C8  UNL     1     -34.586  14.605  -5.625  1.00 20.00     0.118 C 
ENDROOT
BRANCH   4   6
HETATM    6  C6  UNL     1     -34.748  15.540  -2.555  1.00 20.00    -0.010 A 
HETATM    7  C1  UNL     1     -34.536  16.421  -1.354  1.00 20.00     0.005 A 
HETATM    8  C2  UNL     1     -35.336  16.924  -2.524  1.00 20.00     0.005 A 
ENDBRANCH   4   6
BRANCH   5   9
HETATM    9  O9  UNL     1     -35.962  14.950  -5.725  1.00 20.00    -0.396 OA
HETATM   10  H23 UNL     1     -36.369  14.298  -6.316  1.00 20.00     0.210 HD
ENDBRANCH   5   9
TORSDOF 2
ENDMDL
MODEL 6
REMARK VINA RESULT:      -4.2     11.663     12.938
REMARK  2 active torsions:
REMARK  status: ('A' for Active; 'I' for Inactive)
REMARK    1  A    between atoms: C6_6  and  C7_7 
REMARK    2  A    between atoms: C8_8  and  O9_9 
ROOT
HETATM    1  C3  UNL     1     -33.202  15.275  -3.830  1.00 20.00     0.007 C 
HETATM    2  C4  UNL     1     -33.312  13.758  -3.709  1.00 20.00     0.032 C 
HETATM    3  C5  UNL     1     -34.947  14.622  -5.322  1.00 20.00     0.036 C 
HETATM    4  C7  UNL     1     -34.577  15.722  -4.322  1.00 20.00    -0.008 C 
HETATM    5  C8  UNL     1     -34.337  13.335  -4.764  1.00 20.00     0.118 C 
ENDROOT
BRANCH   4   6
HETATM    6  C6  UNL     1     -35.593  15.839  -3.187  1.00 20.00    -0.010 A 
HETATM    7  C1  UNL     1     -36.504  17.032  -3.107  1.00 20.00     0.005 A 
HETATM    8  C2  UNL     1     -37.062  15.683  -3.467  1.00 20.00     0.005 A 
ENDBRANCH   4   6
BRANCH   5   9
HETATM    9  O9  UNL     1     -35.356  12.544  -4.166  1.00 20.00    -0.396 OA
HETATM   10  H23 UNL     1     -35.169  11.623  -4.409  1.00 20.00     0.210 HD
ENDBRANCH   5   9
TORSDOF 2
ENDMDL
MODEL 7
REMARK VINA RESULT:      -4.2     12.420     13.100
REMARK  2 active torsions:
REMARK  status: ('A' for Active; 'I' for Inactive)
REMARK    1  A    between atoms: C6_6  and  C7_7 
REMARK    2  A    between atoms: C8_8  and  O9_9 
ROOT
HETATM    1  C3  UNL     1     -36.496  14.467  -4.246  1.00 20.00     0.007 C 
HETATM    2  C4  UNL     1     -35.968  14.812  -5.635  1.00 20.00     0.032 C 
HETATM    3  C5  UNL     1     -34.163  13.964  -4.205  1.00 20.00     0.036 C 
HETATM    4  C7  UNL     1     -35.273  14.562  -3.336  1.00 20.00    -0.008 C 
HETATM    5  C8  UNL     1     -34.506  14.362  -5.642  1.00 20.00     0.118 C 
ENDROOT
BRANCH   4   6
HETATM    6  C6  UNL     1     -34.969  15.999  -2.916  1.00 20.00    -0.010 A 
HETATM    7  C1  UNL     1     -34.702  16.325  -1.472  1.00 20.00     0.005 A 
HETATM    8  C2  UNL     1     -33.584  16.382  -2.475  1.00 20.00     0.005 A 
ENDBRANCH   4   6
BRANCH   5   9
HETATM    9  O9  UNL     1     -33.666  15.432  -6.055  1.00 20.00    -0.396 OA
HETATM   10  H23 UNL     1     -32.759  15.179  -5.822  1.00 20.00     0.210 HD
ENDBRANCH   5   9
TORSDOF 2
ENDMDL
MODEL 8
REMARK VINA RESULT:      -4.1     12.630     13.388
REMARK  2 active torsions:
REMARK  status: ('A' for Active; 'I' for Inactive)
REMARK    1  A    between atoms: C6_6  and  C7_7 
REMARK    2  A    between atoms: C8_8  and  O9_9 
ROOT
HETATM    1  C3  UNL     1     -35.627  15.099  -3.600  1.00 20.00     0.007 C 
HETATM    2  C4  UNL     1     -35.237  15.854  -4.866  1.00 20.00     0.032 C 
HETATM    3  C5  UNL     1     -33.263  15.405  -3.477  1.00 20.00     0.036 C 
HETATM    4  C7  UNL     1     -34.519  15.424  -2.601  1.00 20.00    -0.008 C 
HETATM    5  C8  UNL     1     -33.708  15.927  -4.845  1.00 20.00     0.118 C 
ENDROOT
BRANCH   4   6
HETATM    6  C6  UNL     1     -34.728  16.773  -1.917  1.00 20.00    -0.010 A 
HETATM    7  C1  UNL     1     -34.742  16.867  -0.415  1.00 20.00     0.005 A 
HETATM    8  C2  UNL     1     -33.591  17.440  -1.194  1.00 20.00     0.005 A 
ENDBRANCH   4   6
BRANCH   5   9
HETATM    9  O9  UNL     1     -33.281  17.274  -5.003  1.00 20.00    -0.396 OA
HETATM   10  H23 UNL     1     -32.506  17.252  -5.585  1.00 20.00     0.210 HD
ENDBRANCH   5   9
TORSDOF 2
ENDMDL
MODEL 9
REMARK VINA RESULT:      -3.9      9.197     10.733
REMARK  2 active torsions:
REMARK  status: ('A' for Active; 'I' for Inactive)
REMARK    1  A    between atoms: C6_6  and  C7_7 
REMARK    2  A    between atoms: C8_8  and  O9_9 
ROOT
HETATM    1  C3  UNL     1     -41.573   4.852   0.184  1.00 20.00     0.007 C 
HETATM    2  C4  UNL     1     -40.648   5.998  -0.210  1.00 20.00     0.032 C 
HETATM    3  C5  UNL     1     -42.870   6.293  -1.209  1.00 20.00     0.036 C 
HETATM    4  C7  UNL     1     -42.624   4.808  -0.924  1.00 20.00    -0.008 C 
HETATM    5  C8  UNL     1     -41.522   6.983  -0.989  1.00 20.00     0.118 C 
ENDROOT
BRANCH   4   6
HETATM    6  C6  UNL     1     -42.137   4.054  -2.160  1.00 20.00    -0.010 A 
HETATM    7  C1  UNL     1     -42.736   2.721  -2.518  1.00 20.00     0.005 A 
HETATM    8  C2  UNL     1     -43.023   3.928  -3.368  1.00 20.00     0.005 A 
ENDBRANCH   4   6
BRANCH   5   9
HETATM    9  O9  UNL     1     -40.926   7.278  -2.246  1.00 20.00    -0.396 OA
HETATM   10  H23 UNL     1     -39.974   7.123  -2.144  1.00 20.00     0.210 HD
ENDBRANCH   5   9
TORSDOF 2
ENDMDL
