MODEL 1
REMARK VINA RESULT:      -5.3      0.000      0.000
REMARK  2 active torsions:
REMARK  status: ('A' for Active; 'I' for Inactive)
REMARK    1  A    between atoms: C7_7  and  C10_10 
REMARK    2  A    between atoms: C9_9  and  C10_10 
ROOT
HETATM    1  C1  UNL     1     -32.332   9.629   0.961  1.00 20.00     0.012 C 
HETATM    2  C2  UNL     1     -32.144   8.751   1.758  1.00 20.00    -0.117 C 
HETATM    3  C9  UNL     1     -31.911   7.680   2.736  1.00 20.00     0.093 C 
ENDROOT
BRANCH   3   4
HETATM    4  C10 UNL     1     -32.950   6.587   2.572  1.00 20.00     0.017 C 
BRANCH   4   5
HETATM    5  C7  UNL     1     -33.287   5.954   3.922  1.00 20.00    -0.012 C 
HETATM    6  C4  UNL     1     -33.176   6.992   5.046  1.00 20.00     0.005 C 
HETATM    7  C3  UNL     1     -33.565   6.406   6.401  1.00 20.00     0.002 C 
HETATM    8  C5  UNL     1     -34.959   5.782   6.367  1.00 20.00     0.020 C 
HETATM    9  C8  UNL     1     -35.127   4.757   5.242  1.00 20.00     0.082 C 
HETATM   10  C6  UNL     1     -34.692   5.331   3.889  1.00 20.00     0.024 C 
HETATM   11 CL11 UNL     1     -34.206   3.266   5.613  1.00 20.00    -0.125 Cl
ENDBRANCH   4   5
ENDBRANCH   3   4
TORSDOF 2
ENDMDL
MODEL 2
REMARK VINA RESULT:      -4.9      1.357      1.970
REMARK  2 active torsions:
REMARK  status: ('A' for Active; 'I' for Inactive)
REMARK    1  A    between atoms: C7_7  and  C10_10 
REMARK    2  A    between atoms: C9_9  and  C10_10 
ROOT
HETATM    1  C1  UNL     1     -32.426   9.475   0.698  1.00 20.00     0.012 C 
HETATM    2  C2  UNL     1     -32.132   8.759   1.614  1.00 20.00    -0.117 C 
HETATM    3  C9  UNL     1     -31.770   7.887   2.739  1.00 20.00     0.093 C 
ENDROOT
BRANCH   3   4
HETATM    4  C10 UNL     1     -32.406   6.521   2.567  1.00 20.00     0.017 C 
BRANCH   4   5
HETATM    5  C7  UNL     1     -33.481   6.287   3.629  1.00 20.00    -0.012 C 
HETATM    6  C4  UNL     1     -34.672   5.526   3.030  1.00 20.00     0.005 C 
HETATM    7  C3  UNL     1     -35.738   5.222   4.080  1.00 20.00     0.002 C 
HETATM    8  C5  UNL     1     -35.153   4.473   5.277  1.00 20.00     0.020 C 
HETATM    9  C8  UNL     1     -33.944   5.181   5.892  1.00 20.00     0.082 C 
HETATM   10  C6  UNL     1     -32.895   5.528   4.830  1.00 20.00     0.024 C 
HETATM   11 CL11 UNL     1     -34.462   6.659   6.764  1.00 20.00    -0.125 Cl
ENDBRANCH   4   5
ENDBRANCH   3   4
TORSDOF 2
ENDMDL
MODEL 3
REMARK VINA RESULT:      -4.9     11.518     12.675
REMARK  2 active torsions:
REMARK  status: ('A' for Active; 'I' for Inactive)
REMARK    1  A    between atoms: C7_7  and  C10_10 
REMARK    2  A    between atoms: C9_9  and  C10_10 
ROOT
HETATM    1  C1  UNL     1     -34.587  17.851   0.629  1.00 20.00     0.012 C 
HETATM    2  C2  UNL     1     -34.677  17.118  -0.317  1.00 20.00    -0.117 C 
HETATM    3  C9  UNL     1     -34.794  16.220  -1.473  1.00 20.00     0.093 C 
ENDROOT
BRANCH   3   4
HETATM    4  C10 UNL     1     -33.649  16.460  -2.439  1.00 20.00     0.017 C 
BRANCH   4   5
HETATM    5  C7  UNL     1     -33.848  15.658  -3.724  1.00 20.00    -0.012 C 
HETATM    6  C4  UNL     1     -34.058  14.172  -3.404  1.00 20.00     0.005 C 
HETATM    7  C3  UNL     1     -34.320  13.350  -4.664  1.00 20.00     0.002 C 
HETATM    8  C5  UNL     1     -35.493  13.910  -5.468  1.00 20.00     0.020 C 
HETATM    9  C8  UNL     1     -35.341  15.399  -5.789  1.00 20.00     0.082 C 
HETATM   10  C6  UNL     1     -35.031  16.216  -4.531  1.00 20.00     0.024 C 
HETATM   11 CL11 UNL     1     -34.066  15.644  -7.024  1.00 20.00    -0.125 Cl
ENDBRANCH   4   5
ENDBRANCH   3   4
TORSDOF 2
ENDMDL
MODEL 4
REMARK VINA RESULT:      -4.8     11.515     12.179
REMARK  2 active torsions:
REMARK  status: ('A' for Active; 'I' for Inactive)
REMARK    1  A    between atoms: C7_7  and  C10_10 
REMARK    2  A    between atoms: C9_9  and  C10_10 
ROOT
HETATM    1  C1  UNL     1     -34.099  18.447   0.940  1.00 20.00     0.012 C 
HETATM    2  C2  UNL     1     -34.390  17.622   0.119  1.00 20.00    -0.117 C 
HETATM    3  C9  UNL     1     -34.751  16.611  -0.884  1.00 20.00     0.093 C 
ENDROOT
BRANCH   3   4
HETATM    4  C10 UNL     1     -33.796  16.678  -2.060  1.00 20.00     0.017 C 
BRANCH   4   5
HETATM    5  C7  UNL     1     -34.319  15.844  -3.230  1.00 20.00    -0.012 C 
HETATM    6  C4  UNL     1     -33.427  14.616  -3.457  1.00 20.00     0.005 C 
HETATM    7  C3  UNL     1     -33.957  13.729  -4.581  1.00 20.00     0.002 C 
HETATM    8  C5  UNL     1     -35.407  13.316  -4.337  1.00 20.00     0.020 C 
HETATM    9  C8  UNL     1     -36.332  14.508  -4.078  1.00 20.00     0.082 C 
HETATM   10  C6  UNL     1     -35.776  15.423  -2.982  1.00 20.00     0.024 C 
HETATM   11 CL11 UNL     1     -36.598  15.432  -5.590  1.00 20.00    -0.125 Cl
ENDBRANCH   4   5
ENDBRANCH   3   4
TORSDOF 2
ENDMDL
MODEL 5
REMARK VINA RESULT:      -4.7     11.844     13.331
REMARK  2 active torsions:
REMARK  status: ('A' for Active; 'I' for Inactive)
REMARK    1  A    between atoms: C7_7  and  C10_10 
REMARK    2  A    between atoms: C9_9  and  C10_10 
ROOT
HETATM    1  C1  UNL     1     -34.844  17.064  -0.126  1.00 20.00     0.012 C 
HETATM    2  C2  UNL     1     -34.354  16.735  -1.170  1.00 20.00    -0.117 C 
HETATM    3  C9  UNL     1     -33.749  16.335  -2.448  1.00 20.00     0.093 C 
ENDROOT
BRANCH   3   4
HETATM    4  C10 UNL     1     -34.500  15.155  -3.035  1.00 20.00     0.017 C 
BRANCH   4   5
HETATM    5  C7  UNL     1     -34.877  15.425  -4.491  1.00 20.00    -0.012 C 
HETATM    6  C4  UNL     1     -33.769  16.218  -5.197  1.00 20.00     0.005 C 
HETATM    7  C3  UNL     1     -34.088  16.452  -6.671  1.00 20.00     0.002 C 
HETATM    8  C5  UNL     1     -34.374  15.141  -7.401  1.00 20.00     0.020 C 
HETATM    9  C8  UNL     1     -35.457  14.301  -6.719  1.00 20.00     0.082 C 
HETATM   10  C6  UNL     1     -35.160  14.106  -5.228  1.00 20.00     0.024 C 
HETATM   11 CL11 UNL     1     -37.066  15.056  -6.942  1.00 20.00    -0.125 Cl
ENDBRANCH   4   5
ENDBRANCH   3   4
TORSDOF 2
ENDMDL
MODEL 6
REMARK VINA RESULT:      -4.7     11.540     12.530
REMARK  2 active torsions:
REMARK  status: ('A' for Active; 'I' for Inactive)
REMARK    1  A    between atoms: C7_7  and  C10_10 
REMARK    2  A    between atoms: C9_9  and  C10_10 
ROOT
HETATM    1  C1  UNL     1     -31.959  18.899   0.444  1.00 20.00     0.012 C 
HETATM    2  C2  UNL     1     -32.872  18.571  -0.262  1.00 20.00    -0.117 C 
HETATM    3  C9  UNL     1     -33.989  18.174  -1.130  1.00 20.00     0.093 C 
ENDROOT
BRANCH   3   4
HETATM    4  C10 UNL     1     -34.446  16.770  -0.784  1.00 20.00     0.017 C 
BRANCH   4   5
HETATM    5  C7  UNL     1     -34.689  15.951  -2.051  1.00 20.00    -0.012 C 
HETATM    6  C4  UNL     1     -35.949  16.444  -2.776  1.00 20.00     0.005 C 
HETATM    7  C3  UNL     1     -36.187  15.687  -4.081  1.00 20.00     0.002 C 
HETATM    8  C5  UNL     1     -34.967  15.747  -4.998  1.00 20.00     0.020 C 
HETATM    9  C8  UNL     1     -33.678  15.290  -4.310  1.00 20.00     0.082 C 
HETATM   10  C6  UNL     1     -33.464  16.017  -2.978  1.00 20.00     0.024 C 
HETATM   11 CL11 UNL     1     -33.701  13.516  -4.057  1.00 20.00    -0.125 Cl
ENDBRANCH   4   5
ENDBRANCH   3   4
TORSDOF 2
ENDMDL
MODEL 7
REMARK VINA RESULT:      -4.6     11.385     12.526
REMARK  2 active torsions:
REMARK  status: ('A' for Active; 'I' for Inactive)
REMARK    1  A    between atoms: C7_7  and  C10_10 
REMARK    2  A    between atoms: C9_9  and  C10_10 
ROOT
HETATM    1  C1  UNL     1     -35.115  14.396  -7.014  1.00 20.00     0.012 C 
HETATM    2  C2  UNL     1     -34.974  14.020  -5.882  1.00 20.00    -0.117 C 
HETATM    3  C9  UNL     1     -34.806  13.556  -4.499  1.00 20.00     0.093 C 
ENDROOT
BRANCH   3   4
HETATM    4  C10 UNL     1     -33.501  14.076  -3.928  1.00 20.00     0.017 C 
BRANCH   4   5
HETATM    5  C7  UNL     1     -33.721  15.396  -3.190  1.00 20.00    -0.012 C 
HETATM    6  C4  UNL     1     -33.465  16.585  -4.125  1.00 20.00     0.005 C 
HETATM    7  C3  UNL     1     -33.736  17.920  -3.436  1.00 20.00     0.002 C 
HETATM    8  C5  UNL     1     -35.146  17.976  -2.849  1.00 20.00     0.020 C 
HETATM    9  C8  UNL     1     -35.457  16.794  -1.928  1.00 20.00     0.082 C 
HETATM   10  C6  UNL     1     -35.142  15.456  -2.605  1.00 20.00     0.024 C 
HETATM   11 CL11 UNL     1     -34.552  16.946  -0.389  1.00 20.00    -0.125 Cl
ENDBRANCH   4   5
ENDBRANCH   3   4
TORSDOF 2
ENDMDL
MODEL 8
REMARK VINA RESULT:      -4.4      9.966     11.345
REMARK  2 active torsions:
REMARK  status: ('A' for Active; 'I' for Inactive)
REMARK    1  A    between atoms: C7_7  and  C10_10 
REMARK    2  A    between atoms: C9_9  and  C10_10 
ROOT
HETATM    1  C1  UNL     1     -41.161   1.316  -4.169  1.00 20.00     0.012 C 
HETATM    2  C2  UNL     1     -41.878   1.958  -3.454  1.00 20.00    -0.117 C 
HETATM    3  C9  UNL     1     -42.756   2.741  -2.573  1.00 20.00     0.093 C 
ENDROOT
BRANCH   3   4
HETATM    4  C10 UNL     1     -42.893   4.158  -3.097  1.00 20.00     0.017 C 
BRANCH   4   5
HETATM    5  C7  UNL     1     -42.574   5.173  -2.001  1.00 20.00    -0.012 C 
HETATM    6  C4  UNL     1     -41.281   4.786  -1.269  1.00 20.00     0.005 C 
HETATM    7  C3  UNL     1     -40.900   5.814  -0.207  1.00 20.00     0.002 C 
HETATM    8  C5  UNL     1     -40.799   7.221  -0.794  1.00 20.00     0.020 C 
HETATM    9  C8  UNL     1     -42.057   7.642  -1.557  1.00 20.00     0.082 C 
HETATM   10  C6  UNL     1     -42.465   6.588  -2.592  1.00 20.00     0.024 C 
HETATM   11 CL11 UNL     1     -43.404   7.954  -0.417  1.00 20.00    -0.125 Cl
ENDBRANCH   4   5
ENDBRANCH   3   4
TORSDOF 2
ENDMDL
MODEL 9
REMARK VINA RESULT:      -4.3      9.948     11.423
REMARK  2 active torsions:
REMARK  status: ('A' for Active; 'I' for Inactive)
REMARK    1  A    between atoms: C7_7  and  C10_10 
REMARK    2  A    between atoms: C9_9  and  C10_10 
ROOT
HETATM    1  C1  UNL     1     -41.742  -0.276  -4.160  1.00 20.00     0.012 C 
HETATM    2  C2  UNL     1     -41.647   0.867  -3.808  1.00 20.00    -0.117 C 
HETATM    3  C9  UNL     1     -41.526   2.267  -3.380  1.00 20.00     0.093 C 
ENDROOT
BRANCH   3   4
HETATM    4  C10 UNL     1     -42.845   2.756  -2.813  1.00 20.00     0.017 C 
BRANCH   4   5
HETATM    5  C7  UNL     1     -42.633   3.991  -1.937  1.00 20.00    -0.012 C 
HETATM    6  C4  UNL     1     -43.333   3.817  -0.583  1.00 20.00     0.005 C 
HETATM    7  C3  UNL     1     -43.090   5.008   0.340  1.00 20.00     0.002 C 
HETATM    8  C5  UNL     1     -41.599   5.284   0.525  1.00 20.00     0.020 C 
HETATM    9  C8  UNL     1     -40.851   5.438  -0.802  1.00 20.00     0.082 C 
HETATM   10  C6  UNL     1     -41.132   4.265  -1.746  1.00 20.00     0.024 C 
HETATM   11 CL11 UNL     1     -41.285   6.990  -1.586  1.00 20.00    -0.125 Cl
ENDBRANCH   4   5
ENDBRANCH   3   4
TORSDOF 2
ENDMDL
