MODEL 1
REMARK VINA RESULT:      -4.8      0.000      0.000
REMARK  7 active torsions:
REMARK  status: ('A' for Active; 'I' for Inactive)
REMARK    1  A    between atoms: C4_4  and  C8_8 
REMARK    2  A    between atoms: C5_5  and  C6_6 
REMARK    3  A    between atoms: C5_5  and  C7_7 
REMARK    4  A    between atoms: C6_6  and  C9_9 
REMARK    5  A    between atoms: C7_7  and  C10_10 
REMARK    6  A    between atoms: C8_8  and  C11_11 
REMARK    7  A    between atoms: C9_9  and  C11_11 
ROOT
HETATM    1  C6  UNL     1     -32.138   6.376   3.356  1.00 20.00     0.001 C 
ENDROOT
BRANCH   1   2
HETATM    2  C5  UNL     1     -31.837   7.818   2.931  1.00 20.00     0.000 C 
BRANCH   2   3
HETATM    3  C7  UNL     1     -31.609   7.967   1.423  1.00 20.00     0.004 C 
BRANCH   3   4
HETATM    4  C10 UNL     1     -32.121   9.305   0.858  1.00 20.00    -0.023 C 
HETATM    5  C2  UNL     1     -32.820  10.101   1.962  1.00 20.00     0.009 C 
HETATM    6  C3  UNL     1     -33.073   9.113  -0.323  1.00 20.00     0.009 C 
ENDBRANCH   3   4
ENDBRANCH   2   3
ENDBRANCH   1   2
BRANCH   1   7
HETATM    7  C9  UNL     1     -33.470   5.848   2.803  1.00 20.00     0.020 C 
BRANCH   7   8
HETATM    8  C11 UNL     1     -34.490   5.498   3.897  1.00 20.00     0.082 C 
HETATM    9 CL12 UNL     1     -36.153   5.909   3.350  1.00 20.00    -0.125 Cl
BRANCH   8  10
HETATM   10  C8  UNL     1     -34.232   6.232   5.223  1.00 20.00     0.020 C 
BRANCH  10  11
HETATM   11  C4  UNL     1     -34.578   5.396   6.459  1.00 20.00    -0.003 C 
HETATM   12  C1  UNL     1     -34.913   3.961   6.080  1.00 20.00     0.005 C 
ENDBRANCH  10  11
ENDBRANCH   8  10
ENDBRANCH   7   8
ENDBRANCH   1   7
TORSDOF 7
ENDMDL
MODEL 2
REMARK VINA RESULT:      -4.6      1.826      5.717
REMARK  7 active torsions:
REMARK  status: ('A' for Active; 'I' for Inactive)
REMARK    1  A    between atoms: C4_4  and  C8_8 
REMARK    2  A    between atoms: C5_5  and  C6_6 
REMARK    3  A    between atoms: C5_5  and  C7_7 
REMARK    4  A    between atoms: C6_6  and  C9_9 
REMARK    5  A    between atoms: C7_7  and  C10_10 
REMARK    6  A    between atoms: C8_8  and  C11_11 
REMARK    7  A    between atoms: C9_9  and  C11_11 
ROOT
HETATM    1  C6  UNL     1     -33.708   5.801   2.744  1.00 20.00     0.001 C 
ENDROOT
BRANCH   1   2
HETATM    2  C5  UNL     1     -34.756   6.200   3.789  1.00 20.00     0.000 C 
BRANCH   2   3
HETATM    3  C7  UNL     1     -35.365   4.999   4.522  1.00 20.00     0.004 C 
BRANCH   3   4
HETATM    4  C10 UNL     1     -34.936   4.904   5.998  1.00 20.00    -0.023 C 
HETATM    5  C2  UNL     1     -34.257   6.206   6.427  1.00 20.00     0.009 C 
HETATM    6  C3  UNL     1     -34.001   3.723   6.258  1.00 20.00     0.009 C 
ENDBRANCH   3   4
ENDBRANCH   2   3
ENDBRANCH   1   2
BRANCH   1   7
HETATM    7  C9  UNL     1     -32.268   5.875   3.274  1.00 20.00     0.020 C 
BRANCH   7   8
HETATM    8  C11 UNL     1     -31.593   7.232   3.020  1.00 20.00     0.082 C 
HETATM    9 CL12 UNL     1     -31.220   8.042   4.581  1.00 20.00    -0.125 Cl
BRANCH   8  10
HETATM   10  C8  UNL     1     -32.455   8.190   2.182  1.00 20.00     0.020 C 
BRANCH  10  11
HETATM   11  C4  UNL     1     -31.707   8.800   0.992  1.00 20.00    -0.003 C 
HETATM   12  C1  UNL     1     -32.644   9.058  -0.178  1.00 20.00     0.005 C 
ENDBRANCH  10  11
ENDBRANCH   8  10
ENDBRANCH   7   8
ENDBRANCH   1   7
TORSDOF 7
ENDMDL
MODEL 3
REMARK VINA RESULT:      -4.4     10.423     11.767
REMARK  7 active torsions:
REMARK  status: ('A' for Active; 'I' for Inactive)
REMARK    1  A    between atoms: C4_4  and  C8_8 
REMARK    2  A    between atoms: C5_5  and  C6_6 
REMARK    3  A    between atoms: C5_5  and  C7_7 
REMARK    4  A    between atoms: C6_6  and  C9_9 
REMARK    5  A    between atoms: C7_7  and  C10_10 
REMARK    6  A    between atoms: C8_8  and  C11_11 
REMARK    7  A    between atoms: C9_9  and  C11_11 
ROOT
HETATM    1  C6  UNL     1     -34.712  16.375  -1.235  1.00 20.00     0.001 C 
ENDROOT
BRANCH   1   2
HETATM    2  C5  UNL     1     -33.832  17.547  -0.785  1.00 20.00     0.000 C 
BRANCH   2   3
HETATM    3  C7  UNL     1     -34.168  18.049   0.624  1.00 20.00     0.004 C 
BRANCH   3   4
HETATM    4  C10 UNL     1     -33.128  19.036   1.185  1.00 20.00    -0.023 C 
HETATM    5  C2  UNL     1     -31.881  19.036   0.298  1.00 20.00     0.009 C 
HETATM    6  C3  UNL     1     -32.736  18.712   2.627  1.00 20.00     0.009 C 
ENDBRANCH   3   4
ENDBRANCH   2   3
ENDBRANCH   1   2
BRANCH   1   7
HETATM    7  C9  UNL     1     -34.765  16.209  -2.760  1.00 20.00     0.020 C 
BRANCH   7   8
HETATM    8  C11 UNL     1     -33.393  15.917  -3.390  1.00 20.00     0.082 C 
HETATM    9 CL12 UNL     1     -33.246  16.756  -4.974  1.00 20.00    -0.125 Cl
BRANCH   8  10
HETATM   10  C8  UNL     1     -33.140  14.418  -3.622  1.00 20.00     0.020 C 
BRANCH  10  11
HETATM   11  C4  UNL     1     -34.426  13.596  -3.745  1.00 20.00    -0.003 C 
HETATM   12  C1  UNL     1     -34.821  13.401  -5.202  1.00 20.00     0.005 C 
ENDBRANCH  10  11
ENDBRANCH   8  10
ENDBRANCH   7   8
ENDBRANCH   1   7
TORSDOF 7
ENDMDL
MODEL 4
REMARK VINA RESULT:      -4.4     10.295     11.714
REMARK  7 active torsions:
REMARK  status: ('A' for Active; 'I' for Inactive)
REMARK    1  A    between atoms: C4_4  and  C8_8 
REMARK    2  A    between atoms: C5_5  and  C6_6 
REMARK    3  A    between atoms: C5_5  and  C7_7 
REMARK    4  A    between atoms: C6_6  and  C9_9 
REMARK    5  A    between atoms: C7_7  and  C10_10 
REMARK    6  A    between atoms: C8_8  and  C11_11 
REMARK    7  A    between atoms: C9_9  and  C11_11 
ROOT
HETATM    1  C6  UNL     1     -34.716  16.343  -2.668  1.00 20.00     0.001 C 
ENDROOT
BRANCH   1   2
HETATM    2  C5  UNL     1     -34.640  16.481  -1.143  1.00 20.00     0.000 C 
BRANCH   2   3
HETATM    3  C7  UNL     1     -33.706  17.606  -0.684  1.00 20.00     0.004 C 
BRANCH   3   4
HETATM    4  C10 UNL     1     -34.227  18.368   0.548  1.00 20.00    -0.023 C 
HETATM    5  C2  UNL     1     -33.056  18.751   1.456  1.00 20.00     0.009 C 
HETATM    6  C3  UNL     1     -35.254  17.560   1.342  1.00 20.00     0.009 C 
ENDBRANCH   3   4
ENDBRANCH   2   3
ENDBRANCH   1   2
BRANCH   1   7
HETATM    7  C9  UNL     1     -35.291  14.995  -3.125  1.00 20.00     0.020 C 
BRANCH   7   8
HETATM    8  C11 UNL     1     -34.213  13.985  -3.552  1.00 20.00     0.082 C 
HETATM    9 CL12 UNL     1     -32.608  14.790  -3.638  1.00 20.00    -0.125 Cl
BRANCH   8  10
HETATM   10  C8  UNL     1     -34.495  13.340  -4.919  1.00 20.00     0.020 C 
BRANCH  10  11
HETATM   11  C4  UNL     1     -35.299  14.240  -5.862  1.00 20.00    -0.003 C 
HETATM   12  C1  UNL     1     -34.388  14.980  -6.831  1.00 20.00     0.005 C 
ENDBRANCH  10  11
ENDBRANCH   8  10
ENDBRANCH   7   8
ENDBRANCH   1   7
TORSDOF 7
ENDMDL
MODEL 5
REMARK VINA RESULT:      -4.3      1.811      5.766
REMARK  7 active torsions:
REMARK  status: ('A' for Active; 'I' for Inactive)
REMARK    1  A    between atoms: C4_4  and  C8_8 
REMARK    2  A    between atoms: C5_5  and  C6_6 
REMARK    3  A    between atoms: C5_5  and  C7_7 
REMARK    4  A    between atoms: C6_6  and  C9_9 
REMARK    5  A    between atoms: C7_7  and  C10_10 
REMARK    6  A    between atoms: C8_8  and  C11_11 
REMARK    7  A    between atoms: C9_9  and  C11_11 
ROOT
HETATM    1  C6  UNL     1     -33.756   5.786   2.615  1.00 20.00     0.001 C 
ENDROOT
BRANCH   1   2
HETATM    2  C5  UNL     1     -34.864   5.831   3.673  1.00 20.00     0.000 C 
BRANCH   2   3
HETATM    3  C7  UNL     1     -34.902   4.582   4.560  1.00 20.00     0.004 C 
BRANCH   3   4
HETATM    4  C10 UNL     1     -34.438   4.845   6.005  1.00 20.00    -0.023 C 
HETATM    5  C2  UNL     1     -35.493   4.335   6.990  1.00 20.00     0.009 C 
HETATM    6  C3  UNL     1     -34.160   6.326   6.267  1.00 20.00     0.009 C 
ENDBRANCH   3   4
ENDBRANCH   2   3
ENDBRANCH   1   2
BRANCH   1   7
HETATM    7  C9  UNL     1     -32.344   5.867   3.215  1.00 20.00     0.020 C 
BRANCH   7   8
HETATM    8  C11 UNL     1     -31.641   7.207   2.943  1.00 20.00     0.082 C 
HETATM    9 CL12 UNL     1     -31.161   7.981   4.493  1.00 20.00    -0.125 Cl
BRANCH   8  10
HETATM   10  C8  UNL     1     -32.516   8.204   2.166  1.00 20.00     0.020 C 
BRANCH  10  11
HETATM   11  C4  UNL     1     -31.790   8.862   0.989  1.00 20.00    -0.003 C 
HETATM   12  C1  UNL     1     -32.710   9.016  -0.214  1.00 20.00     0.005 C 
ENDBRANCH  10  11
ENDBRANCH   8  10
ENDBRANCH   7   8
ENDBRANCH   1   7
TORSDOF 7
ENDMDL
MODEL 6
REMARK VINA RESULT:      -4.3     10.387     11.802
REMARK  7 active torsions:
REMARK  status: ('A' for Active; 'I' for Inactive)
REMARK    1  A    between atoms: C4_4  and  C8_8 
REMARK    2  A    between atoms: C5_5  and  C6_6 
REMARK    3  A    between atoms: C5_5  and  C7_7 
REMARK    4  A    between atoms: C6_6  and  C9_9 
REMARK    5  A    between atoms: C7_7  and  C10_10 
REMARK    6  A    between atoms: C8_8  and  C11_11 
REMARK    7  A    between atoms: C9_9  and  C11_11 
ROOT
HETATM    1  C6  UNL     1     -33.727  13.798  -3.495  1.00 20.00     0.001 C 
ENDROOT
BRANCH   1   2
HETATM    2  C5  UNL     1     -35.084  13.719  -4.204  1.00 20.00     0.000 C 
BRANCH   2   3
HETATM    3  C7  UNL     1     -34.963  13.493  -5.715  1.00 20.00     0.004 C 
BRANCH   3   4
HETATM    4  C10 UNL     1     -35.597  14.618  -6.554  1.00 20.00    -0.023 C 
HETATM    5  C2  UNL     1     -34.500  15.443  -7.229  1.00 20.00     0.009 C 
HETATM    6  C3  UNL     1     -36.493  15.533  -5.719  1.00 20.00     0.009 C 
ENDBRANCH   3   4
ENDBRANCH   2   3
ENDBRANCH   1   2
BRANCH   1   7
HETATM    7  C9  UNL     1     -33.006  15.136  -3.717  1.00 20.00     0.020 C 
BRANCH   7   8
HETATM    8  C11 UNL     1     -33.868  16.360  -3.366  1.00 20.00     0.082 C 
HETATM    9 CL12 UNL     1     -33.580  17.682  -4.550  1.00 20.00    -0.125 Cl
BRANCH   8  10
HETATM   10  C8  UNL     1     -33.588  16.913  -1.959  1.00 20.00     0.020 C 
BRANCH  10  11
HETATM   11  C4  UNL     1     -34.653  16.523  -0.929  1.00 20.00    -0.003 C 
HETATM   12  C1  UNL     1     -35.404  17.744  -0.420  1.00 20.00     0.005 C 
ENDBRANCH  10  11
ENDBRANCH   8  10
ENDBRANCH   7   8
ENDBRANCH   1   7
TORSDOF 7
ENDMDL
MODEL 7
REMARK VINA RESULT:      -4.3     10.425     12.032
REMARK  7 active torsions:
REMARK  status: ('A' for Active; 'I' for Inactive)
REMARK    1  A    between atoms: C4_4  and  C8_8 
REMARK    2  A    between atoms: C5_5  and  C6_6 
REMARK    3  A    between atoms: C5_5  and  C7_7 
REMARK    4  A    between atoms: C6_6  and  C9_9 
REMARK    5  A    between atoms: C7_7  and  C10_10 
REMARK    6  A    between atoms: C8_8  and  C11_11 
REMARK    7  A    between atoms: C9_9  and  C11_11 
ROOT
HETATM    1  C6  UNL     1     -36.210  17.052  -4.788  1.00 20.00     0.001 C 
ENDROOT
BRANCH   1   2
HETATM    2  C5  UNL     1     -36.821  15.649  -4.871  1.00 20.00     0.000 C 
BRANCH   2   3
HETATM    3  C7  UNL     1     -36.233  14.673  -3.845  1.00 20.00     0.004 C 
BRANCH   3   4
HETATM    4  C10 UNL     1     -35.242  13.667  -4.459  1.00 20.00    -0.023 C 
HETATM    5  C2  UNL     1     -33.920  13.705  -3.689  1.00 20.00     0.009 C 
HETATM    6  C3  UNL     1     -34.983  13.935  -5.942  1.00 20.00     0.009 C 
ENDBRANCH   3   4
ENDBRANCH   2   3
ENDBRANCH   1   2
BRANCH   1   7
HETATM    7  C9  UNL     1     -35.810  17.454  -3.361  1.00 20.00     0.020 C 
BRANCH   7   8
HETATM    8  C11 UNL     1     -34.300  17.691  -3.194  1.00 20.00     0.082 C 
HETATM    9 CL12 UNL     1     -33.425  17.194  -4.684  1.00 20.00    -0.125 Cl
BRANCH   8  10
HETATM   10  C8  UNL     1     -33.694  16.922  -2.009  1.00 20.00     0.020 C 
BRANCH  10  11
HETATM   11  C4  UNL     1     -34.733  16.489  -0.969  1.00 20.00    -0.003 C 
HETATM   12  C1  UNL     1     -34.753  17.436   0.222  1.00 20.00     0.005 C 
ENDBRANCH  10  11
ENDBRANCH   8  10
ENDBRANCH   7   8
ENDBRANCH   1   7
TORSDOF 7
ENDMDL
MODEL 8
REMARK VINA RESULT:      -4.3     10.496     12.057
REMARK  7 active torsions:
REMARK  status: ('A' for Active; 'I' for Inactive)
REMARK    1  A    between atoms: C4_4  and  C8_8 
REMARK    2  A    between atoms: C5_5  and  C6_6 
REMARK    3  A    between atoms: C5_5  and  C7_7 
REMARK    4  A    between atoms: C6_6  and  C9_9 
REMARK    5  A    between atoms: C7_7  and  C10_10 
REMARK    6  A    between atoms: C8_8  and  C11_11 
REMARK    7  A    between atoms: C9_9  and  C11_11 
ROOT
HETATM    1  C6  UNL     1     -33.134  15.065  -3.378  1.00 20.00     0.001 C 
ENDROOT
BRANCH   1   2
HETATM    2  C5  UNL     1     -33.753  16.386  -2.906  1.00 20.00     0.000 C 
BRANCH   2   3
HETATM    3  C7  UNL     1     -34.516  16.255  -1.583  1.00 20.00     0.004 C 
BRANCH   3   4
HETATM    4  C10 UNL     1     -34.548  17.560  -0.766  1.00 20.00    -0.023 C 
HETATM    5  C2  UNL     1     -33.141  18.154  -0.680  1.00 20.00     0.009 C 
HETATM    6  C3  UNL     1     -35.108  17.352   0.642  1.00 20.00     0.009 C 
ENDBRANCH   3   4
ENDBRANCH   2   3
ENDBRANCH   1   2
BRANCH   1   7
HETATM    7  C9  UNL     1     -34.171  14.074  -3.926  1.00 20.00     0.020 C 
BRANCH   7   8
HETATM    8  C11 UNL     1     -35.283  14.745  -4.749  1.00 20.00     0.082 C 
HETATM    9 CL12 UNL     1     -36.887  14.420  -4.007  1.00 20.00    -0.125 Cl
BRANCH   8  10
HETATM   10  C8  UNL     1     -35.329  14.266  -6.209  1.00 20.00     0.020 C 
BRANCH  10  11
HETATM   11  C4  UNL     1     -34.359  15.016  -7.127  1.00 20.00    -0.003 C 
HETATM   12  C1  UNL     1     -34.519  16.523  -6.988  1.00 20.00     0.005 C 
ENDBRANCH  10  11
ENDBRANCH   8  10
ENDBRANCH   7   8
ENDBRANCH   1   7
TORSDOF 7
ENDMDL
MODEL 9
REMARK VINA RESULT:      -4.2     10.919     12.348
REMARK  7 active torsions:
REMARK  status: ('A' for Active; 'I' for Inactive)
REMARK    1  A    between atoms: C4_4  and  C8_8 
REMARK    2  A    between atoms: C5_5  and  C6_6 
REMARK    3  A    between atoms: C5_5  and  C7_7 
REMARK    4  A    between atoms: C6_6  and  C9_9 
REMARK    5  A    between atoms: C7_7  and  C10_10 
REMARK    6  A    between atoms: C8_8  and  C11_11 
REMARK    7  A    between atoms: C9_9  and  C11_11 
ROOT
HETATM    1  C6  UNL     1     -33.673  17.289  -5.544  1.00 20.00     0.001 C 
ENDROOT
BRANCH   1   2
HETATM    2  C5  UNL     1     -34.453  16.747  -6.747  1.00 20.00     0.000 C 
BRANCH   2   3
HETATM    3  C7  UNL     1     -34.194  15.260  -7.013  1.00 20.00     0.004 C 
BRANCH   3   4
HETATM    4  C10 UNL     1     -35.354  14.349  -6.568  1.00 20.00    -0.023 C 
HETATM    5  C2  UNL     1     -36.618  15.185  -6.357  1.00 20.00     0.009 C 
HETATM    6  C3  UNL     1     -35.028  13.574  -5.291  1.00 20.00     0.009 C 
ENDBRANCH   3   4
ENDBRANCH   2   3
ENDBRANCH   1   2
BRANCH   1   7
HETATM    7  C9  UNL     1     -34.488  17.282  -4.242  1.00 20.00     0.020 C 
BRANCH   7   8
HETATM    8  C11 UNL     1     -33.757  16.612  -3.068  1.00 20.00     0.082 C 
HETATM    9 CL12 UNL     1     -32.688  15.298  -3.671  1.00 20.00    -0.125 Cl
BRANCH   8  10
HETATM   10  C8  UNL     1     -34.712  16.006  -2.026  1.00 20.00     0.020 C 
BRANCH  10  11
HETATM   11  C4  UNL     1     -34.653  16.709  -0.666  1.00 20.00    -0.003 C 
HETATM   12  C1  UNL     1     -33.583  17.791  -0.648  1.00 20.00     0.005 C 
ENDBRANCH  10  11
ENDBRANCH   8  10
ENDBRANCH   7   8
ENDBRANCH   1   7
TORSDOF 7
ENDMDL
