MODEL 1
REMARK VINA RESULT:      -4.6      0.000      0.000
REMARK  4 active torsions:
REMARK  status: ('A' for Active; 'I' for Inactive)
REMARK    1  A    between atoms: C5_5  and  C8_8 
REMARK    2  A    between atoms: C6_6  and  C7_7 
REMARK    3  A    between atoms: C6_6  and  C8_8 
REMARK    4  A    between atoms: C7_7  and  C9_9 
ROOT
HETATM    1  C6  UNL     1     -33.038   6.246   2.854  1.00 20.00     0.021 C 
ENDROOT
BRANCH   1   2
HETATM    2  C7  UNL     1     -32.977   5.478   4.185  1.00 20.00     0.010 C 
BRANCH   2   3
HETATM    3  C9  UNL     1     -34.311   5.400   4.978  1.00 20.00    -0.051 C 
HETATM    4  C2  UNL     1     -35.461   5.768   4.020  1.00 20.00     0.014 C 
HETATM    5  C3  UNL     1     -34.318   6.390   6.154  1.00 20.00     0.014 C 
HETATM    6  C4  UNL     1     -34.560   3.978   5.512  1.00 20.00     0.014 C 
ENDBRANCH   2   3
ENDBRANCH   1   2
BRANCH   1   7
HETATM    7  C8  UNL     1     -32.458   7.670   2.949  1.00 20.00     0.082 C 
HETATM    8 CL10 UNL     1     -31.114   7.721   4.132  1.00 20.00    -0.125 Cl
BRANCH   7   9
HETATM    9  C5  UNL     1     -31.973   8.149   1.571  1.00 20.00     0.016 C 
HETATM   10  C1  UNL     1     -32.335   9.598   1.267  1.00 20.00     0.006 C 
ENDBRANCH   7   9
ENDBRANCH   1   7
TORSDOF 4
ENDMDL
MODEL 2
REMARK VINA RESULT:      -4.0     10.896     12.698
REMARK  4 active torsions:
REMARK  status: ('A' for Active; 'I' for Inactive)
REMARK    1  A    between atoms: C5_5  and  C8_8 
REMARK    2  A    between atoms: C6_6  and  C7_7 
REMARK    3  A    between atoms: C6_6  and  C8_8 
REMARK    4  A    between atoms: C7_7  and  C9_9 
ROOT
HETATM    1  C6  UNL     1     -35.300  13.937  -4.145  1.00 20.00     0.021 C 
ENDROOT
BRANCH   1   2
HETATM    2  C7  UNL     1     -34.673  14.014  -5.547  1.00 20.00     0.010 C 
BRANCH   2   3
HETATM    3  C9  UNL     1     -35.310  15.050  -6.514  1.00 20.00    -0.051 C 
HETATM    4  C2  UNL     1     -34.334  16.234  -6.659  1.00 20.00     0.014 C 
HETATM    5  C3  UNL     1     -36.643  15.580  -5.962  1.00 20.00     0.014 C 
HETATM    6  C4  UNL     1     -35.544  14.442  -7.907  1.00 20.00     0.014 C 
ENDBRANCH   2   3
ENDBRANCH   1   2
BRANCH   1   7
HETATM    7  C8  UNL     1     -34.448  14.624  -3.061  1.00 20.00     0.082 C 
HETATM    8 CL10 UNL     1     -32.804  14.971  -3.683  1.00 20.00    -0.125 Cl
BRANCH   7   9
HETATM    9  C5  UNL     1     -35.122  15.920  -2.585  1.00 20.00     0.016 C 
HETATM   10  C1  UNL     1     -34.589  16.431  -1.251  1.00 20.00     0.006 C 
ENDBRANCH   7   9
ENDBRANCH   1   7
TORSDOF 4
ENDMDL
MODEL 3
REMARK VINA RESULT:      -4.0     11.285     12.336
REMARK  4 active torsions:
REMARK  status: ('A' for Active; 'I' for Inactive)
REMARK    1  A    between atoms: C5_5  and  C8_8 
REMARK    2  A    between atoms: C6_6  and  C7_7 
REMARK    3  A    between atoms: C6_6  and  C8_8 
REMARK    4  A    between atoms: C7_7  and  C9_9 
ROOT
HETATM    1  C6  UNL     1     -33.291  15.456  -3.458  1.00 20.00     0.021 C 
ENDROOT
BRANCH   1   2
HETATM    2  C7  UNL     1     -33.826  15.586  -4.894  1.00 20.00     0.010 C 
BRANCH   2   3
HETATM    3  C9  UNL     1     -35.041  14.683  -5.244  1.00 20.00    -0.051 C 
HETATM    4  C2  UNL     1     -35.033  14.439  -6.766  1.00 20.00     0.014 C 
HETATM    5  C3  UNL     1     -36.367  15.361  -4.865  1.00 20.00     0.014 C 
HETATM    6  C4  UNL     1     -34.947  13.321  -4.534  1.00 20.00     0.014 C 
ENDBRANCH   2   3
ENDBRANCH   1   2
BRANCH   1   7
HETATM    7  C8  UNL     1     -33.661  16.652  -2.562  1.00 20.00     0.082 C 
HETATM    8 CL10 UNL     1     -34.199  18.039  -3.560  1.00 20.00    -0.125 Cl
BRANCH   7   9
HETATM    9  C5  UNL     1     -34.760  16.258  -1.562  1.00 20.00     0.016 C 
HETATM   10  C1  UNL     1     -34.712  17.050  -0.260  1.00 20.00     0.006 C 
ENDBRANCH   7   9
ENDBRANCH   1   7
TORSDOF 4
ENDMDL
MODEL 4
REMARK VINA RESULT:      -4.0     11.021     12.154
REMARK  4 active torsions:
REMARK  status: ('A' for Active; 'I' for Inactive)
REMARK    1  A    between atoms: C5_5  and  C8_8 
REMARK    2  A    between atoms: C6_6  and  C7_7 
REMARK    3  A    between atoms: C6_6  and  C8_8 
REMARK    4  A    between atoms: C7_7  and  C9_9 
ROOT
HETATM    1  C6  UNL     1     -35.254  16.292  -2.749  1.00 20.00     0.021 C 
ENDROOT
BRANCH   1   2
HETATM    2  C7  UNL     1     -34.569  16.281  -1.373  1.00 20.00     0.010 C 
BRANCH   2   3
HETATM    3  C9  UNL     1     -34.568  17.635  -0.610  1.00 20.00    -0.051 C 
HETATM    4  C2  UNL     1     -35.510  18.604  -1.352  1.00 20.00     0.014 C 
HETATM    5  C3  UNL     1     -33.161  18.253  -0.576  1.00 20.00     0.014 C 
HETATM    6  C4  UNL     1     -35.083  17.465   0.829  1.00 20.00     0.014 C 
ENDBRANCH   2   3
ENDBRANCH   1   2
BRANCH   1   7
HETATM    7  C8  UNL     1     -34.263  16.176  -3.922  1.00 20.00     0.082 C 
HETATM    8 CL10 UNL     1     -33.592  17.784  -4.336  1.00 20.00    -0.125 Cl
BRANCH   7   9
HETATM    9  C5  UNL     1     -33.128  15.199  -3.576  1.00 20.00     0.016 C 
HETATM   10  C1  UNL     1     -33.485  13.737  -3.821  1.00 20.00     0.006 C 
ENDBRANCH   7   9
ENDBRANCH   1   7
TORSDOF 4
ENDMDL
MODEL 5
REMARK VINA RESULT:      -3.9     10.742     11.902
REMARK  4 active torsions:
REMARK  status: ('A' for Active; 'I' for Inactive)
REMARK    1  A    between atoms: C5_5  and  C8_8 
REMARK    2  A    between atoms: C6_6  and  C7_7 
REMARK    3  A    between atoms: C6_6  and  C8_8 
REMARK    4  A    between atoms: C7_7  and  C9_9 
ROOT
HETATM    1  C6  UNL     1     -34.758  16.244  -1.468  1.00 20.00     0.021 C 
ENDROOT
BRANCH   1   2
HETATM    2  C7  UNL     1     -33.749  16.090  -2.617  1.00 20.00     0.010 C 
BRANCH   2   3
HETATM    3  C9  UNL     1     -34.165  15.115  -3.753  1.00 20.00    -0.051 C 
HETATM    4  C2  UNL     1     -33.907  15.813  -5.102  1.00 20.00     0.014 C 
HETATM    5  C3  UNL     1     -35.659  14.762  -3.664  1.00 20.00     0.014 C 
HETATM    6  C4  UNL     1     -33.335  13.821  -3.710  1.00 20.00     0.014 C 
ENDBRANCH   2   3
ENDBRANCH   1   2
BRANCH   1   7
HETATM    7  C8  UNL     1     -34.621  17.581  -0.715  1.00 20.00     0.082 C 
HETATM    8 CL10 UNL     1     -35.127  17.392   0.993  1.00 20.00    -0.125 Cl
BRANCH   7   9
HETATM    9  C5  UNL     1     -33.175  18.096  -0.788  1.00 20.00     0.016 C 
HETATM   10  C1  UNL     1     -32.701  18.767   0.497  1.00 20.00     0.006 C 
ENDBRANCH   7   9
ENDBRANCH   1   7
TORSDOF 4
ENDMDL
MODEL 6
REMARK VINA RESULT:      -3.9     10.639     13.348
REMARK  4 active torsions:
REMARK  status: ('A' for Active; 'I' for Inactive)
REMARK    1  A    between atoms: C5_5  and  C8_8 
REMARK    2  A    between atoms: C6_6  and  C7_7 
REMARK    3  A    between atoms: C6_6  and  C8_8 
REMARK    4  A    between atoms: C7_7  and  C9_9 
ROOT
HETATM    1  C6  UNL     1     -33.773  17.055  -4.164  1.00 20.00     0.021 C 
ENDROOT
BRANCH   1   2
HETATM    2  C7  UNL     1     -33.405  16.575  -5.578  1.00 20.00     0.010 C 
BRANCH   2   3
HETATM    3  C9  UNL     1     -34.599  16.348  -6.544  1.00 20.00    -0.051 C 
HETATM    4  C2  UNL     1     -34.563  17.452  -7.619  1.00 20.00     0.014 C 
HETATM    5  C3  UNL     1     -35.942  16.434  -5.801  1.00 20.00     0.014 C 
HETATM    6  C4  UNL     1     -34.496  14.983  -7.248  1.00 20.00     0.014 C 
ENDBRANCH   2   3
ENDBRANCH   1   2
BRANCH   1   7
HETATM    7  C8  UNL     1     -33.463  16.015  -3.071  1.00 20.00     0.082 C 
HETATM    8 CL10 UNL     1     -34.817  15.915  -1.901  1.00 20.00    -0.125 Cl
BRANCH   7   9
HETATM    9  C5  UNL     1     -33.196  14.637  -3.695  1.00 20.00     0.016 C 
HETATM   10  C1  UNL     1     -34.393  13.695  -3.631  1.00 20.00     0.006 C 
ENDBRANCH   7   9
ENDBRANCH   1   7
TORSDOF 4
ENDMDL
MODEL 7
REMARK VINA RESULT:      -3.9     11.321     12.098
REMARK  4 active torsions:
REMARK  status: ('A' for Active; 'I' for Inactive)
REMARK    1  A    between atoms: C5_5  and  C8_8 
REMARK    2  A    between atoms: C6_6  and  C7_7 
REMARK    3  A    between atoms: C6_6  and  C8_8 
REMARK    4  A    between atoms: C7_7  and  C9_9 
ROOT
HETATM    1  C6  UNL     1     -33.465  16.104  -3.177  1.00 20.00     0.021 C 
ENDROOT
BRANCH   1   2
HETATM    2  C7  UNL     1     -34.329  14.834  -3.116  1.00 20.00     0.010 C 
BRANCH   2   3
HETATM    3  C9  UNL     1     -35.128  14.499  -4.405  1.00 20.00    -0.051 C 
HETATM    4  C2  UNL     1     -36.628  14.478  -4.048  1.00 20.00     0.014 C 
HETATM    5  C3  UNL     1     -34.739  13.119  -4.959  1.00 20.00     0.014 C 
HETATM    6  C4  UNL     1     -34.904  15.564  -5.493  1.00 20.00     0.014 C 
ENDBRANCH   2   3
ENDBRANCH   1   2
BRANCH   1   7
HETATM    7  C8  UNL     1     -33.872  17.165  -2.138  1.00 20.00     0.082 C 
HETATM    8 CL10 UNL     1     -34.848  18.455  -2.909  1.00 20.00    -0.125 Cl
BRANCH   7   9
HETATM    9  C5  UNL     1     -34.659  16.520  -0.986  1.00 20.00     0.016 C 
HETATM   10  C1  UNL     1     -34.810  17.424   0.232  1.00 20.00     0.006 C 
ENDBRANCH   7   9
ENDBRANCH   1   7
TORSDOF 4
ENDMDL
MODEL 8
REMARK VINA RESULT:      -3.9     11.177     12.267
REMARK  4 active torsions:
REMARK  status: ('A' for Active; 'I' for Inactive)
REMARK    1  A    between atoms: C5_5  and  C8_8 
REMARK    2  A    between atoms: C6_6  and  C7_7 
REMARK    3  A    between atoms: C6_6  and  C8_8 
REMARK    4  A    between atoms: C7_7  and  C9_9 
ROOT
HETATM    1  C6  UNL     1     -33.457  15.367  -4.061  1.00 20.00     0.021 C 
ENDROOT
BRANCH   1   2
HETATM    2  C7  UNL     1     -34.081  15.353  -2.656  1.00 20.00     0.010 C 
BRANCH   2   3
HETATM    3  C9  UNL     1     -34.672  16.704  -2.168  1.00 20.00    -0.051 C 
HETATM    4  C2  UNL     1     -33.794  17.841  -2.726  1.00 20.00     0.014 C 
HETATM    5  C3  UNL     1     -34.667  16.792  -0.633  1.00 20.00     0.014 C 
HETATM    6  C4  UNL     1     -36.108  16.903  -2.682  1.00 20.00     0.014 C 
ENDBRANCH   2   3
ENDBRANCH   1   2
BRANCH   1   7
HETATM    7  C8  UNL     1     -34.143  14.395  -5.039  1.00 20.00     0.082 C 
HETATM    8 CL10 UNL     1     -35.532  13.585  -4.246  1.00 20.00    -0.125 Cl
BRANCH   7   9
HETATM    9  C5  UNL     1     -34.609  15.137  -6.301  1.00 20.00     0.016 C 
HETATM   10  C1  UNL     1     -34.183  16.600  -6.341  1.00 20.00     0.006 C 
ENDBRANCH   7   9
ENDBRANCH   1   7
TORSDOF 4
ENDMDL
MODEL 9
REMARK VINA RESULT:      -3.9     11.140     12.275
REMARK  4 active torsions:
REMARK  status: ('A' for Active; 'I' for Inactive)
REMARK    1  A    between atoms: C5_5  and  C8_8 
REMARK    2  A    between atoms: C6_6  and  C7_7 
REMARK    3  A    between atoms: C6_6  and  C8_8 
REMARK    4  A    between atoms: C7_7  and  C9_9 
ROOT
HETATM    1  C6  UNL     1     -33.413  15.324  -3.901  1.00 20.00     0.021 C 
ENDROOT
BRANCH   1   2
HETATM    2  C7  UNL     1     -34.168  15.370  -2.562  1.00 20.00     0.010 C 
BRANCH   2   3
HETATM    3  C9  UNL     1     -34.687  16.769  -2.130  1.00 20.00    -0.051 C 
HETATM    4  C2  UNL     1     -34.695  16.822  -0.589  1.00 20.00     0.014 C 
HETATM    5  C3  UNL     1     -36.119  17.011  -2.633  1.00 20.00     0.014 C 
HETATM    6  C4  UNL     1     -33.771  17.890  -2.648  1.00 20.00     0.014 C 
ENDBRANCH   2   3
ENDBRANCH   1   2
BRANCH   1   7
HETATM    7  C8  UNL     1     -34.079  14.403  -4.940  1.00 20.00     0.082 C 
HETATM    8 CL10 UNL     1     -35.432  13.494  -4.196  1.00 20.00    -0.125 Cl
BRANCH   7   9
HETATM    9  C5  UNL     1     -34.582  15.217  -6.142  1.00 20.00     0.016 C 
HETATM   10  C1  UNL     1     -34.058  16.649  -6.172  1.00 20.00     0.006 C 
ENDBRANCH   7   9
ENDBRANCH   1   7
TORSDOF 4
ENDMDL
