MODEL 1
REMARK VINA RESULT:      -5.3      0.000      0.000
REMARK  2 active torsions:
REMARK  status: ('A' for Active; 'I' for Inactive)
REMARK    1  A    between atoms: C7_7  and  C9_9 
REMARK    2  A    between atoms: C8_8  and  O10_10 
ROOT
HETATM    1  C1  UNL     1     -32.159   9.115   1.101  1.00 20.00     0.012 C 
HETATM    2  C2  UNL     1     -32.056   8.277   1.955  1.00 20.00    -0.117 C 
HETATM    3  C9  UNL     1     -31.918   7.253   2.994  1.00 20.00     0.097 C 
ENDROOT
BRANCH   3   4
HETATM    4  C7  UNL     1     -33.283   6.818   3.519  1.00 20.00    -0.001 C 
HETATM    5  C4  UNL     1     -33.774   5.565   2.779  1.00 20.00     0.005 C 
HETATM    6  C3  UNL     1     -35.116   5.076   3.321  1.00 20.00     0.003 C 
HETATM    7  C5  UNL     1     -35.061   4.840   4.826  1.00 20.00     0.032 C 
HETATM    8  C8  UNL     1     -34.574   6.082   5.570  1.00 20.00     0.118 C 
HETATM    9  C6  UNL     1     -33.229   6.571   5.032  1.00 20.00     0.037 C 
BRANCH   8  10
HETATM   10  O10 UNL     1     -34.454   5.789   6.958  1.00 20.00    -0.396 OA
HETATM   11  H24 UNL     1     -33.644   5.265   7.063  1.00 20.00     0.210 HD
ENDBRANCH   8  10
ENDBRANCH   3   4
TORSDOF 2
ENDMDL
MODEL 2
REMARK VINA RESULT:      -5.1     10.980     12.068
REMARK  2 active torsions:
REMARK  status: ('A' for Active; 'I' for Inactive)
REMARK    1  A    between atoms: C7_7  and  C9_9 
REMARK    2  A    between atoms: C8_8  and  O10_10 
ROOT
HETATM    1  C1  UNL     1     -34.856  16.972  -0.181  1.00 20.00     0.012 C 
HETATM    2  C2  UNL     1     -34.222  16.864  -1.194  1.00 20.00    -0.117 C 
HETATM    3  C9  UNL     1     -33.438  16.739  -2.426  1.00 20.00     0.097 C 
ENDROOT
BRANCH   3   4
HETATM    4  C7  UNL     1     -34.266  16.101  -3.539  1.00 20.00    -0.001 C 
HETATM    5  C4  UNL     1     -33.594  16.312  -4.903  1.00 20.00     0.005 C 
HETATM    6  C3  UNL     1     -34.374  15.638  -6.030  1.00 20.00     0.003 C 
HETATM    7  C5  UNL     1     -34.596  14.155  -5.750  1.00 20.00     0.032 C 
HETATM    8  C8  UNL     1     -35.264  13.936  -4.394  1.00 20.00     0.118 C 
HETATM    9  C6  UNL     1     -34.483  14.607  -3.264  1.00 20.00     0.037 C 
BRANCH   8  10
HETATM   10  O10 UNL     1     -35.371  12.540  -4.136  1.00 20.00    -0.396 OA
HETATM   11  H24 UNL     1     -34.893  12.088  -4.849  1.00 20.00     0.210 HD
ENDBRANCH   8  10
ENDBRANCH   3   4
TORSDOF 2
ENDMDL
MODEL 3
REMARK VINA RESULT:      -4.9     10.686     11.538
REMARK  2 active torsions:
REMARK  status: ('A' for Active; 'I' for Inactive)
REMARK    1  A    between atoms: C7_7  and  C9_9 
REMARK    2  A    between atoms: C8_8  and  O10_10 
ROOT
HETATM    1  C1  UNL     1     -35.102  17.446   0.769  1.00 20.00     0.012 C 
HETATM    2  C2  UNL     1     -34.667  17.207  -0.325  1.00 20.00    -0.117 C 
HETATM    3  C9  UNL     1     -34.131  16.926  -1.659  1.00 20.00     0.097 C 
ENDROOT
BRANCH   3   4
HETATM    4  C7  UNL     1     -34.748  15.656  -2.241  1.00 20.00    -0.001 C 
HETATM    5  C4  UNL     1     -35.982  15.994  -3.090  1.00 20.00     0.005 C 
HETATM    6  C3  UNL     1     -36.589  14.746  -3.729  1.00 20.00     0.003 C 
HETATM    7  C5  UNL     1     -35.557  13.973  -4.542  1.00 20.00     0.032 C 
HETATM    8  C8  UNL     1     -34.325  13.633  -3.704  1.00 20.00     0.118 C 
HETATM    9  C6  UNL     1     -33.714  14.881  -3.067  1.00 20.00     0.037 C 
BRANCH   8  10
HETATM   10  O10 UNL     1     -33.354  12.991  -4.524  1.00 20.00    -0.396 OA
HETATM   11  H24 UNL     1     -33.757  12.884  -5.400  1.00 20.00     0.210 HD
ENDBRANCH   8  10
ENDBRANCH   3   4
TORSDOF 2
ENDMDL
MODEL 4
REMARK VINA RESULT:      -4.7     10.907     11.747
REMARK  2 active torsions:
REMARK  status: ('A' for Active; 'I' for Inactive)
REMARK    1  A    between atoms: C7_7  and  C9_9 
REMARK    2  A    between atoms: C8_8  and  O10_10 
ROOT
HETATM    1  C1  UNL     1     -34.669  16.877  -0.207  1.00 20.00     0.012 C 
HETATM    2  C2  UNL     1     -34.326  17.060  -1.343  1.00 20.00    -0.117 C 
HETATM    3  C9  UNL     1     -33.905  17.293  -2.727  1.00 20.00     0.097 C 
ENDROOT
BRANCH   3   4
HETATM    4  C7  UNL     1     -34.349  16.149  -3.635  1.00 20.00    -0.001 C 
HETATM    5  C4  UNL     1     -33.404  14.947  -3.494  1.00 20.00     0.005 C 
HETATM    6  C3  UNL     1     -33.856  13.767  -4.353  1.00 20.00     0.003 C 
HETATM    7  C5  UNL     1     -35.298  13.373  -4.051  1.00 20.00     0.032 C 
HETATM    8  C8  UNL     1     -36.245  14.563  -4.189  1.00 20.00     0.118 C 
HETATM    9  C6  UNL     1     -35.797  15.744  -3.328  1.00 20.00     0.037 C 
BRANCH   8  10
HETATM   10  O10 UNL     1     -37.561  14.171  -3.813  1.00 20.00    -0.396 OA
HETATM   11  H24 UNL     1     -38.141  14.397  -4.557  1.00 20.00     0.210 HD
ENDBRANCH   8  10
ENDBRANCH   3   4
TORSDOF 2
ENDMDL
MODEL 5
REMARK VINA RESULT:      -4.7      1.260      2.177
REMARK  2 active torsions:
REMARK  status: ('A' for Active; 'I' for Inactive)
REMARK    1  A    between atoms: C7_7  and  C9_9 
REMARK    2  A    between atoms: C8_8  and  O10_10 
ROOT
HETATM    1  C1  UNL     1     -31.789   8.431   2.188  1.00 20.00     0.012 C 
HETATM    2  C2  UNL     1     -32.421   7.425   2.361  1.00 20.00    -0.117 C 
HETATM    3  C9  UNL     1     -33.196   6.197   2.561  1.00 20.00     0.097 C 
ENDROOT
BRANCH   3   4
HETATM    4  C7  UNL     1     -33.265   5.828   4.041  1.00 20.00    -0.001 C 
HETATM    5  C4  UNL     1     -33.486   7.080   4.902  1.00 20.00     0.005 C 
HETATM    6  C3  UNL     1     -33.612   6.734   6.384  1.00 20.00     0.003 C 
HETATM    7  C5  UNL     1     -34.706   5.699   6.628  1.00 20.00     0.032 C 
HETATM    8  C8  UNL     1     -34.494   4.450   5.775  1.00 20.00     0.118 C 
HETATM    9  C6  UNL     1     -34.371   4.794   4.291  1.00 20.00     0.037 C 
BRANCH   8  10
HETATM   10  O10 UNL     1     -35.582   3.552   5.968  1.00 20.00    -0.396 OA
HETATM   11  H24 UNL     1     -36.026   3.824   6.786  1.00 20.00     0.210 HD
ENDBRANCH   8  10
ENDBRANCH   3   4
TORSDOF 2
ENDMDL
MODEL 6
REMARK VINA RESULT:      -4.7     11.223     11.837
REMARK  2 active torsions:
REMARK  status: ('A' for Active; 'I' for Inactive)
REMARK    1  A    between atoms: C7_7  and  C9_9 
REMARK    2  A    between atoms: C8_8  and  O10_10 
ROOT
HETATM    1  C1  UNL     1     -34.813  17.547   0.840  1.00 20.00     0.012 C 
HETATM    2  C2  UNL     1     -35.141  17.382  -0.303  1.00 20.00    -0.117 C 
HETATM    3  C9  UNL     1     -35.548  17.192  -1.698  1.00 20.00     0.097 C 
ENDROOT
BRANCH   3   4
HETATM    4  C7  UNL     1     -34.994  15.884  -2.256  1.00 20.00    -0.001 C 
HETATM    5  C4  UNL     1     -35.943  15.300  -3.313  1.00 20.00     0.005 C 
HETATM    6  C3  UNL     1     -35.386  14.017  -3.928  1.00 20.00     0.003 C 
HETATM    7  C5  UNL     1     -33.989  14.229  -4.500  1.00 20.00     0.032 C 
HETATM    8  C8  UNL     1     -33.038  14.810  -3.455  1.00 20.00     0.118 C 
HETATM    9  C6  UNL     1     -33.591  16.096  -2.841  1.00 20.00     0.037 C 
BRANCH   8  10
HETATM   10  O10 UNL     1     -31.774  15.073  -4.055  1.00 20.00    -0.396 OA
HETATM   11  H24 UNL     1     -31.888  15.860  -4.610  1.00 20.00     0.210 HD
ENDBRANCH   8  10
ENDBRANCH   3   4
TORSDOF 2
ENDMDL
MODEL 7
REMARK VINA RESULT:      -4.6     10.846     12.971
REMARK  2 active torsions:
REMARK  status: ('A' for Active; 'I' for Inactive)
REMARK    1  A    between atoms: C7_7  and  C9_9 
REMARK    2  A    between atoms: C8_8  and  O10_10 
ROOT
HETATM    1  C1  UNL     1     -36.728  17.681  -6.178  1.00 20.00     0.012 C 
HETATM    2  C2  UNL     1     -35.795  17.085  -6.643  1.00 20.00    -0.117 C 
HETATM    3  C9  UNL     1     -34.660  16.361  -7.221  1.00 20.00     0.097 C 
ENDROOT
BRANCH   3   4
HETATM    4  C7  UNL     1     -34.017  15.437  -6.190  1.00 20.00    -0.001 C 
HETATM    5  C4  UNL     1     -33.496  16.242  -4.991  1.00 20.00     0.005 C 
HETATM    6  C3  UNL     1     -32.895  15.335  -3.918  1.00 20.00     0.003 C 
HETATM    7  C5  UNL     1     -33.882  14.261  -3.473  1.00 20.00     0.032 C 
HETATM    8  C8  UNL     1     -34.405  13.456  -4.661  1.00 20.00     0.118 C 
HETATM    9  C6  UNL     1     -35.010  14.360  -5.734  1.00 20.00     0.037 C 
BRANCH   8  10
HETATM   10  O10 UNL     1     -35.386  12.527  -4.211  1.00 20.00    -0.396 OA
HETATM   11  H24 UNL     1     -36.140  13.049  -3.898  1.00 20.00     0.210 HD
ENDBRANCH   8  10
ENDBRANCH   3   4
TORSDOF 2
ENDMDL
MODEL 8
REMARK VINA RESULT:      -4.5      9.594     10.684
REMARK  2 active torsions:
REMARK  status: ('A' for Active; 'I' for Inactive)
REMARK    1  A    between atoms: C7_7  and  C9_9 
REMARK    2  A    between atoms: C8_8  and  O10_10 
ROOT
HETATM    1  C1  UNL     1     -41.900   9.111  -5.287  1.00 20.00     0.012 C 
HETATM    2  C2  UNL     1     -42.393   8.488  -4.387  1.00 20.00    -0.117 C 
HETATM    3  C9  UNL     1     -43.006   7.733  -3.291  1.00 20.00     0.097 C 
ENDROOT
BRANCH   3   4
HETATM    4  C7  UNL     1     -41.977   6.848  -2.592  1.00 20.00    -0.001 C 
HETATM    5  C4  UNL     1     -41.718   7.343  -1.162  1.00 20.00     0.005 C 
HETATM    6  C3  UNL     1     -40.731   6.443  -0.421  1.00 20.00     0.003 C 
HETATM    7  C5  UNL     1     -41.184   4.987  -0.427  1.00 20.00     0.032 C 
HETATM    8  C8  UNL     1     -41.444   4.487  -1.847  1.00 20.00     0.118 C 
HETATM    9  C6  UNL     1     -42.434   5.384  -2.589  1.00 20.00     0.037 C 
BRANCH   8  10
HETATM   10  O10 UNL     1     -41.948   3.157  -1.798  1.00 20.00    -0.396 OA
HETATM   11  H24 UNL     1     -42.601   3.081  -2.511  1.00 20.00     0.210 HD
ENDBRANCH   8  10
ENDBRANCH   3   4
TORSDOF 2
ENDMDL
MODEL 9
REMARK VINA RESULT:      -4.5     11.785     12.350
REMARK  2 active torsions:
REMARK  status: ('A' for Active; 'I' for Inactive)
REMARK    1  A    between atoms: C7_7  and  C9_9 
REMARK    2  A    between atoms: C8_8  and  O10_10 
ROOT
HETATM    1  C1  UNL     1     -34.897  17.114   0.136  1.00 20.00     0.012 C 
HETATM    2  C2  UNL     1     -34.312  16.969  -0.902  1.00 20.00    -0.117 C 
HETATM    3  C9  UNL     1     -33.591  16.802  -2.167  1.00 20.00     0.097 C 
ENDROOT
BRANCH   3   4
HETATM    4  C7  UNL     1     -34.207  15.686  -3.006  1.00 20.00    -0.001 C 
HETATM    5  C4  UNL     1     -35.740  15.744  -2.944  1.00 20.00     0.005 C 
HETATM    6  C3  UNL     1     -36.383  14.670  -3.818  1.00 20.00     0.003 C 
HETATM    7  C5  UNL     1     -35.887  14.745  -5.258  1.00 20.00     0.032 C 
HETATM    8  C8  UNL     1     -34.362  14.688  -5.328  1.00 20.00     0.118 C 
HETATM    9  C6  UNL     1     -33.716  15.764  -4.457  1.00 20.00     0.037 C 
BRANCH   8  10
HETATM   10  O10 UNL     1     -33.941  14.850  -6.679  1.00 20.00    -0.396 OA
HETATM   11  H24 UNL     1     -33.793  15.799  -6.812  1.00 20.00     0.210 HD
ENDBRANCH   8  10
ENDBRANCH   3   4
TORSDOF 2
ENDMDL
