MODEL 1
REMARK VINA RESULT:      -5.0      0.000      0.000
REMARK  1 active torsions:
REMARK  status: ('A' for Active; 'I' for Inactive)
REMARK    1  A    between atoms: C8_8  and  C10_10 
ROOT
HETATM    1  C1  UNL     1     -34.646  16.988  -0.535  1.00 20.00     0.012 C 
HETATM    2  C2  UNL     1     -34.525  16.286  -1.500  1.00 20.00    -0.117 C 
HETATM    3  C10 UNL     1     -34.360  15.426  -2.673  1.00 20.00     0.097 C 
ENDROOT
BRANCH   3   4
HETATM    4  C8  UNL     1     -35.656  15.355  -3.477  1.00 20.00    -0.002 C 
HETATM    5  C5  UNL     1     -35.850  14.003  -4.182  1.00 20.00     0.005 C 
HETATM    6  C3  UNL     1     -34.842  13.628  -5.262  1.00 20.00     0.000 C 
HETATM    7  C4  UNL     1     -34.754  14.609  -6.430  1.00 20.00     0.001 C 
HETATM    8  C6  UNL     1     -33.981  15.876  -6.079  1.00 20.00     0.020 C 
HETATM    9  C9  UNL     1     -34.804  16.971  -5.400  1.00 20.00     0.082 C 
HETATM   10  C7  UNL     1     -35.898  16.548  -4.415  1.00 20.00     0.025 C 
HETATM   11 CL11 UNL     1     -33.683  18.149  -4.634  1.00 20.00    -0.125 Cl
ENDBRANCH   3   4
TORSDOF 1
ENDMDL
MODEL 2
REMARK VINA RESULT:      -5.0      1.949      2.636
REMARK  1 active torsions:
REMARK  status: ('A' for Active; 'I' for Inactive)
REMARK    1  A    between atoms: C8_8  and  C10_10 
ROOT
HETATM    1  C1  UNL     1     -33.559  17.577  -0.754  1.00 20.00     0.012 C 
HETATM    2  C2  UNL     1     -34.205  16.871  -1.479  1.00 20.00    -0.117 C 
HETATM    3  C10 UNL     1     -35.007  16.020  -2.358  1.00 20.00     0.097 C 
ENDROOT
BRANCH   3   4
HETATM    4  C8  UNL     1     -34.134  14.966  -3.033  1.00 20.00    -0.002 C 
HETATM    5  C5  UNL     1     -32.980  15.574  -3.846  1.00 20.00     0.005 C 
HETATM    6  C3  UNL     1     -33.351  16.429  -5.053  1.00 20.00     0.000 C 
HETATM    7  C4  UNL     1     -34.177  15.713  -6.120  1.00 20.00     0.001 C 
HETATM    8  C6  UNL     1     -35.640  15.552  -5.724  1.00 20.00     0.020 C 
HETATM    9  C9  UNL     1     -35.946  14.326  -4.862  1.00 20.00     0.082 C 
HETATM   10  C7  UNL     1     -34.908  13.896  -3.820  1.00 20.00     0.025 C 
HETATM   11 CL11 UNL     1     -37.559  14.542  -4.098  1.00 20.00    -0.125 Cl
ENDBRANCH   3   4
TORSDOF 1
ENDMDL
MODEL 3
REMARK VINA RESULT:      -4.8      1.974      2.945
REMARK  1 active torsions:
REMARK  status: ('A' for Active; 'I' for Inactive)
REMARK    1  A    between atoms: C8_8  and  C10_10 
ROOT
HETATM    1  C1  UNL     1     -34.795  17.360   0.199  1.00 20.00     0.012 C 
HETATM    2  C2  UNL     1     -34.777  16.711  -0.811  1.00 20.00    -0.117 C 
HETATM    3  C10 UNL     1     -34.769  15.911  -2.036  1.00 20.00     0.097 C 
ENDROOT
BRANCH   3   4
HETATM    4  C8  UNL     1     -33.584  16.290  -2.921  1.00 20.00    -0.002 C 
HETATM    5  C5  UNL     1     -33.719  17.692  -3.537  1.00 20.00     0.005 C 
HETATM    6  C3  UNL     1     -34.868  17.916  -4.515  1.00 20.00     0.000 C 
HETATM    7  C4  UNL     1     -34.856  17.006  -5.742  1.00 20.00     0.001 C 
HETATM    8  C6  UNL     1     -35.332  15.591  -5.431  1.00 20.00     0.020 C 
HETATM    9  C9  UNL     1     -34.255  14.648  -4.893  1.00 20.00     0.082 C 
HETATM   10  C7  UNL     1     -33.188  15.227  -3.958  1.00 20.00     0.025 C 
HETATM   11 CL11 UNL     1     -35.054  13.225  -4.140  1.00 20.00    -0.125 Cl
ENDBRANCH   3   4
TORSDOF 1
ENDMDL
MODEL 4
REMARK VINA RESULT:      -4.6     12.236     13.422
REMARK  1 active torsions:
REMARK  status: ('A' for Active; 'I' for Inactive)
REMARK    1  A    between atoms: C8_8  and  C10_10 
ROOT
HETATM    1  C1  UNL     1     -31.882   8.003   2.119  1.00 20.00     0.012 C 
HETATM    2  C2  UNL     1     -32.154   7.325   3.071  1.00 20.00    -0.117 C 
HETATM    3  C10 UNL     1     -32.472   6.489   4.229  1.00 20.00     0.097 C 
ENDROOT
BRANCH   3   4
HETATM    4  C8  UNL     1     -33.769   6.950   4.889  1.00 20.00    -0.002 C 
HETATM    5  C5  UNL     1     -33.888   6.500   6.354  1.00 20.00     0.005 C 
HETATM    6  C3  UNL     1     -33.969   5.000   6.620  1.00 20.00     0.000 C 
HETATM    7  C4  UNL     1     -35.145   4.290   5.950  1.00 20.00     0.001 C 
HETATM    8  C6  UNL     1     -34.925   4.064   4.458  1.00 20.00     0.020 C 
HETATM    9  C9  UNL     1     -35.305   5.243   3.561  1.00 20.00     0.082 C 
HETATM   10  C7  UNL     1     -35.042   6.661   4.079  1.00 20.00     0.025 C 
HETATM   11 CL11 UNL     1     -34.551   5.009   1.946  1.00 20.00    -0.125 Cl
ENDBRANCH   3   4
TORSDOF 1
ENDMDL
MODEL 5
REMARK VINA RESULT:      -4.5      1.765      2.422
REMARK  1 active torsions:
REMARK  status: ('A' for Active; 'I' for Inactive)
REMARK    1  A    between atoms: C8_8  and  C10_10 
ROOT
HETATM    1  C1  UNL     1     -34.863  17.852   0.481  1.00 20.00     0.012 C 
HETATM    2  C2  UNL     1     -34.744  17.097  -0.443  1.00 20.00    -0.117 C 
HETATM    3  C10 UNL     1     -34.592  16.163  -1.560  1.00 20.00     0.097 C 
ENDROOT
BRANCH   3   4
HETATM    4  C8  UNL     1     -35.045  16.806  -2.868  1.00 20.00    -0.002 C 
HETATM    5  C5  UNL     1     -36.530  16.556  -3.176  1.00 20.00     0.005 C 
HETATM    6  C3  UNL     1     -36.958  15.113  -3.423  1.00 20.00     0.000 C 
HETATM    7  C4  UNL     1     -36.249  14.421  -4.587  1.00 20.00     0.001 C 
HETATM    8  C6  UNL     1     -34.828  13.992  -4.239  1.00 20.00     0.020 C 
HETATM    9  C9  UNL     1     -33.762  15.074  -4.415  1.00 20.00     0.082 C 
HETATM   10  C7  UNL     1     -34.138  16.521  -4.074  1.00 20.00     0.025 C 
HETATM   11 CL11 UNL     1     -32.279  14.579  -3.526  1.00 20.00    -0.125 Cl
ENDBRANCH   3   4
TORSDOF 1
ENDMDL
MODEL 6
REMARK VINA RESULT:      -4.5     11.194     12.962
REMARK  1 active torsions:
REMARK  status: ('A' for Active; 'I' for Inactive)
REMARK    1  A    between atoms: C8_8  and  C10_10 
ROOT
HETATM    1  C1  UNL     1     -42.672   8.914  -4.469  1.00 20.00     0.012 C 
HETATM    2  C2  UNL     1     -42.708   7.826  -3.963  1.00 20.00    -0.117 C 
HETATM    3  C10 UNL     1     -42.745   6.493  -3.360  1.00 20.00     0.097 C 
ENDROOT
BRANCH   3   4
HETATM    4  C8  UNL     1     -43.270   6.561  -1.929  1.00 20.00    -0.002 C 
HETATM    5  C5  UNL     1     -42.522   7.588  -1.064  1.00 20.00     0.005 C 
HETATM    6  C3  UNL     1     -41.043   7.329  -0.796  1.00 20.00     0.000 C 
HETATM    7  C4  UNL     1     -40.738   6.007  -0.093  1.00 20.00     0.001 C 
HETATM    8  C6  UNL     1     -40.828   4.807  -1.029  1.00 20.00     0.020 C 
HETATM    9  C9  UNL     1     -42.232   4.229  -1.208  1.00 20.00     0.082 C 
HETATM   10  C7  UNL     1     -43.417   5.200  -1.231  1.00 20.00     0.025 C 
HETATM   11 CL11 UNL     1     -42.246   3.177  -2.666  1.00 20.00    -0.125 Cl
ENDBRANCH   3   4
TORSDOF 1
ENDMDL
MODEL 7
REMARK VINA RESULT:      -4.4      1.934      3.562
REMARK  1 active torsions:
REMARK  status: ('A' for Active; 'I' for Inactive)
REMARK    1  A    between atoms: C8_8  and  C10_10 
ROOT
HETATM    1  C1  UNL     1     -38.153  15.827  -7.097  1.00 20.00     0.012 C 
HETATM    2  C2  UNL     1     -37.393  15.455  -6.246  1.00 20.00    -0.117 C 
HETATM    3  C10 UNL     1     -36.479  15.007  -5.195  1.00 20.00     0.097 C 
ENDROOT
BRANCH   3   4
HETATM    4  C8  UNL     1     -35.255  14.323  -5.800  1.00 20.00    -0.002 C 
HETATM    5  C5  UNL     1     -34.619  13.290  -4.856  1.00 20.00     0.005 C 
HETATM    6  C3  UNL     1     -34.020  13.809  -3.553  1.00 20.00     0.000 C 
HETATM    7  C4  UNL     1     -32.909  14.844  -3.723  1.00 20.00     0.001 C 
HETATM    8  C6  UNL     1     -33.440  16.226  -4.087  1.00 20.00     0.020 C 
HETATM    9  C9  UNL     1     -33.688  16.452  -5.579  1.00 20.00     0.082 C 
HETATM   10  C7  UNL     1     -34.218  15.279  -6.410  1.00 20.00     0.025 C 
HETATM   11 CL11 UNL     1     -34.738  17.898  -5.780  1.00 20.00    -0.125 Cl
ENDBRANCH   3   4
TORSDOF 1
ENDMDL
MODEL 8
REMARK VINA RESULT:      -4.4      1.777      2.984
REMARK  1 active torsions:
REMARK  status: ('A' for Active; 'I' for Inactive)
REMARK    1  A    between atoms: C8_8  and  C10_10 
ROOT
HETATM    1  C1  UNL     1     -38.691  14.722  -4.171  1.00 20.00     0.012 C 
HETATM    2  C2  UNL     1     -37.635  15.228  -4.435  1.00 20.00    -0.117 C 
HETATM    3  C10 UNL     1     -36.352  15.859  -4.748  1.00 20.00     0.097 C 
ENDROOT
BRANCH   3   4
HETATM    4  C8  UNL     1     -35.478  14.923  -5.579  1.00 20.00    -0.002 C 
HETATM    5  C5  UNL     1     -35.205  13.581  -4.882  1.00 20.00     0.005 C 
HETATM    6  C3  UNL     1     -34.402  13.618  -3.586  1.00 20.00     0.000 C 
HETATM    7  C4  UNL     1     -33.006  14.226  -3.711  1.00 20.00     0.001 C 
HETATM    8  C6  UNL     1     -33.031  15.748  -3.796  1.00 20.00     0.020 C 
HETATM    9  C9  UNL     1     -33.252  16.315  -5.199  1.00 20.00     0.082 C 
HETATM   10  C7  UNL     1     -34.200  15.566  -6.141  1.00 20.00     0.025 C 
HETATM   11 CL11 UNL     1     -33.733  18.042  -5.058  1.00 20.00    -0.125 Cl
ENDBRANCH   3   4
TORSDOF 1
ENDMDL
MODEL 9
REMARK VINA RESULT:      -4.4      1.751      3.686
REMARK  1 active torsions:
REMARK  status: ('A' for Active; 'I' for Inactive)
REMARK    1  A    between atoms: C8_8  and  C10_10 
ROOT
HETATM    1  C1  UNL     1     -33.661  19.218  -6.849  1.00 20.00     0.012 C 
HETATM    2  C2  UNL     1     -33.716  18.515  -5.878  1.00 20.00    -0.117 C 
HETATM    3  C10 UNL     1     -33.790  17.671  -4.685  1.00 20.00     0.097 C 
ENDROOT
BRANCH   3   4
HETATM    4  C8  UNL     1     -33.298  16.259  -4.990  1.00 20.00    -0.002 C 
HETATM    5  C5  UNL     1     -34.064  15.593  -6.145  1.00 20.00     0.005 C 
HETATM    6  C3  UNL     1     -35.549  15.320  -5.931  1.00 20.00     0.000 C 
HETATM    7  C4  UNL     1     -35.873  14.415  -4.743  1.00 20.00     0.001 C 
HETATM    8  C6  UNL     1     -35.763  15.138  -3.404  1.00 20.00     0.020 C 
HETATM    9  C9  UNL     1     -34.356  15.185  -2.807  1.00 20.00     0.082 C 
HETATM   10  C7  UNL     1     -33.169  15.342  -3.764  1.00 20.00     0.025 C 
HETATM   11 CL11 UNL     1     -34.310  16.449  -1.529  1.00 20.00    -0.125 Cl
ENDBRANCH   3   4
TORSDOF 1
ENDMDL
