MODEL 1
REMARK VINA RESULT:      -5.9      0.000      0.000
REMARK  2 active torsions:
REMARK  status: ('A' for Active; 'I' for Inactive)
REMARK    1  A    between atoms: C9_9  and  C11_11 
REMARK    2  A    between atoms: C10_10  and  C11_11 
ROOT
HETATM    1  C1  UNL     1     -32.453   9.451   0.771  1.00 20.00     0.012 C 
HETATM    2  C2  UNL     1     -32.168   8.717   1.678  1.00 20.00    -0.117 C 
HETATM    3  C10 UNL     1     -31.817   7.823   2.789  1.00 20.00     0.093 C 
ENDROOT
BRANCH   3   4
HETATM    4  C11 UNL     1     -32.567   6.514   2.656  1.00 20.00     0.017 C 
BRANCH   4   5
HETATM    5  C9  UNL     1     -33.104   6.060   4.019  1.00 20.00    -0.007 C 
HETATM    6  C5  UNL     1     -34.510   5.473   3.843  1.00 20.00     0.082 C 
HETATM    7  C3  UNL     1     -34.876   4.439   4.885  1.00 20.00     0.127 C 
HETATM    8  C4  UNL     1     -34.541   4.684   6.339  1.00 20.00     0.078 C 
HETATM    9  O12 UNL     1     -35.442   3.394   4.550  1.00 20.00    -0.298 OA
HETATM   10  C6  UNL     1     -34.599   6.146   6.762  1.00 20.00     0.007 C 
HETATM   11  C7  UNL     1     -33.310   6.904   6.454  1.00 20.00     0.001 C 
HETATM   12  C8  UNL     1     -33.105   7.259   4.983  1.00 20.00     0.005 C 
ENDBRANCH   4   5
ENDBRANCH   3   4
TORSDOF 2
ENDMDL
MODEL 2
REMARK VINA RESULT:      -5.7     11.485     12.890
REMARK  2 active torsions:
REMARK  status: ('A' for Active; 'I' for Inactive)
REMARK    1  A    between atoms: C9_9  and  C11_11 
REMARK    2  A    between atoms: C10_10  and  C11_11 
ROOT
HETATM    1  C1  UNL     1     -34.397  18.034   0.594  1.00 20.00     0.012 C 
HETATM    2  C2  UNL     1     -34.580  17.259  -0.304  1.00 20.00    -0.117 C 
HETATM    3  C10 UNL     1     -34.809  16.310  -1.402  1.00 20.00     0.093 C 
ENDROOT
BRANCH   3   4
HETATM    4  C11 UNL     1     -33.700  16.427  -2.426  1.00 20.00     0.017 C 
BRANCH   4   5
HETATM    5  C9  UNL     1     -34.172  15.914  -3.792  1.00 20.00    -0.007 C 
HETATM    6  C5  UNL     1     -33.753  14.447  -3.957  1.00 20.00     0.082 C 
HETATM    7  C3  UNL     1     -34.658  13.653  -4.874  1.00 20.00     0.127 C 
HETATM    8  C4  UNL     1     -35.132  14.259  -6.175  1.00 20.00     0.078 C 
HETATM    9  O12 UNL     1     -35.015  12.514  -4.557  1.00 20.00    -0.298 OA
HETATM   10  C6  UNL     1     -34.132  15.200  -6.834  1.00 20.00     0.007 C 
HETATM   11  C7  UNL     1     -34.199  16.620  -6.279  1.00 20.00     0.001 C 
HETATM   12  C8  UNL     1     -33.577  16.804  -4.896  1.00 20.00     0.005 C 
ENDBRANCH   4   5
ENDBRANCH   3   4
TORSDOF 2
ENDMDL
MODEL 3
REMARK VINA RESULT:      -5.6      1.639      2.444
REMARK  2 active torsions:
REMARK  status: ('A' for Active; 'I' for Inactive)
REMARK    1  A    between atoms: C9_9  and  C11_11 
REMARK    2  A    between atoms: C10_10  and  C11_11 
ROOT
HETATM    1  C1  UNL     1     -32.188   9.711   1.036  1.00 20.00     0.012 C 
HETATM    2  C2  UNL     1     -32.184   8.764   1.773  1.00 20.00    -0.117 C 
HETATM    3  C10 UNL     1     -32.175   7.607   2.678  1.00 20.00     0.093 C 
ENDROOT
BRANCH   3   4
HETATM    4  C11 UNL     1     -33.388   6.739   2.419  1.00 20.00     0.017 C 
BRANCH   4   5
HETATM    5  C9  UNL     1     -33.995   6.253   3.741  1.00 20.00    -0.007 C 
HETATM    6  C5  UNL     1     -32.967   6.424   4.867  1.00 20.00     0.082 C 
HETATM    7  C3  UNL     1     -33.585   6.622   6.234  1.00 20.00     0.127 C 
HETATM    8  C4  UNL     1     -34.758   5.769   6.661  1.00 20.00     0.078 C 
HETATM    9  O12 UNL     1     -33.136   7.481   6.999  1.00 20.00    -0.298 OA
HETATM   10  C6  UNL     1     -34.742   4.351   6.105  1.00 20.00     0.007 C 
HETATM   11  C7  UNL     1     -35.330   4.258   4.700  1.00 20.00     0.001 C 
HETATM   12  C8  UNL     1     -34.429   4.786   3.586  1.00 20.00     0.005 C 
ENDBRANCH   4   5
ENDBRANCH   3   4
TORSDOF 2
ENDMDL
MODEL 4
REMARK VINA RESULT:      -5.4     11.114     12.167
REMARK  2 active torsions:
REMARK  status: ('A' for Active; 'I' for Inactive)
REMARK    1  A    between atoms: C9_9  and  C11_11 
REMARK    2  A    between atoms: C10_10  and  C11_11 
ROOT
HETATM    1  C1  UNL     1     -33.641  18.884   1.317  1.00 20.00     0.012 C 
HETATM    2  C2  UNL     1     -34.148  18.060   0.607  1.00 20.00    -0.117 C 
HETATM    3  C10 UNL     1     -34.774  17.051  -0.259  1.00 20.00     0.093 C 
ENDROOT
BRANCH   3   4
HETATM    4  C11 UNL     1     -33.942  16.857  -1.509  1.00 20.00     0.017 C 
BRANCH   4   5
HETATM    5  C9  UNL     1     -34.578  15.799  -2.420  1.00 20.00    -0.007 C 
HETATM    6  C5  UNL     1     -33.504  15.208  -3.341  1.00 20.00     0.082 C 
HETATM    7  C3  UNL     1     -33.792  13.790  -3.785  1.00 20.00     0.127 C 
HETATM    8  C4  UNL     1     -35.188  13.407  -4.220  1.00 20.00     0.078 C 
HETATM    9  O12 UNL     1     -32.891  12.946  -3.786  1.00 20.00    -0.298 OA
HETATM   10  C6  UNL     1     -35.962  14.520  -4.913  1.00 20.00     0.007 C 
HETATM   11  C7  UNL     1     -36.649  15.464  -3.931  1.00 20.00     0.001 C 
HETATM   12  C8  UNL     1     -35.721  16.447  -3.221  1.00 20.00     0.005 C 
ENDBRANCH   4   5
ENDBRANCH   3   4
TORSDOF 2
ENDMDL
MODEL 5
REMARK VINA RESULT:      -5.2     11.525     13.029
REMARK  2 active torsions:
REMARK  status: ('A' for Active; 'I' for Inactive)
REMARK    1  A    between atoms: C9_9  and  C11_11 
REMARK    2  A    between atoms: C10_10  and  C11_11 
ROOT
HETATM    1  C1  UNL     1     -36.332  18.584  -2.328  1.00 20.00     0.012 C 
HETATM    2  C2  UNL     1     -35.643  17.688  -1.920  1.00 20.00    -0.117 C 
HETATM    3  C10 UNL     1     -34.805  16.592  -1.418  1.00 20.00     0.093 C 
ENDROOT
BRANCH   3   4
HETATM    4  C11 UNL     1     -33.634  16.368  -2.351  1.00 20.00     0.017 C 
BRANCH   4   5
HETATM    5  C9  UNL     1     -34.121  15.879  -3.720  1.00 20.00    -0.007 C 
HETATM    6  C5  UNL     1     -33.731  14.407  -3.904  1.00 20.00     0.082 C 
HETATM    7  C3  UNL     1     -34.655  13.640  -4.825  1.00 20.00     0.127 C 
HETATM    8  C4  UNL     1     -35.122  14.269  -6.118  1.00 20.00     0.078 C 
HETATM    9  O12 UNL     1     -35.031  12.504  -4.520  1.00 20.00    -0.298 OA
HETATM   10  C6  UNL     1     -34.107  15.198  -6.770  1.00 20.00     0.007 C 
HETATM   11  C7  UNL     1     -34.145  16.613  -6.199  1.00 20.00     0.001 C 
HETATM   12  C8  UNL     1     -33.514  16.770  -4.818  1.00 20.00     0.005 C 
ENDBRANCH   4   5
ENDBRANCH   3   4
TORSDOF 2
ENDMDL
MODEL 6
REMARK VINA RESULT:      -5.1     11.868     13.229
REMARK  2 active torsions:
REMARK  status: ('A' for Active; 'I' for Inactive)
REMARK    1  A    between atoms: C9_9  and  C11_11 
REMARK    2  A    between atoms: C10_10  and  C11_11 
ROOT
HETATM    1  C1  UNL     1     -34.535  17.922   0.786  1.00 20.00     0.012 C 
HETATM    2  C2  UNL     1     -34.596  17.188  -0.162  1.00 20.00    -0.117 C 
HETATM    3  C10 UNL     1     -34.677  16.289  -1.320  1.00 20.00     0.093 C 
ENDROOT
BRANCH   3   4
HETATM    4  C11 UNL     1     -33.647  16.688  -2.356  1.00 20.00     0.017 C 
BRANCH   4   5
HETATM    5  C9  UNL     1     -33.842  15.882  -3.647  1.00 20.00    -0.007 C 
HETATM    6  C5  UNL     1     -34.684  16.699  -4.635  1.00 20.00     0.082 C 
HETATM    7  C3  UNL     1     -34.413  16.369  -6.087  1.00 20.00     0.127 C 
HETATM    8  C4  UNL     1     -34.272  14.926  -6.517  1.00 20.00     0.078 C 
HETATM    9  O12 UNL     1     -34.302  17.275  -6.919  1.00 20.00    -0.298 OA
HETATM   10  C6  UNL     1     -35.133  13.946  -5.733  1.00 20.00     0.007 C 
HETATM   11  C7  UNL     1     -34.484  13.502  -4.425  1.00 20.00     0.001 C 
HETATM   12  C8  UNL     1     -34.510  14.539  -3.305  1.00 20.00     0.005 C 
ENDBRANCH   4   5
ENDBRANCH   3   4
TORSDOF 2
ENDMDL
MODEL 7
REMARK VINA RESULT:      -4.9     11.539     12.639
REMARK  2 active torsions:
REMARK  status: ('A' for Active; 'I' for Inactive)
REMARK    1  A    between atoms: C9_9  and  C11_11 
REMARK    2  A    between atoms: C10_10  and  C11_11 
ROOT
HETATM    1  C1  UNL     1     -35.176  17.698   1.039  1.00 20.00     0.012 C 
HETATM    2  C2  UNL     1     -34.796  17.205   0.012  1.00 20.00    -0.117 C 
HETATM    3  C10 UNL     1     -34.327  16.599  -1.241  1.00 20.00     0.093 C 
ENDROOT
BRANCH   3   4
HETATM    4  C11 UNL     1     -35.367  16.786  -2.326  1.00 20.00     0.017 C 
BRANCH   4   5
HETATM    5  C9  UNL     1     -35.102  15.830  -3.496  1.00 20.00    -0.007 C 
HETATM    6  C5  UNL     1     -36.439  15.385  -4.102  1.00 20.00     0.082 C 
HETATM    7  C3  UNL     1     -36.354  15.019  -5.568  1.00 20.00     0.127 C 
HETATM    8  C4  UNL     1     -35.197  14.185  -6.070  1.00 20.00     0.078 C 
HETATM    9  O12 UNL     1     -37.223  15.405  -6.355  1.00 20.00    -0.298 OA
HETATM   10  C6  UNL     1     -34.675  13.164  -5.069  1.00 20.00     0.007 C 
HETATM   11  C7  UNL     1     -33.672  13.758  -4.083  1.00 20.00     0.001 C 
HETATM   12  C8  UNL     1     -34.282  14.631  -2.989  1.00 20.00     0.005 C 
ENDBRANCH   4   5
ENDBRANCH   3   4
TORSDOF 2
ENDMDL
MODEL 8
REMARK VINA RESULT:      -4.7     11.636     13.013
REMARK  2 active torsions:
REMARK  status: ('A' for Active; 'I' for Inactive)
REMARK    1  A    between atoms: C9_9  and  C11_11 
REMARK    2  A    between atoms: C10_10  and  C11_11 
ROOT
HETATM    1  C1  UNL     1     -34.774  16.703  -1.045  1.00 20.00     0.012 C 
HETATM    2  C2  UNL     1     -34.043  16.364  -1.936  1.00 20.00    -0.117 C 
HETATM    3  C10 UNL     1     -33.145  15.953  -3.023  1.00 20.00     0.093 C 
ENDROOT
BRANCH   3   4
HETATM    4  C11 UNL     1     -33.704  14.731  -3.720  1.00 20.00     0.017 C 
BRANCH   4   5
HETATM    5  C9  UNL     1     -34.953  15.097  -4.532  1.00 20.00    -0.007 C 
HETATM    6  C5  UNL     1     -36.060  14.072  -4.255  1.00 20.00     0.082 C 
HETATM    7  C3  UNL     1     -37.459  14.623  -4.425  1.00 20.00     0.127 C 
HETATM    8  C4  UNL     1     -37.783  15.503  -5.611  1.00 20.00     0.078 C 
HETATM    9  O12 UNL     1     -38.334  14.359  -3.594  1.00 20.00    -0.298 OA
HETATM   10  C6  UNL     1     -37.014  15.160  -6.880  1.00 20.00     0.007 C 
HETATM   11  C7  UNL     1     -35.630  15.801  -6.925  1.00 20.00     0.001 C 
HETATM   12  C8  UNL     1     -34.584  15.147  -6.025  1.00 20.00     0.005 C 
ENDBRANCH   4   5
ENDBRANCH   3   4
TORSDOF 2
ENDMDL
MODEL 9
REMARK VINA RESULT:      -4.6     10.120     11.522
REMARK  2 active torsions:
REMARK  status: ('A' for Active; 'I' for Inactive)
REMARK    1  A    between atoms: C9_9  and  C11_11 
REMARK    2  A    between atoms: C10_10  and  C11_11 
ROOT
HETATM    1  C1  UNL     1     -41.982   0.622  -4.419  1.00 20.00     0.012 C 
HETATM    2  C2  UNL     1     -41.787   1.566  -3.703  1.00 20.00    -0.117 C 
HETATM    3  C10 UNL     1     -41.543   2.719  -2.826  1.00 20.00     0.093 C 
ENDROOT
BRANCH   3   4
HETATM    4  C11 UNL     1     -42.717   3.673  -2.891  1.00 20.00     0.017 C 
BRANCH   4   5
HETATM    5  C9  UNL     1     -42.426   4.940  -2.077  1.00 20.00    -0.007 C 
HETATM    6  C5  UNL     1     -42.329   6.143  -3.025  1.00 20.00     0.082 C 
HETATM    7  C3  UNL     1     -42.700   7.461  -2.380  1.00 20.00     0.127 C 
HETATM    8  C4  UNL     1     -42.194   7.788  -0.993  1.00 20.00     0.078 C 
HETATM    9  O12 UNL     1     -43.417   8.265  -2.981  1.00 20.00    -0.298 OA
HETATM   10  C6  UNL     1     -40.817   7.222  -0.673  1.00 20.00     0.007 C 
HETATM   11  C7  UNL     1     -40.869   5.775  -0.190  1.00 20.00     0.001 C 
HETATM   12  C8  UNL     1     -41.125   4.738  -1.281  1.00 20.00     0.005 C 
ENDBRANCH   4   5
ENDBRANCH   3   4
TORSDOF 2
ENDMDL
