MODEL 1
REMARK VINA RESULT:      -5.5      0.000      0.000
REMARK  1 active torsions:
REMARK  status: ('A' for Active; 'I' for Inactive)
REMARK    1  A    between atoms: C7_7  and  C9_9 
ROOT
HETATM    1  C1  UNL     1     -32.179   8.767   1.252  1.00 20.00     0.012 C 
HETATM    2  C2  UNL     1     -32.035   8.061   2.212  1.00 20.00    -0.117 C 
HETATM    3  C9  UNL     1     -31.848   7.198   3.382  1.00 20.00     0.097 C 
ENDROOT
BRANCH   3   4
HETATM    4  C7  UNL     1     -33.192   6.767   3.965  1.00 20.00    -0.002 C 
HETATM    5  C4  UNL     1     -33.101   6.635   5.492  1.00 20.00     0.005 C 
HETATM    6  C3  UNL     1     -34.412   6.146   6.101  1.00 20.00     0.002 C 
HETATM    7  C5  UNL     1     -34.875   4.837   5.463  1.00 20.00     0.020 C 
HETATM    8  C8  UNL     1     -34.957   4.912   3.937  1.00 20.00     0.082 C 
HETATM    9  C6  UNL     1     -33.657   5.446   3.330  1.00 20.00     0.025 C 
HETATM   10 CL10 UNL     1     -36.346   5.927   3.435  1.00 20.00    -0.125 Cl
ENDBRANCH   3   4
TORSDOF 1
ENDMDL
MODEL 2
REMARK VINA RESULT:      -5.1      1.389      2.140
REMARK  1 active torsions:
REMARK  status: ('A' for Active; 'I' for Inactive)
REMARK    1  A    between atoms: C7_7  and  C9_9 
ROOT
HETATM    1  C1  UNL     1     -32.149   8.669   1.438  1.00 20.00     0.012 C 
HETATM    2  C2  UNL     1     -31.932   8.069   2.455  1.00 20.00    -0.117 C 
HETATM    3  C9  UNL     1     -31.658   7.343   3.698  1.00 20.00     0.097 C 
ENDROOT
BRANCH   3   4
HETATM    4  C7  UNL     1     -32.715   6.270   3.950  1.00 20.00    -0.002 C 
HETATM    5  C4  UNL     1     -33.518   5.993   2.672  1.00 20.00     0.005 C 
HETATM    6  C3  UNL     1     -34.625   4.967   2.904  1.00 20.00     0.002 C 
HETATM    7  C5  UNL     1     -35.545   5.382   4.052  1.00 20.00     0.020 C 
HETATM    8  C8  UNL     1     -34.786   5.695   5.344  1.00 20.00     0.082 C 
HETATM    9  C6  UNL     1     -33.647   6.688   5.100  1.00 20.00     0.025 C 
HETATM   10 CL10 UNL     1     -34.154   4.186   6.078  1.00 20.00    -0.125 Cl
ENDBRANCH   3   4
TORSDOF 1
ENDMDL
MODEL 3
REMARK VINA RESULT:      -4.8     11.053     11.949
REMARK  1 active torsions:
REMARK  status: ('A' for Active; 'I' for Inactive)
REMARK    1  A    between atoms: C7_7  and  C9_9 
ROOT
HETATM    1  C1  UNL     1     -34.810  17.069  -0.028  1.00 20.00     0.012 C 
HETATM    2  C2  UNL     1     -34.304  16.764  -1.073  1.00 20.00    -0.117 C 
HETATM    3  C9  UNL     1     -33.678  16.400  -2.347  1.00 20.00     0.097 C 
ENDROOT
BRANCH   3   4
HETATM    4  C7  UNL     1     -34.545  15.409  -3.120  1.00 20.00    -0.002 C 
HETATM    5  C4  UNL     1     -33.688  14.268  -3.685  1.00 20.00     0.005 C 
HETATM    6  C3  UNL     1     -34.516  13.291  -4.516  1.00 20.00     0.002 C 
HETATM    7  C5  UNL     1     -35.281  14.006  -5.629  1.00 20.00     0.020 C 
HETATM    8  C8  UNL     1     -36.131  15.170  -5.117  1.00 20.00     0.082 C 
HETATM    9  C6  UNL     1     -35.311  16.125  -4.245  1.00 20.00     0.025 C 
HETATM   10 CL10 UNL     1     -37.550  14.557  -4.209  1.00 20.00    -0.125 Cl
ENDBRANCH   3   4
TORSDOF 1
ENDMDL
MODEL 4
REMARK VINA RESULT:      -4.7     11.370     12.315
REMARK  1 active torsions:
REMARK  status: ('A' for Active; 'I' for Inactive)
REMARK    1  A    between atoms: C7_7  and  C9_9 
ROOT
HETATM    1  C1  UNL     1     -32.848  18.518  -0.249  1.00 20.00     0.012 C 
HETATM    2  C2  UNL     1     -33.640  17.704  -0.638  1.00 20.00    -0.117 C 
HETATM    3  C9  UNL     1     -34.614  16.712  -1.103  1.00 20.00     0.097 C 
ENDROOT
BRANCH   3   4
HETATM    4  C7  UNL     1     -34.157  16.069  -2.411  1.00 20.00    -0.002 C 
HETATM    5  C4  UNL     1     -33.756  17.144  -3.430  1.00 20.00     0.005 C 
HETATM    6  C3  UNL     1     -33.352  16.537  -4.772  1.00 20.00     0.002 C 
HETATM    7  C5  UNL     1     -34.448  15.631  -5.332  1.00 20.00     0.020 C 
HETATM    8  C8  UNL     1     -34.901  14.557  -4.341  1.00 20.00     0.082 C 
HETATM    9  C6  UNL     1     -35.261  15.162  -2.981  1.00 20.00     0.025 C 
HETATM   10 CL10 UNL     1     -33.631  13.306  -4.151  1.00 20.00    -0.125 Cl
ENDBRANCH   3   4
TORSDOF 1
ENDMDL
MODEL 5
REMARK VINA RESULT:      -4.4     11.333     11.990
REMARK  1 active torsions:
REMARK  status: ('A' for Active; 'I' for Inactive)
REMARK    1  A    between atoms: C7_7  and  C9_9 
ROOT
HETATM    1  C1  UNL     1     -34.789  17.014  -0.052  1.00 20.00     0.012 C 
HETATM    2  C2  UNL     1     -34.285  17.062  -1.141  1.00 20.00    -0.117 C 
HETATM    3  C9  UNL     1     -33.663  17.130  -2.466  1.00 20.00     0.097 C 
ENDROOT
BRANCH   3   4
HETATM    4  C7  UNL     1     -34.370  16.201  -3.451  1.00 20.00    -0.002 C 
HETATM    5  C4  UNL     1     -35.693  15.694  -2.861  1.00 20.00     0.005 C 
HETATM    6  C3  UNL     1     -36.396  14.713  -3.795  1.00 20.00     0.002 C 
HETATM    7  C5  UNL     1     -35.484  13.549  -4.178  1.00 20.00     0.020 C 
HETATM    8  C8  UNL     1     -34.140  14.004  -4.749  1.00 20.00     0.082 C 
HETATM    9  C6  UNL     1     -33.457  15.024  -3.833  1.00 20.00     0.025 C 
HETATM   10 CL10 UNL     1     -34.357  14.688  -6.392  1.00 20.00    -0.125 Cl
ENDBRANCH   3   4
TORSDOF 1
ENDMDL
MODEL 6
REMARK VINA RESULT:      -4.4     11.783     12.533
REMARK  1 active torsions:
REMARK  status: ('A' for Active; 'I' for Inactive)
REMARK    1  A    between atoms: C7_7  and  C9_9 
ROOT
HETATM    1  C1  UNL     1     -33.054  18.452  -0.218  1.00 20.00     0.012 C 
HETATM    2  C2  UNL     1     -33.782  17.569  -0.581  1.00 20.00    -0.117 C 
HETATM    3  C9  UNL     1     -34.673  16.488  -1.012  1.00 20.00     0.097 C 
ENDROOT
BRANCH   3   4
HETATM    4  C7  UNL     1     -34.697  16.374  -2.535  1.00 20.00    -0.002 C 
HETATM    5  C4  UNL     1     -35.768  15.371  -2.985  1.00 20.00     0.005 C 
HETATM    6  C3  UNL     1     -35.777  15.187  -4.500  1.00 20.00     0.002 C 
HETATM    7  C5  UNL     1     -34.399  14.792  -5.028  1.00 20.00     0.020 C 
HETATM    8  C8  UNL     1     -33.291  15.750  -4.584  1.00 20.00     0.082 C 
HETATM    9  C6  UNL     1     -33.313  15.970  -3.069  1.00 20.00     0.025 C 
HETATM   10 CL10 UNL     1     -33.437  17.316  -5.444  1.00 20.00    -0.125 Cl
ENDBRANCH   3   4
TORSDOF 1
ENDMDL
MODEL 7
REMARK VINA RESULT:      -4.3     11.962     13.251
REMARK  1 active torsions:
REMARK  status: ('A' for Active; 'I' for Inactive)
REMARK    1  A    between atoms: C7_7  and  C9_9 
ROOT
HETATM    1  C1  UNL     1     -34.769  16.743  -1.066  1.00 20.00     0.012 C 
HETATM    2  C2  UNL     1     -34.158  16.242  -1.970  1.00 20.00    -0.117 C 
HETATM    3  C9  UNL     1     -33.402  15.629  -3.066  1.00 20.00     0.097 C 
ENDROOT
BRANCH   3   4
HETATM    4  C7  UNL     1     -34.223  15.611  -4.354  1.00 20.00    -0.002 C 
HETATM    5  C4  UNL     1     -34.358  14.179  -4.888  1.00 20.00     0.005 C 
HETATM    6  C3  UNL     1     -35.122  14.133  -6.209  1.00 20.00     0.002 C 
HETATM    7  C5  UNL     1     -34.493  15.052  -7.255  1.00 20.00     0.020 C 
HETATM    8  C8  UNL     1     -34.314  16.489  -6.759  1.00 20.00     0.082 C 
HETATM    9  C6  UNL     1     -33.589  16.531  -5.411  1.00 20.00     0.025 C 
HETATM   10 CL10 UNL     1     -35.902  17.312  -6.640  1.00 20.00    -0.125 Cl
ENDBRANCH   3   4
TORSDOF 1
ENDMDL
MODEL 8
REMARK VINA RESULT:      -4.2     11.446     12.355
REMARK  1 active torsions:
REMARK  status: ('A' for Active; 'I' for Inactive)
REMARK    1  A    between atoms: C7_7  and  C9_9 
ROOT
HETATM    1  C1  UNL     1     -33.232  19.054  -1.484  1.00 20.00     0.012 C 
HETATM    2  C2  UNL     1     -33.780  18.020  -1.212  1.00 20.00    -0.117 C 
HETATM    3  C9  UNL     1     -34.448  16.762  -0.869  1.00 20.00     0.097 C 
ENDROOT
BRANCH   3   4
HETATM    4  C7  UNL     1     -34.780  15.958  -2.125  1.00 20.00    -0.002 C 
HETATM    5  C4  UNL     1     -33.513  15.701  -2.952  1.00 20.00     0.005 C 
HETATM    6  C3  UNL     1     -33.819  14.952  -4.246  1.00 20.00     0.002 C 
HETATM    7  C5  UNL     1     -34.880  15.673  -5.076  1.00 20.00     0.020 C 
HETATM    8  C8  UNL     1     -36.155  15.975  -4.286  1.00 20.00     0.082 C 
HETATM    9  C6  UNL     1     -35.843  16.685  -2.966  1.00 20.00     0.025 C 
HETATM   10 CL10 UNL     1     -37.074  14.466  -3.981  1.00 20.00    -0.125 Cl
ENDBRANCH   3   4
TORSDOF 1
ENDMDL
MODEL 9
REMARK VINA RESULT:      -4.2      9.537     10.518
REMARK  1 active torsions:
REMARK  status: ('A' for Active; 'I' for Inactive)
REMARK    1  A    between atoms: C7_7  and  C9_9 
ROOT
HETATM    1  C1  UNL     1     -42.293   8.399  -4.534  1.00 20.00     0.012 C 
HETATM    2  C2  UNL     1     -42.796   8.249  -3.454  1.00 20.00    -0.117 C 
HETATM    3  C9  UNL     1     -43.417   8.076  -2.139  1.00 20.00     0.097 C 
ENDROOT
BRANCH   3   4
HETATM    4  C7  UNL     1     -42.815   6.881  -1.402  1.00 20.00    -0.002 C 
HETATM    5  C4  UNL     1     -41.367   7.176  -0.987  1.00 20.00     0.005 C 
HETATM    6  C3  UNL     1     -40.714   5.979  -0.302  1.00 20.00     0.002 C 
HETATM    7  C5  UNL     1     -40.792   4.723  -1.168  1.00 20.00     0.020 C 
HETATM    8  C8  UNL     1     -42.216   4.401  -1.629  1.00 20.00     0.082 C 
HETATM    9  C6  UNL     1     -42.886   5.617  -2.275  1.00 20.00     0.025 C 
HETATM   10 CL10 UNL     1     -43.197   3.803  -0.253  1.00 20.00    -0.125 Cl
ENDBRANCH   3   4
TORSDOF 1
ENDMDL
