MODEL 1
REMARK VINA RESULT:      -5.0      0.000      0.000
REMARK  1 active torsions:
REMARK  status: ('A' for Active; 'I' for Inactive)
REMARK    1  A    between atoms: C4_4  and  C8_8 
ROOT
HETATM    1  C1  UNL     1     -35.214  13.209  -4.573  1.00 20.00     0.135 A 
HETATM    2  C2  UNL     1     -36.068  14.198  -4.136  1.00 20.00     0.136 A 
HETATM    3  C3  UNL     1     -33.473  14.244  -3.510  1.00 20.00     0.143 A 
HETATM    4  C4  UNL     1     -34.327  15.233  -3.074  1.00 20.00     0.056 A 
HETATM    5  N10 UNL     1     -33.900  13.214  -4.268  1.00 20.00    -0.270 NA
HETATM    6  N11 UNL     1     -35.640  15.228  -3.380  1.00 20.00    -0.262 NA
ENDROOT
BRANCH   4   7
HETATM    7  C8  UNL     1     -33.810  16.375  -2.226  1.00 20.00     0.041 C 
HETATM    8  C5  UNL     1     -33.815  17.777  -2.853  1.00 20.00     0.012 C 
HETATM    9  C6  UNL     1     -33.645  18.690  -1.649  1.00 20.00     0.021 C 
HETATM   10  C9  UNL     1     -34.602  18.081  -0.636  1.00 20.00     0.083 C 
HETATM   11  C7  UNL     1     -34.568  16.571  -0.891  1.00 20.00     0.031 C 
HETATM   12 CL12 UNL     1     -34.164  18.503   1.028  1.00 20.00    -0.125 Cl
ENDBRANCH   4   7
TORSDOF 1
ENDMDL
MODEL 2
REMARK VINA RESULT:      -4.5      3.290      5.210
REMARK  1 active torsions:
REMARK  status: ('A' for Active; 'I' for Inactive)
REMARK    1  A    between atoms: C4_4  and  C8_8 
ROOT
HETATM    1  C1  UNL     1     -34.234  18.281  -0.803  1.00 20.00     0.135 A 
HETATM    2  C2  UNL     1     -33.749  18.634  -2.043  1.00 20.00     0.136 A 
HETATM    3  C3  UNL     1     -34.578  16.146  -1.546  1.00 20.00     0.143 A 
HETATM    4  C4  UNL     1     -34.094  16.499  -2.786  1.00 20.00     0.056 A 
HETATM    5  N10 UNL     1     -34.658  17.030  -0.532  1.00 20.00    -0.270 NA
HETATM    6  N11 UNL     1     -33.671  17.750  -3.057  1.00 20.00    -0.262 NA
ENDROOT
BRANCH   4   7
HETATM    7  C8  UNL     1     -34.020  15.478  -3.902  1.00 20.00     0.041 C 
HETATM    8  C5  UNL     1     -34.346  14.020  -3.545  1.00 20.00     0.012 C 
HETATM    9  C6  UNL     1     -34.580  13.379  -4.904  1.00 20.00     0.021 C 
HETATM   10  C9  UNL     1     -35.438  14.416  -5.613  1.00 20.00     0.083 C 
HETATM   11  C7  UNL     1     -34.952  15.776  -5.101  1.00 20.00     0.031 C 
HETATM   12 CL12 UNL     1     -35.332  14.272  -7.375  1.00 20.00    -0.125 Cl
ENDBRANCH   4   7
TORSDOF 1
ENDMDL
MODEL 3
REMARK VINA RESULT:      -4.5      3.191      5.160
REMARK  1 active torsions:
REMARK  status: ('A' for Active; 'I' for Inactive)
REMARK    1  A    between atoms: C4_4  and  C8_8 
ROOT
HETATM    1  C1  UNL     1     -34.422  18.412  -0.480  1.00 20.00     0.135 A 
HETATM    2  C2  UNL     1     -34.720  17.077  -0.320  1.00 20.00     0.136 A 
HETATM    3  C3  UNL     1     -33.748  18.004  -2.627  1.00 20.00     0.143 A 
HETATM    4  C4  UNL     1     -34.046  16.669  -2.467  1.00 20.00     0.056 A 
HETATM    5  N10 UNL     1     -33.930  18.900  -1.636  1.00 20.00    -0.270 NA
HETATM    6  N11 UNL     1     -34.537  16.181  -1.310  1.00 20.00    -0.262 NA
ENDROOT
BRANCH   4   7
HETATM    7  C8  UNL     1     -33.827  15.692  -3.602  1.00 20.00     0.041 C 
HETATM    8  C5  UNL     1     -34.391  14.273  -3.429  1.00 20.00     0.012 C 
HETATM    9  C6  UNL     1     -34.368  13.721  -4.846  1.00 20.00     0.021 C 
HETATM   10  C9  UNL     1     -34.911  14.885  -5.661  1.00 20.00     0.083 C 
HETATM   11  C7  UNL     1     -34.408  16.151  -4.960  1.00 20.00     0.031 C 
HETATM   12 CL12 UNL     1     -34.408  14.798  -7.357  1.00 20.00    -0.125 Cl
ENDBRANCH   4   7
TORSDOF 1
ENDMDL
MODEL 4
REMARK VINA RESULT:      -4.3     12.721     15.000
REMARK  1 active torsions:
REMARK  status: ('A' for Active; 'I' for Inactive)
REMARK    1  A    between atoms: C4_4  and  C8_8 
ROOT
HETATM    1  C1  UNL     1     -41.060   6.923  -1.049  1.00 20.00     0.135 A 
HETATM    2  C2  UNL     1     -42.035   6.907  -2.022  1.00 20.00     0.136 A 
HETATM    3  C3  UNL     1     -40.967   4.638  -1.105  1.00 20.00     0.143 A 
HETATM    4  C4  UNL     1     -41.943   4.623  -2.078  1.00 20.00     0.056 A 
HETATM    5  N10 UNL     1     -40.509   5.789  -0.573  1.00 20.00    -0.270 NA
HETATM    6  N11 UNL     1     -42.495   5.757  -2.554  1.00 20.00    -0.262 NA
ENDROOT
BRANCH   4   7
HETATM    7  C8  UNL     1     -42.434   3.311  -2.652  1.00 20.00     0.041 C 
HETATM    8  C5  UNL     1     -43.417   3.382  -3.831  1.00 20.00     0.012 C 
HETATM    9  C6  UNL     1     -43.371   1.973  -4.400  1.00 20.00     0.021 C 
HETATM   10  C9  UNL     1     -41.881   1.668  -4.401  1.00 20.00     0.083 C 
HETATM   11  C7  UNL     1     -41.311   2.382  -3.172  1.00 20.00     0.031 C 
HETATM   12 CL12 UNL     1     -41.561  -0.075  -4.388  1.00 20.00    -0.125 Cl
ENDBRANCH   4   7
TORSDOF 1
ENDMDL
MODEL 5
REMARK VINA RESULT:      -4.2      3.285      5.277
REMARK  1 active torsions:
REMARK  status: ('A' for Active; 'I' for Inactive)
REMARK    1  A    between atoms: C4_4  and  C8_8 
ROOT
HETATM    1  C1  UNL     1     -33.391  18.811   1.220  1.00 20.00     0.135 A 
HETATM    2  C2  UNL     1     -32.722  18.647   0.027  1.00 20.00     0.136 A 
HETATM    3  C3  UNL     1     -35.004  17.350   0.516  1.00 20.00     0.143 A 
HETATM    4  C4  UNL     1     -34.336  17.188  -0.677  1.00 20.00     0.056 A 
HETATM    5  N10 UNL     1     -34.544  18.166   1.486  1.00 20.00    -0.270 NA
HETATM    6  N11 UNL     1     -33.183  17.833  -0.943  1.00 20.00    -0.262 NA
ENDROOT
BRANCH   4   7
HETATM    7  C8  UNL     1     -34.883  16.264  -1.744  1.00 20.00     0.041 C 
HETATM    8  C5  UNL     1     -36.011  16.807  -2.635  1.00 20.00     0.012 C 
HETATM    9  C6  UNL     1     -36.024  15.833  -3.802  1.00 20.00     0.021 C 
HETATM   10  C9  UNL     1     -34.543  15.667  -4.109  1.00 20.00     0.083 C 
HETATM   11  C7  UNL     1     -33.827  15.764  -2.758  1.00 20.00     0.031 C 
HETATM   12 CL12 UNL     1     -34.206  14.147  -4.953  1.00 20.00    -0.125 Cl
ENDBRANCH   4   7
TORSDOF 1
ENDMDL
MODEL 6
REMARK VINA RESULT:      -4.2      1.698      2.232
REMARK  1 active torsions:
REMARK  status: ('A' for Active; 'I' for Inactive)
REMARK    1  A    between atoms: C4_4  and  C8_8 
ROOT
HETATM    1  C1  UNL     1     -36.430  15.794  -4.014  1.00 20.00     0.135 A 
HETATM    2  C2  UNL     1     -36.803  16.904  -3.290  1.00 20.00     0.136 A 
HETATM    3  C3  UNL     1     -34.648  15.479  -2.616  1.00 20.00     0.143 A 
HETATM    4  C4  UNL     1     -35.021  16.590  -1.892  1.00 20.00     0.056 A 
HETATM    5  N10 UNL     1     -35.346  15.061  -3.691  1.00 20.00    -0.270 NA
HETATM    6  N11 UNL     1     -36.104  17.323  -2.216  1.00 20.00    -0.262 NA
ENDROOT
BRANCH   4   7
HETATM    7  C8  UNL     1     -34.211  17.031  -0.691  1.00 20.00     0.041 C 
HETATM    8  C5  UNL     1     -33.308  18.262  -0.863  1.00 20.00     0.012 C 
HETATM    9  C6  UNL     1     -32.991  18.656   0.571  1.00 20.00     0.021 C 
HETATM   10  C9  UNL     1     -34.346  18.539   1.252  1.00 20.00     0.083 C 
HETATM   11  C7  UNL     1     -35.058  17.373   0.558  1.00 20.00     0.031 C 
HETATM   12 CL12 UNL     1     -34.191  18.301   3.001  1.00 20.00    -0.125 Cl
ENDBRANCH   4   7
TORSDOF 1
ENDMDL
MODEL 7
REMARK VINA RESULT:      -4.2      3.248      5.057
REMARK  1 active torsions:
REMARK  status: ('A' for Active; 'I' for Inactive)
REMARK    1  A    between atoms: C4_4  and  C8_8 
ROOT
HETATM    1  C1  UNL     1     -36.339  18.408   0.516  1.00 20.00     0.135 A 
HETATM    2  C2  UNL     1     -35.278  17.540   0.648  1.00 20.00     0.136 A 
HETATM    3  C3  UNL     1     -36.409  17.979  -1.730  1.00 20.00     0.143 A 
HETATM    4  C4  UNL     1     -35.347  17.111  -1.597  1.00 20.00     0.056 A 
HETATM    5  N10 UNL     1     -36.924  18.644  -0.676  1.00 20.00    -0.270 NA
HETATM    6  N11 UNL     1     -34.763  16.876  -0.405  1.00 20.00    -0.262 NA
ENDROOT
BRANCH   4   7
HETATM    7  C8  UNL     1     -34.795  16.383  -2.803  1.00 20.00     0.041 C 
HETATM    8  C5  UNL     1     -33.291  16.069  -2.809  1.00 20.00     0.012 C 
HETATM    9  C6  UNL     1     -33.165  15.019  -3.902  1.00 20.00     0.021 C 
HETATM   10  C9  UNL     1     -34.344  14.101  -3.613  1.00 20.00     0.083 C 
HETATM   11  C7  UNL     1     -35.454  15.010  -3.076  1.00 20.00     0.031 C 
HETATM   12 CL12 UNL     1     -34.841  13.190  -5.049  1.00 20.00    -0.125 Cl
ENDBRANCH   4   7
TORSDOF 1
ENDMDL
MODEL 8
REMARK VINA RESULT:      -4.2      4.253      6.304
REMARK  1 active torsions:
REMARK  status: ('A' for Active; 'I' for Inactive)
REMARK    1  A    between atoms: C4_4  and  C8_8 
ROOT
HETATM    1  C1  UNL     1     -32.931  18.610   4.407  1.00 20.00     0.135 A 
HETATM    2  C2  UNL     1     -34.181  18.140   4.067  1.00 20.00     0.136 A 
HETATM    3  C3  UNL     1     -32.447  18.923   2.194  1.00 20.00     0.143 A 
HETATM    4  C4  UNL     1     -33.697  18.452   1.855  1.00 20.00     0.056 A 
HETATM    5  N10 UNL     1     -32.042  19.011   3.477  1.00 20.00    -0.270 NA
HETATM    6  N11 UNL     1     -34.586  18.051   2.785  1.00 20.00    -0.262 NA
ENDROOT
BRANCH   4   7
HETATM    7  C8  UNL     1     -34.117  18.367   0.403  1.00 20.00     0.041 C 
HETATM    8  C5  UNL     1     -33.028  18.584  -0.660  1.00 20.00     0.012 C 
HETATM    9  C6  UNL     1     -33.671  18.037  -1.924  1.00 20.00     0.021 C 
HETATM   10  C9  UNL     1     -34.303  16.742  -1.438  1.00 20.00     0.083 C 
HETATM   11  C7  UNL     1     -34.753  17.015   0.001  1.00 20.00     0.031 C 
HETATM   12 CL12 UNL     1     -35.636  16.221  -2.483  1.00 20.00    -0.125 Cl
ENDBRANCH   4   7
TORSDOF 1
ENDMDL
MODEL 9
REMARK VINA RESULT:      -4.1      1.536      1.662
REMARK  1 active torsions:
REMARK  status: ('A' for Active; 'I' for Inactive)
REMARK    1  A    between atoms: C4_4  and  C8_8 
ROOT
HETATM    1  C1  UNL     1     -34.807  14.097  -5.938  1.00 20.00     0.135 A 
HETATM    2  C2  UNL     1     -35.345  15.362  -5.841  1.00 20.00     0.136 A 
HETATM    3  C3  UNL     1     -34.463  14.070  -3.677  1.00 20.00     0.143 A 
HETATM    4  C4  UNL     1     -34.999  15.335  -3.580  1.00 20.00     0.056 A 
HETATM    5  N10 UNL     1     -34.356  13.428  -4.858  1.00 20.00    -0.270 NA
HETATM    6  N11 UNL     1     -35.450  16.004  -4.660  1.00 20.00    -0.262 NA
ENDROOT
BRANCH   4   7
HETATM    7  C8  UNL     1     -35.102  16.025  -2.237  1.00 20.00     0.041 C 
HETATM    8  C5  UNL     1     -33.818  16.646  -1.664  1.00 20.00     0.012 C 
HETATM    9  C6  UNL     1     -34.342  17.571  -0.577  1.00 20.00     0.021 C 
HETATM   10  C9  UNL     1     -35.521  18.247  -1.260  1.00 20.00     0.083 C 
HETATM   11  C7  UNL     1     -36.119  17.190  -2.194  1.00 20.00     0.031 C 
HETATM   12 CL12 UNL     1     -36.697  18.869  -0.090  1.00 20.00    -0.125 Cl
ENDBRANCH   4   7
TORSDOF 1
ENDMDL
