MODEL 1
REMARK VINA RESULT:      -5.4      0.000      0.000
REMARK  1 active torsions:
REMARK  status: ('A' for Active; 'I' for Inactive)
REMARK    1  A    between atoms: C8_8  and  C10_10 
ROOT
HETATM    1  C1  UNL     1     -35.057  17.366   0.604  1.00 20.00     0.012 C 
HETATM    2  C2  UNL     1     -34.519  17.169  -0.451  1.00 20.00    -0.117 C 
HETATM    3  C10 UNL     1     -33.854  16.946  -1.734  1.00 20.00     0.097 C 
ENDROOT
BRANCH   3   4
HETATM    4  C8  UNL     1     -34.351  15.649  -2.386  1.00 20.00    -0.002 C 
HETATM    5  C5  UNL     1     -33.330  15.177  -3.434  1.00 20.00     0.005 C 
HETATM    6  C3  UNL     1     -33.557  13.734  -3.876  1.00 20.00     0.000 C 
HETATM    7  C4  UNL     1     -34.523  13.560  -5.042  1.00 20.00     0.001 C 
HETATM    8  C6  UNL     1     -35.778  14.429  -5.043  1.00 20.00     0.016 C 
HETATM    9  C9  UNL     1     -36.384  14.676  -3.664  1.00 20.00     0.058 C 
HETATM   10  C7  UNL     1     -35.768  15.873  -2.937  1.00 20.00     0.021 C 
HETATM   11 BR11 UNL     1     -38.304  15.080  -3.919  1.00 20.00    -0.091 Br
ENDBRANCH   3   4
TORSDOF 1
ENDMDL
MODEL 2
REMARK VINA RESULT:      -4.8      2.081      2.245
REMARK  1 active torsions:
REMARK  status: ('A' for Active; 'I' for Inactive)
REMARK    1  A    between atoms: C8_8  and  C10_10 
ROOT
HETATM    1  C1  UNL     1     -35.040  17.186  -0.006  1.00 20.00     0.012 C 
HETATM    2  C2  UNL     1     -34.391  16.922  -0.980  1.00 20.00    -0.117 C 
HETATM    3  C10 UNL     1     -33.584  16.607  -2.159  1.00 20.00     0.097 C 
ENDROOT
BRANCH   3   4
HETATM    4  C8  UNL     1     -34.455  16.002  -3.268  1.00 20.00    -0.002 C 
HETATM    5  C5  UNL     1     -34.204  14.487  -3.349  1.00 20.00     0.005 C 
HETATM    6  C3  UNL     1     -35.263  13.753  -4.166  1.00 20.00     0.000 C 
HETATM    7  C4  UNL     1     -34.983  13.670  -5.662  1.00 20.00     0.001 C 
HETATM    8  C6  UNL     1     -34.414  14.916  -6.335  1.00 20.00     0.016 C 
HETATM    9  C9  UNL     1     -34.961  16.237  -5.798  1.00 20.00     0.058 C 
HETATM   10  C7  UNL     1     -34.196  16.759  -4.581  1.00 20.00     0.021 C 
HETATM   11 BR11 UNL     1     -34.764  17.590  -7.229  1.00 20.00    -0.091 Br
ENDBRANCH   3   4
TORSDOF 1
ENDMDL
MODEL 3
REMARK VINA RESULT:      -4.8      0.945      1.624
REMARK  1 active torsions:
REMARK  status: ('A' for Active; 'I' for Inactive)
REMARK    1  A    between atoms: C8_8  and  C10_10 
ROOT
HETATM    1  C1  UNL     1     -33.675  18.900  -3.629  1.00 20.00     0.012 C 
HETATM    2  C2  UNL     1     -33.799  18.038  -2.803  1.00 20.00    -0.117 C 
HETATM    3  C10 UNL     1     -33.943  17.001  -1.782  1.00 20.00     0.097 C 
ENDROOT
BRANCH   3   4
HETATM    4  C8  UNL     1     -34.401  15.679  -2.412  1.00 20.00    -0.002 C 
HETATM    5  C5  UNL     1     -33.354  15.207  -3.435  1.00 20.00     0.005 C 
HETATM    6  C3  UNL     1     -33.542  13.750  -3.848  1.00 20.00     0.000 C 
HETATM    7  C4  UNL     1     -34.486  13.528  -5.024  1.00 20.00     0.001 C 
HETATM    8  C6  UNL     1     -35.760  14.368  -5.062  1.00 20.00     0.016 C 
HETATM    9  C9  UNL     1     -36.392  14.631  -3.697  1.00 20.00     0.058 C 
HETATM   10  C7  UNL     1     -35.814  15.858  -2.989  1.00 20.00     0.021 C 
HETATM   11 BR11 UNL     1     -38.317  14.985  -3.989  1.00 20.00    -0.091 Br
ENDBRANCH   3   4
TORSDOF 1
ENDMDL
MODEL 4
REMARK VINA RESULT:      -4.7      2.103      2.675
REMARK  1 active torsions:
REMARK  status: ('A' for Active; 'I' for Inactive)
REMARK    1  A    between atoms: C8_8  and  C10_10 
ROOT
HETATM    1  C1  UNL     1     -33.515  18.681   0.598  1.00 20.00     0.012 C 
HETATM    2  C2  UNL     1     -34.016  17.784  -0.023  1.00 20.00    -0.117 C 
HETATM    3  C10 UNL     1     -34.636  16.687  -0.764  1.00 20.00     0.097 C 
ENDROOT
BRANCH   3   4
HETATM    4  C8  UNL     1     -34.062  16.597  -2.184  1.00 20.00    -0.002 C 
HETATM    5  C5  UNL     1     -34.368  17.897  -2.946  1.00 20.00     0.005 C 
HETATM    6  C3  UNL     1     -33.547  18.045  -4.223  1.00 20.00     0.000 C 
HETATM    7  C4  UNL     1     -34.166  17.416  -5.466  1.00 20.00     0.001 C 
HETATM    8  C6  UNL     1     -34.838  16.056  -5.298  1.00 20.00     0.016 C 
HETATM    9  C9  UNL     1     -34.145  15.119  -4.311  1.00 20.00     0.058 C 
HETATM   10  C7  UNL     1     -34.594  15.325  -2.863  1.00 20.00     0.021 C 
HETATM   11 BR11 UNL     1     -34.626  13.266  -4.809  1.00 20.00    -0.091 Br
ENDBRANCH   3   4
TORSDOF 1
ENDMDL
MODEL 5
REMARK VINA RESULT:      -4.5      2.429      4.467
REMARK  1 active torsions:
REMARK  status: ('A' for Active; 'I' for Inactive)
REMARK    1  A    between atoms: C8_8  and  C10_10 
ROOT
HETATM    1  C1  UNL     1     -35.195  13.162  -4.572  1.00 20.00     0.012 C 
HETATM    2  C2  UNL     1     -34.196  13.669  -4.143  1.00 20.00    -0.117 C 
HETATM    3  C10 UNL     1     -32.968  14.270  -3.623  1.00 20.00     0.097 C 
ENDROOT
BRANCH   3   4
HETATM    4  C8  UNL     1     -33.191  15.748  -3.276  1.00 20.00    -0.002 C 
HETATM    5  C5  UNL     1     -34.281  15.863  -2.198  1.00 20.00     0.005 C 
HETATM    6  C3  UNL     1     -34.324  17.240  -1.542  1.00 20.00     0.000 C 
HETATM    7  C4  UNL     1     -35.204  18.266  -2.246  1.00 20.00     0.001 C 
HETATM    8  C6  UNL     1     -35.159  18.291  -3.772  1.00 20.00     0.016 C 
HETATM    9  C9  UNL     1     -33.783  18.018  -4.374  1.00 20.00     0.058 C 
HETATM   10  C7  UNL     1     -33.489  16.529  -4.565  1.00 20.00     0.021 C 
HETATM   11 BR11 UNL     1     -33.741  18.851  -6.169  1.00 20.00    -0.091 Br
ENDBRANCH   3   4
TORSDOF 1
ENDMDL
MODEL 6
REMARK VINA RESULT:      -4.5      2.762      5.094
REMARK  1 active torsions:
REMARK  status: ('A' for Active; 'I' for Inactive)
REMARK    1  A    between atoms: C8_8  and  C10_10 
ROOT
HETATM    1  C1  UNL     1     -37.787  15.239  -7.508  1.00 20.00     0.012 C 
HETATM    2  C2  UNL     1     -36.629  14.971  -7.672  1.00 20.00    -0.117 C 
HETATM    3  C10 UNL     1     -35.221  14.639  -7.889  1.00 20.00     0.097 C 
ENDROOT
BRANCH   3   4
HETATM    4  C8  UNL     1     -34.410  14.838  -6.602  1.00 20.00    -0.002 C 
HETATM    5  C5  UNL     1     -34.940  13.895  -5.510  1.00 20.00     0.005 C 
HETATM    6  C3  UNL     1     -33.988  13.766  -4.324  1.00 20.00     0.000 C 
HETATM    7  C4  UNL     1     -34.178  14.806  -3.226  1.00 20.00     0.001 C 
HETATM    8  C6  UNL     1     -34.451  16.241  -3.667  1.00 20.00     0.016 C 
HETATM    9  C9  UNL     1     -33.700  16.678  -4.922  1.00 20.00     0.058 C 
HETATM   10  C7  UNL     1     -34.431  16.326  -6.219  1.00 20.00     0.021 C 
HETATM   11 BR11 UNL     1     -33.537  18.649  -4.865  1.00 20.00    -0.091 Br
ENDBRANCH   3   4
TORSDOF 1
ENDMDL
MODEL 7
REMARK VINA RESULT:      -4.4      1.018      1.300
REMARK  1 active torsions:
REMARK  status: ('A' for Active; 'I' for Inactive)
REMARK    1  A    between atoms: C8_8  and  C10_10 
ROOT
HETATM    1  C1  UNL     1     -34.803  16.906  -0.223  1.00 20.00     0.012 C 
HETATM    2  C2  UNL     1     -34.267  16.626  -1.260  1.00 20.00    -0.117 C 
HETATM    3  C10 UNL     1     -33.599  16.296  -2.518  1.00 20.00     0.097 C 
ENDROOT
BRANCH   3   4
HETATM    4  C8  UNL     1     -34.470  15.361  -3.368  1.00 20.00    -0.002 C 
HETATM    5  C5  UNL     1     -33.959  15.360  -4.818  1.00 20.00     0.005 C 
HETATM    6  C3  UNL     1     -34.528  14.212  -5.646  1.00 20.00     0.000 C 
HETATM    7  C4  UNL     1     -35.855  14.507  -6.335  1.00 20.00     0.001 C 
HETATM    8  C6  UNL     1     -36.895  15.289  -5.536  1.00 20.00     0.016 C 
HETATM    9  C9  UNL     1     -36.938  14.957  -4.047  1.00 20.00     0.058 C 
HETATM   10  C7  UNL     1     -35.944  15.771  -3.216  1.00 20.00     0.021 C 
HETATM   11 BR11 UNL     1     -38.749  15.407  -3.387  1.00 20.00    -0.091 Br
ENDBRANCH   3   4
TORSDOF 1
ENDMDL
MODEL 8
REMARK VINA RESULT:      -4.4      1.921      2.177
REMARK  1 active torsions:
REMARK  status: ('A' for Active; 'I' for Inactive)
REMARK    1  A    between atoms: C8_8  and  C10_10 
ROOT
HETATM    1  C1  UNL     1     -32.919  18.577  -0.496  1.00 20.00     0.012 C 
HETATM    2  C2  UNL     1     -33.719  17.690  -0.614  1.00 20.00    -0.117 C 
HETATM    3  C10 UNL     1     -34.696  16.609  -0.739  1.00 20.00     0.097 C 
ENDROOT
BRANCH   3   4
HETATM    4  C8  UNL     1     -34.880  16.210  -2.209  1.00 20.00    -0.002 C 
HETATM    5  C5  UNL     1     -33.509  15.905  -2.834  1.00 20.00     0.005 C 
HETATM    6  C3  UNL     1     -33.614  15.169  -4.167  1.00 20.00     0.000 C 
HETATM    7  C4  UNL     1     -33.741  16.066  -5.393  1.00 20.00     0.001 C 
HETATM    8  C6  UNL     1     -34.646  17.290  -5.270  1.00 20.00     0.016 C 
HETATM    9  C9  UNL     1     -35.902  17.073  -4.429  1.00 20.00     0.058 C 
HETATM   10  C7  UNL     1     -35.677  17.307  -2.934  1.00 20.00     0.021 C 
HETATM   11 BR11 UNL     1     -37.254  18.389  -5.024  1.00 20.00    -0.091 Br
ENDBRANCH   3   4
TORSDOF 1
ENDMDL
MODEL 9
REMARK VINA RESULT:      -4.4      2.369      4.715
REMARK  1 active torsions:
REMARK  status: ('A' for Active; 'I' for Inactive)
REMARK    1  A    between atoms: C8_8  and  C10_10 
ROOT
HETATM    1  C1  UNL     1     -34.974  13.530  -5.602  1.00 20.00     0.012 C 
HETATM    2  C2  UNL     1     -34.578  13.942  -4.547  1.00 20.00    -0.117 C 
HETATM    3  C10 UNL     1     -34.088  14.427  -3.257  1.00 20.00     0.097 C 
ENDROOT
BRANCH   3   4
HETATM    4  C8  UNL     1     -34.467  15.899  -3.050  1.00 20.00    -0.002 C 
HETATM    5  C5  UNL     1     -33.511  16.794  -3.856  1.00 20.00     0.005 C 
HETATM    6  C3  UNL     1     -34.016  18.227  -3.996  1.00 20.00     0.000 C 
HETATM    7  C4  UNL     1     -33.612  19.168  -2.867  1.00 20.00     0.001 C 
HETATM    8  C6  UNL     1     -33.663  18.614  -1.446  1.00 20.00     0.016 C 
HETATM    9  C9  UNL     1     -34.819  17.654  -1.176  1.00 20.00     0.058 C 
HETATM   10  C7  UNL     1     -34.501  16.204  -1.544  1.00 20.00     0.021 C 
HETATM   11 BR11 UNL     1     -35.185  17.692   0.768  1.00 20.00    -0.091 Br
ENDBRANCH   3   4
TORSDOF 1
ENDMDL
