MODEL 1
REMARK VINA RESULT:      -6.0      0.000      0.000
REMARK  3 active torsions:
REMARK  status: ('A' for Active; 'I' for Inactive)
REMARK    1  A    between atoms: C6_6  and  C9_9 
REMARK    2  A    between atoms: C7_7  and  O10_10 
REMARK    3  A    between atoms: C8_8  and  C9_9 
ROOT
HETATM    1  C1  UNL     1     -32.133   8.718   1.539  1.00 20.00     0.012 C 
HETATM    2  C2  UNL     1     -32.036   7.856   2.369  1.00 20.00    -0.117 C 
HETATM    3  C8  UNL     1     -31.914   6.805   3.389  1.00 20.00     0.093 C 
ENDROOT
BRANCH   3   4
HETATM    4  C9  UNL     1     -33.112   5.870   3.333  1.00 20.00     0.017 C 
BRANCH   4   5
HETATM    5  C6  UNL     1     -34.289   6.437   4.126  1.00 20.00    -0.011 C 
HETATM    6  C3  UNL     1     -33.988   6.541   5.619  1.00 20.00     0.007 C 
HETATM    7  C4  UNL     1     -34.244   5.140   6.163  1.00 20.00     0.032 C 
HETATM    8  C7  UNL     1     -35.308   4.530   5.249  1.00 20.00     0.118 C 
HETATM    9  C5  UNL     1     -35.510   5.515   4.095  1.00 20.00     0.036 C 
BRANCH   8  10
HETATM   10  O10 UNL     1     -34.846   3.278   4.761  1.00 20.00    -0.396 OA
HETATM   11  H24 UNL     1     -35.635   2.761   4.533  1.00 20.00     0.210 HD
ENDBRANCH   8  10
ENDBRANCH   4   5
ENDBRANCH   3   4
TORSDOF 3
ENDMDL
MODEL 2
REMARK VINA RESULT:      -5.1     11.110     12.188
REMARK  3 active torsions:
REMARK  status: ('A' for Active; 'I' for Inactive)
REMARK    1  A    between atoms: C6_6  and  C9_9 
REMARK    2  A    between atoms: C7_7  and  O10_10 
REMARK    3  A    between atoms: C8_8  and  C9_9 
ROOT
HETATM    1  C1  UNL     1     -34.922  17.253   0.462  1.00 20.00     0.012 C 
HETATM    2  C2  UNL     1     -34.543  17.125  -0.671  1.00 20.00    -0.117 C 
HETATM    3  C8  UNL     1     -34.076  16.973  -2.055  1.00 20.00     0.093 C 
ENDROOT
BRANCH   3   4
HETATM    4  C9  UNL     1     -34.364  15.569  -2.562  1.00 20.00     0.017 C 
BRANCH   4   5
HETATM    5  C6  UNL     1     -33.367  15.160  -3.645  1.00 20.00    -0.011 C 
HETATM    6  C3  UNL     1     -33.812  15.594  -5.039  1.00 20.00     0.007 C 
HETATM    7  C4  UNL     1     -34.798  14.519  -5.483  1.00 20.00     0.032 C 
HETATM    8  C7  UNL     1     -34.361  13.239  -4.767  1.00 20.00     0.118 C 
HETATM    9  C5  UNL     1     -33.254  13.640  -3.789  1.00 20.00     0.036 C 
BRANCH   8  10
HETATM   10  O10 UNL     1     -35.471  12.691  -4.066  1.00 20.00    -0.396 OA
HETATM   11  H24 UNL     1     -36.264  12.941  -4.565  1.00 20.00     0.210 HD
ENDBRANCH   8  10
ENDBRANCH   4   5
ENDBRANCH   3   4
TORSDOF 3
ENDMDL
MODEL 3
REMARK VINA RESULT:      -4.5     11.650     12.274
REMARK  3 active torsions:
REMARK  status: ('A' for Active; 'I' for Inactive)
REMARK    1  A    between atoms: C6_6  and  C9_9 
REMARK    2  A    between atoms: C7_7  and  O10_10 
REMARK    3  A    between atoms: C8_8  and  C9_9 
ROOT
HETATM    1  C1  UNL     1     -35.053  17.391   0.547  1.00 20.00     0.012 C 
HETATM    2  C2  UNL     1     -34.494  17.181  -0.495  1.00 20.00    -0.117 C 
HETATM    3  C8  UNL     1     -33.806  16.928  -1.768  1.00 20.00     0.093 C 
ENDROOT
BRANCH   3   4
HETATM    4  C9  UNL     1     -34.347  15.667  -2.423  1.00 20.00     0.017 C 
BRANCH   4   5
HETATM    5  C6  UNL     1     -34.798  15.942  -3.856  1.00 20.00    -0.011 C 
HETATM    6  C3  UNL     1     -36.317  15.923  -4.003  1.00 20.00     0.007 C 
HETATM    7  C4  UNL     1     -36.675  14.446  -4.131  1.00 20.00     0.032 C 
HETATM    8  C7  UNL     1     -35.454  13.781  -4.769  1.00 20.00     0.118 C 
HETATM    9  C5  UNL     1     -34.355  14.845  -4.827  1.00 20.00     0.036 C 
BRANCH   8  10
HETATM   10  O10 UNL     1     -35.043  12.683  -3.965  1.00 20.00    -0.396 OA
HETATM   11  H24 UNL     1     -35.250  11.879  -4.466  1.00 20.00     0.210 HD
ENDBRANCH   8  10
ENDBRANCH   4   5
ENDBRANCH   3   4
TORSDOF 3
ENDMDL
MODEL 4
REMARK VINA RESULT:      -4.4     11.916     12.907
REMARK  3 active torsions:
REMARK  status: ('A' for Active; 'I' for Inactive)
REMARK    1  A    between atoms: C6_6  and  C9_9 
REMARK    2  A    between atoms: C7_7  and  O10_10 
REMARK    3  A    between atoms: C8_8  and  C9_9 
ROOT
HETATM    1  C1  UNL     1     -35.067  17.410   0.709  1.00 20.00     0.012 C 
HETATM    2  C2  UNL     1     -34.614  17.171  -0.376  1.00 20.00    -0.117 C 
HETATM    3  C8  UNL     1     -34.054  16.881  -1.704  1.00 20.00     0.093 C 
ENDROOT
BRANCH   3   4
HETATM    4  C9  UNL     1     -34.573  15.549  -2.219  1.00 20.00     0.017 C 
BRANCH   4   5
HETATM    5  C6  UNL     1     -35.458  15.743  -3.450  1.00 20.00    -0.011 C 
HETATM    6  C3  UNL     1     -35.632  14.456  -4.251  1.00 20.00     0.007 C 
HETATM    7  C4  UNL     1     -34.379  14.366  -5.116  1.00 20.00     0.032 C 
HETATM    8  C7  UNL     1     -33.938  15.812  -5.353  1.00 20.00     0.118 C 
HETATM    9  C5  UNL     1     -34.830  16.692  -4.475  1.00 20.00     0.036 C 
BRANCH   8  10
HETATM   10  O10 UNL     1     -32.574  15.954  -4.977  1.00 20.00    -0.396 OA
HETATM   11  H24 UNL     1     -32.149  15.098  -5.146  1.00 20.00     0.210 HD
ENDBRANCH   8  10
ENDBRANCH   4   5
ENDBRANCH   3   4
TORSDOF 3
ENDMDL
MODEL 5
REMARK VINA RESULT:      -4.3      8.945     10.582
REMARK  3 active torsions:
REMARK  status: ('A' for Active; 'I' for Inactive)
REMARK    1  A    between atoms: C6_6  and  C9_9 
REMARK    2  A    between atoms: C7_7  and  O10_10 
REMARK    3  A    between atoms: C8_8  and  C9_9 
ROOT
HETATM    1  C1  UNL     1     -42.083   1.513  -3.700  1.00 20.00     0.012 C 
HETATM    2  C2  UNL     1     -41.742   2.479  -3.073  1.00 20.00    -0.117 C 
HETATM    3  C8  UNL     1     -41.320   3.662  -2.310  1.00 20.00     0.093 C 
ENDROOT
BRANCH   3   4
HETATM    4  C9  UNL     1     -42.492   4.235  -1.529  1.00 20.00     0.017 C 
BRANCH   4   5
HETATM    5  C6  UNL     1     -42.017   4.918  -0.248  1.00 20.00    -0.011 C 
HETATM    6  C3  UNL     1     -42.993   5.986   0.239  1.00 20.00     0.007 C 
HETATM    7  C4  UNL     1     -42.661   7.221  -0.590  1.00 20.00     0.032 C 
HETATM    8  C7  UNL     1     -41.176   7.100  -0.934  1.00 20.00     0.118 C 
HETATM    9  C5  UNL     1     -40.727   5.716  -0.457  1.00 20.00     0.036 C 
BRANCH   8  10
HETATM   10  O10 UNL     1     -41.008   7.219  -2.341  1.00 20.00    -0.396 OA
HETATM   11  H24 UNL     1     -40.516   8.041  -2.493  1.00 20.00     0.210 HD
ENDBRANCH   8  10
ENDBRANCH   4   5
ENDBRANCH   3   4
TORSDOF 3
ENDMDL
MODEL 6
REMARK VINA RESULT:      -4.2     11.804     13.096
REMARK  3 active torsions:
REMARK  status: ('A' for Active; 'I' for Inactive)
REMARK    1  A    between atoms: C6_6  and  C9_9 
REMARK    2  A    between atoms: C7_7  and  O10_10 
REMARK    3  A    between atoms: C8_8  and  C9_9 
ROOT
HETATM    1  C1  UNL     1     -34.787  16.673  -7.917  1.00 20.00     0.012 C 
HETATM    2  C2  UNL     1     -35.004  15.770  -7.155  1.00 20.00    -0.117 C 
HETATM    3  C8  UNL     1     -35.266  14.662  -6.226  1.00 20.00     0.093 C 
ENDROOT
BRANCH   3   4
HETATM    4  C9  UNL     1     -35.811  15.192  -4.909  1.00 20.00     0.017 C 
BRANCH   4   5
HETATM    5  C6  UNL     1     -35.194  14.453  -3.722  1.00 20.00    -0.011 C 
HETATM    6  C3  UNL     1     -35.002  15.359  -2.509  1.00 20.00     0.007 C 
HETATM    7  C4  UNL     1     -33.696  16.098  -2.780  1.00 20.00     0.032 C 
HETATM    8  C7  UNL     1     -32.861  15.154  -3.647  1.00 20.00     0.118 C 
HETATM    9  C5  UNL     1     -33.768  13.976  -4.010  1.00 20.00     0.036 C 
BRANCH   8  10
HETATM   10  O10 UNL     1     -32.443  15.841  -4.820  1.00 20.00    -0.396 OA
HETATM   11  H24 UNL     1     -32.808  15.351  -5.573  1.00 20.00     0.210 HD
ENDBRANCH   8  10
ENDBRANCH   4   5
ENDBRANCH   3   4
TORSDOF 3
ENDMDL
MODEL 7
REMARK VINA RESULT:      -4.2     11.729     12.651
REMARK  3 active torsions:
REMARK  status: ('A' for Active; 'I' for Inactive)
REMARK    1  A    between atoms: C6_6  and  C9_9 
REMARK    2  A    between atoms: C7_7  and  O10_10 
REMARK    3  A    between atoms: C8_8  and  C9_9 
ROOT
HETATM    1  C1  UNL     1     -34.086  16.986  -1.414  1.00 20.00     0.012 C 
HETATM    2  C2  UNL     1     -33.738  16.275  -2.316  1.00 20.00    -0.117 C 
HETATM    3  C8  UNL     1     -33.311  15.400  -3.417  1.00 20.00     0.093 C 
ENDROOT
BRANCH   3   4
HETATM    4  C9  UNL     1     -34.040  15.766  -4.699  1.00 20.00     0.017 C 
BRANCH   4   5
HETATM    5  C6  UNL     1     -34.725  14.544  -5.310  1.00 20.00    -0.011 C 
HETATM    6  C3  UNL     1     -35.854  14.926  -6.264  1.00 20.00     0.007 C 
HETATM    7  C4  UNL     1     -37.051  15.195  -5.358  1.00 20.00     0.032 C 
HETATM    8  C7  UNL     1     -36.842  14.312  -4.126  1.00 20.00     0.118 C 
HETATM    9  C5  UNL     1     -35.447  13.696  -4.261  1.00 20.00     0.036 C 
BRANCH   8  10
HETATM   10  O10 UNL     1     -36.921  15.114  -2.955  1.00 20.00    -0.396 OA
HETATM   11  H24 UNL     1     -37.739  15.630  -3.028  1.00 20.00     0.210 HD
ENDBRANCH   8  10
ENDBRANCH   4   5
ENDBRANCH   3   4
TORSDOF 3
ENDMDL
MODEL 8
REMARK VINA RESULT:      -4.1      1.358      1.901
REMARK  3 active torsions:
REMARK  status: ('A' for Active; 'I' for Inactive)
REMARK    1  A    between atoms: C6_6  and  C9_9 
REMARK    2  A    between atoms: C7_7  and  O10_10 
REMARK    3  A    between atoms: C8_8  and  C9_9 
ROOT
HETATM    1  C1  UNL     1     -32.214   9.070   0.879  1.00 20.00     0.012 C 
HETATM    2  C2  UNL     1     -32.028   8.381   1.845  1.00 20.00    -0.117 C 
HETATM    3  C8  UNL     1     -31.795   7.541   3.027  1.00 20.00     0.093 C 
ENDROOT
BRANCH   3   4
HETATM    4  C9  UNL     1     -33.117   7.140   3.662  1.00 20.00     0.017 C 
BRANCH   4   5
HETATM    5  C6  UNL     1     -33.376   5.644   3.493  1.00 20.00    -0.011 C 
HETATM    6  C3  UNL     1     -34.804   5.348   3.043  1.00 20.00     0.007 C 
HETATM    7  C4  UNL     1     -35.630   5.387   4.324  1.00 20.00     0.032 C 
HETATM    8  C7  UNL     1     -34.673   4.973   5.444  1.00 20.00     0.118 C 
HETATM    9  C5  UNL     1     -33.279   4.882   4.817  1.00 20.00     0.036 C 
BRANCH   8  10
HETATM   10  O10 UNL     1     -34.695   5.958   6.469  1.00 20.00    -0.396 OA
HETATM   11  H24 UNL     1     -34.014   6.610   6.242  1.00 20.00     0.210 HD
ENDBRANCH   8  10
ENDBRANCH   4   5
ENDBRANCH   3   4
TORSDOF 3
ENDMDL
MODEL 9
REMARK VINA RESULT:      -4.0     11.988     13.132
REMARK  3 active torsions:
REMARK  status: ('A' for Active; 'I' for Inactive)
REMARK    1  A    between atoms: C6_6  and  C9_9 
REMARK    2  A    between atoms: C7_7  and  O10_10 
REMARK    3  A    between atoms: C8_8  and  C9_9 
ROOT
HETATM    1  C1  UNL     1     -35.496  14.639  -7.603  1.00 20.00     0.012 C 
HETATM    2  C2  UNL     1     -35.179  14.145  -6.555  1.00 20.00    -0.117 C 
HETATM    3  C8  UNL     1     -34.786  13.539  -5.275  1.00 20.00     0.093 C 
ENDROOT
BRANCH   3   4
HETATM    4  C9  UNL     1     -35.392  14.312  -4.114  1.00 20.00     0.017 C 
BRANCH   4   5
HETATM    5  C6  UNL     1     -34.312  14.769  -3.135  1.00 20.00    -0.011 C 
HETATM    6  C3  UNL     1     -34.792  15.894  -2.223  1.00 20.00     0.007 C 
HETATM    7  C4  UNL     1     -34.631  17.162  -3.055  1.00 20.00     0.032 C 
HETATM    8  C7  UNL     1     -33.473  16.880  -4.015  1.00 20.00     0.118 C 
HETATM    9  C5  UNL     1     -33.113  15.403  -3.845  1.00 20.00     0.036 C 
BRANCH   8  10
HETATM   10  O10 UNL     1     -33.894  17.141  -5.347  1.00 20.00    -0.396 OA
HETATM   11  H24 UNL     1     -34.563  17.841  -5.295  1.00 20.00     0.210 HD
ENDBRANCH   8  10
ENDBRANCH   4   5
ENDBRANCH   3   4
TORSDOF 3
ENDMDL
