MODEL 1
REMARK VINA RESULT:      -5.5      0.000      0.000
REMARK  4 active torsions:
REMARK  status: ('A' for Active; 'I' for Inactive)
REMARK    1  A    between atoms: C1_1  and  C6_6 
REMARK    2  A    between atoms: C1_1  and  C8_8 
REMARK    3  A    between atoms: C7_7  and  C9_9 
REMARK    4  A    between atoms: C8_8  and  C9_9 
ROOT
HETATM    1  C1  UNL     1     -34.331   5.621   3.660  1.00 20.00     0.131 C 
HETATM    2  O10 UNL     1     -34.479   5.080   2.565  1.00 20.00    -0.298 OA
ENDROOT
BRANCH   1   3
HETATM    3  C6  UNL     1     -35.192   5.241   4.837  1.00 20.00     0.055 A 
HETATM    4  C2  UNL     1     -34.815   4.035   5.619  1.00 20.00     0.013 A 
HETATM    5  C3  UNL     1     -34.621   5.403   6.200  1.00 20.00     0.013 A 
ENDBRANCH   1   3
BRANCH   1   6
HETATM    6  C8  UNL     1     -33.290   6.696   3.915  1.00 20.00     0.079 C 
BRANCH   6   7
HETATM    7  C9  UNL     1     -32.176   6.690   2.872  1.00 20.00     0.012 C 
BRANCH   7   8
HETATM    8  C7  UNL     1     -31.757   8.101   2.494  1.00 20.00    -0.014 A 
HETATM    9  C4  UNL     1     -31.747   8.528   1.052  1.00 20.00     0.005 A 
HETATM   10  C5  UNL     1     -32.777   9.086   1.995  1.00 20.00     0.005 A 
ENDBRANCH   7   8
ENDBRANCH   6   7
ENDBRANCH   1   6
TORSDOF 4
ENDMDL
MODEL 2
REMARK VINA RESULT:      -5.4      0.922      4.882
REMARK  4 active torsions:
REMARK  status: ('A' for Active; 'I' for Inactive)
REMARK    1  A    between atoms: C1_1  and  C6_6 
REMARK    2  A    between atoms: C1_1  and  C8_8 
REMARK    3  A    between atoms: C7_7  and  C9_9 
REMARK    4  A    between atoms: C8_8  and  C9_9 
ROOT
HETATM    1  C1  UNL     1     -32.495   6.757   3.089  1.00 20.00     0.131 C 
HETATM    2  O10 UNL     1     -31.856   5.706   3.060  1.00 20.00    -0.298 OA
ENDROOT
BRANCH   1   3
HETATM    3  C6  UNL     1     -31.874   8.056   2.644  1.00 20.00     0.055 A 
HETATM    4  C2  UNL     1     -31.786   8.325   1.185  1.00 20.00     0.013 A 
HETATM    5  C3  UNL     1     -32.762   9.081   2.036  1.00 20.00     0.013 A 
ENDBRANCH   1   3
BRANCH   1   6
HETATM    6  C8  UNL     1     -33.935   6.834   3.565  1.00 20.00     0.079 C 
BRANCH   6   7
HETATM    7  C9  UNL     1     -34.622   5.472   3.572  1.00 20.00     0.012 C 
BRANCH   7   8
HETATM    8  C7  UNL     1     -35.256   5.174   4.921  1.00 20.00    -0.014 A 
HETATM    9  C4  UNL     1     -34.762   4.023   5.753  1.00 20.00     0.005 A 
HETATM   10  C5  UNL     1     -34.495   5.437   6.190  1.00 20.00     0.005 A 
ENDBRANCH   7   8
ENDBRANCH   6   7
ENDBRANCH   1   6
TORSDOF 4
ENDMDL
MODEL 3
REMARK VINA RESULT:      -5.3      1.554      5.155
REMARK  4 active torsions:
REMARK  status: ('A' for Active; 'I' for Inactive)
REMARK    1  A    between atoms: C1_1  and  C6_6 
REMARK    2  A    between atoms: C1_1  and  C8_8 
REMARK    3  A    between atoms: C7_7  and  C9_9 
REMARK    4  A    between atoms: C8_8  and  C9_9 
ROOT
HETATM    1  C1  UNL     1     -32.167   7.396   2.898  1.00 20.00     0.131 C 
HETATM    2  O10 UNL     1     -31.303   7.825   3.662  1.00 20.00    -0.298 OA
ENDROOT
BRANCH   1   3
HETATM    3  C6  UNL     1     -32.645   8.217   1.728  1.00 20.00     0.055 A 
HETATM    4  C2  UNL     1     -32.439   9.687   1.775  1.00 20.00     0.013 A 
HETATM    5  C3  UNL     1     -31.622   8.839   0.848  1.00 20.00     0.013 A 
ENDBRANCH   1   3
BRANCH   1   6
HETATM    6  C8  UNL     1     -32.812   6.032   3.065  1.00 20.00     0.079 C 
BRANCH   6   7
HETATM    7  C9  UNL     1     -34.078   6.084   3.914  1.00 20.00     0.012 C 
BRANCH   7   8
HETATM    8  C7  UNL     1     -33.928   5.274   5.191  1.00 20.00    -0.014 A 
HETATM    9  C4  UNL     1     -34.550   5.756   6.472  1.00 20.00     0.005 A 
HETATM   10  C5  UNL     1     -35.110   4.549   5.772  1.00 20.00     0.005 A 
ENDBRANCH   7   8
ENDBRANCH   6   7
ENDBRANCH   1   6
TORSDOF 4
ENDMDL
MODEL 4
REMARK VINA RESULT:      -5.2      1.389      1.542
REMARK  4 active torsions:
REMARK  status: ('A' for Active; 'I' for Inactive)
REMARK    1  A    between atoms: C1_1  and  C6_6 
REMARK    2  A    between atoms: C1_1  and  C8_8 
REMARK    3  A    between atoms: C7_7  and  C9_9 
REMARK    4  A    between atoms: C8_8  and  C9_9 
ROOT
HETATM    1  C1  UNL     1     -33.751   6.150   4.664  1.00 20.00     0.131 C 
HETATM    2  O10 UNL     1     -33.262   6.818   5.574  1.00 20.00    -0.298 OA
ENDROOT
BRANCH   1   3
HETATM    3  C6  UNL     1     -34.979   5.306   4.894  1.00 20.00     0.055 A 
HETATM    4  C2  UNL     1     -34.808   3.833   4.976  1.00 20.00     0.013 A 
HETATM    5  C3  UNL     1     -35.122   4.627   6.208  1.00 20.00     0.013 A 
ENDBRANCH   1   3
BRANCH   1   6
HETATM    6  C8  UNL     1     -33.173   6.119   3.260  1.00 20.00     0.079 C 
BRANCH   6   7
HETATM    7  C9  UNL     1     -32.205   7.269   3.002  1.00 20.00     0.012 C 
BRANCH   7   8
HETATM    8  C7  UNL     1     -32.628   8.096   1.799  1.00 20.00    -0.014 A 
HETATM    9  C4  UNL     1     -32.437   9.588   1.800  1.00 20.00     0.005 A 
HETATM   10  C5  UNL     1     -31.593   8.722   0.907  1.00 20.00     0.005 A 
ENDBRANCH   7   8
ENDBRANCH   6   7
ENDBRANCH   1   6
TORSDOF 4
ENDMDL
MODEL 5
REMARK VINA RESULT:      -4.7     10.712     12.031
REMARK  4 active torsions:
REMARK  status: ('A' for Active; 'I' for Inactive)
REMARK    1  A    between atoms: C1_1  and  C6_6 
REMARK    2  A    between atoms: C1_1  and  C8_8 
REMARK    3  A    between atoms: C7_7  and  C9_9 
REMARK    4  A    between atoms: C8_8  and  C9_9 
ROOT
HETATM    1  C1  UNL     1     -34.308  13.639  -4.808  1.00 20.00     0.131 C 
HETATM    2  O10 UNL     1     -34.801  12.517  -4.920  1.00 20.00    -0.298 OA
ENDROOT
BRANCH   1   3
HETATM    3  C6  UNL     1     -34.599  14.719  -5.818  1.00 20.00     0.055 A 
HETATM    4  C2  UNL     1     -35.297  14.334  -7.072  1.00 20.00     0.013 A 
HETATM    5  C3  UNL     1     -36.015  15.123  -6.019  1.00 20.00     0.013 A 
ENDBRANCH   1   3
BRANCH   1   6
HETATM    6  C8  UNL     1     -33.384  14.024  -3.667  1.00 20.00     0.079 C 
BRANCH   6   7
HETATM    7  C9  UNL     1     -33.526  15.489  -3.268  1.00 20.00     0.012 C 
BRANCH   7   8
HETATM    8  C7  UNL     1     -34.674  15.693  -2.292  1.00 20.00    -0.014 A 
HETATM    9  C4  UNL     1     -34.522  16.635  -1.130  1.00 20.00     0.005 A 
HETATM   10  C5  UNL     1     -35.430  16.992  -2.273  1.00 20.00     0.005 A 
ENDBRANCH   7   8
ENDBRANCH   6   7
ENDBRANCH   1   6
TORSDOF 4
ENDMDL
MODEL 6
REMARK VINA RESULT:      -4.4     10.799     12.066
REMARK  4 active torsions:
REMARK  status: ('A' for Active; 'I' for Inactive)
REMARK    1  A    between atoms: C1_1  and  C6_6 
REMARK    2  A    between atoms: C1_1  and  C8_8 
REMARK    3  A    between atoms: C7_7  and  C9_9 
REMARK    4  A    between atoms: C8_8  and  C9_9 
ROOT
HETATM    1  C1  UNL     1     -33.404  14.996  -3.346  1.00 20.00     0.131 C 
HETATM    2  O10 UNL     1     -32.234  14.777  -3.659  1.00 20.00    -0.298 OA
ENDROOT
BRANCH   1   3
HETATM    3  C6  UNL     1     -33.809  16.304  -2.719  1.00 20.00     0.055 A 
HETATM    4  C2  UNL     1     -35.231  16.721  -2.827  1.00 20.00     0.013 A 
HETATM    5  C3  UNL     1     -34.676  16.260  -1.513  1.00 20.00     0.013 A 
ENDBRANCH   1   3
BRANCH   1   6
HETATM    6  C8  UNL     1     -34.517  13.986  -3.563  1.00 20.00     0.079 C 
BRANCH   6   7
HETATM    7  C9  UNL     1     -34.624  13.536  -5.016  1.00 20.00     0.012 C 
BRANCH   7   8
HETATM    8  C7  UNL     1     -35.146  14.650  -5.909  1.00 20.00    -0.014 A 
HETATM    9  C4  UNL     1     -34.268  15.237  -6.980  1.00 20.00     0.005 A 
HETATM   10  C5  UNL     1     -35.446  14.382  -7.357  1.00 20.00     0.005 A 
ENDBRANCH   7   8
ENDBRANCH   6   7
ENDBRANCH   1   6
TORSDOF 4
ENDMDL
MODEL 7
REMARK VINA RESULT:      -4.3     11.172     12.287
REMARK  4 active torsions:
REMARK  status: ('A' for Active; 'I' for Inactive)
REMARK    1  A    between atoms: C1_1  and  C6_6 
REMARK    2  A    between atoms: C1_1  and  C8_8 
REMARK    3  A    between atoms: C7_7  and  C9_9 
REMARK    4  A    between atoms: C8_8  and  C9_9 
ROOT
HETATM    1  C1  UNL     1     -34.400  15.613  -5.545  1.00 20.00     0.131 C 
HETATM    2  O10 UNL     1     -35.146  16.268  -6.271  1.00 20.00    -0.298 OA
ENDROOT
BRANCH   1   3
HETATM    3  C6  UNL     1     -34.584  14.126  -5.383  1.00 20.00     0.055 A 
HETATM    4  C2  UNL     1     -33.899  13.456  -4.247  1.00 20.00     0.013 A 
HETATM    5  C3  UNL     1     -35.386  13.644  -4.228  1.00 20.00     0.013 A 
ENDBRANCH   1   3
BRANCH   1   6
HETATM    6  C8  UNL     1     -33.254  16.232  -4.766  1.00 20.00     0.079 C 
BRANCH   6   7
HETATM    7  C9  UNL     1     -33.735  17.174  -3.667  1.00 20.00     0.012 C 
BRANCH   7   8
HETATM    8  C7  UNL     1     -33.611  16.537  -2.292  1.00 20.00    -0.014 A 
HETATM    9  C4  UNL     1     -33.876  17.349  -1.054  1.00 20.00     0.005 A 
HETATM   10  C5  UNL     1     -34.839  16.271  -1.467  1.00 20.00     0.005 A 
ENDBRANCH   7   8
ENDBRANCH   6   7
ENDBRANCH   1   6
TORSDOF 4
ENDMDL
MODEL 8
REMARK VINA RESULT:      -4.2     11.585     12.386
REMARK  4 active torsions:
REMARK  status: ('A' for Active; 'I' for Inactive)
REMARK    1  A    between atoms: C1_1  and  C6_6 
REMARK    2  A    between atoms: C1_1  and  C8_8 
REMARK    3  A    between atoms: C7_7  and  C9_9 
REMARK    4  A    between atoms: C8_8  and  C9_9 
ROOT
HETATM    1  C1  UNL     1     -33.621  15.874  -4.427  1.00 20.00     0.131 C 
HETATM    2  O10 UNL     1     -32.852  16.502  -5.154  1.00 20.00    -0.298 OA
ENDROOT
BRANCH   1   3
HETATM    3  C6  UNL     1     -34.807  15.142  -5.000  1.00 20.00     0.055 A 
HETATM    4  C2  UNL     1     -34.700  14.611  -6.383  1.00 20.00     0.013 A 
HETATM    5  C3  UNL     1     -34.685  13.676  -5.212  1.00 20.00     0.013 A 
ENDBRANCH   1   3
BRANCH   1   6
HETATM    6  C8  UNL     1     -33.444  15.785  -2.922  1.00 20.00     0.079 C 
BRANCH   6   7
HETATM    7  C9  UNL     1     -34.768  15.886  -2.171  1.00 20.00     0.012 C 
BRANCH   7   8
HETATM    8  C7  UNL     1     -34.871  17.187  -1.391  1.00 20.00    -0.014 A 
HETATM    9  C4  UNL     1     -34.871  17.172   0.112  1.00 20.00     0.005 A 
HETATM   10  C5  UNL     1     -33.683  17.712  -0.635  1.00 20.00     0.005 A 
ENDBRANCH   7   8
ENDBRANCH   6   7
ENDBRANCH   1   6
TORSDOF 4
ENDMDL
MODEL 9
REMARK VINA RESULT:      -4.1     10.890     12.440
REMARK  4 active torsions:
REMARK  status: ('A' for Active; 'I' for Inactive)
REMARK    1  A    between atoms: C1_1  and  C6_6 
REMARK    2  A    between atoms: C1_1  and  C8_8 
REMARK    3  A    between atoms: C7_7  and  C9_9 
REMARK    4  A    between atoms: C8_8  and  C9_9 
ROOT
HETATM    1  C1  UNL     1     -34.386  13.687  -4.881  1.00 20.00     0.131 C 
HETATM    2  O10 UNL     1     -34.840  12.544  -4.841  1.00 20.00    -0.298 OA
ENDROOT
BRANCH   1   3
HETATM    3  C6  UNL     1     -33.683  14.285  -3.690  1.00 20.00     0.055 A 
HETATM    4  C2  UNL     1     -33.260  15.707  -3.770  1.00 20.00     0.013 A 
HETATM    5  C3  UNL     1     -34.409  15.309  -2.894  1.00 20.00     0.013 A 
ENDBRANCH   1   3
BRANCH   1   6
HETATM    6  C8  UNL     1     -34.493  14.574  -6.108  1.00 20.00     0.079 C 
BRANCH   6   7
HETATM    7  C9  UNL     1     -35.923  14.684  -6.628  1.00 20.00     0.012 C 
BRANCH   7   8
HETATM    8  C7  UNL     1     -36.750  15.644  -5.788  1.00 20.00    -0.014 A 
HETATM    9  C4  UNL     1     -38.226  15.786  -6.033  1.00 20.00     0.005 A 
HETATM   10  C5  UNL     1     -37.733  15.115  -4.781  1.00 20.00     0.005 A 
ENDBRANCH   7   8
ENDBRANCH   6   7
ENDBRANCH   1   6
TORSDOF 4
ENDMDL
