MODEL 1
REMARK VINA RESULT:      -4.8      0.000      0.000
REMARK  6 active torsions:
REMARK  status: ('A' for Active; 'I' for Inactive)
REMARK    1  A    between atoms: C1_1  and  C4_4 
REMARK    2  A    between atoms: C1_1  and  C8_8 
REMARK    3  A    between atoms: C8_8  and  C9_9 
REMARK    4  A    between atoms: C9_9  and  C10_10 
REMARK    5  A    between atoms: C10_10  and  C11_11 
REMARK    6  A    between atoms: C11_11  and  C12_12 
ROOT
HETATM    1  C9  UNL     1     -33.248  15.365  -3.460  1.00 20.00     0.007 C 
ENDROOT
BRANCH   1   2
HETATM    2  C8  UNL     1     -34.289  14.248  -3.413  1.00 20.00     0.079 C 
BRANCH   2   3
HETATM    3  C1  UNL     1     -34.625  13.679  -4.776  1.00 20.00     0.131 C 
HETATM    4  O13 UNL     1     -34.873  12.500  -4.997  1.00 20.00    -0.298 OA
BRANCH   3   5
HETATM    5  C4  UNL     1     -34.609  14.658  -5.900  1.00 20.00     0.055 A 
HETATM    6  C2  UNL     1     -35.319  14.304  -7.165  1.00 20.00     0.013 A 
HETATM    7  C3  UNL     1     -35.879  15.356  -6.255  1.00 20.00     0.013 A 
ENDBRANCH   3   5
ENDBRANCH   2   3
ENDBRANCH   1   2
BRANCH   1   8
HETATM    8  C10 UNL     1     -33.791  16.694  -2.918  1.00 20.00     0.001 C 
BRANCH   8   9
HETATM    9  C11 UNL     1     -34.463  16.495  -1.553  1.00 20.00     0.008 C 
BRANCH   9  10
HETATM   10  C12 UNL     1     -34.478  17.737  -0.621  1.00 20.00    -0.051 C 
HETATM   11  C5  UNL     1     -35.338  18.827  -1.291  1.00 20.00     0.014 C 
HETATM   12  C6  UNL     1     -33.061  18.294  -0.413  1.00 20.00     0.014 C 
HETATM   13  C7  UNL     1     -35.096  17.400   0.746  1.00 20.00     0.014 C 
ENDBRANCH   9  10
ENDBRANCH   8   9
ENDBRANCH   1   8
TORSDOF 6
ENDMDL
MODEL 2
REMARK VINA RESULT:      -4.8      0.371      1.326
REMARK  6 active torsions:
REMARK  status: ('A' for Active; 'I' for Inactive)
REMARK    1  A    between atoms: C1_1  and  C4_4 
REMARK    2  A    between atoms: C1_1  and  C8_8 
REMARK    3  A    between atoms: C8_8  and  C9_9 
REMARK    4  A    between atoms: C9_9  and  C10_10 
REMARK    5  A    between atoms: C10_10  and  C11_11 
REMARK    6  A    between atoms: C11_11  and  C12_12 
ROOT
HETATM    1  C9  UNL     1     -33.288  15.387  -3.432  1.00 20.00     0.007 C 
ENDROOT
BRANCH   1   2
HETATM    2  C8  UNL     1     -34.341  14.283  -3.365  1.00 20.00     0.079 C 
BRANCH   2   3
HETATM    3  C1  UNL     1     -34.747  13.753  -4.724  1.00 20.00     0.131 C 
HETATM    4  O13 UNL     1     -34.699  12.576  -5.057  1.00 20.00    -0.298 OA
BRANCH   3   5
HETATM    5  C4  UNL     1     -35.201  14.783  -5.703  1.00 20.00     0.055 A 
HETATM    6  C2  UNL     1     -34.293  15.144  -6.831  1.00 20.00     0.013 A 
HETATM    7  C3  UNL     1     -35.537  14.348  -7.090  1.00 20.00     0.013 A 
ENDBRANCH   3   5
ENDBRANCH   2   3
ENDBRANCH   1   2
BRANCH   1   8
HETATM    8  C10 UNL     1     -33.796  16.716  -2.855  1.00 20.00     0.001 C 
BRANCH   8   9
HETATM    9  C11 UNL     1     -34.376  16.516  -1.449  1.00 20.00     0.008 C 
BRANCH   9  10
HETATM   10  C12 UNL     1     -34.451  17.790  -0.564  1.00 20.00    -0.051 C 
HETATM   11  C5  UNL     1     -35.095  17.400   0.782  1.00 20.00     0.014 C 
HETATM   12  C6  UNL     1     -35.318  18.875  -1.222  1.00 20.00     0.014 C 
HETATM   13  C7  UNL     1     -33.050  18.359  -0.287  1.00 20.00     0.014 C 
ENDBRANCH   9  10
ENDBRANCH   8   9
ENDBRANCH   1   8
TORSDOF 6
ENDMDL
MODEL 3
REMARK VINA RESULT:      -4.6      1.715      2.340
REMARK  6 active torsions:
REMARK  status: ('A' for Active; 'I' for Inactive)
REMARK    1  A    between atoms: C1_1  and  C4_4 
REMARK    2  A    between atoms: C1_1  and  C8_8 
REMARK    3  A    between atoms: C8_8  and  C9_9 
REMARK    4  A    between atoms: C9_9  and  C10_10 
REMARK    5  A    between atoms: C10_10  and  C11_11 
REMARK    6  A    between atoms: C11_11  and  C12_12 
ROOT
HETATM    1  C9  UNL     1     -33.717  13.750  -3.664  1.00 20.00     0.007 C 
ENDROOT
BRANCH   1   2
HETATM    2  C8  UNL     1     -34.484  13.445  -4.949  1.00 20.00     0.079 C 
BRANCH   2   3
HETATM    3  C1  UNL     1     -35.711  14.312  -5.138  1.00 20.00     0.131 C 
HETATM    4  O13 UNL     1     -36.645  14.380  -4.349  1.00 20.00    -0.298 OA
BRANCH   3   5
HETATM    5  C4  UNL     1     -35.752  15.095  -6.407  1.00 20.00     0.055 A 
HETATM    6  C2  UNL     1     -34.490  15.254  -7.188  1.00 20.00     0.013 A 
HETATM    7  C3  UNL     1     -35.586  14.367  -7.699  1.00 20.00     0.013 A 
ENDBRANCH   3   5
ENDBRANCH   2   3
ENDBRANCH   1   2
BRANCH   1   8
HETATM    8  C10 UNL     1     -33.055  15.134  -3.691  1.00 20.00     0.001 C 
BRANCH   8   9
HETATM    9  C11 UNL     1     -33.725  16.082  -2.687  1.00 20.00     0.008 C 
BRANCH   9  10
HETATM   10  C12 UNL     1     -34.112  17.482  -3.236  1.00 20.00    -0.051 C 
HETATM   11  C5  UNL     1     -35.650  17.564  -3.295  1.00 20.00     0.014 C 
HETATM   12  C6  UNL     1     -33.558  17.697  -4.654  1.00 20.00     0.014 C 
HETATM   13  C7  UNL     1     -33.599  18.602  -2.316  1.00 20.00     0.014 C 
ENDBRANCH   9  10
ENDBRANCH   8   9
ENDBRANCH   1   8
TORSDOF 6
ENDMDL
MODEL 4
REMARK VINA RESULT:      -4.5      1.897      4.899
REMARK  6 active torsions:
REMARK  status: ('A' for Active; 'I' for Inactive)
REMARK    1  A    between atoms: C1_1  and  C4_4 
REMARK    2  A    between atoms: C1_1  and  C8_8 
REMARK    3  A    between atoms: C8_8  and  C9_9 
REMARK    4  A    between atoms: C9_9  and  C10_10 
REMARK    5  A    between atoms: C10_10  and  C11_11 
REMARK    6  A    between atoms: C11_11  and  C12_12 
ROOT
HETATM    1  C9  UNL     1     -34.692  13.612  -5.286  1.00 20.00     0.007 C 
ENDROOT
BRANCH   1   2
HETATM    2  C8  UNL     1     -35.182  14.023  -3.898  1.00 20.00     0.079 C 
BRANCH   2   3
HETATM    3  C1  UNL     1     -34.236  14.961  -3.178  1.00 20.00     0.131 C 
HETATM    4  O13 UNL     1     -33.040  15.066  -3.421  1.00 20.00    -0.298 OA
BRANCH   3   5
HETATM    5  C4  UNL     1     -34.845  15.769  -2.083  1.00 20.00     0.055 A 
HETATM    6  C2  UNL     1     -34.044  16.875  -1.482  1.00 20.00     0.013 A 
HETATM    7  C3  UNL     1     -35.214  17.187  -2.365  1.00 20.00     0.013 A 
ENDBRANCH   3   5
ENDBRANCH   2   3
ENDBRANCH   1   2
BRANCH   1   8
HETATM    8  C10 UNL     1     -35.221  14.537  -6.390  1.00 20.00     0.001 C 
BRANCH   8   9
HETATM    9  C11 UNL     1     -34.153  15.555  -6.811  1.00 20.00     0.008 C 
BRANCH   9  10
HETATM   10  C12 UNL     1     -34.520  17.048  -6.590  1.00 20.00    -0.051 C 
HETATM   11  C5  UNL     1     -35.943  17.108  -6.001  1.00 20.00     0.014 C 
HETATM   12  C6  UNL     1     -34.509  17.826  -7.916  1.00 20.00     0.014 C 
HETATM   13  C7  UNL     1     -33.554  17.718  -5.600  1.00 20.00     0.014 C 
ENDBRANCH   9  10
ENDBRANCH   8   9
ENDBRANCH   1   8
TORSDOF 6
ENDMDL
MODEL 5
REMARK VINA RESULT:      -4.5     11.157     12.458
REMARK  6 active torsions:
REMARK  status: ('A' for Active; 'I' for Inactive)
REMARK    1  A    between atoms: C1_1  and  C4_4 
REMARK    2  A    between atoms: C1_1  and  C8_8 
REMARK    3  A    between atoms: C8_8  and  C9_9 
REMARK    4  A    between atoms: C9_9  and  C10_10 
REMARK    5  A    between atoms: C10_10  and  C11_11 
REMARK    6  A    between atoms: C11_11  and  C12_12 
ROOT
HETATM    1  C9  UNL     1     -33.706   5.548   2.661  1.00 20.00     0.007 C 
ENDROOT
BRANCH   1   2
HETATM    2  C8  UNL     1     -32.291   5.883   3.131  1.00 20.00     0.079 C 
BRANCH   2   3
HETATM    3  C1  UNL     1     -31.952   7.355   3.019  1.00 20.00     0.131 C 
HETATM    4  O13 UNL     1     -31.279   7.978   3.831  1.00 20.00    -0.298 OA
BRANCH   3   5
HETATM    5  C4  UNL     1     -32.527   8.056   1.835  1.00 20.00     0.055 A 
HETATM    6  C2  UNL     1     -32.456   9.546   1.785  1.00 20.00     0.013 A 
HETATM    7  C3  UNL     1     -31.593   8.720   0.879  1.00 20.00     0.013 A 
ENDBRANCH   3   5
ENDBRANCH   2   3
ENDBRANCH   1   2
BRANCH   1   8
HETATM    8  C10 UNL     1     -34.779   6.016   3.653  1.00 20.00     0.001 C 
BRANCH   8   9
HETATM    9  C11 UNL     1     -35.185   4.878   4.599  1.00 20.00     0.008 C 
BRANCH   9  10
HETATM   10  C12 UNL     1     -34.570   4.934   6.024  1.00 20.00    -0.051 C 
HETATM   11  C5  UNL     1     -35.672   4.560   7.035  1.00 20.00     0.014 C 
HETATM   12  C6  UNL     1     -34.063   6.347   6.357  1.00 20.00     0.014 C 
HETATM   13  C7  UNL     1     -33.414   3.933   6.172  1.00 20.00     0.014 C 
ENDBRANCH   9  10
ENDBRANCH   8   9
ENDBRANCH   1   8
TORSDOF 6
ENDMDL
MODEL 6
REMARK VINA RESULT:      -4.5      1.415      2.220
REMARK  6 active torsions:
REMARK  status: ('A' for Active; 'I' for Inactive)
REMARK    1  A    between atoms: C1_1  and  C4_4 
REMARK    2  A    between atoms: C1_1  and  C8_8 
REMARK    3  A    between atoms: C8_8  and  C9_9 
REMARK    4  A    between atoms: C9_9  and  C10_10 
REMARK    5  A    between atoms: C10_10  and  C11_11 
REMARK    6  A    between atoms: C11_11  and  C12_12 
ROOT
HETATM    1  C9  UNL     1     -33.139  15.335  -3.460  1.00 20.00     0.007 C 
ENDROOT
BRANCH   1   2
HETATM    2  C8  UNL     1     -34.000  14.075  -3.401  1.00 20.00     0.079 C 
BRANCH   2   3
HETATM    3  C1  UNL     1     -34.566  13.668  -4.746  1.00 20.00     0.131 C 
HETATM    4  O13 UNL     1     -34.852  12.521  -5.064  1.00 20.00    -0.298 OA
BRANCH   3   5
HETATM    5  C4  UNL     1     -34.740  14.777  -5.729  1.00 20.00     0.055 A 
HETATM    6  C2  UNL     1     -34.865  14.434  -7.176  1.00 20.00     0.013 A 
HETATM    7  C3  UNL     1     -36.059  14.922  -6.412  1.00 20.00     0.013 A 
ENDBRANCH   3   5
ENDBRANCH   2   3
ENDBRANCH   1   2
BRANCH   1   8
HETATM    8  C10 UNL     1     -33.633  16.426  -2.500  1.00 20.00     0.001 C 
BRANCH   8   9
HETATM    9  C11 UNL     1     -35.102  16.196  -2.118  1.00 20.00     0.008 C 
BRANCH   9  10
HETATM   10  C12 UNL     1     -36.127  17.164  -2.768  1.00 20.00    -0.051 C 
HETATM   11  C5  UNL     1     -36.641  18.121  -1.674  1.00 20.00     0.014 C 
HETATM   12  C6  UNL     1     -37.327  16.398  -3.348  1.00 20.00     0.014 C 
HETATM   13  C7  UNL     1     -35.475  18.002  -3.880  1.00 20.00     0.014 C 
ENDBRANCH   9  10
ENDBRANCH   8   9
ENDBRANCH   1   8
TORSDOF 6
ENDMDL
MODEL 7
REMARK VINA RESULT:      -4.5      1.671      5.418
REMARK  6 active torsions:
REMARK  status: ('A' for Active; 'I' for Inactive)
REMARK    1  A    between atoms: C1_1  and  C4_4 
REMARK    2  A    between atoms: C1_1  and  C8_8 
REMARK    3  A    between atoms: C8_8  and  C9_9 
REMARK    4  A    between atoms: C9_9  and  C10_10 
REMARK    5  A    between atoms: C10_10  and  C11_11 
REMARK    6  A    between atoms: C11_11  and  C12_12 
ROOT
HETATM    1  C9  UNL     1     -33.956  13.622  -3.842  1.00 20.00     0.007 C 
ENDROOT
BRANCH   1   2
HETATM    2  C8  UNL     1     -34.518  14.827  -3.090  1.00 20.00     0.079 C 
BRANCH   2   3
HETATM    3  C1  UNL     1     -33.649  16.063  -3.196  1.00 20.00     0.131 C 
HETATM    4  O13 UNL     1     -32.904  16.312  -4.135  1.00 20.00    -0.298 OA
BRANCH   3   5
HETATM    5  C4  UNL     1     -33.718  16.996  -2.034  1.00 20.00     0.055 A 
HETATM    6  C2  UNL     1     -34.991  17.736  -1.789  1.00 20.00     0.013 A 
HETATM    7  C3  UNL     1     -34.578  16.623  -0.873  1.00 20.00     0.013 A 
ENDBRANCH   3   5
ENDBRANCH   2   3
ENDBRANCH   1   2
BRANCH   1   8
HETATM    8  C10 UNL     1     -34.718  13.338  -5.144  1.00 20.00     0.001 C 
BRANCH   8   9
HETATM    9  C11 UNL     1     -35.861  14.342  -5.340  1.00 20.00     0.008 C 
BRANCH   9  10
HETATM   10  C12 UNL     1     -35.731  15.279  -6.572  1.00 20.00    -0.051 C 
HETATM   11  C5  UNL     1     -35.927  16.730  -6.092  1.00 20.00     0.014 C 
HETATM   12  C6  UNL     1     -36.805  14.966  -7.626  1.00 20.00     0.014 C 
HETATM   13  C7  UNL     1     -34.340  15.162  -7.216  1.00 20.00     0.014 C 
ENDBRANCH   9  10
ENDBRANCH   8   9
ENDBRANCH   1   8
TORSDOF 6
ENDMDL
MODEL 8
REMARK VINA RESULT:      -4.4      2.271      4.516
REMARK  6 active torsions:
REMARK  status: ('A' for Active; 'I' for Inactive)
REMARK    1  A    between atoms: C1_1  and  C4_4 
REMARK    2  A    between atoms: C1_1  and  C8_8 
REMARK    3  A    between atoms: C8_8  and  C9_9 
REMARK    4  A    between atoms: C9_9  and  C10_10 
REMARK    5  A    between atoms: C10_10  and  C11_11 
REMARK    6  A    between atoms: C11_11  and  C12_12 
ROOT
HETATM    1  C9  UNL     1     -35.487  14.319  -7.089  1.00 20.00     0.007 C 
ENDROOT
BRANCH   1   2
HETATM    2  C8  UNL     1     -34.478  14.688  -6.003  1.00 20.00     0.079 C 
BRANCH   2   3
HETATM    3  C1  UNL     1     -34.401  13.671  -4.882  1.00 20.00     0.131 C 
HETATM    4  O13 UNL     1     -34.840  12.530  -4.945  1.00 20.00    -0.298 OA
BRANCH   3   5
HETATM    5  C4  UNL     1     -33.762  14.153  -3.624  1.00 20.00     0.055 A 
HETATM    6  C2  UNL     1     -33.121  15.501  -3.620  1.00 20.00     0.013 A 
HETATM    7  C3  UNL     1     -34.407  15.277  -2.883  1.00 20.00     0.013 A 
ENDBRANCH   3   5
ENDBRANCH   2   3
ENDBRANCH   1   2
BRANCH   1   8
HETATM    8  C10 UNL     1     -36.783  15.133  -6.985  1.00 20.00     0.001 C 
BRANCH   8   9
HETATM    9  C11 UNL     1     -36.683  16.184  -5.871  1.00 20.00     0.008 C 
BRANCH   9  10
HETATM   10  C12 UNL     1     -37.800  16.132  -4.793  1.00 20.00    -0.051 C 
HETATM   11  C5  UNL     1     -37.475  17.187  -3.717  1.00 20.00     0.014 C 
HETATM   12  C6  UNL     1     -37.861  14.752  -4.119  1.00 20.00     0.014 C 
HETATM   13  C7  UNL     1     -39.174  16.461  -5.399  1.00 20.00     0.014 C 
ENDBRANCH   9  10
ENDBRANCH   8   9
ENDBRANCH   1   8
TORSDOF 6
ENDMDL
MODEL 9
REMARK VINA RESULT:      -4.4      3.040      6.919
REMARK  6 active torsions:
REMARK  status: ('A' for Active; 'I' for Inactive)
REMARK    1  A    between atoms: C1_1  and  C4_4 
REMARK    2  A    between atoms: C1_1  and  C8_8 
REMARK    3  A    between atoms: C8_8  and  C9_9 
REMARK    4  A    between atoms: C9_9  and  C10_10 
REMARK    5  A    between atoms: C10_10  and  C11_11 
REMARK    6  A    between atoms: C11_11  and  C12_12 
ROOT
HETATM    1  C9  UNL     1     -34.667  16.833  -0.503  1.00 20.00     0.007 C 
ENDROOT
BRANCH   1   2
HETATM    2  C8  UNL     1     -34.092  18.078   0.169  1.00 20.00     0.079 C 
BRANCH   2   3
HETATM    3  C1  UNL     1     -34.368  18.142   1.657  1.00 20.00     0.131 C 
HETATM    4  O13 UNL     1     -35.277  17.548   2.223  1.00 20.00    -0.298 OA
BRANCH   3   5
HETATM    5  C4  UNL     1     -33.460  19.029   2.440  1.00 20.00     0.055 A 
HETATM    6  C2  UNL     1     -32.499  18.402   3.394  1.00 20.00     0.013 A 
HETATM    7  C3  UNL     1     -32.002  19.014   2.120  1.00 20.00     0.013 A 
ENDBRANCH   3   5
ENDBRANCH   2   3
ENDBRANCH   1   2
BRANCH   1   8
HETATM    8  C10 UNL     1     -34.018  16.550  -1.864  1.00 20.00     0.001 C 
BRANCH   8   9
HETATM    9  C11 UNL     1     -34.810  15.490  -2.641  1.00 20.00     0.008 C 
BRANCH   9  10
HETATM   10  C12 UNL     1     -34.182  15.027  -3.983  1.00 20.00    -0.051 C 
HETATM   11  C5  UNL     1     -35.318  14.866  -5.012  1.00 20.00     0.014 C 
HETATM   12  C6  UNL     1     -33.470  13.674  -3.828  1.00 20.00     0.014 C 
HETATM   13  C7  UNL     1     -33.184  16.067  -4.518  1.00 20.00     0.014 C 
ENDBRANCH   9  10
ENDBRANCH   8   9
ENDBRANCH   1   8
TORSDOF 6
ENDMDL
