MODEL 1
REMARK VINA RESULT:      -4.4      0.000      0.000
REMARK  5 active torsions:
REMARK  status: ('A' for Active; 'I' for Inactive)
REMARK    1  A    between atoms: C6_6  and  C7_7 
REMARK    2  A    between atoms: C7_7  and  C8_8 
REMARK    3  A    between atoms: C8_8  and  C9_9 
REMARK    4  A    between atoms: C9_9  and  C10_10 
REMARK    5  A    between atoms: C10_10  and  C11_11 
ROOT
HETATM    1  C1  UNL     1     -34.621  16.569  -0.835  1.00 20.00     0.012 C 
HETATM    2  C2  UNL     1     -34.145  16.477  -1.933  1.00 20.00    -0.117 C 
HETATM    3  C6  UNL     1     -33.562  16.371  -3.278  1.00 20.00     0.093 C 
ENDROOT
BRANCH   3   4
HETATM    4  C7  UNL     1     -32.967  14.986  -3.544  1.00 20.00     0.012 C 
BRANCH   4   5
HETATM    5  C8  UNL     1     -34.020  13.869  -3.508  1.00 20.00     0.002 C 
BRANCH   5   6
HETATM    6  C9  UNL     1     -34.452  13.472  -4.927  1.00 20.00     0.021 C 
BRANCH   6   7
HETATM    7  C10 UNL     1     -35.807  14.080  -5.348  1.00 20.00     0.089 C 
HETATM    8 CL12 UNL     1     -36.688  14.625  -3.870  1.00 20.00    -0.124 Cl
BRANCH   7   9
HETATM    9  C11 UNL     1     -35.712  15.226  -6.415  1.00 20.00    -0.035 C 
HETATM   10  C3  UNL     1     -36.652  14.928  -7.604  1.00 20.00     0.016 C 
HETATM   11  C4  UNL     1     -36.171  16.571  -5.803  1.00 20.00     0.016 C 
HETATM   12  C5  UNL     1     -34.284  15.402  -6.963  1.00 20.00     0.016 C 
ENDBRANCH   7   9
ENDBRANCH   6   7
ENDBRANCH   5   6
ENDBRANCH   4   5
ENDBRANCH   3   4
TORSDOF 5
ENDMDL
MODEL 2
REMARK VINA RESULT:      -4.4      0.090      1.280
REMARK  5 active torsions:
REMARK  status: ('A' for Active; 'I' for Inactive)
REMARK    1  A    between atoms: C6_6  and  C7_7 
REMARK    2  A    between atoms: C7_7  and  C8_8 
REMARK    3  A    between atoms: C8_8  and  C9_9 
REMARK    4  A    between atoms: C9_9  and  C10_10 
REMARK    5  A    between atoms: C10_10  and  C11_11 
ROOT
HETATM    1  C1  UNL     1     -34.666  16.535  -0.903  1.00 20.00     0.012 C 
HETATM    2  C2  UNL     1     -34.135  16.478  -1.977  1.00 20.00    -0.117 C 
HETATM    3  C6  UNL     1     -33.485  16.413  -3.294  1.00 20.00     0.093 C 
ENDROOT
BRANCH   3   4
HETATM    4  C7  UNL     1     -32.939  15.017  -3.603  1.00 20.00     0.012 C 
BRANCH   4   5
HETATM    5  C8  UNL     1     -34.012  13.923  -3.508  1.00 20.00     0.002 C 
BRANCH   5   6
HETATM    6  C9  UNL     1     -34.457  13.465  -4.905  1.00 20.00     0.021 C 
BRANCH   6   7
HETATM    7  C10 UNL     1     -35.824  14.040  -5.333  1.00 20.00     0.089 C 
HETATM    8 CL12 UNL     1     -36.710  14.600  -3.864  1.00 20.00    -0.124 Cl
BRANCH   7   9
HETATM    9  C11 UNL     1     -35.752  15.166  -6.423  1.00 20.00    -0.035 C 
HETATM   10  C3  UNL     1     -36.047  16.543  -5.787  1.00 20.00     0.016 C 
HETATM   11  C4  UNL     1     -34.331  15.242  -7.027  1.00 20.00     0.016 C 
HETATM   12  C5  UNL     1     -36.757  14.942  -7.568  1.00 20.00     0.016 C 
ENDBRANCH   7   9
ENDBRANCH   6   7
ENDBRANCH   5   6
ENDBRANCH   4   5
ENDBRANCH   3   4
TORSDOF 5
ENDMDL
MODEL 3
REMARK VINA RESULT:      -4.4      0.034      1.251
REMARK  5 active torsions:
REMARK  status: ('A' for Active; 'I' for Inactive)
REMARK    1  A    between atoms: C6_6  and  C7_7 
REMARK    2  A    between atoms: C7_7  and  C8_8 
REMARK    3  A    between atoms: C8_8  and  C9_9 
REMARK    4  A    between atoms: C9_9  and  C10_10 
REMARK    5  A    between atoms: C10_10  and  C11_11 
ROOT
HETATM    1  C1  UNL     1     -34.641  16.580  -0.822  1.00 20.00     0.012 C 
HETATM    2  C2  UNL     1     -34.165  16.477  -1.919  1.00 20.00    -0.117 C 
HETATM    3  C6  UNL     1     -33.583  16.355  -3.263  1.00 20.00     0.093 C 
ENDROOT
BRANCH   3   4
HETATM    4  C7  UNL     1     -32.964  14.976  -3.505  1.00 20.00     0.012 C 
BRANCH   4   5
HETATM    5  C8  UNL     1     -34.006  13.849  -3.513  1.00 20.00     0.002 C 
BRANCH   5   6
HETATM    6  C9  UNL     1     -34.418  13.488  -4.948  1.00 20.00     0.021 C 
BRANCH   6   7
HETATM    7  C10 UNL     1     -35.788  14.069  -5.358  1.00 20.00     0.089 C 
HETATM    8 CL12 UNL     1     -36.672  14.588  -3.873  1.00 20.00    -0.124 Cl
BRANCH   7   9
HETATM    9  C11 UNL     1     -35.723  15.222  -6.419  1.00 20.00    -0.035 C 
HETATM   10  C3  UNL     1     -34.282  15.372  -6.957  1.00 20.00     0.016 C 
HETATM   11  C4  UNL     1     -36.625  14.891  -7.631  1.00 20.00     0.016 C 
HETATM   12  C5  UNL     1     -36.163  16.580  -5.841  1.00 20.00     0.016 C 
ENDBRANCH   7   9
ENDBRANCH   6   7
ENDBRANCH   5   6
ENDBRANCH   4   5
ENDBRANCH   3   4
TORSDOF 5
ENDMDL
MODEL 4
REMARK VINA RESULT:      -4.3      2.222      3.470
REMARK  5 active torsions:
REMARK  status: ('A' for Active; 'I' for Inactive)
REMARK    1  A    between atoms: C6_6  and  C7_7 
REMARK    2  A    between atoms: C7_7  and  C8_8 
REMARK    3  A    between atoms: C8_8  and  C9_9 
REMARK    4  A    between atoms: C9_9  and  C10_10 
REMARK    5  A    between atoms: C10_10  and  C11_11 
ROOT
HETATM    1  C1  UNL     1     -31.746  19.051   0.930  1.00 20.00     0.012 C 
HETATM    2  C2  UNL     1     -32.484  18.753   0.032  1.00 20.00    -0.117 C 
HETATM    3  C6  UNL     1     -33.385  18.390  -1.071  1.00 20.00     0.093 C 
ENDROOT
BRANCH   3   4
HETATM    4  C7  UNL     1     -34.562  17.532  -0.600  1.00 20.00     0.012 C 
BRANCH   4   5
HETATM    5  C8  UNL     1     -34.717  16.237  -1.410  1.00 20.00     0.002 C 
BRANCH   5   6
HETATM    6  C9  UNL     1     -33.704  16.184  -2.563  1.00 20.00     0.021 C 
BRANCH   6   7
HETATM    7  C10 UNL     1     -34.363  16.106  -3.957  1.00 20.00     0.089 C 
HETATM    8 CL12 UNL     1     -33.389  17.081  -5.121  1.00 20.00    -0.124 Cl
BRANCH   7   9
HETATM    9  C11 UNL     1     -34.606  14.650  -4.490  1.00 20.00    -0.035 C 
HETATM   10  C3  UNL     1     -36.036  14.184  -4.136  1.00 20.00     0.016 C 
HETATM   11  C4  UNL     1     -34.488  14.614  -6.031  1.00 20.00     0.016 C 
HETATM   12  C5  UNL     1     -33.610  13.634  -3.900  1.00 20.00     0.016 C 
ENDBRANCH   7   9
ENDBRANCH   6   7
ENDBRANCH   5   6
ENDBRANCH   4   5
ENDBRANCH   3   4
TORSDOF 5
ENDMDL
MODEL 5
REMARK VINA RESULT:      -4.2      1.923      3.911
REMARK  5 active torsions:
REMARK  status: ('A' for Active; 'I' for Inactive)
REMARK    1  A    between atoms: C6_6  and  C7_7 
REMARK    2  A    between atoms: C7_7  and  C8_8 
REMARK    3  A    between atoms: C8_8  and  C9_9 
REMARK    4  A    between atoms: C9_9  and  C10_10 
REMARK    5  A    between atoms: C10_10  and  C11_11 
ROOT
HETATM    1  C1  UNL     1     -34.789  15.013  -6.827  1.00 20.00     0.012 C 
HETATM    2  C2  UNL     1     -34.736  14.184  -5.961  1.00 20.00    -0.117 C 
HETATM    3  C6  UNL     1     -34.672  13.165  -4.904  1.00 20.00     0.093 C 
ENDROOT
BRANCH   3   4
HETATM    4  C7  UNL     1     -34.222  13.748  -3.562  1.00 20.00     0.012 C 
BRANCH   4   5
HETATM    5  C8  UNL     1     -33.114  14.800  -3.712  1.00 20.00     0.002 C 
BRANCH   5   6
HETATM    6  C9  UNL     1     -33.515  16.122  -3.040  1.00 20.00     0.021 C 
BRANCH   6   7
HETATM    7  C10 UNL     1     -34.896  16.067  -2.352  1.00 20.00     0.089 C 
HETATM    8 CL12 UNL     1     -34.714  16.580  -0.632  1.00 20.00    -0.124 Cl
BRANCH   7   9
HETATM    9  C11 UNL     1     -36.025  16.880  -3.077  1.00 20.00    -0.035 C 
HETATM   10  C3  UNL     1     -37.151  15.930  -3.544  1.00 20.00     0.016 C 
HETATM   11  C4  UNL     1     -36.667  17.896  -2.104  1.00 20.00     0.016 C 
HETATM   12  C5  UNL     1     -35.502  17.646  -4.307  1.00 20.00     0.016 C 
ENDBRANCH   7   9
ENDBRANCH   6   7
ENDBRANCH   5   6
ENDBRANCH   4   5
ENDBRANCH   3   4
TORSDOF 5
ENDMDL
MODEL 6
REMARK VINA RESULT:      -4.2      1.698      4.295
REMARK  5 active torsions:
REMARK  status: ('A' for Active; 'I' for Inactive)
REMARK    1  A    between atoms: C6_6  and  C7_7 
REMARK    2  A    between atoms: C7_7  and  C8_8 
REMARK    3  A    between atoms: C8_8  and  C9_9 
REMARK    4  A    between atoms: C9_9  and  C10_10 
REMARK    5  A    between atoms: C10_10  and  C11_11 
ROOT
HETATM    1  C1  UNL     1     -34.461  17.705  -6.927  1.00 20.00     0.012 C 
HETATM    2  C2  UNL     1     -34.407  16.514  -7.062  1.00 20.00    -0.117 C 
HETATM    3  C6  UNL     1     -34.337  15.056  -7.231  1.00 20.00     0.093 C 
ENDROOT
BRANCH   3   4
HETATM    4  C7  UNL     1     -35.342  14.320  -6.343  1.00 20.00     0.012 C 
BRANCH   4   5
HETATM    5  C8  UNL     1     -34.670  13.516  -5.221  1.00 20.00     0.002 C 
BRANCH   5   6
HETATM    6  C9  UNL     1     -35.236  13.906  -3.847  1.00 20.00     0.021 C 
BRANCH   6   7
HETATM    7  C10 UNL     1     -34.256  14.738  -2.993  1.00 20.00     0.089 C 
HETATM    8 CL12 UNL     1     -32.629  14.707  -3.773  1.00 20.00    -0.124 Cl
BRANCH   7   9
HETATM    9  C11 UNL     1     -34.724  16.206  -2.698  1.00 20.00    -0.035 C 
HETATM   10  C3  UNL     1     -34.673  16.487  -1.180  1.00 20.00     0.016 C 
HETATM   11  C4  UNL     1     -33.774  17.221  -3.377  1.00 20.00     0.016 C 
HETATM   12  C5  UNL     1     -36.158  16.477  -3.190  1.00 20.00     0.016 C 
ENDBRANCH   7   9
ENDBRANCH   6   7
ENDBRANCH   5   6
ENDBRANCH   4   5
ENDBRANCH   3   4
TORSDOF 5
ENDMDL
MODEL 7
REMARK VINA RESULT:      -4.2      1.943      3.192
REMARK  5 active torsions:
REMARK  status: ('A' for Active; 'I' for Inactive)
REMARK    1  A    between atoms: C6_6  and  C7_7 
REMARK    2  A    between atoms: C7_7  and  C8_8 
REMARK    3  A    between atoms: C8_8  and  C9_9 
REMARK    4  A    between atoms: C9_9  and  C10_10 
REMARK    5  A    between atoms: C10_10  and  C11_11 
ROOT
HETATM    1  C1  UNL     1     -34.617  16.767  -0.535  1.00 20.00     0.012 C 
HETATM    2  C2  UNL     1     -34.212  17.462  -1.424  1.00 20.00    -0.117 C 
HETATM    3  C6  UNL     1     -33.711  18.315  -2.512  1.00 20.00     0.093 C 
ENDROOT
BRANCH   3   4
HETATM    4  C7  UNL     1     -34.586  18.231  -3.765  1.00 20.00     0.012 C 
BRANCH   4   5
HETATM    5  C8  UNL     1     -33.766  18.130  -5.059  1.00 20.00     0.002 C 
BRANCH   5   6
HETATM    6  C9  UNL     1     -33.307  16.685  -5.310  1.00 20.00     0.021 C 
BRANCH   6   7
HETATM    7  C10 UNL     1     -34.475  15.703  -5.544  1.00 20.00     0.089 C 
HETATM    8 CL12 UNL     1     -34.335  15.014  -7.206  1.00 20.00    -0.124 Cl
BRANCH   7   9
HETATM    9  C11 UNL     1     -34.611  14.573  -4.464  1.00 20.00    -0.035 C 
HETATM   10  C3  UNL     1     -33.373  14.568  -3.539  1.00 20.00     0.016 C 
HETATM   11  C4  UNL     1     -35.844  14.830  -3.567  1.00 20.00     0.016 C 
HETATM   12  C5  UNL     1     -34.747  13.173  -5.092  1.00 20.00     0.016 C 
ENDBRANCH   7   9
ENDBRANCH   6   7
ENDBRANCH   5   6
ENDBRANCH   4   5
ENDBRANCH   3   4
TORSDOF 5
ENDMDL
MODEL 8
REMARK VINA RESULT:      -4.1      2.105      3.141
REMARK  5 active torsions:
REMARK  status: ('A' for Active; 'I' for Inactive)
REMARK    1  A    between atoms: C6_6  and  C7_7 
REMARK    2  A    between atoms: C7_7  and  C8_8 
REMARK    3  A    between atoms: C8_8  and  C9_9 
REMARK    4  A    between atoms: C9_9  and  C10_10 
REMARK    5  A    between atoms: C10_10  and  C11_11 
ROOT
HETATM    1  C1  UNL     1     -31.835  18.940   0.617  1.00 20.00     0.012 C 
HETATM    2  C2  UNL     1     -32.675  18.642  -0.187  1.00 20.00    -0.117 C 
HETATM    3  C6  UNL     1     -33.701  18.280  -1.175  1.00 20.00     0.093 C 
ENDROOT
BRANCH   3   4
HETATM    4  C7  UNL     1     -34.436  16.990  -0.803  1.00 20.00     0.012 C 
BRANCH   4   5
HETATM    5  C8  UNL     1     -34.400  15.940  -1.922  1.00 20.00     0.002 C 
BRANCH   5   6
HETATM    6  C9  UNL     1     -34.351  16.608  -3.304  1.00 20.00     0.021 C 
BRANCH   6   7
HETATM    7  C10 UNL     1     -33.713  15.720  -4.393  1.00 20.00     0.089 C 
HETATM    8 CL12 UNL     1     -32.418  14.712  -3.642  1.00 20.00    -0.124 Cl
BRANCH   7   9
HETATM    9  C11 UNL     1     -34.729  14.839  -5.202  1.00 20.00    -0.035 C 
HETATM   10  C3  UNL     1     -36.169  15.359  -4.996  1.00 20.00     0.016 C 
HETATM   11  C4  UNL     1     -34.430  14.925  -6.717  1.00 20.00     0.016 C 
HETATM   12  C5  UNL     1     -34.688  13.358  -4.780  1.00 20.00     0.016 C 
ENDBRANCH   7   9
ENDBRANCH   6   7
ENDBRANCH   5   6
ENDBRANCH   4   5
ENDBRANCH   3   4
TORSDOF 5
ENDMDL
MODEL 9
REMARK VINA RESULT:      -4.1      2.052      2.969
REMARK  5 active torsions:
REMARK  status: ('A' for Active; 'I' for Inactive)
REMARK    1  A    between atoms: C6_6  and  C7_7 
REMARK    2  A    between atoms: C7_7  and  C8_8 
REMARK    3  A    between atoms: C8_8  and  C9_9 
REMARK    4  A    between atoms: C9_9  and  C10_10 
REMARK    5  A    between atoms: C10_10  and  C11_11 
ROOT
HETATM    1  C1  UNL     1     -31.996  18.987   0.625  1.00 20.00     0.012 C 
HETATM    2  C2  UNL     1     -32.724  18.572  -0.235  1.00 20.00    -0.117 C 
HETATM    3  C6  UNL     1     -33.612  18.068  -1.291  1.00 20.00     0.093 C 
ENDROOT
BRANCH   3   4
HETATM    4  C7  UNL     1     -34.459  16.884  -0.820  1.00 20.00     0.012 C 
BRANCH   4   5
HETATM    5  C8  UNL     1     -34.711  15.853  -1.930  1.00 20.00     0.002 C 
BRANCH   5   6
HETATM    6  C9  UNL     1     -34.817  16.534  -3.302  1.00 20.00     0.021 C 
BRANCH   6   7
HETATM    7  C10 UNL     1     -34.046  15.793  -4.416  1.00 20.00     0.089 C 
HETATM    8 CL12 UNL     1     -32.631  14.945  -3.685  1.00 20.00    -0.124 Cl
BRANCH   7   9
HETATM    9  C11 UNL     1     -34.917  14.814  -5.279  1.00 20.00    -0.035 C 
HETATM   10  C3  UNL     1     -34.776  13.369  -4.752  1.00 20.00     0.016 C 
HETATM   11  C4  UNL     1     -36.414  15.189  -5.174  1.00 20.00     0.016 C 
HETATM   12  C5  UNL     1     -34.515  14.824  -6.766  1.00 20.00     0.016 C 
ENDBRANCH   7   9
ENDBRANCH   6   7
ENDBRANCH   5   6
ENDBRANCH   4   5
ENDBRANCH   3   4
TORSDOF 5
ENDMDL
