MODEL 1
REMARK VINA RESULT:      -5.1      0.000      0.000
REMARK  1 active torsions:
REMARK  status: ('A' for Active; 'I' for Inactive)
REMARK    1  A    between atoms: C8_8  and  C10_10 
ROOT
HETATM    1  C1  UNL     1     -35.040  17.287   0.378  1.00 20.00     0.012 C 
HETATM    2  C2  UNL     1     -34.467  17.037  -0.647  1.00 20.00    -0.117 C 
HETATM    3  C10 UNL     1     -33.754  16.745  -1.890  1.00 20.00     0.097 C 
ENDROOT
BRANCH   3   4
HETATM    4  C8  UNL     1     -34.566  15.782  -2.769  1.00 20.00    -0.002 C 
HETATM    5  C5  UNL     1     -33.615  14.781  -3.443  1.00 20.00     0.005 C 
HETATM    6  C3  UNL     1     -34.333  13.542  -3.962  1.00 20.00     0.000 C 
HETATM    7  C4  UNL     1     -34.944  13.662  -5.352  1.00 20.00     0.001 C 
HETATM    8  C6  UNL     1     -35.497  15.017  -5.784  1.00 20.00     0.016 C 
HETATM    9  C9  UNL     1     -36.266  15.859  -4.775  1.00 20.00     0.058 C 
HETATM   10  C7  UNL     1     -35.409  16.605  -3.755  1.00 20.00     0.021 C 
HETATM   11 BR11 UNL     1     -37.712  14.867  -3.926  1.00 20.00    -0.091 Br
ENDBRANCH   3   4
TORSDOF 1
ENDMDL
MODEL 2
REMARK VINA RESULT:      -4.9     11.041     12.261
REMARK  1 active torsions:
REMARK  status: ('A' for Active; 'I' for Inactive)
REMARK    1  A    between atoms: C8_8  and  C10_10 
ROOT
HETATM    1  C1  UNL     1     -32.198   8.824   1.175  1.00 20.00     0.012 C 
HETATM    2  C2  UNL     1     -32.010   8.169   2.163  1.00 20.00    -0.117 C 
HETATM    3  C10 UNL     1     -31.762   7.372   3.364  1.00 20.00     0.097 C 
ENDROOT
BRANCH   3   4
HETATM    4  C8  UNL     1     -33.082   6.867   3.964  1.00 20.00    -0.002 C 
HETATM    5  C5  UNL     1     -32.892   6.601   5.466  1.00 20.00     0.005 C 
HETATM    6  C3  UNL     1     -34.211   6.531   6.225  1.00 20.00     0.000 C 
HETATM    7  C4  UNL     1     -34.904   5.175   6.229  1.00 20.00     0.001 C 
HETATM    8  C6  UNL     1     -34.766   4.288   4.995  1.00 20.00     0.016 C 
HETATM    9  C9  UNL     1     -34.825   4.928   3.614  1.00 20.00     0.058 C 
HETATM   10  C7  UNL     1     -33.551   5.641   3.167  1.00 20.00     0.021 C 
HETATM   11 BR11 UNL     1     -36.406   6.041   3.376  1.00 20.00    -0.091 Br
ENDBRANCH   3   4
TORSDOF 1
ENDMDL
MODEL 3
REMARK VINA RESULT:      -4.8      1.769      2.187
REMARK  1 active torsions:
REMARK  status: ('A' for Active; 'I' for Inactive)
REMARK    1  A    between atoms: C8_8  and  C10_10 
ROOT
HETATM    1  C1  UNL     1     -32.874  18.402  -0.424  1.00 20.00     0.012 C 
HETATM    2  C2  UNL     1     -33.688  17.575  -0.732  1.00 20.00    -0.117 C 
HETATM    3  C10 UNL     1     -34.687  16.568  -1.090  1.00 20.00     0.097 C 
ENDROOT
BRANCH   3   4
HETATM    4  C8  UNL     1     -34.444  16.041  -2.511  1.00 20.00    -0.002 C 
HETATM    5  C5  UNL     1     -33.962  17.193  -3.407  1.00 20.00     0.005 C 
HETATM    6  C3  UNL     1     -33.282  16.706  -4.681  1.00 20.00     0.000 C 
HETATM    7  C4  UNL     1     -34.208  16.389  -5.848  1.00 20.00     0.001 C 
HETATM    8  C6  UNL     1     -35.592  15.825  -5.541  1.00 20.00     0.016 C 
HETATM    9  C9  UNL     1     -35.742  14.795  -4.430  1.00 20.00     0.058 C 
HETATM   10  C7  UNL     1     -35.725  15.355  -3.010  1.00 20.00     0.021 C 
HETATM   11 BR11 UNL     1     -34.518  13.293  -4.636  1.00 20.00    -0.091 Br
ENDBRANCH   3   4
TORSDOF 1
ENDMDL
MODEL 4
REMARK VINA RESULT:      -4.6      1.093      1.332
REMARK  1 active torsions:
REMARK  status: ('A' for Active; 'I' for Inactive)
REMARK    1  A    between atoms: C8_8  and  C10_10 
ROOT
HETATM    1  C1  UNL     1     -33.230  19.003  -1.561  1.00 20.00     0.012 C 
HETATM    2  C2  UNL     1     -33.778  17.972  -1.281  1.00 20.00    -0.117 C 
HETATM    3  C10 UNL     1     -34.443  16.720  -0.921  1.00 20.00     0.097 C 
ENDROOT
BRANCH   3   4
HETATM    4  C8  UNL     1     -34.880  15.955  -2.178  1.00 20.00    -0.002 C 
HETATM    5  C5  UNL     1     -33.636  15.507  -2.961  1.00 20.00     0.005 C 
HETATM    6  C3  UNL     1     -33.934  14.389  -3.953  1.00 20.00     0.000 C 
HETATM    7  C4  UNL     1     -34.445  14.832  -5.318  1.00 20.00     0.001 C 
HETATM    8  C6  UNL     1     -35.322  16.079  -5.393  1.00 20.00     0.016 C 
HETATM    9  C9  UNL     1     -36.372  16.310  -4.316  1.00 20.00     0.058 C 
HETATM   10  C7  UNL     1     -35.841  16.840  -2.986  1.00 20.00     0.021 C 
HETATM   11 BR11 UNL     1     -37.542  14.771  -4.072  1.00 20.00    -0.091 Br
ENDBRANCH   3   4
TORSDOF 1
ENDMDL
MODEL 5
REMARK VINA RESULT:      -4.6      1.944      2.450
REMARK  1 active torsions:
REMARK  status: ('A' for Active; 'I' for Inactive)
REMARK    1  A    between atoms: C8_8  and  C10_10 
ROOT
HETATM    1  C1  UNL     1     -33.336  18.301  -0.280  1.00 20.00     0.012 C 
HETATM    2  C2  UNL     1     -33.992  17.388  -0.702  1.00 20.00    -0.117 C 
HETATM    3  C10 UNL     1     -34.793  16.269  -1.198  1.00 20.00     0.097 C 
ENDROOT
BRANCH   3   4
HETATM    4  C8  UNL     1     -34.895  16.310  -2.729  1.00 20.00    -0.002 C 
HETATM    5  C5  UNL     1     -35.969  15.316  -3.197  1.00 20.00     0.005 C 
HETATM    6  C3  UNL     1     -36.453  15.592  -4.614  1.00 20.00     0.000 C 
HETATM    7  C4  UNL     1     -35.619  14.979  -5.732  1.00 20.00     0.001 C 
HETATM    8  C6  UNL     1     -34.112  14.855  -5.525  1.00 20.00     0.016 C 
HETATM    9  C9  UNL     1     -33.362  15.991  -4.844  1.00 20.00     0.058 C 
HETATM   10  C7  UNL     1     -33.503  16.052  -3.324  1.00 20.00     0.021 C 
HETATM   11 BR11 UNL     1     -33.710  17.718  -5.677  1.00 20.00    -0.091 Br
ENDBRANCH   3   4
TORSDOF 1
ENDMDL
MODEL 6
REMARK VINA RESULT:      -4.5      1.729      2.083
REMARK  1 active torsions:
REMARK  status: ('A' for Active; 'I' for Inactive)
REMARK    1  A    between atoms: C8_8  and  C10_10 
ROOT
HETATM    1  C1  UNL     1     -36.245  18.384  -0.881  1.00 20.00     0.012 C 
HETATM    2  C2  UNL     1     -35.381  17.561  -1.014  1.00 20.00    -0.117 C 
HETATM    3  C10 UNL     1     -34.323  16.562  -1.158  1.00 20.00     0.097 C 
ENDROOT
BRANCH   3   4
HETATM    4  C8  UNL     1     -34.266  16.034  -2.599  1.00 20.00    -0.002 C 
HETATM    5  C5  UNL     1     -33.784  17.154  -3.535  1.00 20.00     0.005 C 
HETATM    6  C3  UNL     1     -33.275  16.629  -4.871  1.00 20.00     0.000 C 
HETATM    7  C4  UNL     1     -34.335  16.401  -5.941  1.00 20.00     0.001 C 
HETATM    8  C6  UNL     1     -35.723  15.947  -5.500  1.00 20.00     0.016 C 
HETATM    9  C9  UNL     1     -35.845  14.920  -4.383  1.00 20.00     0.058 C 
HETATM   10  C7  UNL     1     -35.641  15.460  -2.970  1.00 20.00     0.021 C 
HETATM   11 BR11 UNL     1     -34.774  13.327  -4.717  1.00 20.00    -0.091 Br
ENDBRANCH   3   4
TORSDOF 1
ENDMDL
MODEL 7
REMARK VINA RESULT:      -4.4      2.306      4.770
REMARK  1 active torsions:
REMARK  status: ('A' for Active; 'I' for Inactive)
REMARK    1  A    between atoms: C8_8  and  C10_10 
ROOT
HETATM    1  C1  UNL     1     -33.289  13.886  -3.620  1.00 20.00     0.012 C 
HETATM    2  C2  UNL     1     -34.274  14.558  -3.476  1.00 20.00    -0.117 C 
HETATM    3  C10 UNL     1     -35.483  15.364  -3.310  1.00 20.00     0.097 C 
ENDROOT
BRANCH   3   4
HETATM    4  C8  UNL     1     -35.169  16.669  -2.566  1.00 20.00    -0.002 C 
HETATM    5  C5  UNL     1     -34.099  17.454  -3.340  1.00 20.00     0.005 C 
HETATM    6  C3  UNL     1     -34.042  18.924  -2.944  1.00 20.00     0.000 C 
HETATM    7  C4  UNL     1     -33.183  19.251  -1.729  1.00 20.00     0.001 C 
HETATM    8  C6  UNL     1     -33.101  18.225  -0.603  1.00 20.00     0.016 C 
HETATM    9  C9  UNL     1     -34.360  17.473  -0.195  1.00 20.00     0.058 C 
HETATM   10  C7  UNL     1     -34.771  16.331  -1.121  1.00 20.00     0.021 C 
HETATM   11 BR11 UNL     1     -35.849  18.668   0.194  1.00 20.00    -0.091 Br
ENDBRANCH   3   4
TORSDOF 1
ENDMDL
MODEL 8
REMARK VINA RESULT:      -4.3      2.485      3.890
REMARK  1 active torsions:
REMARK  status: ('A' for Active; 'I' for Inactive)
REMARK    1  A    between atoms: C8_8  and  C10_10 
ROOT
HETATM    1  C1  UNL     1     -34.989  18.079  -7.468  1.00 20.00     0.012 C 
HETATM    2  C2  UNL     1     -34.338  18.309  -6.486  1.00 20.00    -0.117 C 
HETATM    3  C10 UNL     1     -33.537  18.604  -5.298  1.00 20.00     0.097 C 
ENDROOT
BRANCH   3   4
HETATM    4  C8  UNL     1     -33.685  17.491  -4.252  1.00 20.00    -0.002 C 
HETATM    5  C5  UNL     1     -33.232  16.154  -4.860  1.00 20.00     0.005 C 
HETATM    6  C3  UNL     1     -32.920  15.100  -3.805  1.00 20.00     0.000 C 
HETATM    7  C4  UNL     1     -34.110  14.292  -3.304  1.00 20.00     0.001 C 
HETATM    8  C6  UNL     1     -35.468  14.982  -3.216  1.00 20.00     0.016 C 
HETATM    9  C9  UNL     1     -35.537  16.419  -2.721  1.00 20.00     0.058 C 
HETATM   10  C7  UNL     1     -35.133  17.484  -3.738  1.00 20.00     0.021 C 
HETATM   11 BR11 UNL     1     -34.633  16.664  -1.013  1.00 20.00    -0.091 Br
ENDBRANCH   3   4
TORSDOF 1
ENDMDL
MODEL 9
REMARK VINA RESULT:      -4.3      2.037      2.956
REMARK  1 active torsions:
REMARK  status: ('A' for Active; 'I' for Inactive)
REMARK    1  A    between atoms: C8_8  and  C10_10 
ROOT
HETATM    1  C1  UNL     1     -34.731  16.712  -1.204  1.00 20.00     0.012 C 
HETATM    2  C2  UNL     1     -34.577  15.915  -2.088  1.00 20.00    -0.117 C 
HETATM    3  C10 UNL     1     -34.378  14.933  -3.153  1.00 20.00     0.097 C 
ENDROOT
BRANCH   3   4
HETATM    4  C8  UNL     1     -35.024  15.413  -4.462  1.00 20.00    -0.002 C 
HETATM    5  C5  UNL     1     -36.448  14.845  -4.566  1.00 20.00     0.005 C 
HETATM    6  C3  UNL     1     -37.311  15.598  -5.571  1.00 20.00     0.000 C 
HETATM    7  C4  UNL     1     -37.190  15.145  -7.020  1.00 20.00     0.001 C 
HETATM    8  C6  UNL     1     -35.836  14.640  -7.510  1.00 20.00     0.016 C 
HETATM    9  C9  UNL     1     -34.571  15.353  -7.053  1.00 20.00     0.058 C 
HETATM   10  C7  UNL     1     -34.110  15.026  -5.634  1.00 20.00     0.021 C 
HETATM   11 BR11 UNL     1     -34.642  17.274  -7.371  1.00 20.00    -0.091 Br
ENDBRANCH   3   4
TORSDOF 1
ENDMDL
