MODEL 1
REMARK VINA RESULT:      -4.8      0.000      0.000
REMARK  1 active torsions:
REMARK  status: ('A' for Active; 'I' for Inactive)
REMARK    1  A    between atoms: C7_7  and  C9_9 
ROOT
HETATM    1  C1  UNL     1     -34.320  16.955  -0.720  1.00 20.00     0.012 C 
HETATM    2  C2  UNL     1     -34.734  16.291  -1.630  1.00 20.00    -0.117 C 
HETATM    3  C9  UNL     1     -35.251  15.484  -2.739  1.00 20.00     0.097 C 
ENDROOT
BRANCH   3   4
HETATM    4  C7  UNL     1     -34.115  14.766  -3.471  1.00 20.00    -0.002 C 
HETATM    5  C4  UNL     1     -33.140  15.763  -4.112  1.00 20.00     0.005 C 
HETATM    6  C3  UNL     1     -33.673  16.376  -5.405  1.00 20.00     0.002 C 
HETATM    7  C5  UNL     1     -34.060  15.296  -6.412  1.00 20.00     0.020 C 
HETATM    8  C8  UNL     1     -35.057  14.281  -5.850  1.00 20.00     0.082 C 
HETATM    9  C6  UNL     1     -34.611  13.727  -4.492  1.00 20.00     0.025 C 
HETATM   10 CL10 UNL     1     -36.696  14.993  -5.758  1.00 20.00    -0.125 Cl
ENDBRANCH   3   4
TORSDOF 1
ENDMDL
MODEL 2
REMARK VINA RESULT:      -4.8      0.980      1.096
REMARK  1 active torsions:
REMARK  status: ('A' for Active; 'I' for Inactive)
REMARK    1  A    between atoms: C7_7  and  C9_9 
ROOT
HETATM    1  C1  UNL     1     -33.469  17.851  -0.789  1.00 20.00     0.012 C 
HETATM    2  C2  UNL     1     -33.922  16.979  -1.478  1.00 20.00    -0.117 C 
HETATM    3  C9  UNL     1     -34.487  15.916  -2.314  1.00 20.00     0.097 C 
ENDROOT
BRANCH   3   4
HETATM    4  C7  UNL     1     -33.428  15.339  -3.256  1.00 20.00    -0.002 C 
HETATM    5  C4  UNL     1     -33.175  16.264  -4.454  1.00 20.00     0.005 C 
HETATM    6  C3  UNL     1     -34.265  16.177  -5.520  1.00 20.00     0.002 C 
HETATM    7  C5  UNL     1     -34.460  14.740  -5.997  1.00 20.00     0.020 C 
HETATM    8  C8  UNL     1     -34.748  13.763  -4.856  1.00 20.00     0.082 C 
HETATM    9  C6  UNL     1     -33.738  13.901  -3.711  1.00 20.00     0.025 C 
HETATM   10 CL10 UNL     1     -36.427  13.955  -4.271  1.00 20.00    -0.125 Cl
ENDBRANCH   3   4
TORSDOF 1
ENDMDL
MODEL 3
REMARK VINA RESULT:      -4.6      1.307      1.835
REMARK  1 active torsions:
REMARK  status: ('A' for Active; 'I' for Inactive)
REMARK    1  A    between atoms: C7_7  and  C9_9 
ROOT
HETATM    1  C1  UNL     1     -34.783  16.801  -0.821  1.00 20.00     0.012 C 
HETATM    2  C2  UNL     1     -34.383  16.249  -1.809  1.00 20.00    -0.117 C 
HETATM    3  C9  UNL     1     -33.883  15.582  -3.015  1.00 20.00     0.097 C 
ENDROOT
BRANCH   3   4
HETATM    4  C7  UNL     1     -34.814  14.443  -3.436  1.00 20.00    -0.002 C 
HETATM    5  C4  UNL     1     -34.292  13.721  -4.686  1.00 20.00     0.005 C 
HETATM    6  C3  UNL     1     -34.548  14.496  -5.977  1.00 20.00     0.002 C 
HETATM    7  C5  UNL     1     -36.029  14.826  -6.140  1.00 20.00     0.020 C 
HETATM    8  C8  UNL     1     -36.613  15.575  -4.942  1.00 20.00     0.082 C 
HETATM    9  C6  UNL     1     -36.278  14.888  -3.613  1.00 20.00     0.025 C 
HETATM   10 CL10 UNL     1     -36.079  17.283  -4.946  1.00 20.00    -0.125 Cl
ENDBRANCH   3   4
TORSDOF 1
ENDMDL
MODEL 4
REMARK VINA RESULT:      -4.6      1.552      2.171
REMARK  1 active torsions:
REMARK  status: ('A' for Active; 'I' for Inactive)
REMARK    1  A    between atoms: C7_7  and  C9_9 
ROOT
HETATM    1  C1  UNL     1     -34.772  16.991  -0.555  1.00 20.00     0.012 C 
HETATM    2  C2  UNL     1     -34.542  16.291  -1.502  1.00 20.00    -0.117 C 
HETATM    3  C9  UNL     1     -34.249  15.435  -2.656  1.00 20.00     0.097 C 
ENDROOT
BRANCH   3   4
HETATM    4  C7  UNL     1     -35.526  15.107  -3.433  1.00 20.00    -0.002 C 
HETATM    5  C4  UNL     1     -35.450  13.718  -4.081  1.00 20.00     0.005 C 
HETATM    6  C3  UNL     1     -34.595  13.692  -5.346  1.00 20.00     0.002 C 
HETATM    7  C5  UNL     1     -35.080  14.722  -6.363  1.00 20.00     0.020 C 
HETATM    8  C8  UNL     1     -35.152  16.139  -5.795  1.00 20.00     0.082 C 
HETATM    9  C6  UNL     1     -35.906  16.188  -4.461  1.00 20.00     0.025 C 
HETATM   10 CL10 UNL     1     -33.513  16.841  -5.643  1.00 20.00    -0.125 Cl
ENDBRANCH   3   4
TORSDOF 1
ENDMDL
MODEL 5
REMARK VINA RESULT:      -4.5     12.465     13.469
REMARK  1 active torsions:
REMARK  status: ('A' for Active; 'I' for Inactive)
REMARK    1  A    between atoms: C7_7  and  C9_9 
ROOT
HETATM    1  C1  UNL     1     -31.774   7.818   2.465  1.00 20.00     0.012 C 
HETATM    2  C2  UNL     1     -32.403   6.869   2.847  1.00 20.00    -0.117 C 
HETATM    3  C9  UNL     1     -33.161   5.703   3.309  1.00 20.00     0.097 C 
ENDROOT
BRANCH   3   4
HETATM    4  C7  UNL     1     -34.516   6.123   3.882  1.00 20.00    -0.002 C 
HETATM    5  C4  UNL     1     -34.354   7.080   5.071  1.00 20.00     0.005 C 
HETATM    6  C3  UNL     1     -33.954   6.371   6.362  1.00 20.00     0.002 C 
HETATM    7  C5  UNL     1     -34.941   5.260   6.712  1.00 20.00     0.020 C 
HETATM    8  C8  UNL     1     -35.131   4.248   5.582  1.00 20.00     0.082 C 
HETATM    9  C6  UNL     1     -35.421   4.930   4.240  1.00 20.00     0.025 C 
HETATM   10 CL10 UNL     1     -33.716   3.158   5.468  1.00 20.00    -0.125 Cl
ENDBRANCH   3   4
TORSDOF 1
ENDMDL
MODEL 6
REMARK VINA RESULT:      -4.3      1.622      1.972
REMARK  1 active torsions:
REMARK  status: ('A' for Active; 'I' for Inactive)
REMARK    1  A    between atoms: C7_7  and  C9_9 
ROOT
HETATM    1  C1  UNL     1     -35.035  17.286   0.396  1.00 20.00     0.012 C 
HETATM    2  C2  UNL     1     -34.434  17.128  -0.631  1.00 20.00    -0.117 C 
HETATM    3  C9  UNL     1     -33.694  16.947  -1.883  1.00 20.00     0.097 C 
ENDROOT
BRANCH   3   4
HETATM    4  C7  UNL     1     -34.064  15.621  -2.551  1.00 20.00    -0.002 C 
HETATM    5  C4  UNL     1     -33.114  15.287  -3.709  1.00 20.00     0.005 C 
HETATM    6  C3  UNL     1     -33.411  16.084  -4.977  1.00 20.00     0.002 C 
HETATM    7  C5  UNL     1     -34.862  15.902  -5.418  1.00 20.00     0.020 C 
HETATM    8  C8  UNL     1     -35.870  16.246  -4.321  1.00 20.00     0.082 C 
HETATM    9  C6  UNL     1     -35.537  15.553  -2.994  1.00 20.00     0.025 C 
HETATM   10 CL10 UNL     1     -35.998  18.019  -4.116  1.00 20.00    -0.125 Cl
ENDBRANCH   3   4
TORSDOF 1
ENDMDL
MODEL 7
REMARK VINA RESULT:      -4.3      1.862      4.280
REMARK  1 active torsions:
REMARK  status: ('A' for Active; 'I' for Inactive)
REMARK    1  A    between atoms: C7_7  and  C9_9 
ROOT
HETATM    1  C1  UNL     1     -35.608  14.405  -7.850  1.00 20.00     0.012 C 
HETATM    2  C2  UNL     1     -34.964  14.925  -6.981  1.00 20.00    -0.117 C 
HETATM    3  C9  UNL     1     -34.176  15.572  -5.927  1.00 20.00     0.097 C 
ENDROOT
BRANCH   3   4
HETATM    4  C7  UNL     1     -34.010  14.645  -4.721  1.00 20.00    -0.002 C 
HETATM    5  C4  UNL     1     -35.366  14.271  -4.106  1.00 20.00     0.005 C 
HETATM    6  C3  UNL     1     -35.964  15.385  -3.250  1.00 20.00     0.002 C 
HETATM    7  C5  UNL     1     -34.993  15.825  -2.157  1.00 20.00     0.020 C 
HETATM    8  C8  UNL     1     -33.626  16.243  -2.700  1.00 20.00     0.082 C 
HETATM    9  C6  UNL     1     -33.043  15.197  -3.658  1.00 20.00     0.025 C 
HETATM   10 CL10 UNL     1     -33.721  17.854  -3.472  1.00 20.00    -0.125 Cl
ENDBRANCH   3   4
TORSDOF 1
ENDMDL
MODEL 8
REMARK VINA RESULT:      -4.2      2.130      3.931
REMARK  1 active torsions:
REMARK  status: ('A' for Active; 'I' for Inactive)
REMARK    1  A    between atoms: C7_7  and  C9_9 
ROOT
HETATM    1  C1  UNL     1     -37.990  15.491  -6.751  1.00 20.00     0.012 C 
HETATM    2  C2  UNL     1     -37.068  15.837  -6.064  1.00 20.00    -0.117 C 
HETATM    3  C9  UNL     1     -35.951  16.267  -5.219  1.00 20.00     0.097 C 
ENDROOT
BRANCH   3   4
HETATM    4  C7  UNL     1     -34.632  15.664  -5.705  1.00 20.00    -0.002 C 
HETATM    5  C4  UNL     1     -34.726  14.137  -5.840  1.00 20.00     0.005 C 
HETATM    6  C3  UNL     1     -34.640  13.411  -4.500  1.00 20.00     0.002 C 
HETATM    7  C5  UNL     1     -33.371  13.796  -3.742  1.00 20.00     0.020 C 
HETATM    8  C8  UNL     1     -33.225  15.304  -3.543  1.00 20.00     0.082 C 
HETATM    9  C6  UNL     1     -33.421  16.080  -4.851  1.00 20.00     0.025 C 
HETATM   10 CL10 UNL     1     -34.340  15.883  -2.269  1.00 20.00    -0.125 Cl
ENDBRANCH   3   4
TORSDOF 1
ENDMDL
MODEL 9
REMARK VINA RESULT:      -4.2      1.654      3.974
REMARK  1 active torsions:
REMARK  status: ('A' for Active; 'I' for Inactive)
REMARK    1  A    between atoms: C7_7  and  C9_9 
ROOT
HETATM    1  C1  UNL     1     -34.739  14.882  -7.604  1.00 20.00     0.012 C 
HETATM    2  C2  UNL     1     -34.226  15.513  -6.721  1.00 20.00    -0.117 C 
HETATM    3  C9  UNL     1     -33.588  16.280  -5.647  1.00 20.00     0.097 C 
ENDROOT
BRANCH   3   4
HETATM    4  C7  UNL     1     -34.633  17.012  -4.802  1.00 20.00    -0.002 C 
HETATM    5  C4  UNL     1     -33.991  17.725  -3.604  1.00 20.00     0.005 C 
HETATM    6  C3  UNL     1     -33.636  16.776  -2.461  1.00 20.00     0.002 C 
HETATM    7  C5  UNL     1     -34.854  15.976  -2.006  1.00 20.00     0.020 C 
HETATM    8  C8  UNL     1     -35.531  15.212  -3.146  1.00 20.00     0.082 C 
HETATM    9  C6  UNL     1     -35.800  16.109  -4.360  1.00 20.00     0.025 C 
HETATM   10 CL10 UNL     1     -34.569  13.773  -3.597  1.00 20.00    -0.125 Cl
ENDBRANCH   3   4
TORSDOF 1
ENDMDL
