MODEL 1
REMARK VINA RESULT:      -5.8      0.000      0.000
REMARK  2 active torsions:
REMARK  status: ('A' for Active; 'I' for Inactive)
REMARK    1  A    between atoms: C2_2  and  C9_9 
REMARK    2  A    between atoms: C7_7  and  C9_9 
ROOT
HETATM    1  C1  UNL     1     -32.199   8.696   1.664  1.00 20.00    -0.111 C 
HETATM    2  C2  UNL     1     -32.199   7.785   2.447  1.00 20.00    -0.107 C 
HETATM    3  C8  UNL     1     -32.198   9.805   0.712  1.00 20.00     0.112 C 
ENDROOT
BRANCH   2   4
HETATM    4  C9  UNL     1     -32.204   6.672   3.404  1.00 20.00     0.099 C 
BRANCH   4   5
HETATM    5  C7  UNL     1     -33.597   6.427   3.958  1.00 20.00     0.004 C 
HETATM    6  C5  UNL     1     -33.587   6.003   5.428  1.00 20.00     0.083 C 
HETATM    7  C3  UNL     1     -34.877   5.231   5.534  1.00 20.00     0.127 C 
HETATM    8  C4  UNL     1     -35.477   4.934   4.185  1.00 20.00     0.079 C 
HETATM    9  O10 UNL     1     -35.382   4.888   6.596  1.00 20.00    -0.298 OA
HETATM   10  C6  UNL     1     -34.326   5.285   3.249  1.00 20.00     0.013 C 
ENDBRANCH   4   5
ENDBRANCH   2   4
TORSDOF 2
ENDMDL
MODEL 2
REMARK VINA RESULT:      -5.2     10.856     11.492
REMARK  2 active torsions:
REMARK  status: ('A' for Active; 'I' for Inactive)
REMARK    1  A    between atoms: C2_2  and  C9_9 
REMARK    2  A    between atoms: C7_7  and  C9_9 
ROOT
HETATM    1  C1  UNL     1     -34.793  17.284   0.225  1.00 20.00    -0.111 C 
HETATM    2  C2  UNL     1     -34.426  16.906  -0.854  1.00 20.00    -0.107 C 
HETATM    3  C8  UNL     1     -35.239  17.744   1.540  1.00 20.00     0.112 C 
ENDROOT
BRANCH   2   4
HETATM    4  C9  UNL     1     -33.979  16.440  -2.172  1.00 20.00     0.099 C 
BRANCH   4   5
HETATM    5  C7  UNL     1     -34.753  15.209  -2.614  1.00 20.00     0.004 C 
HETATM    6  C5  UNL     1     -33.916  14.255  -3.469  1.00 20.00     0.083 C 
HETATM    7  C3  UNL     1     -34.980  13.549  -4.271  1.00 20.00     0.127 C 
HETATM    8  C4  UNL     1     -36.323  14.222  -4.155  1.00 20.00     0.079 C 
HETATM    9  O10 UNL     1     -34.776  12.543  -4.937  1.00 20.00    -0.298 OA
HETATM   10  C6  UNL     1     -35.950  15.548  -3.502  1.00 20.00     0.013 C 
ENDBRANCH   4   5
ENDBRANCH   2   4
TORSDOF 2
ENDMDL
MODEL 3
REMARK VINA RESULT:      -4.8     10.794     11.909
REMARK  2 active torsions:
REMARK  status: ('A' for Active; 'I' for Inactive)
REMARK    1  A    between atoms: C2_2  and  C9_9 
REMARK    2  A    between atoms: C7_7  and  C9_9 
ROOT
HETATM    1  C1  UNL     1     -34.616  17.113  -0.380  1.00 20.00    -0.111 C 
HETATM    2  C2  UNL     1     -34.092  16.874  -1.434  1.00 20.00    -0.107 C 
HETATM    3  C8  UNL     1     -35.254  17.403   0.903  1.00 20.00     0.112 C 
ENDROOT
BRANCH   2   4
HETATM    4  C9  UNL     1     -33.454  16.579  -2.723  1.00 20.00     0.099 C 
BRANCH   4   5
HETATM    5  C7  UNL     1     -34.358  15.734  -3.605  1.00 20.00     0.004 C 
HETATM    6  C5  UNL     1     -34.196  14.233  -3.361  1.00 20.00     0.083 C 
HETATM    7  C3  UNL     1     -34.629  13.658  -4.685  1.00 20.00     0.127 C 
HETATM    8  C4  UNL     1     -34.746  14.713  -5.754  1.00 20.00     0.079 C 
HETATM    9  O10 UNL     1     -34.861  12.470  -4.870  1.00 20.00    -0.298 OA
HETATM   10  C6  UNL     1     -34.057  15.901  -5.095  1.00 20.00     0.013 C 
ENDBRANCH   4   5
ENDBRANCH   2   4
TORSDOF 2
ENDMDL
MODEL 4
REMARK VINA RESULT:      -4.8     10.911     11.550
REMARK  2 active torsions:
REMARK  status: ('A' for Active; 'I' for Inactive)
REMARK    1  A    between atoms: C2_2  and  C9_9 
REMARK    2  A    between atoms: C7_7  and  C9_9 
ROOT
HETATM    1  C1  UNL     1     -34.637  17.021  -0.481  1.00 20.00    -0.111 C 
HETATM    2  C2  UNL     1     -34.108  16.675  -1.503  1.00 20.00    -0.107 C 
HETATM    3  C8  UNL     1     -35.282  17.441   0.762  1.00 20.00     0.112 C 
ENDROOT
BRANCH   2   4
HETATM    4  C9  UNL     1     -33.464  16.254  -2.753  1.00 20.00     0.099 C 
BRANCH   4   5
HETATM    5  C7  UNL     1     -34.442  15.525  -3.659  1.00 20.00     0.004 C 
HETATM    6  C5  UNL     1     -35.891  15.633  -3.180  1.00 20.00     0.083 C 
HETATM    7  C3  UNL     1     -36.505  14.392  -3.776  1.00 20.00     0.127 C 
HETATM    8  C4  UNL     1     -35.466  13.441  -4.309  1.00 20.00     0.079 C 
HETATM    9  O10 UNL     1     -37.711  14.184  -3.825  1.00 20.00    -0.298 OA
HETATM   10  C6  UNL     1     -34.184  14.019  -3.720  1.00 20.00     0.013 C 
ENDBRANCH   4   5
ENDBRANCH   2   4
TORSDOF 2
ENDMDL
MODEL 5
REMARK VINA RESULT:      -4.4     10.940     12.139
REMARK  2 active torsions:
REMARK  status: ('A' for Active; 'I' for Inactive)
REMARK    1  A    between atoms: C2_2  and  C9_9 
REMARK    2  A    between atoms: C7_7  and  C9_9 
ROOT
HETATM    1  C1  UNL     1     -33.679  18.054  -4.864  1.00 20.00    -0.111 C 
HETATM    2  C2  UNL     1     -33.753  17.434  -3.838  1.00 20.00    -0.107 C 
HETATM    3  C8  UNL     1     -33.588  18.808  -6.114  1.00 20.00     0.112 C 
ENDROOT
BRANCH   2   4
HETATM    4  C9  UNL     1     -33.839  16.677  -2.584  1.00 20.00     0.099 C 
BRANCH   4   5
HETATM    5  C7  UNL     1     -34.596  15.373  -2.777  1.00 20.00     0.004 C 
HETATM    6  C5  UNL     1     -33.853  14.382  -3.675  1.00 20.00     0.083 C 
HETATM    7  C3  UNL     1     -34.987  13.552  -4.220  1.00 20.00     0.127 C 
HETATM    8  C4  UNL     1     -36.332  14.168  -3.936  1.00 20.00     0.079 C 
HETATM    9  O10 UNL     1     -34.833  12.496  -4.820  1.00 20.00    -0.298 OA
HETATM   10  C6  UNL     1     -35.943  15.567  -3.475  1.00 20.00     0.013 C 
ENDBRANCH   4   5
ENDBRANCH   2   4
TORSDOF 2
ENDMDL
MODEL 6
REMARK VINA RESULT:      -4.4     11.849     13.050
REMARK  2 active torsions:
REMARK  status: ('A' for Active; 'I' for Inactive)
REMARK    1  A    between atoms: C2_2  and  C9_9 
REMARK    2  A    between atoms: C7_7  and  C9_9 
ROOT
HETATM    1  C1  UNL     1     -34.447  16.567  -1.297  1.00 20.00    -0.111 C 
HETATM    2  C2  UNL     1     -34.012  15.999  -2.261  1.00 20.00    -0.107 C 
HETATM    3  C8  UNL     1     -34.977  17.258  -0.122  1.00 20.00     0.112 C 
ENDROOT
BRANCH   2   4
HETATM    4  C9  UNL     1     -33.482  15.307  -3.442  1.00 20.00     0.099 C 
BRANCH   4   5
HETATM    5  C7  UNL     1     -34.342  15.570  -4.667  1.00 20.00     0.004 C 
HETATM    6  C5  UNL     1     -34.637  14.302  -5.470  1.00 20.00     0.083 C 
HETATM    7  C3  UNL     1     -34.882  14.861  -6.849  1.00 20.00     0.127 C 
HETATM    8  C4  UNL     1     -34.469  16.305  -6.960  1.00 20.00     0.079 C 
HETATM    9  O10 UNL     1     -35.366  14.216  -7.770  1.00 20.00    -0.298 OA
HETATM   10  C6  UNL     1     -33.668  16.499  -5.678  1.00 20.00     0.013 C 
ENDBRANCH   4   5
ENDBRANCH   2   4
TORSDOF 2
ENDMDL
MODEL 7
REMARK VINA RESULT:      -4.2     10.969     12.114
REMARK  2 active torsions:
REMARK  status: ('A' for Active; 'I' for Inactive)
REMARK    1  A    between atoms: C2_2  and  C9_9 
REMARK    2  A    between atoms: C7_7  and  C9_9 
ROOT
HETATM    1  C1  UNL     1     -35.064  14.432  -6.623  1.00 20.00    -0.111 C 
HETATM    2  C2  UNL     1     -34.801  13.940  -5.559  1.00 20.00    -0.107 C 
HETATM    3  C8  UNL     1     -35.383  15.030  -7.918  1.00 20.00     0.112 C 
ENDROOT
BRANCH   2   4
HETATM    4  C9  UNL     1     -34.477  13.340  -4.259  1.00 20.00     0.099 C 
BRANCH   4   5
HETATM    5  C7  UNL     1     -34.415  14.393  -3.165  1.00 20.00     0.004 C 
HETATM    6  C5  UNL     1     -35.701  15.214  -3.057  1.00 20.00     0.083 C 
HETATM    7  C3  UNL     1     -35.196  16.499  -2.452  1.00 20.00     0.127 C 
HETATM    8  C4  UNL     1     -33.692  16.588  -2.476  1.00 20.00     0.079 C 
HETATM    9  O10 UNL     1     -35.924  17.369  -1.991  1.00 20.00    -0.298 OA
HETATM   10  C6  UNL     1     -33.328  15.441  -3.411  1.00 20.00     0.013 C 
ENDBRANCH   4   5
ENDBRANCH   2   4
TORSDOF 2
ENDMDL
MODEL 8
REMARK VINA RESULT:      -4.2     10.687     11.861
REMARK  2 active torsions:
REMARK  status: ('A' for Active; 'I' for Inactive)
REMARK    1  A    between atoms: C2_2  and  C9_9 
REMARK    2  A    between atoms: C7_7  and  C9_9 
ROOT
HETATM    1  C1  UNL     1     -34.420  14.677  -3.609  1.00 20.00    -0.111 C 
HETATM    2  C2  UNL     1     -34.143  15.785  -3.237  1.00 20.00    -0.107 C 
HETATM    3  C8  UNL     1     -34.757  13.329  -4.064  1.00 20.00     0.112 C 
ENDROOT
BRANCH   2   4
HETATM    4  C9  UNL     1     -33.809  17.139  -2.779  1.00 20.00     0.099 C 
BRANCH   4   5
HETATM    5  C7  UNL     1     -33.653  17.187  -1.268  1.00 20.00     0.004 C 
HETATM    6  C5  UNL     1     -34.946  16.849  -0.525  1.00 20.00     0.083 C 
HETATM    7  C3  UNL     1     -34.744  17.567   0.786  1.00 20.00     0.127 C 
HETATM    8  C4  UNL     1     -33.578  18.519   0.740  1.00 20.00     0.079 C 
HETATM    9  O10 UNL     1     -35.445  17.392   1.774  1.00 20.00    -0.298 OA
HETATM   10  C6  UNL     1     -33.283  18.579  -0.754  1.00 20.00     0.013 C 
ENDBRANCH   4   5
ENDBRANCH   2   4
TORSDOF 2
ENDMDL
MODEL 9
REMARK VINA RESULT:      -4.2     11.878     12.951
REMARK  2 active torsions:
REMARK  status: ('A' for Active; 'I' for Inactive)
REMARK    1  A    between atoms: C2_2  and  C9_9 
REMARK    2  A    between atoms: C7_7  and  C9_9 
ROOT
HETATM    1  C1  UNL     1     -34.094  18.189   0.850  1.00 20.00    -0.111 C 
HETATM    2  C2  UNL     1     -34.392  17.422  -0.024  1.00 20.00    -0.107 C 
HETATM    3  C8  UNL     1     -33.729  19.123   1.914  1.00 20.00     0.112 C 
ENDROOT
BRANCH   2   4
HETATM    4  C9  UNL     1     -34.758  16.480  -1.090  1.00 20.00     0.099 C 
BRANCH   4   5
HETATM    5  C7  UNL     1     -33.802  16.583  -2.268  1.00 20.00     0.004 C 
HETATM    6  C5  UNL     1     -34.128  17.752  -3.199  1.00 20.00     0.083 C 
HETATM    7  C3  UNL     1     -33.545  17.275  -4.505  1.00 20.00     0.127 C 
HETATM    8  C4  UNL     1     -33.173  15.816  -4.465  1.00 20.00     0.079 C 
HETATM    9  O10 UNL     1     -33.389  17.994  -5.484  1.00 20.00    -0.298 OA
HETATM   10  C6  UNL     1     -33.852  15.357  -3.180  1.00 20.00     0.013 C 
ENDBRANCH   4   5
ENDBRANCH   2   4
TORSDOF 2
ENDMDL
