MODEL 1
REMARK VINA RESULT:      -5.1      0.000      0.000
REMARK  3 active torsions:
REMARK  status: ('A' for Active; 'I' for Inactive)
REMARK    1  A    between atoms: C4_4  and  C7_7 
REMARK    2  A    between atoms: C7_7  and  C9_9 
REMARK    3  A    between atoms: C8_8  and  C9_9 
ROOT
HETATM    1  C1  UNL     1     -33.199   6.565   5.245  1.00 20.00     0.006 C 
HETATM    2  C2  UNL     1     -34.368   6.255   6.183  1.00 20.00     0.020 C 
HETATM    3  C3  UNL     1     -34.972   5.382   4.057  1.00 20.00     0.024 C 
HETATM    4  C4  UNL     1     -33.541   5.908   3.898  1.00 20.00    -0.013 C 
HETATM    5  C5  UNL     1     -35.102   5.082   5.545  1.00 20.00     0.082 C 
HETATM    6 CL10 UNL     1     -34.310   3.536   5.960  1.00 20.00    -0.125 Cl
ENDROOT
BRANCH   4   7
HETATM    7  C7  UNL     1     -33.392   6.855   2.718  1.00 20.00     0.005 C 
BRANCH   7   8
HETATM    8  C9  UNL     1     -32.058   7.598   2.762  1.00 20.00     0.000 C 
BRANCH   8   9
HETATM    9  C8  UNL     1     -31.824   8.395   1.479  1.00 20.00    -0.005 C 
HETATM   10  C6  UNL     1     -32.491   9.760   1.541  1.00 20.00     0.005 C 
ENDBRANCH   8   9
ENDBRANCH   7   8
ENDBRANCH   4   7
TORSDOF 3
ENDMDL
MODEL 2
REMARK VINA RESULT:      -4.6     11.405     12.244
REMARK  3 active torsions:
REMARK  status: ('A' for Active; 'I' for Inactive)
REMARK    1  A    between atoms: C4_4  and  C7_7 
REMARK    2  A    between atoms: C7_7  and  C9_9 
REMARK    3  A    between atoms: C8_8  and  C9_9 
ROOT
HETATM    1  C1  UNL     1     -33.597  13.988  -3.809  1.00 20.00     0.006 C 
HETATM    2  C2  UNL     1     -34.828  13.342  -4.449  1.00 20.00     0.020 C 
HETATM    3  C3  UNL     1     -35.227  15.684  -4.459  1.00 20.00     0.024 C 
HETATM    4  C4  UNL     1     -33.805  15.507  -3.912  1.00 20.00    -0.013 C 
HETATM    5  C5  UNL     1     -35.468  14.435  -5.296  1.00 20.00     0.082 C 
HETATM    6 CL10 UNL     1     -34.662  14.561  -6.885  1.00 20.00    -0.125 Cl
ENDROOT
BRANCH   4   7
HETATM    7  C7  UNL     1     -33.592  16.228  -2.590  1.00 20.00     0.005 C 
BRANCH   7   8
HETATM    8  C9  UNL     1     -34.841  16.169  -1.712  1.00 20.00     0.000 C 
BRANCH   8   9
HETATM    9  C8  UNL     1     -34.648  16.961  -0.419  1.00 20.00    -0.005 C 
HETATM   10  C6  UNL     1     -33.498  17.949  -0.536  1.00 20.00     0.005 C 
ENDBRANCH   8   9
ENDBRANCH   7   8
ENDBRANCH   4   7
TORSDOF 3
ENDMDL
MODEL 3
REMARK VINA RESULT:      -4.5     11.195     12.289
REMARK  3 active torsions:
REMARK  status: ('A' for Active; 'I' for Inactive)
REMARK    1  A    between atoms: C4_4  and  C7_7 
REMARK    2  A    between atoms: C7_7  and  C9_9 
REMARK    3  A    between atoms: C8_8  and  C9_9 
ROOT
HETATM    1  C1  UNL     1     -33.136  15.476  -3.551  1.00 20.00     0.006 C 
HETATM    2  C2  UNL     1     -33.668  16.886  -3.283  1.00 20.00     0.020 C 
HETATM    3  C3  UNL     1     -35.549  15.438  -3.184  1.00 20.00     0.024 C 
HETATM    4  C4  UNL     1     -34.333  14.525  -3.382  1.00 20.00    -0.013 C 
HETATM    5  C5  UNL     1     -34.979  16.692  -2.533  1.00 20.00     0.082 C 
HETATM    6 CL10 UNL     1     -34.682  16.431  -0.791  1.00 20.00    -0.125 Cl
ENDROOT
BRANCH   4   7
HETATM    7  C7  UNL     1     -34.502  13.567  -4.550  1.00 20.00     0.005 C 
BRANCH   7   8
HETATM    8  C9  UNL     1     -35.383  14.169  -5.644  1.00 20.00     0.000 C 
BRANCH   8   9
HETATM    9  C8  UNL     1     -34.546  14.644  -6.832  1.00 20.00    -0.005 C 
HETATM   10  C6  UNL     1     -34.534  16.161  -6.934  1.00 20.00     0.005 C 
ENDBRANCH   8   9
ENDBRANCH   7   8
ENDBRANCH   4   7
TORSDOF 3
ENDMDL
MODEL 4
REMARK VINA RESULT:      -4.4      1.175      1.442
REMARK  3 active torsions:
REMARK  status: ('A' for Active; 'I' for Inactive)
REMARK    1  A    between atoms: C4_4  and  C7_7 
REMARK    2  A    between atoms: C7_7  and  C9_9 
REMARK    3  A    between atoms: C8_8  and  C9_9 
ROOT
HETATM    1  C1  UNL     1     -34.688   6.696   3.700  1.00 20.00     0.006 C 
HETATM    2  C2  UNL     1     -35.734   5.592   3.869  1.00 20.00     0.020 C 
HETATM    3  C3  UNL     1     -33.626   4.579   4.288  1.00 20.00     0.024 C 
HETATM    4  C4  UNL     1     -33.336   6.069   4.075  1.00 20.00    -0.013 C 
HETATM    5  C5  UNL     1     -35.076   4.538   4.752  1.00 20.00     0.082 C 
HETATM    6 CL10 UNL     1     -35.210   4.982   6.477  1.00 20.00    -0.125 Cl
ENDROOT
BRANCH   4   7
HETATM    7  C7  UNL     1     -32.257   6.313   3.032  1.00 20.00     0.005 C 
BRANCH   7   8
HETATM    8  C9  UNL     1     -31.868   7.789   2.963  1.00 20.00     0.000 C 
BRANCH   8   9
HETATM    9  C8  UNL     1     -31.929   8.314   1.529  1.00 20.00    -0.005 C 
HETATM   10  C6  UNL     1     -32.470   9.734   1.477  1.00 20.00     0.005 C 
ENDBRANCH   8   9
ENDBRANCH   7   8
ENDBRANCH   4   7
TORSDOF 3
ENDMDL
MODEL 5
REMARK VINA RESULT:      -4.3     11.482     12.258
REMARK  3 active torsions:
REMARK  status: ('A' for Active; 'I' for Inactive)
REMARK    1  A    between atoms: C4_4  and  C7_7 
REMARK    2  A    between atoms: C7_7  and  C9_9 
REMARK    3  A    between atoms: C8_8  and  C9_9 
ROOT
HETATM    1  C1  UNL     1     -35.731  15.702  -3.303  1.00 20.00     0.006 C 
HETATM    2  C2  UNL     1     -35.712  15.519  -4.822  1.00 20.00     0.020 C 
HETATM    3  C3  UNL     1     -33.441  15.510  -4.125  1.00 20.00     0.024 C 
HETATM    4  C4  UNL     1     -34.270  15.589  -2.838  1.00 20.00    -0.013 C 
HETATM    5  C5  UNL     1     -34.375  14.861  -5.138  1.00 20.00     0.082 C 
HETATM    6 CL10 UNL     1     -34.463  13.094  -4.889  1.00 20.00    -0.125 Cl
ENDROOT
BRANCH   4   7
HETATM    7  C7  UNL     1     -33.842  16.734  -1.934  1.00 20.00     0.005 C 
BRANCH   7   8
HETATM    8  C9  UNL     1     -34.703  16.804  -0.674  1.00 20.00     0.000 C 
BRANCH   8   9
HETATM    9  C8  UNL     1     -34.208  17.892   0.278  1.00 20.00    -0.005 C 
HETATM   10  C6  UNL     1     -32.900  18.501  -0.204  1.00 20.00     0.005 C 
ENDBRANCH   8   9
ENDBRANCH   7   8
ENDBRANCH   4   7
TORSDOF 3
ENDMDL
MODEL 6
REMARK VINA RESULT:      -4.2     11.362     12.161
REMARK  3 active torsions:
REMARK  status: ('A' for Active; 'I' for Inactive)
REMARK    1  A    between atoms: C4_4  and  C7_7 
REMARK    2  A    between atoms: C7_7  and  C9_9 
REMARK    3  A    between atoms: C8_8  and  C9_9 
ROOT
HETATM    1  C1  UNL     1     -35.674  15.628  -3.034  1.00 20.00     0.006 C 
HETATM    2  C2  UNL     1     -35.679  15.501  -4.559  1.00 20.00     0.020 C 
HETATM    3  C3  UNL     1     -33.399  15.688  -3.917  1.00 20.00     0.024 C 
HETATM    4  C4  UNL     1     -34.197  15.641  -2.608  1.00 20.00    -0.013 C 
HETATM    5  C5  UNL     1     -34.294  14.987  -4.931  1.00 20.00     0.082 C 
HETATM    6 CL10 UNL     1     -34.206  13.213  -4.746  1.00 20.00    -0.125 Cl
ENDROOT
BRANCH   4   7
HETATM    7  C7  UNL     1     -33.856  16.790  -1.673  1.00 20.00     0.005 C 
BRANCH   7   8
HETATM    8  C9  UNL     1     -34.942  16.993  -0.617  1.00 20.00     0.000 C 
BRANCH   8   9
HETATM    9  C8  UNL     1     -34.431  17.833   0.553  1.00 20.00    -0.005 C 
HETATM   10  C6  UNL     1     -35.292  17.646   1.792  1.00 20.00     0.005 C 
ENDBRANCH   8   9
ENDBRANCH   7   8
ENDBRANCH   4   7
TORSDOF 3
ENDMDL
MODEL 7
REMARK VINA RESULT:      -4.1     11.823     13.060
REMARK  3 active torsions:
REMARK  status: ('A' for Active; 'I' for Inactive)
REMARK    1  A    between atoms: C4_4  and  C7_7 
REMARK    2  A    between atoms: C7_7  and  C9_9 
REMARK    3  A    between atoms: C8_8  and  C9_9 
ROOT
HETATM    1  C1  UNL     1     -34.145  16.235  -5.687  1.00 20.00     0.006 C 
HETATM    2  C2  UNL     1     -34.235  15.585  -7.069  1.00 20.00     0.020 C 
HETATM    3  C3  UNL     1     -34.932  13.931  -5.512  1.00 20.00     0.024 C 
HETATM    4  C4  UNL     1     -34.696  15.203  -4.689  1.00 20.00    -0.013 C 
HETATM    5  C5  UNL     1     -35.228  14.438  -6.918  1.00 20.00     0.082 C 
HETATM    6 CL10 UNL     1     -36.907  15.032  -7.046  1.00 20.00    -0.125 Cl
ENDROOT
BRANCH   4   7
HETATM    7  C7  UNL     1     -33.776  14.971  -3.502  1.00 20.00     0.005 C 
BRANCH   7   8
HETATM    8  C9  UNL     1     -33.689  16.209  -2.611  1.00 20.00     0.000 C 
BRANCH   8   9
HETATM    9  C8  UNL     1     -34.802  16.221  -1.565  1.00 20.00    -0.005 C 
HETATM   10  C6  UNL     1     -34.468  17.147  -0.406  1.00 20.00     0.005 C 
ENDBRANCH   8   9
ENDBRANCH   7   8
ENDBRANCH   4   7
TORSDOF 3
ENDMDL
MODEL 8
REMARK VINA RESULT:      -4.1     11.015     12.234
REMARK  3 active torsions:
REMARK  status: ('A' for Active; 'I' for Inactive)
REMARK    1  A    between atoms: C4_4  and  C7_7 
REMARK    2  A    between atoms: C7_7  and  C9_9 
REMARK    3  A    between atoms: C8_8  and  C9_9 
ROOT
HETATM    1  C1  UNL     1     -33.767  17.571  -3.370  1.00 20.00     0.006 C 
HETATM    2  C2  UNL     1     -35.024  18.096  -2.674  1.00 20.00     0.020 C 
HETATM    3  C3  UNL     1     -34.778  15.836  -1.983  1.00 20.00     0.024 C 
HETATM    4  C4  UNL     1     -33.546  16.144  -2.841  1.00 20.00    -0.013 C 
HETATM    5  C5  UNL     1     -35.226  17.196  -1.461  1.00 20.00     0.082 C 
HETATM    6 CL10 UNL     1     -34.203  17.729  -0.098  1.00 20.00    -0.125 Cl
ENDROOT
BRANCH   4   7
HETATM    7  C7  UNL     1     -33.332  15.125  -3.948  1.00 20.00     0.005 C 
BRANCH   7   8
HETATM    8  C9  UNL     1     -34.031  13.802  -3.634  1.00 20.00     0.000 C 
BRANCH   8   9
HETATM    9  C8  UNL     1     -34.866  13.319  -4.819  1.00 20.00    -0.005 C 
HETATM   10  C6  UNL     1     -34.814  14.305  -5.976  1.00 20.00     0.005 C 
ENDBRANCH   8   9
ENDBRANCH   7   8
ENDBRANCH   4   7
TORSDOF 3
ENDMDL
MODEL 9
REMARK VINA RESULT:      -4.1      2.536      4.792
REMARK  3 active torsions:
REMARK  status: ('A' for Active; 'I' for Inactive)
REMARK    1  A    between atoms: C4_4  and  C7_7 
REMARK    2  A    between atoms: C7_7  and  C9_9 
REMARK    3  A    between atoms: C8_8  and  C9_9 
ROOT
HETATM    1  C1  UNL     1     -32.854   7.087   4.342  1.00 20.00     0.006 C 
HETATM    2  C2  UNL     1     -31.520   7.643   3.839  1.00 20.00     0.020 C 
HETATM    3  C3  UNL     1     -32.563   6.623   1.964  1.00 20.00     0.024 C 
HETATM    4  C4  UNL     1     -33.578   6.522   3.109  1.00 20.00    -0.013 C 
HETATM    5  C5  UNL     1     -31.691   7.815   2.335  1.00 20.00     0.082 C 
HETATM    6 CL10 UNL     1     -32.515   9.355   1.962  1.00 20.00    -0.125 Cl
ENDROOT
BRANCH   4   7
HETATM    7  C7  UNL     1     -34.090   5.106   3.316  1.00 20.00     0.005 C 
BRANCH   7   8
HETATM    8  C9  UNL     1     -35.330   5.084   4.208  1.00 20.00     0.000 C 
BRANCH   8   9
HETATM    9  C8  UNL     1     -35.079   4.287   5.489  1.00 20.00    -0.005 C 
HETATM   10  C6  UNL     1     -34.589   5.183   6.616  1.00 20.00     0.005 C 
ENDBRANCH   8   9
ENDBRANCH   7   8
ENDBRANCH   4   7
TORSDOF 3
ENDMDL
