MODEL 1
REMARK VINA RESULT:      -4.7      0.000      0.000
REMARK  3 active torsions:
REMARK  status: ('A' for Active; 'I' for Inactive)
REMARK    1  A    between atoms: C1_1  and  C3_3 
REMARK    2  A    between atoms: C2_2  and  C7_7 
REMARK    3  A    between atoms: C7_7  and  C8_8 
ROOT
HETATM    1  C1  UNL     1     -32.668   7.729   2.601  1.00 20.00     0.005 C 
HETATM    2  C2  UNL     1     -33.081   6.855   3.315  1.00 20.00    -0.090 C 
ENDROOT
BRANCH   2   3
HETATM    3  C7  UNL     1     -33.587   5.778   4.188  1.00 20.00     0.065 C 
HETATM    4  C4  UNL     1     -34.574   4.902   3.411  1.00 20.00     0.024 C 
BRANCH   3   5
HETATM    5  C8  UNL     1     -34.204   6.314   5.506  1.00 20.00    -0.007 C 
HETATM    6  C5  UNL     1     -34.854   5.235   6.378  1.00 20.00     0.011 C 
HETATM    7  C6  UNL     1     -33.175   7.099   6.331  1.00 20.00     0.011 C 
ENDBRANCH   3   5
ENDBRANCH   2   3
BRANCH   1   8
HETATM    8  C3  UNL     1     -32.141   8.853   1.688  1.00 20.00     0.258 C 
HETATM    9  O9  UNL     1     -32.592  10.012   1.923  1.00 20.00    -0.637 OA
HETATM   10  O10 UNL     1     -31.314   8.501   0.798  1.00 20.00    -0.637 OA
ENDBRANCH   1   8
TORSDOF 3
ENDMDL
MODEL 2
REMARK VINA RESULT:      -4.6     10.033     11.266
REMARK  3 active torsions:
REMARK  status: ('A' for Active; 'I' for Inactive)
REMARK    1  A    between atoms: C1_1  and  C3_3 
REMARK    2  A    between atoms: C2_2  and  C7_7 
REMARK    3  A    between atoms: C7_7  and  C8_8 
ROOT
HETATM    1  C1  UNL     1     -34.276  14.801  -3.133  1.00 20.00     0.005 C 
HETATM    2  C2  UNL     1     -34.439  15.876  -2.621  1.00 20.00    -0.090 C 
ENDROOT
BRANCH   2   3
HETATM    3  C7  UNL     1     -34.638  17.200  -1.998  1.00 20.00     0.065 C 
HETATM    4  C4  UNL     1     -34.108  18.295  -2.927  1.00 20.00     0.024 C 
BRANCH   3   5
HETATM    5  C8  UNL     1     -34.017  17.294  -0.581  1.00 20.00    -0.007 C 
HETATM    6  C5  UNL     1     -33.006  18.434  -0.414  1.00 20.00     0.011 C 
HETATM    7  C6  UNL     1     -35.099  17.398   0.503  1.00 20.00     0.011 C 
ENDBRANCH   3   5
ENDBRANCH   2   3
BRANCH   1   8
HETATM    8  C3  UNL     1     -34.066  13.421  -3.783  1.00 20.00     0.258 C 
HETATM    9  O9  UNL     1     -35.104  12.868  -4.252  1.00 20.00    -0.637 OA
HETATM   10  O10 UNL     1     -32.879  12.983  -3.781  1.00 20.00    -0.637 OA
ENDBRANCH   1   8
TORSDOF 3
ENDMDL
MODEL 3
REMARK VINA RESULT:      -4.2     10.625     11.209
REMARK  3 active torsions:
REMARK  status: ('A' for Active; 'I' for Inactive)
REMARK    1  A    between atoms: C1_1  and  C3_3 
REMARK    2  A    between atoms: C2_2  and  C7_7 
REMARK    3  A    between atoms: C7_7  and  C8_8 
ROOT
HETATM    1  C1  UNL     1     -34.732  16.761  -0.986  1.00 20.00     0.005 C 
HETATM    2  C2  UNL     1     -34.900  16.176  -2.022  1.00 20.00    -0.090 C 
ENDROOT
BRANCH   2   3
HETATM    3  C7  UNL     1     -35.101  15.456  -3.295  1.00 20.00     0.065 C 
HETATM    4  C4  UNL     1     -36.570  15.049  -3.433  1.00 20.00     0.024 C 
BRANCH   3   5
HETATM    5  C8  UNL     1     -34.148  14.243  -3.454  1.00 20.00    -0.007 C 
HETATM    6  C5  UNL     1     -34.564  13.260  -4.554  1.00 20.00     0.011 C 
HETATM    7  C6  UNL     1     -32.698  14.692  -3.680  1.00 20.00     0.011 C 
ENDBRANCH   3   5
ENDBRANCH   2   3
BRANCH   1   8
HETATM    8  C3  UNL     1     -34.521  17.514   0.341  1.00 20.00     0.258 C 
HETATM    9  O9  UNL     1     -33.511  18.276   0.389  1.00 20.00    -0.637 OA
HETATM   10  O10 UNL     1     -35.377  17.293   1.246  1.00 20.00    -0.637 OA
ENDBRANCH   1   8
TORSDOF 3
ENDMDL
MODEL 4
REMARK VINA RESULT:      -4.2     10.478     11.867
REMARK  3 active torsions:
REMARK  status: ('A' for Active; 'I' for Inactive)
REMARK    1  A    between atoms: C1_1  and  C3_3 
REMARK    2  A    between atoms: C2_2  and  C7_7 
REMARK    3  A    between atoms: C7_7  and  C8_8 
ROOT
HETATM    1  C1  UNL     1     -34.359  16.370  -1.649  1.00 20.00     0.005 C 
HETATM    2  C2  UNL     1     -34.460  15.669  -2.619  1.00 20.00    -0.090 C 
ENDROOT
BRANCH   2   3
HETATM    3  C7  UNL     1     -34.582  14.803  -3.809  1.00 20.00     0.065 C 
HETATM    4  C4  UNL     1     -33.510  13.712  -3.767  1.00 20.00     0.024 C 
BRANCH   3   5
HETATM    5  C8  UNL     1     -34.542  15.602  -5.138  1.00 20.00    -0.007 C 
HETATM    6  C5  UNL     1     -33.335  16.537  -5.271  1.00 20.00     0.011 C 
HETATM    7  C6  UNL     1     -34.614  14.672  -6.357  1.00 20.00     0.011 C 
ENDBRANCH   3   5
ENDBRANCH   2   3
BRANCH   1   8
HETATM    8  C3  UNL     1     -34.230  17.274  -0.408  1.00 20.00     0.258 C 
HETATM    9  O9  UNL     1     -35.122  17.127   0.477  1.00 20.00    -0.637 OA
HETATM   10  O10 UNL     1     -33.246  18.070  -0.403  1.00 20.00    -0.637 OA
ENDBRANCH   1   8
TORSDOF 3
ENDMDL
MODEL 5
REMARK VINA RESULT:      -4.1     10.035     11.691
REMARK  3 active torsions:
REMARK  status: ('A' for Active; 'I' for Inactive)
REMARK    1  A    between atoms: C1_1  and  C3_3 
REMARK    2  A    between atoms: C2_2  and  C7_7 
REMARK    3  A    between atoms: C7_7  and  C8_8 
ROOT
HETATM    1  C1  UNL     1     -34.187  14.778  -3.073  1.00 20.00     0.005 C 
HETATM    2  C2  UNL     1     -34.277  15.839  -2.516  1.00 20.00    -0.090 C 
ENDROOT
BRANCH   2   3
HETATM    3  C7  UNL     1     -34.384  17.144  -1.834  1.00 20.00     0.065 C 
HETATM    4  C4  UNL     1     -34.758  16.932  -0.365  1.00 20.00     0.024 C 
BRANCH   3   5
HETATM    5  C8  UNL     1     -35.363  18.113  -2.546  1.00 20.00    -0.007 C 
HETATM    6  C5  UNL     1     -34.931  18.512  -3.961  1.00 20.00     0.011 C 
HETATM    7  C6  UNL     1     -36.790  17.551  -2.578  1.00 20.00     0.011 C 
ENDBRANCH   3   5
ENDBRANCH   2   3
BRANCH   1   8
HETATM    8  C3  UNL     1     -34.073  13.416  -3.783  1.00 20.00     0.258 C 
HETATM    9  O9  UNL     1     -35.157  12.929  -4.220  1.00 20.00    -0.637 OA
HETATM   10  O10 UNL     1     -32.910  12.925  -3.856  1.00 20.00    -0.637 OA
ENDBRANCH   1   8
TORSDOF 3
ENDMDL
MODEL 6
REMARK VINA RESULT:      -4.1     10.153     11.474
REMARK  3 active torsions:
REMARK  status: ('A' for Active; 'I' for Inactive)
REMARK    1  A    between atoms: C1_1  and  C3_3 
REMARK    2  A    between atoms: C2_2  and  C7_7 
REMARK    3  A    between atoms: C7_7  and  C8_8 
ROOT
HETATM    1  C1  UNL     1     -34.794  14.587  -3.524  1.00 20.00     0.005 C 
HETATM    2  C2  UNL     1     -35.319  15.578  -3.094  1.00 20.00    -0.090 C 
ENDROOT
BRANCH   2   3
HETATM    3  C7  UNL     1     -35.970  16.793  -2.564  1.00 20.00     0.065 C 
HETATM    4  C4  UNL     1     -36.514  17.635  -3.721  1.00 20.00     0.024 C 
BRANCH   3   5
HETATM    5  C8  UNL     1     -35.038  17.617  -1.638  1.00 20.00    -0.007 C 
HETATM    6  C5  UNL     1     -34.688  16.918  -0.320  1.00 20.00     0.011 C 
HETATM    7  C6  UNL     1     -33.751  18.035  -2.361  1.00 20.00     0.011 C 
ENDBRANCH   3   5
ENDBRANCH   2   3
BRANCH   1   8
HETATM    8  C3  UNL     1     -34.117  13.319  -4.078  1.00 20.00     0.258 C 
HETATM    9  O9  UNL     1     -32.911  13.143  -3.735  1.00 20.00    -0.637 OA
HETATM   10  O10 UNL     1     -34.835  12.586  -4.818  1.00 20.00    -0.637 OA
ENDBRANCH   1   8
TORSDOF 3
ENDMDL
MODEL 7
REMARK VINA RESULT:      -4.0     10.661     11.745
REMARK  3 active torsions:
REMARK  status: ('A' for Active; 'I' for Inactive)
REMARK    1  A    between atoms: C1_1  and  C3_3 
REMARK    2  A    between atoms: C2_2  and  C7_7 
REMARK    3  A    between atoms: C7_7  and  C8_8 
ROOT
HETATM    1  C1  UNL     1     -41.677   2.661  -3.068  1.00 20.00     0.005 C 
HETATM    2  C2  UNL     1     -41.488   3.570  -2.307  1.00 20.00    -0.090 C 
ENDROOT
BRANCH   2   3
HETATM    3  C7  UNL     1     -41.258   4.686  -1.368  1.00 20.00     0.065 C 
HETATM    4  C4  UNL     1     -42.047   4.448  -0.078  1.00 20.00     0.024 C 
BRANCH   3   5
HETATM    5  C8  UNL     1     -41.576   6.070  -1.992  1.00 20.00    -0.007 C 
HETATM    6  C5  UNL     1     -42.998   6.194  -2.550  1.00 20.00     0.011 C 
HETATM    7  C6  UNL     1     -41.306   7.210  -1.001  1.00 20.00     0.011 C 
ENDBRANCH   3   5
ENDBRANCH   2   3
BRANCH   1   8
HETATM    8  C3  UNL     1     -41.919   1.497  -4.048  1.00 20.00     0.258 C 
HETATM    9  O9  UNL     1     -41.816   0.334  -3.561  1.00 20.00    -0.637 OA
HETATM   10  O10 UNL     1     -42.195   1.824  -5.239  1.00 20.00    -0.637 OA
ENDBRANCH   1   8
TORSDOF 3
ENDMDL
MODEL 8
REMARK VINA RESULT:      -3.9      3.166      5.086
REMARK  3 active torsions:
REMARK  status: ('A' for Active; 'I' for Inactive)
REMARK    1  A    between atoms: C1_1  and  C3_3 
REMARK    2  A    between atoms: C2_2  and  C7_7 
REMARK    3  A    between atoms: C7_7  and  C8_8 
ROOT
HETATM    1  C1  UNL     1     -33.879   5.960   3.791  1.00 20.00     0.005 C 
HETATM    2  C2  UNL     1     -32.994   6.620   3.318  1.00 20.00    -0.090 C 
ENDROOT
BRANCH   2   3
HETATM    3  C7  UNL     1     -31.909   7.436   2.738  1.00 20.00     0.065 C 
HETATM    4  C4  UNL     1     -31.124   8.125   3.857  1.00 20.00     0.024 C 
BRANCH   3   5
HETATM    5  C8  UNL     1     -32.420   8.450   1.682  1.00 20.00    -0.007 C 
HETATM    6  C5  UNL     1     -32.692   9.851   2.239  1.00 20.00     0.011 C 
HETATM    7  C6  UNL     1     -31.467   8.544   0.483  1.00 20.00     0.011 C 
ENDBRANCH   3   5
ENDBRANCH   2   3
BRANCH   1   8
HETATM    8  C3  UNL     1     -35.012   5.109   4.395  1.00 20.00     0.258 C 
HETATM    9  O9  UNL     1     -36.163   5.293   3.902  1.00 20.00    -0.637 OA
HETATM   10  O10 UNL     1     -34.676   4.316   5.322  1.00 20.00    -0.637 OA
ENDBRANCH   1   8
TORSDOF 3
ENDMDL
MODEL 9
REMARK VINA RESULT:      -3.9     10.784     11.989
REMARK  3 active torsions:
REMARK  status: ('A' for Active; 'I' for Inactive)
REMARK    1  A    between atoms: C1_1  and  C3_3 
REMARK    2  A    between atoms: C2_2  and  C7_7 
REMARK    3  A    between atoms: C7_7  and  C8_8 
ROOT
HETATM    1  C1  UNL     1     -36.749  15.490  -3.345  1.00 20.00     0.005 C 
HETATM    2  C2  UNL     1     -35.629  15.609  -2.928  1.00 20.00    -0.090 C 
ENDROOT
BRANCH   2   3
HETATM    3  C7  UNL     1     -34.254  15.757  -2.411  1.00 20.00     0.065 C 
HETATM    4  C4  UNL     1     -34.019  17.204  -1.972  1.00 20.00     0.024 C 
BRANCH   3   5
HETATM    5  C8  UNL     1     -33.179  15.278  -3.422  1.00 20.00    -0.007 C 
HETATM    6  C5  UNL     1     -33.307  13.804  -3.821  1.00 20.00     0.011 C 
HETATM    7  C6  UNL     1     -33.157  16.156  -4.680  1.00 20.00     0.011 C 
ENDBRANCH   3   5
ENDBRANCH   2   3
BRANCH   1   8
HETATM    8  C3  UNL     1     -38.184  15.338  -3.884  1.00 20.00     0.258 C 
HETATM    9  O9  UNL     1     -38.743  16.405  -4.275  1.00 20.00    -0.637 OA
HETATM   10  O10 UNL     1     -38.656  14.164  -3.880  1.00 20.00    -0.637 OA
ENDBRANCH   1   8
TORSDOF 3
ENDMDL
