MODEL 1
REMARK VINA RESULT:      -3.2      0.000      0.000
REMARK  1 active torsions:
REMARK  status: ('A' for Active; 'I' for Inactive)
REMARK    1  A    between atoms: C4_4  and  S6_6 
ROOT
HETATM    1  C1  UNL     1     -33.674   6.234   5.768  1.00 20.00     0.043 C 
HETATM    2  C2  UNL     1     -34.845   5.461   6.337  1.00 20.00     0.168 C 
HETATM    3  C3  UNL     1     -34.696   4.983   4.060  1.00 20.00     0.182 C 
HETATM    4  C4  UNL     1     -34.064   6.340   4.311  1.00 20.00     0.070 C 
HETATM    5  O5  UNL     1     -35.301   4.581   5.300  1.00 20.00    -0.390 OA
ENDROOT
BRANCH   4   6
HETATM    6  S6  UNL     1     -32.663   6.688   3.221  1.00 20.00    -0.175 SA
HETATM    7  H14 UNL     1     -33.353   6.565   2.079  1.00 20.00     0.102 HD
ENDBRANCH   4   6
TORSDOF 1
ENDMDL
MODEL 2
REMARK VINA RESULT:      -3.2      1.003      1.701
REMARK  1 active torsions:
REMARK  status: ('A' for Active; 'I' for Inactive)
REMARK    1  A    between atoms: C4_4  and  S6_6 
ROOT
HETATM    1  C1  UNL     1     -34.658   5.404   3.491  1.00 20.00     0.043 C 
HETATM    2  C2  UNL     1     -35.329   4.815   4.715  1.00 20.00     0.168 C 
HETATM    3  C3  UNL     1     -33.734   6.358   5.431  1.00 20.00     0.182 C 
HETATM    4  C4  UNL     1     -33.329   5.845   4.060  1.00 20.00     0.070 C 
HETATM    5  O5  UNL     1     -34.861   5.568   5.843  1.00 20.00    -0.390 OA
ENDROOT
BRANCH   4   6
HETATM    6  S6  UNL     1     -32.499   7.093   3.048  1.00 20.00    -0.175 SA
HETATM    7  H14 UNL     1     -32.119   7.863   4.076  1.00 20.00     0.102 HD
ENDBRANCH   4   6
TORSDOF 1
ENDMDL
MODEL 3
REMARK VINA RESULT:      -2.8     12.203     12.420
REMARK  1 active torsions:
REMARK  status: ('A' for Active; 'I' for Inactive)
REMARK    1  A    between atoms: C4_4  and  S6_6 
ROOT
HETATM    1  C1  UNL     1     -35.487  14.607  -3.592  1.00 20.00     0.043 C 
HETATM    2  C2  UNL     1     -35.235  13.376  -4.438  1.00 20.00     0.168 C 
HETATM    3  C3  UNL     1     -33.180  14.156  -3.659  1.00 20.00     0.182 C 
HETATM    4  C4  UNL     1     -34.157  15.318  -3.693  1.00 20.00     0.070 C 
HETATM    5  O5  UNL     1     -33.847  13.047  -4.283  1.00 20.00    -0.390 OA
ENDROOT
BRANCH   4   6
HETATM    6  S6  UNL     1     -33.886  16.517  -2.367  1.00 20.00    -0.175 SA
HETATM    7  H14 UNL     1     -35.073  16.327  -1.775  1.00 20.00     0.102 HD
ENDBRANCH   4   6
TORSDOF 1
ENDMDL
MODEL 4
REMARK VINA RESULT:      -2.7     12.154     12.501
REMARK  1 active torsions:
REMARK  status: ('A' for Active; 'I' for Inactive)
REMARK    1  A    between atoms: C4_4  and  S6_6 
ROOT
HETATM    1  C1  UNL     1     -33.849  14.947  -3.749  1.00 20.00     0.043 C 
HETATM    2  C2  UNL     1     -33.580  13.460  -3.853  1.00 20.00     0.168 C 
HETATM    3  C3  UNL     1     -35.856  13.816  -4.217  1.00 20.00     0.182 C 
HETATM    4  C4  UNL     1     -35.315  14.962  -3.381  1.00 20.00     0.070 C 
HETATM    5  O5  UNL     1     -34.793  12.855  -4.324  1.00 20.00    -0.390 OA
ENDROOT
BRANCH   4   6
HETATM    6  S6  UNL     1     -36.122  16.543  -3.731  1.00 20.00    -0.175 SA
HETATM    7  H14 UNL     1     -37.194  16.315  -2.961  1.00 20.00     0.102 HD
ENDBRANCH   4   6
TORSDOF 1
ENDMDL
MODEL 5
REMARK VINA RESULT:      -2.7     12.403     12.937
REMARK  1 active torsions:
REMARK  status: ('A' for Active; 'I' for Inactive)
REMARK    1  A    between atoms: C4_4  and  S6_6 
ROOT
HETATM    1  C1  UNL     1     -35.360  14.818  -4.753  1.00 20.00     0.043 C 
HETATM    2  C2  UNL     1     -35.278  13.374  -4.303  1.00 20.00     0.168 C 
HETATM    3  C3  UNL     1     -33.280  14.430  -3.727  1.00 20.00     0.182 C 
HETATM    4  C4  UNL     1     -33.897  15.169  -4.901  1.00 20.00     0.070 C 
HETATM    5  O5  UNL     1     -34.079  13.253  -3.523  1.00 20.00    -0.390 OA
ENDROOT
BRANCH   4   6
HETATM    6  S6  UNL     1     -33.585  16.950  -4.867  1.00 20.00    -0.175 SA
HETATM    7  H14 UNL     1     -33.489  17.040  -3.534  1.00 20.00     0.102 HD
ENDBRANCH   4   6
TORSDOF 1
ENDMDL
MODEL 6
REMARK VINA RESULT:      -2.7     12.491     13.106
REMARK  1 active torsions:
REMARK  status: ('A' for Active; 'I' for Inactive)
REMARK    1  A    between atoms: C4_4  and  S6_6 
ROOT
HETATM    1  C1  UNL     1     -33.674  14.921  -4.160  1.00 20.00     0.043 C 
HETATM    2  C2  UNL     1     -34.090  13.613  -3.518  1.00 20.00     0.168 C 
HETATM    3  C3  UNL     1     -34.977  13.681  -5.674  1.00 20.00     0.182 C 
HETATM    4  C4  UNL     1     -34.759  15.105  -5.196  1.00 20.00     0.070 C 
HETATM    5  O5  UNL     1     -34.712  12.829  -4.547  1.00 20.00    -0.390 OA
ENDROOT
BRANCH   4   6
HETATM    6  S6  UNL     1     -34.292  16.240  -6.524  1.00 20.00    -0.175 SA
HETATM    7  H14 UNL     1     -35.221  17.163  -6.240  1.00 20.00     0.102 HD
ENDBRANCH   4   6
TORSDOF 1
ENDMDL
MODEL 7
REMARK VINA RESULT:      -2.6     12.312     12.608
REMARK  1 active torsions:
REMARK  status: ('A' for Active; 'I' for Inactive)
REMARK    1  A    between atoms: C4_4  and  S6_6 
ROOT
HETATM    1  C1  UNL     1     -35.500  15.194  -3.004  1.00 20.00     0.043 C 
HETATM    2  C2  UNL     1     -34.784  16.141  -2.063  1.00 20.00     0.168 C 
HETATM    3  C3  UNL     1     -33.215  15.274  -3.555  1.00 20.00     0.182 C 
HETATM    4  C4  UNL     1     -34.367  14.292  -3.440  1.00 20.00     0.070 C 
HETATM    5  O5  UNL     1     -33.448  16.291  -2.567  1.00 20.00    -0.390 OA
ENDROOT
BRANCH   4   6
HETATM    6  S6  UNL     1     -34.711  13.411  -4.982  1.00 20.00    -0.175 SA
HETATM    7  H14 UNL     1     -33.449  13.437  -5.431  1.00 20.00     0.102 HD
ENDBRANCH   4   6
TORSDOF 1
ENDMDL
MODEL 8
REMARK VINA RESULT:      -2.6      9.437      9.998
REMARK  1 active torsions:
REMARK  status: ('A' for Active; 'I' for Inactive)
REMARK    1  A    between atoms: C4_4  and  S6_6 
ROOT
HETATM    1  C1  UNL     1     -41.150   6.998  -1.161  1.00 20.00     0.043 C 
HETATM    2  C2  UNL     1     -40.696   5.818  -0.327  1.00 20.00     0.168 C 
HETATM    3  C3  UNL     1     -41.850   5.000  -2.182  1.00 20.00     0.182 C 
HETATM    4  C4  UNL     1     -42.332   6.410  -1.896  1.00 20.00     0.070 C 
HETATM    5  O5  UNL     1     -40.984   4.638  -1.093  1.00 20.00    -0.390 OA
ENDROOT
BRANCH   4   6
HETATM    6  S6  UNL     1     -42.772   7.330  -3.390  1.00 20.00    -0.175 SA
HETATM    7  H14 UNL     1     -43.656   8.138  -2.790  1.00 20.00     0.102 HD
ENDBRANCH   4   6
TORSDOF 1
ENDMDL
MODEL 9
REMARK VINA RESULT:      -2.6      1.758      2.106
REMARK  1 active torsions:
REMARK  status: ('A' for Active; 'I' for Inactive)
REMARK    1  A    between atoms: C4_4  and  S6_6 
ROOT
HETATM    1  C1  UNL     1     -34.600   4.796   6.079  1.00 20.00     0.043 C 
HETATM    2  C2  UNL     1     -35.177   4.167   4.828  1.00 20.00     0.168 C 
HETATM    3  C3  UNL     1     -34.096   6.142   4.218  1.00 20.00     0.182 C 
HETATM    4  C4  UNL     1     -34.516   6.250   5.673  1.00 20.00     0.070 C 
HETATM    5  O5  UNL     1     -34.677   4.926   3.717  1.00 20.00    -0.390 OA
ENDROOT
BRANCH   4   6
HETATM    6  S6  UNL     1     -33.357   7.206   6.680  1.00 20.00    -0.175 SA
HETATM    7  H14 UNL     1     -33.833   6.785   7.860  1.00 20.00     0.102 HD
ENDBRANCH   4   6
TORSDOF 1
ENDMDL
