MODEL 1
REMARK VINA RESULT:      -5.2      0.000      0.000
REMARK  0 active torsions:
REMARK  status: ('A' for Active; 'I' for Inactive)
ROOT
HETATM    1  C1  UNL     1     -32.468   6.981   3.106  1.00 20.00     0.088 C 
HETATM    2  C2  UNL     1     -34.129   5.704   4.294  1.00 20.00    -0.044 C 
HETATM    3  C3  UNL     1     -33.457   5.965   3.169  1.00 20.00     0.098 C 
HETATM    4  C4  UNL     1     -35.181   4.663   4.461  1.00 20.00     0.063 C 
HETATM    5  C5  UNL     1     -33.891   6.352   5.616  1.00 20.00     0.202 C 
HETATM    6  C6  UNL     1     -35.063   4.391   5.947  1.00 20.00     0.172 C 
HETATM    7  N7  UNL     1     -31.659   7.811   3.051  1.00 20.00    -0.192 NA
HETATM    8  O8  UNL     1     -34.745   5.656   6.544  1.00 20.00    -0.387 OA
ENDROOT
TORSDOF 0
ENDMDL
MODEL 2
REMARK VINA RESULT:      -4.0     11.809     12.464
REMARK  0 active torsions:
REMARK  status: ('A' for Active; 'I' for Inactive)
ROOT
HETATM    1  C1  UNL     1     -37.583  14.800  -3.659  1.00 20.00     0.088 C 
HETATM    2  C2  UNL     1     -35.181  14.667  -3.776  1.00 20.00    -0.044 C 
HETATM    3  C3  UNL     1     -36.286  15.320  -3.407  1.00 20.00     0.098 C 
HETATM    4  C4  UNL     1     -33.782  15.127  -3.559  1.00 20.00     0.063 C 
HETATM    5  C5  UNL     1     -35.142  13.313  -4.401  1.00 20.00     0.202 C 
HETATM    6  C6  UNL     1     -33.056  13.797  -3.538  1.00 20.00     0.172 C 
HETATM    7  N7  UNL     1     -38.645  14.377  -3.862  1.00 20.00    -0.192 NA
HETATM    8  O8  UNL     1     -33.746  12.970  -4.486  1.00 20.00    -0.387 OA
ENDROOT
TORSDOF 0
ENDMDL
MODEL 3
REMARK VINA RESULT:      -3.9     11.927     12.602
REMARK  0 active torsions:
REMARK  status: ('A' for Active; 'I' for Inactive)
ROOT
HETATM    1  C1  UNL     1     -34.317  13.539  -4.156  1.00 20.00     0.088 C 
HETATM    2  C2  UNL     1     -34.436  15.547  -2.831  1.00 20.00    -0.044 C 
HETATM    3  C3  UNL     1     -33.718  14.555  -3.366  1.00 20.00     0.098 C 
HETATM    4  C4  UNL     1     -33.903  16.655  -1.992  1.00 20.00     0.063 C 
HETATM    5  C5  UNL     1     -35.894  15.776  -3.047  1.00 20.00     0.202 C 
HETATM    6  C6  UNL     1     -34.940  17.726  -2.261  1.00 20.00     0.172 C 
HETATM    7  N7  UNL     1     -34.803  12.707  -4.803  1.00 20.00    -0.192 NA
HETATM    8  O8  UNL     1     -36.186  17.027  -2.396  1.00 20.00    -0.387 OA
ENDROOT
TORSDOF 0
ENDMDL
MODEL 4
REMARK VINA RESULT:      -3.8     11.740     12.168
REMARK  0 active torsions:
REMARK  status: ('A' for Active; 'I' for Inactive)
ROOT
HETATM    1  C1  UNL     1     -34.391  16.553  -1.855  1.00 20.00     0.088 C 
HETATM    2  C2  UNL     1     -34.947  14.732  -3.331  1.00 20.00    -0.044 C 
HETATM    3  C3  UNL     1     -35.309  15.832  -2.664  1.00 20.00     0.098 C 
HETATM    4  C4  UNL     1     -35.831  13.909  -4.201  1.00 20.00     0.063 C 
HETATM    5  C5  UNL     1     -33.567  14.171  -3.394  1.00 20.00     0.202 C 
HETATM    6  C6  UNL     1     -34.806  13.301  -5.137  1.00 20.00     0.172 C 
HETATM    7  N7  UNL     1     -33.644  17.145  -1.194  1.00 20.00    -0.192 NA
HETATM    8  O8  UNL     1     -33.638  13.081  -4.333  1.00 20.00    -0.387 OA
ENDROOT
TORSDOF 0
ENDMDL
MODEL 5
REMARK VINA RESULT:      -3.8     13.030     14.465
REMARK  0 active torsions:
REMARK  status: ('A' for Active; 'I' for Inactive)
ROOT
HETATM    1  C1  UNL     1     -34.846  13.527  -5.147  1.00 20.00     0.088 C 
HETATM    2  C2  UNL     1     -34.285  15.681  -6.067  1.00 20.00    -0.044 C 
HETATM    3  C3  UNL     1     -34.938  14.519  -6.159  1.00 20.00     0.098 C 
HETATM    4  C4  UNL     1     -34.316  16.781  -7.070  1.00 20.00     0.063 C 
HETATM    5  C5  UNL     1     -33.468  16.127  -4.901  1.00 20.00     0.202 C 
HETATM    6  C6  UNL     1     -34.010  17.970  -6.182  1.00 20.00     0.172 C 
HETATM    7  N7  UNL     1     -34.774  12.714  -4.323  1.00 20.00    -0.192 NA
HETATM    8  O8  UNL     1     -33.086  17.484  -5.197  1.00 20.00    -0.387 OA
ENDROOT
TORSDOF 0
ENDMDL
MODEL 6
REMARK VINA RESULT:      -3.7      1.401      1.855
REMARK  0 active torsions:
REMARK  status: ('A' for Active; 'I' for Inactive)
ROOT
HETATM    1  C1  UNL     1     -32.176   7.676   2.664  1.00 20.00     0.088 C 
HETATM    2  C2  UNL     1     -33.366   6.199   4.149  1.00 20.00    -0.044 C 
HETATM    3  C3  UNL     1     -32.446   7.148   3.954  1.00 20.00     0.098 C 
HETATM    4  C4  UNL     1     -33.720   5.583   5.457  1.00 20.00     0.063 C 
HETATM    5  C5  UNL     1     -34.269   5.639   3.102  1.00 20.00     0.202 C 
HETATM    6  C6  UNL     1     -35.148   5.158   5.182  1.00 20.00     0.172 C 
HETATM    7  N7  UNL     1     -31.953   8.110   1.611  1.00 20.00    -0.192 NA
HETATM    8  O8  UNL     1     -35.170   4.761   3.803  1.00 20.00    -0.387 OA
ENDROOT
TORSDOF 0
ENDMDL
MODEL 7
REMARK VINA RESULT:      -3.6     10.184     10.907
REMARK  0 active torsions:
REMARK  status: ('A' for Active; 'I' for Inactive)
ROOT
HETATM    1  C1  UNL     1     -40.792   5.515  -0.578  1.00 20.00     0.088 C 
HETATM    2  C2  UNL     1     -41.636   4.025  -2.272  1.00 20.00    -0.044 C 
HETATM    3  C3  UNL     1     -40.803   4.267  -1.256  1.00 20.00     0.098 C 
HETATM    4  C4  UNL     1     -41.725   2.755  -3.044  1.00 20.00     0.063 C 
HETATM    5  C5  UNL     1     -42.692   4.954  -2.769  1.00 20.00     0.202 C 
HETATM    6  C6  UNL     1     -43.162   2.822  -3.519  1.00 20.00     0.172 C 
HETATM    7  N7  UNL     1     -40.780   6.533  -0.022  1.00 20.00    -0.192 NA
HETATM    8  O8  UNL     1     -43.417   4.213  -3.767  1.00 20.00    -0.387 OA
ENDROOT
TORSDOF 0
ENDMDL
MODEL 8
REMARK VINA RESULT:      -3.6     12.672     13.272
REMARK  0 active torsions:
REMARK  status: ('A' for Active; 'I' for Inactive)
ROOT
HETATM    1  C1  UNL     1     -33.368  16.231  -4.010  1.00 20.00     0.088 C 
HETATM    2  C2  UNL     1     -34.108  16.974  -1.841  1.00 20.00    -0.044 C 
HETATM    3  C3  UNL     1     -33.900  15.986  -2.716  1.00 20.00     0.098 C 
HETATM    4  C4  UNL     1     -34.659  16.821  -0.467  1.00 20.00     0.063 C 
HETATM    5  C5  UNL     1     -33.748  18.407  -2.050  1.00 20.00     0.202 C 
HETATM    6  C6  UNL     1     -34.052  18.034   0.208  1.00 20.00     0.172 C 
HETATM    7  N7  UNL     1     -32.934  16.426  -5.068  1.00 20.00    -0.192 NA
HETATM    8  O8  UNL     1     -34.028  19.059  -0.797  1.00 20.00    -0.387 OA
ENDROOT
TORSDOF 0
ENDMDL
MODEL 9
REMARK VINA RESULT:      -3.6     12.530     13.680
REMARK  0 active torsions:
REMARK  status: ('A' for Active; 'I' for Inactive)
ROOT
HETATM    1  C1  UNL     1     -34.618  13.738  -4.954  1.00 20.00     0.088 C 
HETATM    2  C2  UNL     1     -33.884  16.018  -4.703  1.00 20.00    -0.044 C 
HETATM    3  C3  UNL     1     -34.226  14.993  -5.489  1.00 20.00     0.098 C 
HETATM    4  C4  UNL     1     -33.461  17.369  -5.165  1.00 20.00     0.063 C 
HETATM    5  C5  UNL     1     -33.943  16.025  -3.213  1.00 20.00     0.202 C 
HETATM    6  C6  UNL     1     -33.859  18.206  -3.967  1.00 20.00     0.172 C 
HETATM    7  N7  UNL     1     -34.939  12.710  -4.520  1.00 20.00    -0.192 NA
HETATM    8  O8  UNL     1     -33.620  17.373  -2.822  1.00 20.00    -0.387 OA
ENDROOT
TORSDOF 0
ENDMDL
