MODEL 1
REMARK VINA RESULT:      -4.4      0.000      0.000
REMARK  1 active torsions:
REMARK  status: ('A' for Active; 'I' for Inactive)
REMARK    1  A    between atoms: C8_8  and  N9_9 
ROOT
HETATM    1  C1  UNL     1     -36.125  14.307  -4.088  1.00 20.00     0.050 C 
HETATM    2  C2  UNL     1     -33.760  13.473  -4.183  1.00 20.00     0.050 C 
HETATM    3  C3  UNL     1     -35.600  15.602  -3.460  1.00 20.00     0.274 C 
HETATM    4  C4  UNL     1     -33.313  14.795  -3.552  1.00 20.00     0.274 C 
HETATM    5  C5  UNL     1     -35.076  13.605  -4.951  1.00 20.00     0.085 C 
HETATM    6  N9  UNL     1     -34.367  15.357  -2.698  1.00 20.00     0.092 N 
HETATM    7 CL10 UNL     1     -34.821  14.506  -6.479  1.00 20.00    -0.125 Cl
ENDROOT
BRANCH   6   8
HETATM    8  C8  UNL     1     -33.907  16.591  -2.060  1.00 20.00     0.215 C 
HETATM    9  C6  UNL     1     -34.620  16.758  -0.726  1.00 20.00     0.042 C 
HETATM   10  C7  UNL     1     -34.181  17.760  -2.995  1.00 20.00     0.042 C 
ENDBRANCH   6   8
TORSDOF 1
ENDMDL
MODEL 2
REMARK VINA RESULT:      -4.1     11.628     12.253
REMARK  1 active torsions:
REMARK  status: ('A' for Active; 'I' for Inactive)
REMARK    1  A    between atoms: C8_8  and  N9_9 
ROOT
HETATM    1  C1  UNL     1     -35.315   5.322   3.760  1.00 20.00     0.050 C 
HETATM    2  C2  UNL     1     -34.418   6.269   5.904  1.00 20.00     0.050 C 
HETATM    3  C3  UNL     1     -33.972   5.651   3.101  1.00 20.00     0.274 C 
HETATM    4  C4  UNL     1     -33.105   6.567   5.174  1.00 20.00     0.274 C 
HETATM    5  C5  UNL     1     -35.193   5.113   5.270  1.00 20.00     0.085 C 
HETATM    6  N9  UNL     1     -33.337   6.810   3.745  1.00 20.00     0.092 N 
HETATM    7 CL10 UNL     1     -34.385   3.552   5.621  1.00 20.00    -0.125 Cl
ENDROOT
BRANCH   6   8
HETATM    8  C8  UNL     1     -32.082   7.145   3.071  1.00 20.00     0.215 C 
HETATM    9  C6  UNL     1     -31.099   7.693   4.095  1.00 20.00     0.042 C 
HETATM   10  C7  UNL     1     -32.369   8.155   1.969  1.00 20.00     0.042 C 
ENDBRANCH   6   8
TORSDOF 1
ENDMDL
MODEL 3
REMARK VINA RESULT:      -3.9      1.344      1.917
REMARK  1 active torsions:
REMARK  status: ('A' for Active; 'I' for Inactive)
REMARK    1  A    between atoms: C8_8  and  N9_9 
ROOT
HETATM    1  C1  UNL     1     -34.122  15.625  -5.580  1.00 20.00     0.050 C 
HETATM    2  C2  UNL     1     -36.166  15.052  -4.243  1.00 20.00     0.050 C 
HETATM    3  C3  UNL     1     -33.448  16.075  -4.279  1.00 20.00     0.274 C 
HETATM    4  C4  UNL     1     -35.425  15.520  -2.987  1.00 20.00     0.274 C 
HETATM    5  C5  UNL     1     -35.216  14.583  -5.345  1.00 20.00     0.085 C 
HETATM    6  N9  UNL     1     -34.440  16.560  -3.310  1.00 20.00     0.092 N 
HETATM    7 CL10 UNL     1     -34.490  13.002  -4.914  1.00 20.00    -0.125 Cl
ENDROOT
BRANCH   6   8
HETATM    8  C8  UNL     1     -33.778  17.035  -2.095  1.00 20.00     0.215 C 
HETATM    9  C6  UNL     1     -34.600  16.617  -0.884  1.00 20.00     0.042 C 
HETATM   10  C7  UNL     1     -33.624  18.547  -2.177  1.00 20.00     0.042 C 
ENDBRANCH   6   8
TORSDOF 1
ENDMDL
MODEL 4
REMARK VINA RESULT:      -3.9      2.700      4.152
REMARK  1 active torsions:
REMARK  status: ('A' for Active; 'I' for Inactive)
REMARK    1  A    between atoms: C8_8  and  N9_9 
ROOT
HETATM    1  C1  UNL     1     -33.149  15.489  -3.924  1.00 20.00     0.050 C 
HETATM    2  C2  UNL     1     -34.854  13.654  -4.077  1.00 20.00     0.050 C 
HETATM    3  C3  UNL     1     -33.630  15.994  -5.288  1.00 20.00     0.274 C 
HETATM    4  C4  UNL     1     -35.279  14.219  -5.436  1.00 20.00     0.274 C 
HETATM    5  C5  UNL     1     -34.230  14.715  -3.169  1.00 20.00     0.085 C 
HETATM    6  N9  UNL     1     -34.157  14.891  -6.104  1.00 20.00     0.092 N 
HETATM    7 CL10 UNL     1     -35.489  15.835  -2.559  1.00 20.00    -0.125 Cl
ENDROOT
BRANCH   6   8
HETATM    8  C8  UNL     1     -34.563  15.379  -7.422  1.00 20.00     0.215 C 
HETATM    9  C6  UNL     1     -34.929  16.853  -7.317  1.00 20.00     0.042 C 
HETATM   10  C7  UNL     1     -35.734  14.543  -7.918  1.00 20.00     0.042 C 
ENDBRANCH   6   8
TORSDOF 1
ENDMDL
MODEL 5
REMARK VINA RESULT:      -3.9      2.453      4.127
REMARK  1 active torsions:
REMARK  status: ('A' for Active; 'I' for Inactive)
REMARK    1  A    between atoms: C8_8  and  N9_9 
ROOT
HETATM    1  C1  UNL     1     -33.294  16.388  -4.283  1.00 20.00     0.050 C 
HETATM    2  C2  UNL     1     -33.445  14.033  -3.429  1.00 20.00     0.050 C 
HETATM    3  C3  UNL     1     -34.465  16.078  -5.221  1.00 20.00     0.274 C 
HETATM    4  C4  UNL     1     -34.611  13.802  -4.395  1.00 20.00     0.274 C 
HETATM    5  C5  UNL     1     -33.290  15.503  -3.036  1.00 20.00     0.085 C 
HETATM    6  N9  UNL     1     -34.490  14.655  -5.584  1.00 20.00     0.092 N 
HETATM    7 CL10 UNL     1     -34.604  15.993  -1.919  1.00 20.00    -0.125 Cl
ENDROOT
BRANCH   6   8
HETATM    8  C8  UNL     1     -35.581  14.385  -6.521  1.00 20.00     0.215 C 
HETATM    9  C6  UNL     1     -35.155  14.814  -7.918  1.00 20.00     0.042 C 
HETATM   10  C7  UNL     1     -36.824  15.131  -6.058  1.00 20.00     0.042 C 
ENDBRANCH   6   8
TORSDOF 1
ENDMDL
MODEL 6
REMARK VINA RESULT:      -3.9      2.278      4.108
REMARK  1 active torsions:
REMARK  status: ('A' for Active; 'I' for Inactive)
REMARK    1  A    between atoms: C8_8  and  N9_9 
ROOT
HETATM    1  C1  UNL     1     -36.281  16.768  -2.936  1.00 20.00     0.050 C 
HETATM    2  C2  UNL     1     -33.906  17.539  -3.191  1.00 20.00     0.050 C 
HETATM    3  C3  UNL     1     -35.887  15.459  -3.627  1.00 20.00     0.274 C 
HETATM    4  C4  UNL     1     -33.591  16.204  -3.873  1.00 20.00     0.274 C 
HETATM    5  C5  UNL     1     -35.099  17.444  -2.239  1.00 20.00     0.085 C 
HETATM    6  N9  UNL     1     -34.773  15.669  -4.562  1.00 20.00     0.092 N 
HETATM    7 CL10 UNL     1     -34.648  16.539  -0.759  1.00 20.00    -0.125 Cl
ENDROOT
BRANCH   6   8
HETATM    8  C8  UNL     1     -34.443  14.423  -5.253  1.00 20.00     0.215 C 
HETATM    9  C6  UNL     1     -35.040  14.456  -6.652  1.00 20.00     0.042 C 
HETATM   10  C7  UNL     1     -34.978  13.252  -4.440  1.00 20.00     0.042 C 
ENDBRANCH   6   8
TORSDOF 1
ENDMDL
MODEL 7
REMARK VINA RESULT:      -3.9      1.351      1.627
REMARK  1 active torsions:
REMARK  status: ('A' for Active; 'I' for Inactive)
REMARK    1  A    between atoms: C8_8  and  N9_9 
ROOT
HETATM    1  C1  UNL     1     -34.261  13.939  -4.224  1.00 20.00     0.050 C 
HETATM    2  C2  UNL     1     -33.729  15.915  -5.677  1.00 20.00     0.050 C 
HETATM    3  C3  UNL     1     -34.380  14.898  -3.035  1.00 20.00     0.274 C 
HETATM    4  C4  UNL     1     -33.866  16.808  -4.440  1.00 20.00     0.274 C 
HETATM    5  C5  UNL     1     -34.541  14.624  -5.562  1.00 20.00     0.085 C 
HETATM    6  N9  UNL     1     -33.519  16.074  -3.216  1.00 20.00     0.092 N 
HETATM    7 CL10 UNL     1     -36.292  14.969  -5.730  1.00 20.00    -0.125 Cl
ENDROOT
BRANCH   6   8
HETATM    8  C8  UNL     1     -33.603  16.954  -2.050  1.00 20.00     0.215 C 
HETATM    9  C6  UNL     1     -34.714  16.461  -1.133  1.00 20.00     0.042 C 
HETATM   10  C7  UNL     1     -33.855  18.378  -2.524  1.00 20.00     0.042 C 
ENDBRANCH   6   8
TORSDOF 1
ENDMDL
MODEL 8
REMARK VINA RESULT:      -3.8      1.911      3.674
REMARK  1 active torsions:
REMARK  status: ('A' for Active; 'I' for Inactive)
REMARK    1  A    between atoms: C8_8  and  N9_9 
ROOT
HETATM    1  C1  UNL     1     -34.178  13.842  -3.732  1.00 20.00     0.050 C 
HETATM    2  C2  UNL     1     -34.746  15.893  -2.403  1.00 20.00     0.050 C 
HETATM    3  C3  UNL     1     -35.528  13.980  -4.444  1.00 20.00     0.274 C 
HETATM    4  C4  UNL     1     -36.077  15.963  -3.158  1.00 20.00     0.274 C 
HETATM    5  C5  UNL     1     -33.655  15.176  -3.200  1.00 20.00     0.085 C 
HETATM    6  N9  UNL     1     -36.520  14.626  -3.575  1.00 20.00     0.092 N 
HETATM    7 CL10 UNL     1     -33.089  16.209  -4.551  1.00 20.00    -0.125 Cl
ENDROOT
BRANCH   6   8
HETATM    8  C8  UNL     1     -37.817  14.703  -4.248  1.00 20.00     0.215 C 
HETATM    9  C6  UNL     1     -37.635  15.366  -5.606  1.00 20.00     0.042 C 
HETATM   10  C7  UNL     1     -38.784  15.480  -3.367  1.00 20.00     0.042 C 
ENDBRANCH   6   8
TORSDOF 1
ENDMDL
MODEL 9
REMARK VINA RESULT:      -3.8     11.573     13.134
REMARK  1 active torsions:
REMARK  status: ('A' for Active; 'I' for Inactive)
REMARK    1  A    between atoms: C8_8  and  N9_9 
ROOT
HETATM    1  C1  UNL     1     -42.213   7.346  -2.867  1.00 20.00     0.050 C 
HETATM    2  C2  UNL     1     -41.081   6.438  -0.821  1.00 20.00     0.050 C 
HETATM    3  C3  UNL     1     -42.871   5.976  -3.060  1.00 20.00     0.274 C 
HETATM    4  C4  UNL     1     -41.776   5.099  -1.081  1.00 20.00     0.274 C 
HETATM    5  C5  UNL     1     -41.848   7.623  -1.409  1.00 20.00     0.085 C 
HETATM    6  N9  UNL     1     -42.029   4.903  -2.514  1.00 20.00     0.092 N 
HETATM    7 CL10 UNL     1     -43.325   7.950  -0.448  1.00 20.00    -0.125 Cl
ENDROOT
BRANCH   6   8
HETATM    8  C8  UNL     1     -42.646   3.598  -2.753  1.00 20.00     0.215 C 
HETATM    9  C6  UNL     1     -43.406   3.171  -1.506  1.00 20.00     0.042 C 
HETATM   10  C7  UNL     1     -41.558   2.599  -3.119  1.00 20.00     0.042 C 
ENDBRANCH   6   8
TORSDOF 1
ENDMDL
