MODEL 1
REMARK VINA RESULT:      -4.1      0.000      0.000
REMARK  3 active torsions:
REMARK  status: ('A' for Active; 'I' for Inactive)
REMARK    1  A    between atoms: C4_4  and  C6_6 
REMARK    2  A    between atoms: C7_7  and  C8_8 
REMARK    3  A    between atoms: C8_8  and  N9_9 
ROOT
HETATM    1  C1  UNL     1     -35.126   3.992   5.264  1.00 20.00     0.032 C 
HETATM    2  C2  UNL     1     -34.794   4.954   6.399  1.00 20.00     0.038 C 
HETATM    3  C3  UNL     1     -34.829   4.763   3.989  1.00 20.00     0.273 C 
HETATM    4  C4  UNL     1     -34.311   6.235   5.715  1.00 20.00     0.236 C 
HETATM    5  N9  UNL     1     -33.830   5.746   4.416  1.00 20.00     0.094 N 
ENDROOT
BRANCH   5   6
HETATM    6  C8  UNL     1     -33.667   6.804   3.426  1.00 20.00     0.272 C 
BRANCH   6   7
HETATM    7  C7  UNL     1     -32.220   6.960   2.977  1.00 20.00     0.026 C 
HETATM    8  C5  UNL     1     -32.006   8.182   2.094  1.00 20.00     0.007 C 
ENDBRANCH   6   7
ENDBRANCH   5   6
BRANCH   4   9
HETATM    9  C6  UNL     1     -33.236   6.940   6.533  1.00 20.00     0.150 C 
HETATM   10 CL10 UNL     1     -33.976   8.093   7.657  1.00 20.00    -0.128 Cl
ENDBRANCH   4   9
TORSDOF 3
ENDMDL
MODEL 2
REMARK VINA RESULT:      -4.1      1.849      2.674
REMARK  3 active torsions:
REMARK  status: ('A' for Active; 'I' for Inactive)
REMARK    1  A    between atoms: C4_4  and  C6_6 
REMARK    2  A    between atoms: C7_7  and  C8_8 
REMARK    3  A    between atoms: C8_8  and  N9_9 
ROOT
HETATM    1  C1  UNL     1     -33.832   6.927   6.740  1.00 20.00     0.032 C 
HETATM    2  C2  UNL     1     -34.607   5.648   6.440  1.00 20.00     0.038 C 
HETATM    3  C3  UNL     1     -32.945   7.148   5.526  1.00 20.00     0.273 C 
HETATM    4  C4  UNL     1     -34.129   5.201   5.057  1.00 20.00     0.236 C 
HETATM    5  N9  UNL     1     -33.664   6.458   4.453  1.00 20.00     0.094 N 
ENDROOT
BRANCH   5   6
HETATM    6  C8  UNL     1     -32.815   6.257   3.285  1.00 20.00     0.272 C 
BRANCH   6   7
HETATM    7  C7  UNL     1     -31.784   7.366   3.120  1.00 20.00     0.026 C 
HETATM    8  C5  UNL     1     -32.068   8.260   1.920  1.00 20.00     0.007 C 
ENDBRANCH   6   7
ENDBRANCH   5   6
BRANCH   4   9
HETATM    9  C6  UNL     1     -35.243   4.525   4.266  1.00 20.00     0.150 C 
HETATM   10 CL10 UNL     1     -36.239   5.741   3.445  1.00 20.00    -0.128 Cl
ENDBRANCH   4   9
TORSDOF 3
ENDMDL
MODEL 3
REMARK VINA RESULT:      -4.1     11.959     13.502
REMARK  3 active torsions:
REMARK  status: ('A' for Active; 'I' for Inactive)
REMARK    1  A    between atoms: C4_4  and  C6_6 
REMARK    2  A    between atoms: C7_7  and  C8_8 
REMARK    3  A    between atoms: C8_8  and  N9_9 
ROOT
HETATM    1  C1  UNL     1     -34.352  16.105  -6.762  1.00 20.00     0.032 C 
HETATM    2  C2  UNL     1     -34.769  14.681  -6.410  1.00 20.00     0.038 C 
HETATM    3  C3  UNL     1     -34.606  16.917  -5.504  1.00 20.00     0.273 C 
HETATM    4  C4  UNL     1     -35.235  14.746  -4.954  1.00 20.00     0.236 C 
HETATM    5  N9  UNL     1     -34.517  15.919  -4.436  1.00 20.00     0.094 N 
ENDROOT
BRANCH   5   6
HETATM    6  C8  UNL     1     -35.068  16.425  -3.185  1.00 20.00     0.272 C 
BRANCH   6   7
HETATM    7  C7  UNL     1     -34.030  16.475  -2.071  1.00 20.00     0.026 C 
HETATM    8  C5  UNL     1     -34.648  16.722  -0.701  1.00 20.00     0.007 C 
ENDBRANCH   6   7
ENDBRANCH   5   6
BRANCH   4   9
HETATM    9  C6  UNL     1     -34.916  13.459  -4.201  1.00 20.00     0.150 C 
HETATM   10 CL10 UNL     1     -33.199  13.414  -3.761  1.00 20.00    -0.128 Cl
ENDBRANCH   4   9
TORSDOF 3
ENDMDL
MODEL 4
REMARK VINA RESULT:      -4.0     12.190     13.377
REMARK  3 active torsions:
REMARK  status: ('A' for Active; 'I' for Inactive)
REMARK    1  A    between atoms: C4_4  and  C6_6 
REMARK    2  A    between atoms: C7_7  and  C8_8 
REMARK    3  A    between atoms: C8_8  and  N9_9 
ROOT
HETATM    1  C1  UNL     1     -34.652  13.258  -4.918  1.00 20.00     0.032 C 
HETATM    2  C2  UNL     1     -34.616  14.432  -5.890  1.00 20.00     0.038 C 
HETATM    3  C3  UNL     1     -34.154  13.820  -3.597  1.00 20.00     0.273 C 
HETATM    4  C4  UNL     1     -34.105  15.619  -5.070  1.00 20.00     0.236 C 
HETATM    5  N9  UNL     1     -34.471  15.246  -3.697  1.00 20.00     0.094 N 
ENDROOT
BRANCH   5   6
HETATM    6  C8  UNL     1     -33.768  16.021  -2.682  1.00 20.00     0.272 C 
BRANCH   6   7
HETATM    7  C7  UNL     1     -34.644  16.324  -1.473  1.00 20.00     0.026 C 
HETATM    8  C5  UNL     1     -34.065  17.419  -0.587  1.00 20.00     0.007 C 
ENDBRANCH   6   7
ENDBRANCH   5   6
BRANCH   4   9
HETATM    9  C6  UNL     1     -34.730  16.931  -5.529  1.00 20.00     0.150 C 
HETATM   10 CL10 UNL     1     -33.502  18.209  -5.587  1.00 20.00    -0.128 Cl
ENDBRANCH   4   9
TORSDOF 3
ENDMDL
MODEL 5
REMARK VINA RESULT:      -3.9     12.372     13.958
REMARK  3 active torsions:
REMARK  status: ('A' for Active; 'I' for Inactive)
REMARK    1  A    between atoms: C4_4  and  C6_6 
REMARK    2  A    between atoms: C7_7  and  C8_8 
REMARK    3  A    between atoms: C8_8  and  N9_9 
ROOT
HETATM    1  C1  UNL     1     -33.972  17.892  -5.927  1.00 20.00     0.032 C 
HETATM    2  C2  UNL     1     -34.634  16.585  -6.350  1.00 20.00     0.038 C 
HETATM    3  C3  UNL     1     -33.601  17.696  -4.467  1.00 20.00     0.273 C 
HETATM    4  C4  UNL     1     -34.600  15.695  -5.106  1.00 20.00     0.236 C 
HETATM    5  N9  UNL     1     -33.469  16.243  -4.346  1.00 20.00     0.094 N 
ENDROOT
BRANCH   5   6
HETATM    6  C8  UNL     1     -33.454  15.823  -2.950  1.00 20.00     0.272 C 
BRANCH   6   7
HETATM    7  C7  UNL     1     -34.776  16.104  -2.246  1.00 20.00     0.026 C 
HETATM    8  C5  UNL     1     -34.588  16.666  -0.844  1.00 20.00     0.007 C 
ENDBRANCH   6   7
ENDBRANCH   5   6
BRANCH   4   9
HETATM    9  C6  UNL     1     -34.432  14.225  -5.469  1.00 20.00     0.150 C 
HETATM   10 CL10 UNL     1     -35.310  13.203  -4.317  1.00 20.00    -0.128 Cl
ENDBRANCH   4   9
TORSDOF 3
ENDMDL
MODEL 6
REMARK VINA RESULT:      -3.9     11.837     13.151
REMARK  3 active torsions:
REMARK  status: ('A' for Active; 'I' for Inactive)
REMARK    1  A    between atoms: C4_4  and  C6_6 
REMARK    2  A    between atoms: C7_7  and  C8_8 
REMARK    3  A    between atoms: C8_8  and  N9_9 
ROOT
HETATM    1  C1  UNL     1     -33.652  18.028  -4.627  1.00 20.00     0.032 C 
HETATM    2  C2  UNL     1     -33.939  18.050  -3.129  1.00 20.00     0.038 C 
HETATM    3  C3  UNL     1     -33.291  16.586  -4.941  1.00 20.00     0.273 C 
HETATM    4  C4  UNL     1     -33.737  16.609  -2.658  1.00 20.00     0.236 C 
HETATM    5  N9  UNL     1     -33.968  15.832  -3.883  1.00 20.00     0.094 N 
ENDROOT
BRANCH   5   6
HETATM    6  C8  UNL     1     -33.470  14.464  -3.801  1.00 20.00     0.272 C 
BRANCH   6   7
HETATM    7  C7  UNL     1     -34.524  13.438  -4.198  1.00 20.00     0.026 C 
HETATM    8  C5  UNL     1     -35.926  14.029  -4.261  1.00 20.00     0.007 C 
ENDBRANCH   6   7
ENDBRANCH   5   6
BRANCH   4   9
HETATM    9  C6  UNL     1     -34.688  16.248  -1.523  1.00 20.00     0.150 C 
HETATM   10 CL10 UNL     1     -34.409  17.304  -0.127  1.00 20.00    -0.128 Cl
ENDBRANCH   4   9
TORSDOF 3
ENDMDL
MODEL 7
REMARK VINA RESULT:      -3.9     12.291     13.366
REMARK  3 active torsions:
REMARK  status: ('A' for Active; 'I' for Inactive)
REMARK    1  A    between atoms: C4_4  and  C6_6 
REMARK    2  A    between atoms: C7_7  and  C8_8 
REMARK    3  A    between atoms: C8_8  and  N9_9 
ROOT
HETATM    1  C1  UNL     1     -34.395  13.287  -4.780  1.00 20.00     0.032 C 
HETATM    2  C2  UNL     1     -34.977  14.174  -5.875  1.00 20.00     0.038 C 
HETATM    3  C3  UNL     1     -34.491  14.112  -3.508  1.00 20.00     0.273 C 
HETATM    4  C4  UNL     1     -35.390  15.468  -5.171  1.00 20.00     0.236 C 
HETATM    5  N9  UNL     1     -35.598  15.030  -3.784  1.00 20.00     0.094 N 
ENDROOT
BRANCH   5   6
HETATM    6  C8  UNL     1     -35.629  16.131  -2.830  1.00 20.00     0.272 C 
BRANCH   6   7
HETATM    7  C7  UNL     1     -34.390  16.166  -1.944  1.00 20.00     0.026 C 
HETATM    8  C5  UNL     1     -34.660  16.787  -0.580  1.00 20.00     0.007 C 
ENDBRANCH   6   7
ENDBRANCH   5   6
BRANCH   4   9
HETATM    9  C6  UNL     1     -36.630  16.086  -5.805  1.00 20.00     0.150 C 
HETATM   10 CL10 UNL     1     -37.197  15.082  -7.152  1.00 20.00    -0.128 Cl
ENDBRANCH   4   9
TORSDOF 3
ENDMDL
MODEL 8
REMARK VINA RESULT:      -3.9     11.961     12.725
REMARK  3 active torsions:
REMARK  status: ('A' for Active; 'I' for Inactive)
REMARK    1  A    between atoms: C4_4  and  C6_6 
REMARK    2  A    between atoms: C7_7  and  C8_8 
REMARK    3  A    between atoms: C8_8  and  N9_9 
ROOT
HETATM    1  C1  UNL     1     -33.555  13.471  -3.975  1.00 20.00     0.032 C 
HETATM    2  C2  UNL     1     -35.051  13.648  -4.212  1.00 20.00     0.038 C 
HETATM    3  C3  UNL     1     -33.048  14.849  -3.586  1.00 20.00     0.273 C 
HETATM    4  C4  UNL     1     -35.331  15.127  -3.936  1.00 20.00     0.236 C 
HETATM    5  N9  UNL     1     -34.236  15.500  -3.030  1.00 20.00     0.094 N 
ENDROOT
BRANCH   5   6
HETATM    6  C8  UNL     1     -34.049  16.941  -2.914  1.00 20.00     0.272 C 
BRANCH   6   7
HETATM    7  C7  UNL     1     -33.715  17.370  -1.491  1.00 20.00     0.026 C 
HETATM    8  C5  UNL     1     -34.714  16.848  -0.468  1.00 20.00     0.007 C 
ENDBRANCH   6   7
ENDBRANCH   5   6
BRANCH   4   9
HETATM    9  C6  UNL     1     -36.714  15.336  -3.332  1.00 20.00     0.150 C 
HETATM   10 CL10 UNL     1     -37.489  16.760  -4.050  1.00 20.00    -0.128 Cl
ENDBRANCH   4   9
TORSDOF 3
ENDMDL
MODEL 9
REMARK VINA RESULT:      -3.9     12.060     13.569
REMARK  3 active torsions:
REMARK  status: ('A' for Active; 'I' for Inactive)
REMARK    1  A    between atoms: C4_4  and  C6_6 
REMARK    2  A    between atoms: C7_7  and  C8_8 
REMARK    3  A    between atoms: C8_8  and  N9_9 
ROOT
HETATM    1  C1  UNL     1     -34.529  17.692  -2.004  1.00 20.00     0.032 C 
HETATM    2  C2  UNL     1     -34.515  16.182  -1.791  1.00 20.00     0.038 C 
HETATM    3  C3  UNL     1     -33.908  17.906  -3.374  1.00 20.00     0.273 C 
HETATM    4  C4  UNL     1     -33.893  15.600  -3.062  1.00 20.00     0.236 C 
HETATM    5  N9  UNL     1     -34.169  16.640  -4.063  1.00 20.00     0.094 N 
ENDROOT
BRANCH   5   6
HETATM    6  C8  UNL     1     -33.358  16.511  -5.267  1.00 20.00     0.272 C 
BRANCH   6   7
HETATM    7  C7  UNL     1     -34.203  16.458  -6.534  1.00 20.00     0.026 C 
HETATM    8  C5  UNL     1     -34.390  15.040  -7.057  1.00 20.00     0.007 C 
ENDBRANCH   6   7
ENDBRANCH   5   6
BRANCH   4   9
HETATM    9  C6  UNL     1     -34.492  14.245  -3.415  1.00 20.00     0.150 C 
HETATM   10 CL10 UNL     1     -36.185  14.430  -3.909  1.00 20.00    -0.128 Cl
ENDBRANCH   4   9
TORSDOF 3
ENDMDL
