MODEL 1
REMARK VINA RESULT:      -4.2      0.000      0.000
REMARK  3 active torsions:
REMARK  status: ('A' for Active; 'I' for Inactive)
REMARK    1  A    between atoms: C2_2  and  C8_8 
REMARK    2  A    between atoms: C7_7  and  C9_9 
REMARK    3  A    between atoms: C8_8  and  N10_10 
ROOT
HETATM    1  C3  UNL     1     -36.437  14.552  -4.042  1.00 20.00     0.031 C 
HETATM    2  C4  UNL     1     -35.410  13.613  -4.668  1.00 20.00     0.009 C 
HETATM    3  C5  UNL     1     -35.811  15.420  -2.948  1.00 20.00     0.272 C 
HETATM    4  C6  UNL     1     -33.619  15.240  -3.963  1.00 20.00     0.278 C 
HETATM    5  C7  UNL     1     -34.146  14.362  -5.112  1.00 20.00     0.028 C 
HETATM    6  N10 UNL     1     -34.648  16.160  -3.455  1.00 20.00     0.092 N 
ENDROOT
BRANCH   6   7
HETATM    7  C8  UNL     1     -34.094  17.022  -2.411  1.00 20.00     0.299 C 
BRANCH   7   8
HETATM    8  C2  UNL     1     -34.579  16.538  -1.083  1.00 20.00    -0.007 C 
HETATM    9  C1  UNL     1     -34.686  17.316   0.000  1.00 20.00     0.008 C 
ENDBRANCH   7   8
ENDBRANCH   6   7
BRANCH   5  10
HETATM   10  C9  UNL     1     -34.394  15.183  -6.381  1.00 20.00     0.121 C 
HETATM   11 CL11 UNL     1     -35.406  14.266  -7.511  1.00 20.00    -0.130 Cl
ENDBRANCH   5  10
TORSDOF 3
ENDMDL
MODEL 2
REMARK VINA RESULT:      -4.1      1.600      2.244
REMARK  3 active torsions:
REMARK  status: ('A' for Active; 'I' for Inactive)
REMARK    1  A    between atoms: C2_2  and  C8_8 
REMARK    2  A    between atoms: C7_7  and  C9_9 
REMARK    3  A    between atoms: C8_8  and  N10_10 
ROOT
HETATM    1  C3  UNL     1     -33.744  13.777  -3.976  1.00 20.00     0.031 C 
HETATM    2  C4  UNL     1     -34.674  13.893  -5.181  1.00 20.00     0.009 C 
HETATM    3  C5  UNL     1     -33.220  15.146  -3.539  1.00 20.00     0.272 C 
HETATM    4  C6  UNL     1     -35.152  16.265  -4.477  1.00 20.00     0.278 C 
HETATM    5  C7  UNL     1     -35.771  14.941  -4.958  1.00 20.00     0.028 C 
HETATM    6  N10 UNL     1     -34.322  16.081  -3.277  1.00 20.00     0.092 N 
ENDROOT
BRANCH   6   7
HETATM    7  C8  UNL     1     -33.802  17.367  -2.811  1.00 20.00     0.299 C 
BRANCH   7   8
HETATM    8  C2  UNL     1     -33.715  17.339  -1.321  1.00 20.00    -0.007 C 
HETATM    9  C1  UNL     1     -34.659  16.818  -0.528  1.00 20.00     0.008 C 
ENDBRANCH   7   8
ENDBRANCH   6   7
BRANCH   5  10
HETATM   10  C9  UNL     1     -36.845  14.436  -3.988  1.00 20.00     0.121 C 
HETATM   11 CL11 UNL     1     -38.458  14.831  -4.607  1.00 20.00    -0.130 Cl
ENDBRANCH   5  10
TORSDOF 3
ENDMDL
MODEL 3
REMARK VINA RESULT:      -4.0      0.914      1.067
REMARK  3 active torsions:
REMARK  status: ('A' for Active; 'I' for Inactive)
REMARK    1  A    between atoms: C2_2  and  C8_8 
REMARK    2  A    between atoms: C7_7  and  C9_9 
REMARK    3  A    between atoms: C8_8  and  N10_10 
ROOT
HETATM    1  C3  UNL     1     -35.584  13.766  -4.375  1.00 20.00     0.031 C 
HETATM    2  C4  UNL     1     -34.782  13.714  -5.672  1.00 20.00     0.009 C 
HETATM    3  C5  UNL     1     -34.908  14.659  -3.332  1.00 20.00     0.272 C 
HETATM    4  C6  UNL     1     -33.800  15.952  -5.054  1.00 20.00     0.278 C 
HETATM    5  C7  UNL     1     -34.430  15.118  -6.183  1.00 20.00     0.028 C 
HETATM    6  N10 UNL     1     -34.661  16.006  -3.863  1.00 20.00     0.092 N 
ENDROOT
BRANCH   6   7
HETATM    7  C8  UNL     1     -34.062  16.858  -2.836  1.00 20.00     0.299 C 
BRANCH   7   8
HETATM    8  C2  UNL     1     -34.421  16.316  -1.492  1.00 20.00    -0.007 C 
HETATM    9  C1  UNL     1     -34.789  17.076  -0.454  1.00 20.00     0.008 C 
ENDBRANCH   7   8
ENDBRANCH   6   7
BRANCH   5  10
HETATM   10  C9  UNL     1     -35.650  15.819  -6.789  1.00 20.00     0.121 C 
HETATM   11 CL11 UNL     1     -36.478  14.731  -7.918  1.00 20.00    -0.130 Cl
ENDBRANCH   5  10
TORSDOF 3
ENDMDL
MODEL 4
REMARK VINA RESULT:      -4.0      1.734      2.061
REMARK  3 active torsions:
REMARK  status: ('A' for Active; 'I' for Inactive)
REMARK    1  A    between atoms: C2_2  and  C8_8 
REMARK    2  A    between atoms: C7_7  and  C9_9 
REMARK    3  A    between atoms: C8_8  and  N10_10 
ROOT
HETATM    1  C3  UNL     1     -36.020  16.347  -5.586  1.00 20.00     0.031 C 
HETATM    2  C4  UNL     1     -36.635  15.020  -5.151  1.00 20.00     0.009 C 
HETATM    3  C5  UNL     1     -35.585  17.186  -4.383  1.00 20.00     0.272 C 
HETATM    4  C6  UNL     1     -35.313  15.207  -3.013  1.00 20.00     0.278 C 
HETATM    5  C7  UNL     1     -35.734  14.271  -4.160  1.00 20.00     0.028 C 
HETATM    6  N10 UNL     1     -34.673  16.434  -3.510  1.00 20.00     0.092 N 
ENDROOT
BRANCH   6   7
HETATM    7  C8  UNL     1     -34.228  17.269  -2.394  1.00 20.00     0.299 C 
BRANCH   7   8
HETATM    8  C2  UNL     1     -34.539  16.564  -1.115  1.00 20.00    -0.007 C 
HETATM    9  C1  UNL     1     -34.814  17.191   0.035  1.00 20.00     0.008 C 
ENDBRANCH   7   8
ENDBRANCH   6   7
BRANCH   5  10
HETATM   10  C9  UNL     1     -34.519  13.652  -4.858  1.00 20.00     0.121 C 
HETATM   11 CL11 UNL     1     -33.168  13.514  -3.721  1.00 20.00    -0.130 Cl
ENDBRANCH   5  10
TORSDOF 3
ENDMDL
MODEL 5
REMARK VINA RESULT:      -3.9      2.651      4.716
REMARK  3 active torsions:
REMARK  status: ('A' for Active; 'I' for Inactive)
REMARK    1  A    between atoms: C2_2  and  C8_8 
REMARK    2  A    between atoms: C7_7  and  C9_9 
REMARK    3  A    between atoms: C8_8  and  N10_10 
ROOT
HETATM    1  C3  UNL     1     -33.348  16.518  -4.965  1.00 20.00     0.031 C 
HETATM    2  C4  UNL     1     -33.022  15.500  -3.875  1.00 20.00     0.009 C 
HETATM    3  C5  UNL     1     -33.849  15.836  -6.239  1.00 20.00     0.272 C 
HETATM    4  C6  UNL     1     -34.643  13.921  -4.986  1.00 20.00     0.278 C 
HETATM    5  C7  UNL     1     -34.179  14.518  -3.646  1.00 20.00     0.028 C 
HETATM    6  N10 UNL     1     -34.998  14.963  -5.961  1.00 20.00     0.092 N 
ENDROOT
BRANCH   6   7
HETATM    7  C8  UNL     1     -35.495  14.361  -7.198  1.00 20.00     0.299 C 
BRANCH   7   8
HETATM    8  C2  UNL     1     -36.779  15.024  -7.573  1.00 20.00    -0.007 C 
HETATM    9  C1  UNL     1     -37.730  15.360  -6.694  1.00 20.00     0.008 C 
ENDBRANCH   7   8
ENDBRANCH   6   7
BRANCH   5  10
HETATM   10  C9  UNL     1     -35.337  15.179  -2.892  1.00 20.00     0.121 C 
HETATM   11 CL11 UNL     1     -34.713  16.142  -1.541  1.00 20.00    -0.130 Cl
ENDBRANCH   5  10
TORSDOF 3
ENDMDL
MODEL 6
REMARK VINA RESULT:      -3.9      1.704      2.412
REMARK  3 active torsions:
REMARK  status: ('A' for Active; 'I' for Inactive)
REMARK    1  A    between atoms: C2_2  and  C8_8 
REMARK    2  A    between atoms: C7_7  and  C9_9 
REMARK    3  A    between atoms: C8_8  and  N10_10 
ROOT
HETATM    1  C3  UNL     1     -33.988  17.210  -6.090  1.00 20.00     0.031 C 
HETATM    2  C4  UNL     1     -35.425  16.716  -6.227  1.00 20.00     0.009 C 
HETATM    3  C5  UNL     1     -33.648  17.549  -4.637  1.00 20.00     0.272 C 
HETATM    4  C6  UNL     1     -35.322  16.006  -3.811  1.00 20.00     0.278 C 
HETATM    5  C7  UNL     1     -35.740  15.591  -5.232  1.00 20.00     0.028 C 
HETATM    6  N10 UNL     1     -33.908  16.410  -3.748  1.00 20.00     0.092 N 
ENDROOT
BRANCH   6   7
HETATM    7  C8  UNL     1     -33.529  16.736  -2.373  1.00 20.00     0.299 C 
BRANCH   7   8
HETATM    8  C2  UNL     1     -34.684  16.438  -1.473  1.00 20.00    -0.007 C 
HETATM    9  C1  UNL     1     -34.823  16.947  -0.244  1.00 20.00     0.008 C 
ENDBRANCH   7   8
ENDBRANCH   6   7
BRANCH   5  10
HETATM   10  C9  UNL     1     -35.086  14.270  -5.649  1.00 20.00     0.121 C 
HETATM   11 CL11 UNL     1     -35.109  13.125  -4.297  1.00 20.00    -0.130 Cl
ENDBRANCH   5  10
TORSDOF 3
ENDMDL
MODEL 7
REMARK VINA RESULT:      -3.9      2.989      4.886
REMARK  3 active torsions:
REMARK  status: ('A' for Active; 'I' for Inactive)
REMARK    1  A    between atoms: C2_2  and  C8_8 
REMARK    2  A    between atoms: C7_7  and  C9_9 
REMARK    3  A    between atoms: C8_8  and  N10_10 
ROOT
HETATM    1  C3  UNL     1     -35.173  18.248  -3.295  1.00 20.00     0.031 C 
HETATM    2  C4  UNL     1     -33.856  17.989  -2.567  1.00 20.00     0.009 C 
HETATM    3  C5  UNL     1     -35.668  16.996  -4.022  1.00 20.00     0.272 C 
HETATM    4  C6  UNL     1     -34.480  15.548  -2.485  1.00 20.00     0.278 C 
HETATM    5  C7  UNL     1     -33.930  16.738  -1.680  1.00 20.00     0.028 C 
HETATM    6  N10 UNL     1     -35.779  15.854  -3.104  1.00 20.00     0.092 N 
ENDROOT
BRANCH   6   7
HETATM    7  C8  UNL     1     -36.302  14.682  -3.806  1.00 20.00     0.299 C 
BRANCH   7   8
HETATM    8  C2  UNL     1     -35.185  13.715  -4.021  1.00 20.00    -0.007 C 
HETATM    9  C1  UNL     1     -34.754  13.328  -5.228  1.00 20.00     0.008 C 
ENDBRANCH   7   8
ENDBRANCH   6   7
BRANCH   5  10
HETATM   10  C9  UNL     1     -34.754  16.993  -0.414  1.00 20.00     0.121 C 
HETATM   11 CL11 UNL     1     -33.907  18.135   0.644  1.00 20.00    -0.130 Cl
ENDBRANCH   5  10
TORSDOF 3
ENDMDL
MODEL 8
REMARK VINA RESULT:      -3.9      1.963      2.462
REMARK  3 active torsions:
REMARK  status: ('A' for Active; 'I' for Inactive)
REMARK    1  A    between atoms: C2_2  and  C8_8 
REMARK    2  A    between atoms: C7_7  and  C9_9 
REMARK    3  A    between atoms: C8_8  and  N10_10 
ROOT
HETATM    1  C3  UNL     1     -35.899  14.873  -6.498  1.00 20.00     0.031 C 
HETATM    2  C4  UNL     1     -34.459  15.085  -6.960  1.00 20.00     0.009 C 
HETATM    3  C5  UNL     1     -35.969  14.585  -4.997  1.00 20.00     0.272 C 
HETATM    4  C6  UNL     1     -33.892  15.766  -4.600  1.00 20.00     0.278 C 
HETATM    5  C7  UNL     1     -33.726  16.114  -6.089  1.00 20.00     0.028 C 
HETATM    6  N10 UNL     1     -35.308  15.640  -4.219  1.00 20.00     0.092 N 
ENDROOT
BRANCH   6   7
HETATM    7  C8  UNL     1     -35.430  15.373  -2.786  1.00 20.00     0.299 C 
BRANCH   7   8
HETATM    8  C2  UNL     1     -34.413  16.188  -2.057  1.00 20.00    -0.007 C 
HETATM    9  C1  UNL     1     -34.586  16.664  -0.818  1.00 20.00     0.008 C 
ENDBRANCH   7   8
ENDBRANCH   6   7
BRANCH   5  10
HETATM   10  C9  UNL     1     -34.192  17.542  -6.391  1.00 20.00     0.121 C 
HETATM   11 CL11 UNL     1     -33.492  18.671  -5.218  1.00 20.00    -0.130 Cl
ENDBRANCH   5  10
TORSDOF 3
ENDMDL
MODEL 9
REMARK VINA RESULT:      -3.9      1.972      4.455
REMARK  3 active torsions:
REMARK  status: ('A' for Active; 'I' for Inactive)
REMARK    1  A    between atoms: C2_2  and  C8_8 
REMARK    2  A    between atoms: C7_7  and  C9_9 
REMARK    3  A    between atoms: C8_8  and  N10_10 
ROOT
HETATM    1  C3  UNL     1     -33.631  17.222  -3.932  1.00 20.00     0.031 C 
HETATM    2  C4  UNL     1     -33.724  16.138  -2.861  1.00 20.00     0.009 C 
HETATM    3  C5  UNL     1     -33.405  16.621  -5.321  1.00 20.00     0.272 C 
HETATM    4  C6  UNL     1     -34.452  14.537  -4.666  1.00 20.00     0.278 C 
HETATM    5  C7  UNL     1     -34.731  15.044  -3.241  1.00 20.00     0.028 C 
HETATM    6  N10 UNL     1     -34.440  15.631  -5.649  1.00 20.00     0.092 N 
ENDROOT
BRANCH   6   7
HETATM    7  C8  UNL     1     -34.237  15.106  -6.999  1.00 20.00     0.299 C 
BRANCH   7   8
HETATM    8  C2  UNL     1     -35.485  14.413  -7.437  1.00 20.00    -0.007 C 
HETATM    9  C1  UNL     1     -36.669  15.023  -7.573  1.00 20.00     0.008 C 
ENDBRANCH   7   8
ENDBRANCH   6   7
BRANCH   5  10
HETATM   10  C9  UNL     1     -36.175  15.531  -3.087  1.00 20.00     0.121 C 
HETATM   11 CL11 UNL     1     -37.269  14.496  -4.022  1.00 20.00    -0.130 Cl
ENDBRANCH   5  10
TORSDOF 3
ENDMDL
