MODEL 1
REMARK VINA RESULT:      -4.8      0.000      0.000
REMARK  1 active torsions:
REMARK  status: ('A' for Active; 'I' for Inactive)
REMARK    1  A    between atoms: C1_1  and  C8_8 
REMARK       I    between atoms: C1_1  and  N10_10 
ROOT
HETATM    1  C1  UNL     1     -33.764  17.559  -2.946  1.00 20.00     0.224 C 
HETATM    2  C2  UNL     1     -34.734  16.396  -6.211  1.00 20.00     0.021 C 
HETATM    3  C5  UNL     1     -34.382  14.909  -6.166  1.00 20.00     0.023 C 
HETATM    4  C6  UNL     1     -33.746  17.229  -5.399  1.00 20.00     0.126 C 
HETATM    5  C7  UNL     1     -33.216  15.288  -3.955  1.00 20.00     0.145 C 
HETATM    6  C9  UNL     1     -34.181  14.396  -4.738  1.00 20.00     0.100 C 
HETATM    7  N10 UNL     1     -33.596  16.704  -4.041  1.00 20.00    -0.350 N 
HETATM    8  O11 UNL     1     -34.035  18.753  -3.025  1.00 20.00    -0.273 OA
HETATM    9 CL12 UNL     1     -35.753  14.296  -3.882  1.00 20.00    -0.123 Cl
ENDROOT
BRANCH   1  10
HETATM   10  C8  UNL     1     -33.600  16.966  -1.584  1.00 20.00     0.078 A 
HETATM   11  C3  UNL     1     -33.987  17.787  -0.400  1.00 20.00     0.015 A 
HETATM   12  C4  UNL     1     -34.827  16.616  -0.812  1.00 20.00     0.015 A 
ENDBRANCH   1  10
TORSDOF 1
ENDMDL
MODEL 2
REMARK VINA RESULT:      -4.7      1.598      1.707
REMARK  1 active torsions:
REMARK  status: ('A' for Active; 'I' for Inactive)
REMARK    1  A    between atoms: C1_1  and  C8_8 
REMARK       I    between atoms: C1_1  and  N10_10 
ROOT
HETATM    1  C1  UNL     1     -35.594  16.713  -2.779  1.00 20.00     0.224 C 
HETATM    2  C2  UNL     1     -36.646  15.452  -5.982  1.00 20.00     0.021 C 
HETATM    3  C5  UNL     1     -35.413  14.695  -6.476  1.00 20.00     0.023 C 
HETATM    4  C6  UNL     1     -36.257  16.680  -5.164  1.00 20.00     0.126 C 
HETATM    5  C7  UNL     1     -34.097  15.642  -4.536  1.00 20.00     0.145 C 
HETATM    6  C9  UNL     1     -34.421  14.388  -5.350  1.00 20.00     0.100 C 
HETATM    7  N10 UNL     1     -35.316  16.334  -4.097  1.00 20.00    -0.350 N 
HETATM    8  O11 UNL     1     -36.592  17.333  -2.424  1.00 20.00    -0.273 OA
HETATM    9 CL12 UNL     1     -35.072  13.111  -4.273  1.00 20.00    -0.123 Cl
ENDROOT
BRANCH   1  10
HETATM   10  C8  UNL     1     -34.598  16.331  -1.732  1.00 20.00     0.078 A 
HETATM   11  C3  UNL     1     -33.646  17.369  -1.243  1.00 20.00     0.015 A 
HETATM   12  C4  UNL     1     -34.761  16.893  -0.361  1.00 20.00     0.015 A 
ENDBRANCH   1  10
TORSDOF 1
ENDMDL
MODEL 3
REMARK VINA RESULT:      -4.5      2.374      4.812
REMARK  1 active torsions:
REMARK  status: ('A' for Active; 'I' for Inactive)
REMARK    1  A    between atoms: C1_1  and  C8_8 
REMARK       I    between atoms: C1_1  and  N10_10 
ROOT
HETATM    1  C1  UNL     1     -34.515  14.443  -5.536  1.00 20.00     0.224 C 
HETATM    2  C2  UNL     1     -34.570  15.839  -2.219  1.00 20.00     0.021 C 
HETATM    3  C5  UNL     1     -33.881  17.192  -2.403  1.00 20.00     0.023 C 
HETATM    4  C6  UNL     1     -33.978  14.780  -3.143  1.00 20.00     0.126 C 
HETATM    5  C7  UNL     1     -33.259  16.515  -4.758  1.00 20.00     0.145 C 
HETATM    6  C9  UNL     1     -33.821  17.626  -3.870  1.00 20.00     0.100 C 
HETATM    7  N10 UNL     1     -33.951  15.238  -4.533  1.00 20.00    -0.350 N 
HETATM    8  O11 UNL     1     -35.049  13.354  -5.348  1.00 20.00    -0.273 OA
HETATM    9 CL12 UNL     1     -35.449  18.106  -4.448  1.00 20.00    -0.123 Cl
ENDROOT
BRANCH   1  10
HETATM   10  C8  UNL     1     -34.459  14.963  -6.935  1.00 20.00     0.078 A 
HETATM   11  C3  UNL     1     -35.475  14.481  -7.915  1.00 20.00     0.015 A 
HETATM   12  C4  UNL     1     -35.539  15.884  -7.392  1.00 20.00     0.015 A 
ENDBRANCH   1  10
TORSDOF 1
ENDMDL
MODEL 4
REMARK VINA RESULT:      -4.5      3.410      4.197
REMARK  1 active torsions:
REMARK  status: ('A' for Active; 'I' for Inactive)
REMARK    1  A    between atoms: C1_1  and  C8_8 
REMARK       I    between atoms: C1_1  and  N10_10 
ROOT
HETATM    1  C1  UNL     1     -37.234  15.135  -3.800  1.00 20.00     0.224 C 
HETATM    2  C2  UNL     1     -33.898  13.800  -3.602  1.00 20.00     0.021 C 
HETATM    3  C5  UNL     1     -33.022  15.052  -3.643  1.00 20.00     0.023 C 
HETATM    4  C6  UNL     1     -35.152  13.966  -4.454  1.00 20.00     0.126 C 
HETATM    5  C7  UNL     1     -35.075  16.427  -4.179  1.00 20.00     0.145 C 
HETATM    6  C9  UNL     1     -33.807  16.329  -3.329  1.00 20.00     0.100 C 
HETATM    7  N10 UNL     1     -35.871  15.194  -4.110  1.00 20.00    -0.350 N 
HETATM    8  O11 UNL     1     -37.906  14.108  -3.790  1.00 20.00    -0.273 OA
HETATM    9 CL12 UNL     1     -34.232  16.390  -1.588  1.00 20.00    -0.123 Cl
ENDROOT
BRANCH   1  10
HETATM   10  C8  UNL     1     -37.914  16.420  -3.455  1.00 20.00     0.078 A 
HETATM   11  C3  UNL     1     -38.878  17.000  -4.434  1.00 20.00     0.015 A 
HETATM   12  C4  UNL     1     -39.375  16.391  -3.158  1.00 20.00     0.015 A 
ENDBRANCH   1  10
TORSDOF 1
ENDMDL
MODEL 5
REMARK VINA RESULT:      -4.2      2.274      2.935
REMARK  1 active torsions:
REMARK  status: ('A' for Active; 'I' for Inactive)
REMARK    1  A    between atoms: C1_1  and  C8_8 
REMARK       I    between atoms: C1_1  and  N10_10 
ROOT
HETATM    1  C1  UNL     1     -34.721  15.491  -3.556  1.00 20.00     0.224 C 
HETATM    2  C2  UNL     1     -34.358  15.048  -7.109  1.00 20.00     0.021 C 
HETATM    3  C5  UNL     1     -35.071  16.273  -7.684  1.00 20.00     0.023 C 
HETATM    4  C6  UNL     1     -35.029  14.560  -5.829  1.00 20.00     0.126 C 
HETATM    5  C7  UNL     1     -35.911  16.828  -5.365  1.00 20.00     0.145 C 
HETATM    6  C9  UNL     1     -35.274  17.377  -6.643  1.00 20.00     0.100 C 
HETATM    7  N10 UNL     1     -35.191  15.649  -4.864  1.00 20.00    -0.350 N 
HETATM    8  O11 UNL     1     -34.163  14.485  -3.129  1.00 20.00    -0.273 OA
HETATM    9 CL12 UNL     1     -33.712  18.168  -6.257  1.00 20.00    -0.123 Cl
ENDROOT
BRANCH   1  10
HETATM   10  C8  UNL     1     -34.914  16.637  -2.616  1.00 20.00     0.078 A 
HETATM   11  C3  UNL     1     -34.746  16.394  -1.154  1.00 20.00     0.015 A 
HETATM   12  C4  UNL     1     -33.719  17.182  -1.909  1.00 20.00     0.015 A 
ENDBRANCH   1  10
TORSDOF 1
ENDMDL
MODEL 6
REMARK VINA RESULT:      -4.2      2.207      2.691
REMARK  1 active torsions:
REMARK  status: ('A' for Active; 'I' for Inactive)
REMARK    1  A    between atoms: C1_1  and  C8_8 
REMARK       I    between atoms: C1_1  and  N10_10 
ROOT
HETATM    1  C1  UNL     1     -34.391  15.307  -3.341  1.00 20.00     0.224 C 
HETATM    2  C2  UNL     1     -34.822  14.819  -6.880  1.00 20.00     0.021 C 
HETATM    3  C5  UNL     1     -36.340  14.883  -7.055  1.00 20.00     0.023 C 
HETATM    4  C6  UNL     1     -34.439  14.185  -5.547  1.00 20.00     0.126 C 
HETATM    5  C7  UNL     1     -36.594  14.877  -4.539  1.00 20.00     0.145 C 
HETATM    6  C9  UNL     1     -37.043  15.519  -5.853  1.00 20.00     0.100 C 
HETATM    7  N10 UNL     1     -35.129  14.833  -4.430  1.00 20.00    -0.350 N 
HETATM    8  O11 UNL     1     -33.171  15.225  -3.233  1.00 20.00    -0.273 OA
HETATM    9 CL12 UNL     1     -36.732  17.285  -5.807  1.00 20.00    -0.123 Cl
ENDROOT
BRANCH   1  10
HETATM   10  C8  UNL     1     -35.149  15.961  -2.232  1.00 20.00     0.078 A 
HETATM   11  C3  UNL     1     -34.382  16.651  -1.155  1.00 20.00     0.015 A 
HETATM   12  C4  UNL     1     -35.155  17.450  -2.159  1.00 20.00     0.015 A 
ENDBRANCH   1  10
TORSDOF 1
ENDMDL
MODEL 7
REMARK VINA RESULT:      -4.1      2.628      3.694
REMARK  1 active torsions:
REMARK  status: ('A' for Active; 'I' for Inactive)
REMARK    1  A    between atoms: C1_1  and  C8_8 
REMARK       I    between atoms: C1_1  and  N10_10 
ROOT
HETATM    1  C1  UNL     1     -35.636  16.523  -5.974  1.00 20.00     0.224 C 
HETATM    2  C2  UNL     1     -34.627  13.393  -4.512  1.00 20.00     0.021 C 
HETATM    3  C5  UNL     1     -33.360  13.765  -3.740  1.00 20.00     0.023 C 
HETATM    4  C6  UNL     1     -34.764  14.213  -5.791  1.00 20.00     0.126 C 
HETATM    5  C7  UNL     1     -33.419  16.052  -4.817  1.00 20.00     0.145 C 
HETATM    6  C9  UNL     1     -33.233  15.274  -3.513  1.00 20.00     0.100 C 
HETATM    7  N10 UNL     1     -34.645  15.647  -5.519  1.00 20.00    -0.350 N 
HETATM    8  O11 UNL     1     -36.635  16.184  -6.602  1.00 20.00    -0.273 OA
HETATM    9 CL12 UNL     1     -34.427  15.826  -2.295  1.00 20.00    -0.123 Cl
ENDROOT
BRANCH   1  10
HETATM   10  C8  UNL     1     -35.461  17.975  -5.666  1.00 20.00     0.078 A 
HETATM   11  C3  UNL     1     -36.628  18.886  -5.848  1.00 20.00     0.015 A 
HETATM   12  C4  UNL     1     -36.155  18.534  -4.470  1.00 20.00     0.015 A 
ENDBRANCH   1  10
TORSDOF 1
ENDMDL
MODEL 8
REMARK VINA RESULT:      -4.0      1.659      4.177
REMARK  1 active torsions:
REMARK  status: ('A' for Active; 'I' for Inactive)
REMARK    1  A    between atoms: C1_1  and  C8_8 
REMARK       I    between atoms: C1_1  and  N10_10 
ROOT
HETATM    1  C1  UNL     1     -34.334  17.805  -5.318  1.00 20.00     0.224 C 
HETATM    2  C2  UNL     1     -33.559  17.348  -1.833  1.00 20.00     0.021 C 
HETATM    3  C5  UNL     1     -34.668  16.410  -1.353  1.00 20.00     0.023 C 
HETATM    4  C6  UNL     1     -34.063  18.305  -2.909  1.00 20.00     0.126 C 
HETATM    5  C7  UNL     1     -35.830  16.705  -3.579  1.00 20.00     0.145 C 
HETATM    6  C9  UNL     1     -35.383  15.706  -2.510  1.00 20.00     0.100 C 
HETATM    7  N10 UNL     1     -34.729  17.585  -3.994  1.00 20.00    -0.350 N 
HETATM    8  O11 UNL     1     -33.444  18.578  -5.663  1.00 20.00    -0.273 OA
HETATM    9 CL12 UNL     1     -34.317  14.464  -3.241  1.00 20.00    -0.123 Cl
ENDROOT
BRANCH   1  10
HETATM   10  C8  UNL     1     -35.049  17.040  -6.383  1.00 20.00     0.078 A 
HETATM   11  C3  UNL     1     -34.577  17.171  -7.792  1.00 20.00     0.015 A 
HETATM   12  C4  UNL     1     -34.341  15.900  -7.034  1.00 20.00     0.015 A 
ENDBRANCH   1  10
TORSDOF 1
ENDMDL
MODEL 9
REMARK VINA RESULT:      -4.0      3.127      4.244
REMARK  1 active torsions:
REMARK  status: ('A' for Active; 'I' for Inactive)
REMARK    1  A    between atoms: C1_1  and  C8_8 
REMARK       I    between atoms: C1_1  and  N10_10 
ROOT
HETATM    1  C1  UNL     1     -37.217  15.534  -3.558  1.00 20.00     0.224 C 
HETATM    2  C2  UNL     1     -33.678  16.066  -3.182  1.00 20.00     0.021 C 
HETATM    3  C5  UNL     1     -33.072  14.795  -3.781  1.00 20.00     0.023 C 
HETATM    4  C6  UNL     1     -35.001  15.778  -2.481  1.00 20.00     0.126 C 
HETATM    5  C7  UNL     1     -35.392  13.798  -3.918  1.00 20.00     0.145 C 
HETATM    6  C9  UNL     1     -34.068  14.024  -4.651  1.00 20.00     0.100 C 
HETATM    7  N10 UNL     1     -35.921  15.048  -3.356  1.00 20.00    -0.350 N 
HETATM    8  O11 UNL     1     -37.670  16.554  -3.048  1.00 20.00    -0.273 OA
HETATM    9 CL12 UNL     1     -34.363  14.897  -6.189  1.00 20.00    -0.123 Cl
ENDROOT
BRANCH   1  10
HETATM   10  C8  UNL     1     -38.110  14.748  -4.462  1.00 20.00     0.078 A 
HETATM   11  C3  UNL     1     -39.585  14.921  -4.332  1.00 20.00     0.015 A 
HETATM   12  C4  UNL     1     -38.864  15.477  -5.522  1.00 20.00     0.015 A 
ENDBRANCH   1  10
TORSDOF 1
ENDMDL
