MODEL 1
REMARK VINA RESULT:      -4.6      0.000      0.000
REMARK  2 active torsions:
REMARK  status: ('A' for Active; 'I' for Inactive)
REMARK    1  A    between atoms: C6_6  and  C7_7 
REMARK    2  A    between atoms: C6_6  and  N8_8 
ROOT
HETATM    1  C1  UNL     1     -35.452   5.345   3.886  1.00 20.00     0.050 C 
HETATM    2  C2  UNL     1     -34.217   6.350   5.826  1.00 20.00     0.050 C 
HETATM    3  C3  UNL     1     -34.173   5.485   3.053  1.00 20.00     0.274 C 
HETATM    4  C4  UNL     1     -32.979   6.457   4.929  1.00 20.00     0.274 C 
HETATM    5  C5  UNL     1     -35.167   5.236   5.384  1.00 20.00     0.085 C 
HETATM    6  N8  UNL     1     -33.359   6.616   3.519  1.00 20.00     0.093 N 
HETATM    7 CL11 UNL     1     -34.473   3.631   5.774  1.00 20.00    -0.125 Cl
ENDROOT
BRANCH   6   8
HETATM    8  C6  UNL     1     -32.169   6.770   2.682  1.00 20.00     0.343 C 
BRANCH   8   9
HETATM    9  C7  UNL     1     -31.969   8.222   2.304  1.00 20.00     0.381 C 
HETATM   10  F9  UNL     1     -33.168   8.853   2.238  1.00 20.00    -0.213 F 
HETATM   11  F10 UNL     1     -31.432   8.287   1.058  1.00 20.00    -0.213 F 
ENDBRANCH   8   9
ENDBRANCH   6   8
TORSDOF 2
ENDMDL
MODEL 2
REMARK VINA RESULT:      -4.6     11.184     11.824
REMARK  2 active torsions:
REMARK  status: ('A' for Active; 'I' for Inactive)
REMARK    1  A    between atoms: C6_6  and  C7_7 
REMARK    2  A    between atoms: C6_6  and  N8_8 
ROOT
HETATM    1  C1  UNL     1     -36.062  14.384  -3.896  1.00 20.00     0.050 C 
HETATM    2  C2  UNL     1     -33.671  13.627  -3.961  1.00 20.00     0.050 C 
HETATM    3  C3  UNL     1     -35.565  15.787  -3.528  1.00 20.00     0.274 C 
HETATM    4  C4  UNL     1     -33.253  15.053  -3.591  1.00 20.00     0.274 C 
HETATM    5  C5  UNL     1     -35.023  13.578  -4.675  1.00 20.00     0.085 C 
HETATM    6  N8  UNL     1     -34.292  15.721  -2.797  1.00 20.00     0.093 N 
HETATM    7 CL11 UNL     1     -34.869  14.204  -6.347  1.00 20.00    -0.125 Cl
ENDROOT
BRANCH   6   8
HETATM    8  C6  UNL     1     -33.857  17.062  -2.406  1.00 20.00     0.343 C 
BRANCH   8   9
HETATM    9  C7  UNL     1     -34.260  17.356  -0.977  1.00 20.00     0.381 C 
HETATM   10  F9  UNL     1     -33.170  17.721  -0.255  1.00 20.00    -0.213 F 
HETATM   11  F10 UNL     1     -34.736  16.220  -0.406  1.00 20.00    -0.213 F 
ENDBRANCH   8   9
ENDBRANCH   6   8
TORSDOF 2
ENDMDL
MODEL 3
REMARK VINA RESULT:      -4.2     11.219     12.223
REMARK  2 active torsions:
REMARK  status: ('A' for Active; 'I' for Inactive)
REMARK    1  A    between atoms: C6_6  and  C7_7 
REMARK    2  A    between atoms: C6_6  and  N8_8 
ROOT
HETATM    1  C1  UNL     1     -33.667  18.447  -2.438  1.00 20.00     0.050 C 
HETATM    2  C2  UNL     1     -34.598  16.630  -0.977  1.00 20.00     0.050 C 
HETATM    3  C3  UNL     1     -33.798  17.497  -3.633  1.00 20.00     0.274 C 
HETATM    4  C4  UNL     1     -34.698  15.740  -2.221  1.00 20.00     0.274 C 
HETATM    5  C5  UNL     1     -34.655  18.121  -1.317  1.00 20.00     0.085 C 
HETATM    6  N8  UNL     1     -33.672  16.095  -3.210  1.00 20.00     0.093 N 
HETATM    7 CL11 UNL     1     -36.318  18.590  -1.792  1.00 20.00    -0.125 Cl
ENDROOT
BRANCH   6   8
HETATM    8  C6  UNL     1     -33.746  15.203  -4.368  1.00 20.00     0.343 C 
BRANCH   8   9
HETATM    9  C7  UNL     1     -33.830  13.758  -3.921  1.00 20.00     0.381 C 
HETATM   10  F9  UNL     1     -32.600  13.313  -3.562  1.00 20.00    -0.213 F 
HETATM   11  F10 UNL     1     -34.225  12.992  -4.970  1.00 20.00    -0.213 F 
ENDBRANCH   8   9
ENDBRANCH   6   8
TORSDOF 2
ENDMDL
MODEL 4
REMARK VINA RESULT:      -4.2     11.856     12.618
REMARK  2 active torsions:
REMARK  status: ('A' for Active; 'I' for Inactive)
REMARK    1  A    between atoms: C6_6  and  C7_7 
REMARK    2  A    between atoms: C6_6  and  N8_8 
ROOT
HETATM    1  C1  UNL     1     -34.952  13.570  -5.277  1.00 20.00     0.050 C 
HETATM    2  C2  UNL     1     -34.137  15.787  -6.125  1.00 20.00     0.050 C 
HETATM    3  C3  UNL     1     -35.649  14.310  -4.131  1.00 20.00     0.274 C 
HETATM    4  C4  UNL     1     -34.861  16.454  -4.951  1.00 20.00     0.274 C 
HETATM    5  C5  UNL     1     -34.764  14.448  -6.515  1.00 20.00     0.085 C 
HETATM    6  N8  UNL     1     -34.938  15.552  -3.794  1.00 20.00     0.093 N 
HETATM    7 CL11 UNL     1     -36.332  14.708  -7.341  1.00 20.00    -0.125 Cl
ENDROOT
BRANCH   6   8
HETATM    8  C6  UNL     1     -35.584  16.221  -2.664  1.00 20.00     0.343 C 
BRANCH   8   9
HETATM    9  C7  UNL     1     -34.548  16.727  -1.683  1.00 20.00     0.381 C 
HETATM   10  F9  UNL     1     -33.316  16.287  -2.042  1.00 20.00    -0.213 F 
HETATM   11  F10 UNL     1     -34.803  16.201  -0.457  1.00 20.00    -0.213 F 
ENDBRANCH   8   9
ENDBRANCH   6   8
TORSDOF 2
ENDMDL
MODEL 5
REMARK VINA RESULT:      -4.1     11.709     12.439
REMARK  2 active torsions:
REMARK  status: ('A' for Active; 'I' for Inactive)
REMARK    1  A    between atoms: C6_6  and  C7_7 
REMARK    2  A    between atoms: C6_6  and  N8_8 
ROOT
HETATM    1  C1  UNL     1     -34.082  15.785  -5.646  1.00 20.00     0.050 C 
HETATM    2  C2  UNL     1     -36.329  14.984  -4.864  1.00 20.00     0.050 C 
HETATM    3  C3  UNL     1     -33.890  16.451  -4.279  1.00 20.00     0.274 C 
HETATM    4  C4  UNL     1     -36.062  15.677  -3.524  1.00 20.00     0.274 C 
HETATM    5  C5  UNL     1     -35.040  14.594  -5.588  1.00 20.00     0.085 C 
HETATM    6  N8  UNL     1     -35.181  16.839  -3.694  1.00 20.00     0.093 N 
HETATM    7 CL11 UNL     1     -34.261  13.203  -4.771  1.00 20.00    -0.125 Cl
ENDROOT
BRANCH   6   8
HETATM    8  C6  UNL     1     -34.979  17.522  -2.416  1.00 20.00     0.343 C 
BRANCH   8   9
HETATM    9  C7  UNL     1     -34.100  16.693  -1.504  1.00 20.00     0.381 C 
HETATM   10  F9  UNL     1     -34.830  16.217  -0.464  1.00 20.00    -0.213 F 
HETATM   11  F10 UNL     1     -33.139  17.489  -0.967  1.00 20.00    -0.213 F 
ENDBRANCH   8   9
ENDBRANCH   6   8
TORSDOF 2
ENDMDL
MODEL 6
REMARK VINA RESULT:      -4.1     11.147     12.124
REMARK  2 active torsions:
REMARK  status: ('A' for Active; 'I' for Inactive)
REMARK    1  A    between atoms: C6_6  and  C7_7 
REMARK    2  A    between atoms: C6_6  and  N8_8 
ROOT
HETATM    1  C1  UNL     1     -36.299  16.865  -2.728  1.00 20.00     0.050 C 
HETATM    2  C2  UNL     1     -34.016  17.890  -2.917  1.00 20.00     0.050 C 
HETATM    3  C3  UNL     1     -35.771  15.647  -3.493  1.00 20.00     0.274 C 
HETATM    4  C4  UNL     1     -33.563  16.638  -3.675  1.00 20.00     0.274 C 
HETATM    5  C5  UNL     1     -35.195  17.614  -1.982  1.00 20.00     0.085 C 
HETATM    6  N8  UNL     1     -34.682  16.027  -4.404  1.00 20.00     0.093 N 
HETATM    7 CL11 UNL     1     -34.655  16.674  -0.555  1.00 20.00    -0.125 Cl
ENDROOT
BRANCH   6   8
HETATM    8  C6  UNL     1     -34.223  14.865  -5.166  1.00 20.00     0.343 C 
BRANCH   8   9
HETATM    9  C7  UNL     1     -34.244  13.621  -4.303  1.00 20.00     0.381 C 
HETATM   10  F9  UNL     1     -32.992  13.343  -3.861  1.00 20.00    -0.213 F 
HETATM   11  F10 UNL     1     -34.628  12.561  -5.060  1.00 20.00    -0.213 F 
ENDBRANCH   8   9
ENDBRANCH   6   8
TORSDOF 2
ENDMDL
MODEL 7
REMARK VINA RESULT:      -4.0     11.590     12.898
REMARK  2 active torsions:
REMARK  status: ('A' for Active; 'I' for Inactive)
REMARK    1  A    between atoms: C6_6  and  C7_7 
REMARK    2  A    between atoms: C6_6  and  N8_8 
ROOT
HETATM    1  C1  UNL     1     -33.234  16.239  -4.581  1.00 20.00     0.050 C 
HETATM    2  C2  UNL     1     -33.422  13.852  -3.828  1.00 20.00     0.050 C 
HETATM    3  C3  UNL     1     -34.387  15.979  -5.557  1.00 20.00     0.274 C 
HETATM    4  C4  UNL     1     -34.568  13.671  -4.829  1.00 20.00     0.274 C 
HETATM    5  C5  UNL     1     -33.267  15.304  -3.372  1.00 20.00     0.085 C 
HETATM    6  N8  UNL     1     -34.414  14.571  -5.979  1.00 20.00     0.093 N 
HETATM    7 CL11 UNL     1     -34.601  15.757  -2.265  1.00 20.00    -0.125 Cl
ENDROOT
BRANCH   6   8
HETATM    8  C6  UNL     1     -35.485  14.349  -6.951  1.00 20.00     0.343 C 
BRANCH   8   9
HETATM    9  C7  UNL     1     -36.595  15.361  -6.760  1.00 20.00     0.381 C 
HETATM   10  F9  UNL     1     -37.471  14.916  -5.825  1.00 20.00    -0.213 F 
HETATM   11  F10 UNL     1     -37.295  15.477  -7.918  1.00 20.00    -0.213 F 
ENDBRANCH   8   9
ENDBRANCH   6   8
TORSDOF 2
ENDMDL
MODEL 8
REMARK VINA RESULT:      -4.0     10.005     11.060
REMARK  2 active torsions:
REMARK  status: ('A' for Active; 'I' for Inactive)
REMARK    1  A    between atoms: C6_6  and  C7_7 
REMARK    2  A    between atoms: C6_6  and  N8_8 
ROOT
HETATM    1  C1  UNL     1     -41.898   6.916  -2.709  1.00 20.00     0.050 C 
HETATM    2  C2  UNL     1     -41.027   6.164  -0.478  1.00 20.00     0.050 C 
HETATM    3  C3  UNL     1     -42.673   5.597  -2.804  1.00 20.00     0.274 C 
HETATM    4  C4  UNL     1     -41.830   4.870  -0.647  1.00 20.00     0.274 C 
HETATM    5  C5  UNL     1     -41.625   7.333  -1.263  1.00 20.00     0.085 C 
HETATM    6  N8  UNL     1     -41.987   4.526  -2.066  1.00 20.00     0.093 N 
HETATM    7 CL11 UNL     1     -43.132   7.904  -0.481  1.00 20.00    -0.125 Cl
ENDROOT
BRANCH   6   8
HETATM    8  C6  UNL     1     -42.710   3.262  -2.211  1.00 20.00     0.343 C 
BRANCH   8   9
HETATM    9  C7  UNL     1     -42.071   2.404  -3.282  1.00 20.00     0.381 C 
HETATM   10  F9  UNL     1     -42.195   1.092  -2.959  1.00 20.00    -0.213 F 
HETATM   11  F10 UNL     1     -40.739   2.665  -3.324  1.00 20.00    -0.213 F 
ENDBRANCH   8   9
ENDBRANCH   6   8
TORSDOF 2
ENDMDL
MODEL 9
REMARK VINA RESULT:      -3.8     11.678     13.200
REMARK  2 active torsions:
REMARK  status: ('A' for Active; 'I' for Inactive)
REMARK    1  A    between atoms: C6_6  and  C7_7 
REMARK    2  A    between atoms: C6_6  and  N8_8 
ROOT
HETATM    1  C1  UNL     1     -36.714  16.442  -6.050  1.00 20.00     0.050 C 
HETATM    2  C2  UNL     1     -35.691  14.592  -7.402  1.00 20.00     0.050 C 
HETATM    3  C3  UNL     1     -35.893  15.963  -4.848  1.00 20.00     0.274 C 
HETATM    4  C4  UNL     1     -34.903  14.174  -6.156  1.00 20.00     0.274 C 
HETATM    5  C5  UNL     1     -36.069  16.074  -7.386  1.00 20.00     0.085 C 
HETATM    6  N8  UNL     1     -35.632  14.518  -4.929  1.00 20.00     0.093 N 
HETATM    7 CL11 UNL     1     -34.625  17.091  -7.686  1.00 20.00    -0.125 Cl
ENDROOT
BRANCH   6   8
HETATM    8  C6  UNL     1     -34.893  14.066  -3.749  1.00 20.00     0.343 C 
BRANCH   8   9
HETATM    9  C7  UNL     1     -33.427  14.421  -3.871  1.00 20.00     0.381 C 
HETATM   10  F9  UNL     1     -32.662  13.346  -3.553  1.00 20.00    -0.213 F 
HETATM   11  F10 UNL     1     -33.127  15.388  -2.966  1.00 20.00    -0.213 F 
ENDBRANCH   8   9
ENDBRANCH   6   8
TORSDOF 2
ENDMDL
