MODEL 1
REMARK VINA RESULT:      -4.5      0.000      0.000
REMARK  4 active torsions:
REMARK  status: ('A' for Active; 'I' for Inactive)
REMARK    1  A    between atoms: C4_4  and  C7_7 
REMARK    2  A    between atoms: C8_8  and  C10_10 
REMARK    3  A    between atoms: C9_9  and  C10_10 
REMARK    4  A    between atoms: C9_9  and  N11_11 
ROOT
HETATM    1  C1  UNL     1     -34.260  13.711  -4.279  1.00 20.00     0.035 C 
HETATM    2  C2  UNL     1     -33.377  14.770  -3.649  1.00 20.00     0.235 C 
HETATM    3  C3  UNL     1     -35.738  15.238  -3.181  1.00 20.00     0.240 C 
HETATM    4  C4  UNL     1     -35.602  14.412  -4.456  1.00 20.00     0.027 C 
HETATM    5  N11 UNL     1     -34.315  15.516  -2.726  1.00 20.00    -0.070 N 
HETATM    6  H33 UNL     1     -34.211  15.095  -1.791  1.00 20.00     0.279 HD
ENDROOT
BRANCH   5   7
HETATM    7  C9  UNL     1     -33.989  16.969  -2.584  1.00 20.00     0.239 C 
BRANCH   7   8
HETATM    8  C10 UNL     1     -33.631  17.340  -1.138  1.00 20.00     0.007 C 
HETATM    9  C6  UNL     1     -34.793  17.047  -0.181  1.00 20.00     0.011 C 
BRANCH   8  10
HETATM   10  C8  UNL     1     -33.157  18.794  -0.947  1.00 20.00     0.001 C 
HETATM   11  C5  UNL     1     -32.090  18.952   0.127  1.00 20.00     0.005 C 
ENDBRANCH   8  10
ENDBRANCH   7   8
ENDBRANCH   5   7
BRANCH   4  12
HETATM   12  C7  UNL     1     -35.641  15.286  -5.711  1.00 20.00     0.121 C 
HETATM   13 CL12 UNL     1     -34.897  14.435  -7.080  1.00 20.00    -0.130 Cl
ENDBRANCH   4  12
TORSDOF 4
ENDMDL
MODEL 2
REMARK VINA RESULT:      -4.5      3.079      5.157
REMARK  4 active torsions:
REMARK  status: ('A' for Active; 'I' for Inactive)
REMARK    1  A    between atoms: C4_4  and  C7_7 
REMARK    2  A    between atoms: C8_8  and  C10_10 
REMARK    3  A    between atoms: C9_9  and  C10_10 
REMARK    4  A    between atoms: C9_9  and  N11_11 
ROOT
HETATM    1  C1  UNL     1     -33.562  13.798  -3.812  1.00 20.00     0.035 C 
HETATM    2  C2  UNL     1     -34.337  13.874  -5.113  1.00 20.00     0.235 C 
HETATM    3  C3  UNL     1     -33.339  16.050  -4.585  1.00 20.00     0.240 C 
HETATM    4  C4  UNL     1     -33.547  15.237  -3.311  1.00 20.00     0.027 C 
HETATM    5  N11 UNL     1     -33.913  15.200  -5.705  1.00 20.00    -0.070 N 
HETATM    6  H33 UNL     1     -33.140  15.001  -6.357  1.00 20.00     0.279 HD
ENDROOT
BRANCH   5   7
HETATM    7  C9  UNL     1     -34.986  15.874  -6.500  1.00 20.00     0.239 C 
BRANCH   7   8
HETATM    8  C10 UNL     1     -36.340  15.165  -6.358  1.00 20.00     0.007 C 
HETATM    9  C6  UNL     1     -37.004  14.948  -7.723  1.00 20.00     0.011 C 
BRANCH   8  10
HETATM   10  C8  UNL     1     -37.331  15.859  -5.403  1.00 20.00     0.001 C 
HETATM   11  C5  UNL     1     -37.961  14.916  -4.387  1.00 20.00     0.005 C 
ENDBRANCH   8  10
ENDBRANCH   7   8
ENDBRANCH   5   7
BRANCH   4  12
HETATM   12  C7  UNL     1     -34.843  15.618  -2.594  1.00 20.00     0.121 C 
HETATM   13 CL12 UNL     1     -34.483  16.474  -1.081  1.00 20.00    -0.130 Cl
ENDBRANCH   4  12
TORSDOF 4
ENDMDL
MODEL 3
REMARK VINA RESULT:      -4.4      2.119      2.804
REMARK  4 active torsions:
REMARK  status: ('A' for Active; 'I' for Inactive)
REMARK    1  A    between atoms: C4_4  and  C7_7 
REMARK    2  A    between atoms: C8_8  and  C10_10 
REMARK    3  A    between atoms: C9_9  and  C10_10 
REMARK    4  A    between atoms: C9_9  and  N11_11 
ROOT
HETATM    1  C1  UNL     1     -34.918  14.698  -7.134  1.00 20.00     0.035 C 
HETATM    2  C2  UNL     1     -34.076  15.902  -6.765  1.00 20.00     0.235 C 
HETATM    3  C3  UNL     1     -34.382  14.444  -4.817  1.00 20.00     0.240 C 
HETATM    4  C4  UNL     1     -35.526  14.256  -5.808  1.00 20.00     0.027 C 
HETATM    5  N11 UNL     1     -33.515  15.544  -5.406  1.00 20.00    -0.070 N 
HETATM    6  H33 UNL     1     -32.581  15.136  -5.568  1.00 20.00     0.279 HD
ENDROOT
BRANCH   5   7
HETATM    7  C9  UNL     1     -33.320  16.722  -4.505  1.00 20.00     0.239 C 
BRANCH   7   8
HETATM    8  C10 UNL     1     -34.332  16.737  -3.351  1.00 20.00     0.007 C 
HETATM    9  C6  UNL     1     -35.331  17.891  -3.497  1.00 20.00     0.011 C 
BRANCH   8  10
HETATM   10  C8  UNL     1     -33.701  16.773  -1.945  1.00 20.00     0.001 C 
HETATM   11  C5  UNL     1     -34.714  16.631  -0.818  1.00 20.00     0.005 C 
ENDBRANCH   8  10
ENDBRANCH   7   8
ENDBRANCH   5   7
BRANCH   4  12
HETATM   12  C7  UNL     1     -36.756  15.081  -5.426  1.00 20.00     0.121 C 
HETATM   13 CL12 UNL     1     -37.272  14.691  -3.773  1.00 20.00    -0.130 Cl
ENDBRANCH   4  12
TORSDOF 4
ENDMDL
MODEL 4
REMARK VINA RESULT:      -4.4      2.075      2.899
REMARK  4 active torsions:
REMARK  status: ('A' for Active; 'I' for Inactive)
REMARK    1  A    between atoms: C4_4  and  C7_7 
REMARK    2  A    between atoms: C8_8  and  C10_10 
REMARK    3  A    between atoms: C9_9  and  C10_10 
REMARK    4  A    between atoms: C9_9  and  N11_11 
ROOT
HETATM    1  C1  UNL     1     -36.617  15.344  -5.492  1.00 20.00     0.035 C 
HETATM    2  C2  UNL     1     -35.973  16.584  -4.906  1.00 20.00     0.235 C 
HETATM    3  C3  UNL     1     -34.289  15.191  -6.018  1.00 20.00     0.240 C 
HETATM    4  C4  UNL     1     -35.473  14.340  -5.570  1.00 20.00     0.027 C 
HETATM    5  N11 UNL     1     -34.591  16.595  -5.522  1.00 20.00    -0.070 N 
HETATM    6  H33 UNL     1     -34.641  17.203  -6.354  1.00 20.00     0.279 HD
ENDROOT
BRANCH   5   7
HETATM    7  C9  UNL     1     -33.539  17.171  -4.629  1.00 20.00     0.239 C 
BRANCH   7   8
HETATM    8  C10 UNL     1     -34.097  17.549  -3.250  1.00 20.00     0.007 C 
HETATM    9  C6  UNL     1     -33.703  18.978  -2.858  1.00 20.00     0.011 C 
BRANCH   8  10
HETATM   10  C8  UNL     1     -33.718  16.577  -2.115  1.00 20.00     0.001 C 
HETATM   11  C5  UNL     1     -34.684  16.604  -0.939  1.00 20.00     0.005 C 
ENDBRANCH   8  10
ENDBRANCH   7   8
ENDBRANCH   5   7
BRANCH   4  12
HETATM   12  C7  UNL     1     -35.210  13.651  -4.231  1.00 20.00     0.121 C 
HETATM   13 CL12 UNL     1     -33.465  13.567  -3.912  1.00 20.00    -0.130 Cl
ENDBRANCH   4  12
TORSDOF 4
ENDMDL
MODEL 5
REMARK VINA RESULT:      -4.4      2.229      4.971
REMARK  4 active torsions:
REMARK  status: ('A' for Active; 'I' for Inactive)
REMARK    1  A    between atoms: C4_4  and  C7_7 
REMARK    2  A    between atoms: C8_8  and  C10_10 
REMARK    3  A    between atoms: C9_9  and  C10_10 
REMARK    4  A    between atoms: C9_9  and  N11_11 
ROOT
HETATM    1  C1  UNL     1     -33.778  16.443  -2.739  1.00 20.00     0.035 C 
HETATM    2  C2  UNL     1     -34.028  17.125  -4.069  1.00 20.00     0.235 C 
HETATM    3  C3  UNL     1     -35.916  15.674  -3.485  1.00 20.00     0.240 C 
HETATM    4  C4  UNL     1     -34.640  15.188  -2.803  1.00 20.00     0.027 C 
HETATM    5  N11 UNL     1     -35.492  16.856  -4.339  1.00 20.00    -0.070 N 
HETATM    6  H33 UNL     1     -36.014  17.676  -3.997  1.00 20.00     0.279 HD
ENDROOT
BRANCH   5   7
HETATM    7  C9  UNL     1     -35.818  16.712  -5.792  1.00 20.00     0.239 C 
BRANCH   7   8
HETATM    8  C10 UNL     1     -34.558  16.559  -6.654  1.00 20.00     0.007 C 
HETATM    9  C6  UNL     1     -34.524  17.593  -7.786  1.00 20.00     0.011 C 
BRANCH   8  10
HETATM   10  C8  UNL     1     -34.344  15.147  -7.234  1.00 20.00     0.001 C 
HETATM   11  C5  UNL     1     -35.628  14.483  -7.713  1.00 20.00     0.005 C 
ENDBRANCH   8  10
ENDBRANCH   7   8
ENDBRANCH   5   7
BRANCH   4  12
HETATM   12  C7  UNL     1     -33.968  14.058  -3.584  1.00 20.00     0.121 C 
HETATM   13 CL12 UNL     1     -35.188  13.065  -4.407  1.00 20.00    -0.130 Cl
ENDBRANCH   4  12
TORSDOF 4
ENDMDL
MODEL 6
REMARK VINA RESULT:      -4.4      1.585      2.002
REMARK  4 active torsions:
REMARK  status: ('A' for Active; 'I' for Inactive)
REMARK    1  A    between atoms: C4_4  and  C7_7 
REMARK    2  A    between atoms: C8_8  and  C10_10 
REMARK    3  A    between atoms: C9_9  and  C10_10 
REMARK    4  A    between atoms: C9_9  and  N11_11 
ROOT
HETATM    1  C1  UNL     1     -34.282  13.298  -4.675  1.00 20.00     0.035 C 
HETATM    2  C2  UNL     1     -34.253  14.213  -3.467  1.00 20.00     0.235 C 
HETATM    3  C3  UNL     1     -36.262  14.633  -4.809  1.00 20.00     0.240 C 
HETATM    4  C4  UNL     1     -35.155  14.043  -5.678  1.00 20.00     0.027 C 
HETATM    5  N11 UNL     1     -35.647  14.801  -3.430  1.00 20.00    -0.070 N 
HETATM    6  H33 UNL     1     -36.199  14.219  -2.783  1.00 20.00     0.279 HD
ENDROOT
BRANCH   5   7
HETATM    7  C9  UNL     1     -35.696  16.200  -2.903  1.00 20.00     0.239 C 
BRANCH   7   8
HETATM    8  C10 UNL     1     -34.419  16.572  -2.137  1.00 20.00     0.007 C 
HETATM    9  C6  UNL     1     -34.680  16.678  -0.629  1.00 20.00     0.011 C 
BRANCH   8  10
HETATM   10  C8  UNL     1     -33.722  17.853  -2.633  1.00 20.00     0.001 C 
HETATM   11  C5  UNL     1     -33.792  18.042  -4.142  1.00 20.00     0.005 C 
ENDBRANCH   8  10
ENDBRANCH   7   8
ENDBRANCH   5   7
BRANCH   4  12
HETATM   12  C7  UNL     1     -34.382  15.125  -6.433  1.00 20.00     0.121 C 
HETATM   13 CL12 UNL     1     -35.465  16.456  -6.886  1.00 20.00    -0.130 Cl
ENDBRANCH   4  12
TORSDOF 4
ENDMDL
MODEL 7
REMARK VINA RESULT:      -4.3      2.175      3.986
REMARK  4 active torsions:
REMARK  status: ('A' for Active; 'I' for Inactive)
REMARK    1  A    between atoms: C4_4  and  C7_7 
REMARK    2  A    between atoms: C8_8  and  C10_10 
REMARK    3  A    between atoms: C9_9  and  C10_10 
REMARK    4  A    between atoms: C9_9  and  N11_11 
ROOT
HETATM    1  C1  UNL     1     -34.086  18.092  -6.584  1.00 20.00     0.035 C 
HETATM    2  C2  UNL     1     -33.572  17.701  -5.213  1.00 20.00     0.235 C 
HETATM    3  C3  UNL     1     -33.899  15.708  -6.604  1.00 20.00     0.240 C 
HETATM    4  C4  UNL     1     -34.804  16.842  -7.076  1.00 20.00     0.027 C 
HETATM    5  N11 UNL     1     -33.181  16.249  -5.379  1.00 20.00    -0.070 N 
HETATM    6  H33 UNL     1     -32.172  16.234  -5.591  1.00 20.00     0.279 HD
ENDROOT
BRANCH   5   7
HETATM    7  C9  UNL     1     -33.375  15.429  -4.143  1.00 20.00     0.239 C 
BRANCH   7   8
HETATM    8  C10 UNL     1     -34.709  15.739  -3.449  1.00 20.00     0.007 C 
HETATM    9  C6  UNL     1     -34.502  16.105  -1.974  1.00 20.00     0.011 C 
BRANCH   8  10
HETATM   10  C8  UNL     1     -35.766  14.623  -3.562  1.00 20.00     0.001 C 
HETATM   11  C5  UNL     1     -35.245  13.352  -4.218  1.00 20.00     0.005 C 
ENDBRANCH   8  10
ENDBRANCH   7   8
ENDBRANCH   5   7
BRANCH   4  12
HETATM   12  C7  UNL     1     -36.218  16.719  -6.507  1.00 20.00     0.121 C 
HETATM   13 CL12 UNL     1     -36.944  15.170  -6.983  1.00 20.00    -0.130 Cl
ENDBRANCH   4  12
TORSDOF 4
ENDMDL
MODEL 8
REMARK VINA RESULT:      -4.2      1.874      3.259
REMARK  4 active torsions:
REMARK  status: ('A' for Active; 'I' for Inactive)
REMARK    1  A    between atoms: C4_4  and  C7_7 
REMARK    2  A    between atoms: C8_8  and  C10_10 
REMARK    3  A    between atoms: C9_9  and  C10_10 
REMARK    4  A    between atoms: C9_9  and  N11_11 
ROOT
HETATM    1  C1  UNL     1     -37.679  15.148  -5.151  1.00 20.00     0.035 C 
HETATM    2  C2  UNL     1     -36.908  15.614  -3.932  1.00 20.00     0.235 C 
HETATM    3  C3  UNL     1     -36.306  16.961  -5.891  1.00 20.00     0.240 C 
HETATM    4  C4  UNL     1     -36.811  15.588  -6.324  1.00 20.00     0.027 C 
HETATM    5  N11 UNL     1     -36.305  16.930  -4.372  1.00 20.00    -0.070 N 
HETATM    6  H33 UNL     1     -36.948  17.672  -4.056  1.00 20.00     0.279 HD
ENDROOT
BRANCH   5   7
HETATM    7  C9  UNL     1     -34.975  17.220  -3.752  1.00 20.00     0.239 C 
BRANCH   7   8
HETATM    8  C10 UNL     1     -34.484  16.060  -2.874  1.00 20.00     0.007 C 
HETATM    9  C6  UNL     1     -34.211  16.523  -1.438  1.00 20.00     0.011 C 
BRANCH   8  10
HETATM   10  C8  UNL     1     -33.251  15.317  -3.423  1.00 20.00     0.001 C 
HETATM   11  C5  UNL     1     -33.509  13.847  -3.726  1.00 20.00     0.005 C 
ENDBRANCH   8  10
ENDBRANCH   7   8
ENDBRANCH   5   7
BRANCH   4  12
HETATM   12  C7  UNL     1     -35.663  14.616  -6.597  1.00 20.00     0.121 C 
HETATM   13 CL12 UNL     1     -34.171  15.508  -6.959  1.00 20.00    -0.130 Cl
ENDBRANCH   4  12
TORSDOF 4
ENDMDL
MODEL 9
REMARK VINA RESULT:      -4.2      2.357      4.839
REMARK  4 active torsions:
REMARK  status: ('A' for Active; 'I' for Inactive)
REMARK    1  A    between atoms: C4_4  and  C7_7 
REMARK    2  A    between atoms: C8_8  and  C10_10 
REMARK    3  A    between atoms: C9_9  and  C10_10 
REMARK    4  A    between atoms: C9_9  and  N11_11 
ROOT
HETATM    1  C1  UNL     1     -33.790  16.296  -2.584  1.00 20.00     0.035 C 
HETATM    2  C2  UNL     1     -35.171  15.700  -2.764  1.00 20.00     0.235 C 
HETATM    3  C3  UNL     1     -33.493  14.330  -3.914  1.00 20.00     0.240 C 
HETATM    4  C4  UNL     1     -33.005  15.770  -3.780  1.00 20.00     0.027 C 
HETATM    5  N11 UNL     1     -34.896  14.324  -3.332  1.00 20.00    -0.070 N 
HETATM    6  H33 UNL     1     -34.888  13.670  -2.535  1.00 20.00     0.279 HD
ENDROOT
BRANCH   5   7
HETATM    7  C9  UNL     1     -35.951  13.841  -4.276  1.00 20.00     0.239 C 
BRANCH   7   8
HETATM    8  C10 UNL     1     -36.815  14.991  -4.812  1.00 20.00     0.007 C 
HETATM    9  C6  UNL     1     -38.292  14.801  -4.443  1.00 20.00     0.011 C 
BRANCH   8  10
HETATM   10  C8  UNL     1     -36.687  15.239  -6.327  1.00 20.00     0.001 C 
HETATM   11  C5  UNL     1     -35.566  14.444  -6.983  1.00 20.00     0.005 C 
ENDBRANCH   8  10
ENDBRANCH   7   8
ENDBRANCH   5   7
BRANCH   4  12
HETATM   12  C7  UNL     1     -33.262  16.582  -5.049  1.00 20.00     0.121 C 
HETATM   13 CL12 UNL     1     -33.476  18.299  -4.651  1.00 20.00    -0.130 Cl
ENDBRANCH   4  12
TORSDOF 4
ENDMDL
