MODEL 1
REMARK VINA RESULT:      -4.2      0.000      0.000
REMARK  3 active torsions:
REMARK  status: ('A' for Active; 'I' for Inactive)
REMARK    1  A    between atoms: C1_1  and  C7_7 
REMARK       I    between atoms: C1_1  and  N8_8 
REMARK    2  A    between atoms: C5_5  and  C6_6 
REMARK    3  A    between atoms: C5_5  and  N8_8 
ROOT
HETATM    1  C1  UNL     1     -33.559   6.210   4.834  1.00 20.00     0.222 C 
HETATM    2  C4  UNL     1     -32.202   5.475   2.912  1.00 20.00     0.152 C 
HETATM    3  N8  UNL     1     -32.669   6.531   3.805  1.00 20.00    -0.355 N 
HETATM    4  O9  UNL     1     -33.594   6.827   5.905  1.00 20.00    -0.273 OA
ENDROOT
BRANCH   1   5
HETATM    5  C7  UNL     1     -34.543   5.059   4.593  1.00 20.00     0.070 C 
HETATM    6  C2  UNL     1     -35.750   5.561   3.801  1.00 20.00     0.019 C 
HETATM    7  C3  UNL     1     -35.012   4.456   5.920  1.00 20.00     0.019 C 
ENDBRANCH   1   5
BRANCH   3   8
HETATM    8  C5  UNL     1     -32.161   7.864   3.490  1.00 20.00     0.140 C 
BRANCH   8   9
HETATM    9  C6  UNL     1     -32.056   8.110   1.993  1.00 20.00     0.134 C 
HETATM   10 CL10 UNL     1     -32.475   9.792   1.583  1.00 20.00    -0.129 Cl
ENDBRANCH   8   9
ENDBRANCH   3   8
TORSDOF 3
ENDMDL
MODEL 2
REMARK VINA RESULT:      -3.9     11.100     11.962
REMARK  3 active torsions:
REMARK  status: ('A' for Active; 'I' for Inactive)
REMARK    1  A    between atoms: C1_1  and  C7_7 
REMARK       I    between atoms: C1_1  and  N8_8 
REMARK    2  A    between atoms: C5_5  and  C6_6 
REMARK    3  A    between atoms: C5_5  and  N8_8 
ROOT
HETATM    1  C1  UNL     1     -34.805  15.894  -2.712  1.00 20.00     0.222 C 
HETATM    2  C4  UNL     1     -32.728  14.997  -3.690  1.00 20.00     0.152 C 
HETATM    3  N8  UNL     1     -34.144  14.851  -3.368  1.00 20.00    -0.355 N 
HETATM    4  O9  UNL     1     -36.011  16.122  -2.866  1.00 20.00    -0.273 OA
ENDROOT
BRANCH   1   5
HETATM    5  C7  UNL     1     -33.990  16.760  -1.746  1.00 20.00     0.070 C 
HETATM    6  C2  UNL     1     -34.703  16.852  -0.397  1.00 20.00     0.019 C 
HETATM    7  C3  UNL     1     -33.783  18.166  -2.317  1.00 20.00     0.019 C 
ENDBRANCH   1   5
BRANCH   3   8
HETATM    8  C5  UNL     1     -34.727  13.566  -3.751  1.00 20.00     0.140 C 
BRANCH   8   9
HETATM    9  C6  UNL     1     -34.728  13.352  -5.256  1.00 20.00     0.134 C 
HETATM   10 CL10 UNL     1     -35.602  14.657  -6.095  1.00 20.00    -0.129 Cl
ENDBRANCH   8   9
ENDBRANCH   3   8
TORSDOF 3
ENDMDL
MODEL 3
REMARK VINA RESULT:      -3.8     11.699     12.562
REMARK  3 active torsions:
REMARK  status: ('A' for Active; 'I' for Inactive)
REMARK    1  A    between atoms: C1_1  and  C7_7 
REMARK       I    between atoms: C1_1  and  N8_8 
REMARK    2  A    between atoms: C5_5  and  C6_6 
REMARK    3  A    between atoms: C5_5  and  N8_8 
ROOT
HETATM    1  C1  UNL     1     -33.938  15.888  -4.474  1.00 20.00     0.222 C 
HETATM    2  C4  UNL     1     -35.962  16.328  -3.137  1.00 20.00     0.152 C 
HETATM    3  N8  UNL     1     -34.508  16.297  -3.264  1.00 20.00    -0.355 N 
HETATM    4  O9  UNL     1     -32.847  16.308  -4.874  1.00 20.00    -0.273 OA
ENDROOT
BRANCH   1   5
HETATM    5  C7  UNL     1     -34.700  14.853  -5.308  1.00 20.00     0.070 C 
HETATM    6  C2  UNL     1     -34.354  13.441  -4.835  1.00 20.00     0.019 C 
HETATM    7  C3  UNL     1     -34.362  14.995  -6.795  1.00 20.00     0.019 C 
ENDBRANCH   1   5
BRANCH   3   8
HETATM    8  C5  UNL     1     -33.782  16.678  -2.054  1.00 20.00     0.140 C 
BRANCH   8   9
HETATM    9  C6  UNL     1     -34.657  16.639  -0.812  1.00 20.00     0.134 C 
HETATM   10 CL10 UNL     1     -34.152  17.868   0.374  1.00 20.00    -0.129 Cl
ENDBRANCH   8   9
ENDBRANCH   3   8
TORSDOF 3
ENDMDL
MODEL 4
REMARK VINA RESULT:      -3.7     11.691     12.347
REMARK  3 active torsions:
REMARK  status: ('A' for Active; 'I' for Inactive)
REMARK    1  A    between atoms: C1_1  and  C7_7 
REMARK       I    between atoms: C1_1  and  N8_8 
REMARK    2  A    between atoms: C5_5  and  C6_6 
REMARK    3  A    between atoms: C5_5  and  N8_8 
ROOT
HETATM    1  C1  UNL     1     -34.178  15.208  -3.497  1.00 20.00     0.222 C 
HETATM    2  C4  UNL     1     -36.514  14.512  -3.860  1.00 20.00     0.152 C 
HETATM    3  N8  UNL     1     -35.107  14.478  -4.244  1.00 20.00    -0.355 N 
HETATM    4  O9  UNL     1     -32.999  14.860  -3.371  1.00 20.00    -0.273 OA
ENDROOT
BRANCH   1   5
HETATM    5  C7  UNL     1     -34.655  16.507  -2.838  1.00 20.00     0.070 C 
HETATM    6  C2  UNL     1     -33.824  17.686  -3.344  1.00 20.00     0.019 C 
HETATM    7  C3  UNL     1     -34.548  16.417  -1.314  1.00 20.00     0.019 C 
ENDBRANCH   1   5
BRANCH   3   8
HETATM    8  C5  UNL     1     -34.819  13.679  -5.434  1.00 20.00     0.140 C 
BRANCH   8   9
HETATM    9  C6  UNL     1     -35.227  14.380  -6.720  1.00 20.00     0.134 C 
HETATM   10 CL10 UNL     1     -34.219  15.818  -7.019  1.00 20.00    -0.129 Cl
ENDBRANCH   8   9
ENDBRANCH   3   8
TORSDOF 3
ENDMDL
MODEL 5
REMARK VINA RESULT:      -3.6     11.608     12.916
REMARK  3 active torsions:
REMARK  status: ('A' for Active; 'I' for Inactive)
REMARK    1  A    between atoms: C1_1  and  C7_7 
REMARK       I    between atoms: C1_1  and  N8_8 
REMARK    2  A    between atoms: C5_5  and  C6_6 
REMARK    3  A    between atoms: C5_5  and  N8_8 
ROOT
HETATM    1  C1  UNL     1     -34.773  14.695  -5.444  1.00 20.00     0.222 C 
HETATM    2  C4  UNL     1     -33.378  16.708  -5.167  1.00 20.00     0.152 C 
HETATM    3  N8  UNL     1     -34.011  15.517  -4.609  1.00 20.00    -0.355 N 
HETATM    4  O9  UNL     1     -34.887  13.477  -5.261  1.00 20.00    -0.273 OA
ENDROOT
BRANCH   1   5
HETATM    5  C7  UNL     1     -35.513  15.354  -6.613  1.00 20.00     0.070 C 
HETATM    6  C2  UNL     1     -37.014  15.395  -6.326  1.00 20.00     0.019 C 
HETATM    7  C3  UNL     1     -35.259  14.594  -7.917  1.00 20.00     0.019 C 
ENDBRANCH   1   5
BRANCH   3   8
HETATM    8  C5  UNL     1     -33.797  15.329  -3.175  1.00 20.00     0.140 C 
BRANCH   8   9
HETATM    9  C6  UNL     1     -34.994  15.761  -2.345  1.00 20.00     0.134 C 
HETATM   10 CL10 UNL     1     -34.482  16.571  -0.844  1.00 20.00    -0.129 Cl
ENDBRANCH   8   9
ENDBRANCH   3   8
TORSDOF 3
ENDMDL
MODEL 6
REMARK VINA RESULT:      -3.6     11.668     12.928
REMARK  3 active torsions:
REMARK  status: ('A' for Active; 'I' for Inactive)
REMARK    1  A    between atoms: C1_1  and  C7_7 
REMARK       I    between atoms: C1_1  and  N8_8 
REMARK    2  A    between atoms: C5_5  and  C6_6 
REMARK    3  A    between atoms: C5_5  and  N8_8 
ROOT
HETATM    1  C1  UNL     1     -34.971  15.337  -4.998  1.00 20.00     0.222 C 
HETATM    2  C4  UNL     1     -32.891  15.004  -3.718  1.00 20.00     0.152 C 
HETATM    3  N8  UNL     1     -34.309  15.343  -3.766  1.00 20.00    -0.355 N 
HETATM    4  O9  UNL     1     -36.174  15.076  -5.110  1.00 20.00    -0.273 OA
ENDROOT
BRANCH   1   5
HETATM    5  C7  UNL     1     -34.158  15.700  -6.246  1.00 20.00     0.070 C 
HETATM    6  C2  UNL     1     -34.269  17.199  -6.524  1.00 20.00     0.019 C 
HETATM    7  C3  UNL     1     -34.649  14.912  -7.464  1.00 20.00     0.019 C 
ENDBRANCH   1   5
BRANCH   3   8
HETATM    8  C5  UNL     1     -34.895  15.699  -2.475  1.00 20.00     0.140 C 
BRANCH   8   9
HETATM    9  C6  UNL     1     -34.077  16.740  -1.730  1.00 20.00     0.134 C 
HETATM   10 CL10 UNL     1     -34.710  17.006  -0.086  1.00 20.00    -0.129 Cl
ENDBRANCH   8   9
ENDBRANCH   3   8
TORSDOF 3
ENDMDL
MODEL 7
REMARK VINA RESULT:      -3.6     11.463     12.564
REMARK  3 active torsions:
REMARK  status: ('A' for Active; 'I' for Inactive)
REMARK    1  A    between atoms: C1_1  and  C7_7 
REMARK       I    between atoms: C1_1  and  N8_8 
REMARK    2  A    between atoms: C5_5  and  C6_6 
REMARK    3  A    between atoms: C5_5  and  N8_8 
ROOT
HETATM    1  C1  UNL     1     -35.234  16.427  -3.522  1.00 20.00     0.222 C 
HETATM    2  C4  UNL     1     -33.374  16.703  -5.116  1.00 20.00     0.152 C 
HETATM    3  N8  UNL     1     -34.533  15.957  -4.636  1.00 20.00    -0.355 N 
HETATM    4  O9  UNL     1     -36.445  16.233  -3.363  1.00 20.00    -0.273 OA
ENDROOT
BRANCH   1   5
HETATM    5  C7  UNL     1     -34.445  17.189  -2.451  1.00 20.00     0.070 C 
HETATM    6  C2  UNL     1     -34.578  16.482  -1.102  1.00 20.00     0.019 C 
HETATM    7  C3  UNL     1     -34.944  18.631  -2.329  1.00 20.00     0.019 C 
ENDBRANCH   1   5
BRANCH   3   8
HETATM    8  C5  UNL     1     -34.821  14.734  -5.383  1.00 20.00     0.140 C 
BRANCH   8   9
HETATM    9  C6  UNL     1     -34.615  13.479  -4.550  1.00 20.00     0.134 C 
HETATM   10 CL10 UNL     1     -33.077  13.543  -3.654  1.00 20.00    -0.129 Cl
ENDBRANCH   8   9
ENDBRANCH   3   8
TORSDOF 3
ENDMDL
MODEL 8
REMARK VINA RESULT:      -3.5     11.937     13.048
REMARK  3 active torsions:
REMARK  status: ('A' for Active; 'I' for Inactive)
REMARK    1  A    between atoms: C1_1  and  C7_7 
REMARK       I    between atoms: C1_1  and  N8_8 
REMARK    2  A    between atoms: C5_5  and  C6_6 
REMARK    3  A    between atoms: C5_5  and  N8_8 
ROOT
HETATM    1  C1  UNL     1     -35.657  15.908  -3.752  1.00 20.00     0.222 C 
HETATM    2  C4  UNL     1     -35.522  17.914  -5.178  1.00 20.00     0.152 C 
HETATM    3  N8  UNL     1     -35.954  16.537  -4.965  1.00 20.00    -0.355 N 
HETATM    4  O9  UNL     1     -36.376  15.032  -3.259  1.00 20.00    -0.273 OA
ENDROOT
BRANCH   1   5
HETATM    5  C7  UNL     1     -34.367  16.318  -3.033  1.00 20.00     0.070 C 
HETATM    6  C2  UNL     1     -33.230  15.373  -3.420  1.00 20.00     0.019 C 
HETATM    7  C3  UNL     1     -34.559  16.298  -1.514  1.00 20.00     0.019 C 
ENDBRANCH   1   5
BRANCH   3   8
HETATM    8  C5  UNL     1     -36.647  15.933  -6.101  1.00 20.00     0.140 C 
BRANCH   8   9
HETATM    9  C6  UNL     1     -35.907  14.731  -6.664  1.00 20.00     0.134 C 
HETATM   10 CL10 UNL     1     -34.216  15.135  -7.050  1.00 20.00    -0.129 Cl
ENDBRANCH   8   9
ENDBRANCH   3   8
TORSDOF 3
ENDMDL
MODEL 9
REMARK VINA RESULT:      -3.5     10.392     11.131
REMARK  3 active torsions:
REMARK  status: ('A' for Active; 'I' for Inactive)
REMARK    1  A    between atoms: C1_1  and  C7_7 
REMARK       I    between atoms: C1_1  and  N8_8 
REMARK    2  A    between atoms: C5_5  and  C6_6 
REMARK    3  A    between atoms: C5_5  and  N8_8 
ROOT
HETATM    1  C1  UNL     1     -41.653   4.488  -2.012  1.00 20.00     0.222 C 
HETATM    2  C4  UNL     1     -42.904   6.234  -3.221  1.00 20.00     0.152 C 
HETATM    3  N8  UNL     1     -42.179   5.784  -2.037  1.00 20.00    -0.355 N 
HETATM    4  O9  UNL     1     -40.634   4.193  -1.377  1.00 20.00    -0.273 OA
ENDROOT
BRANCH   1   5
HETATM    5  C7  UNL     1     -42.401   3.398  -2.787  1.00 20.00     0.070 C 
HETATM    6  C2  UNL     1     -43.415   2.710  -1.874  1.00 20.00     0.019 C 
HETATM    7  C3  UNL     1     -41.425   2.361  -3.348  1.00 20.00     0.019 C 
ENDBRANCH   1   5
BRANCH   3   8
HETATM    8  C5  UNL     1     -42.110   6.763  -0.955  1.00 20.00     0.140 C 
BRANCH   8   9
HETATM    9  C6  UNL     1     -43.321   6.705  -0.038  1.00 20.00     0.134 C 
HETATM   10 CL10 UNL     1     -43.167   5.392   1.154  1.00 20.00    -0.129 Cl
ENDBRANCH   8   9
ENDBRANCH   3   8
TORSDOF 3
ENDMDL
