MODEL 1
REMARK VINA RESULT:      -4.8      0.000      0.000
REMARK  5 active torsions:
REMARK  status: ('A' for Active; 'I' for Inactive)
REMARK    1  A    between atoms: C2_2  and  C8_8 
REMARK    2  A    between atoms: C5_5  and  C9_9 
REMARK    3  A    between atoms: C7_7  and  C8_8 
REMARK    4  A    between atoms: C7_7  and  C9_9 
REMARK    5  A    between atoms: C9_9  and  O10_10 
ROOT
HETATM    1  C9  UNL     1     -33.313   5.769   3.563  1.00 20.00     0.122 C 
ENDROOT
BRANCH   1   2
HETATM    2  C5  UNL     1     -32.098   6.468   2.972  1.00 20.00     0.014 A 
HETATM    3  C3  UNL     1     -32.229   7.844   2.381  1.00 20.00     0.007 A 
HETATM    4  C4  UNL     1     -31.488   7.649   3.675  1.00 20.00     0.007 A 
ENDBRANCH   1   2
BRANCH   1   5
HETATM    5  C7  UNL     1     -34.226   6.707   4.365  1.00 20.00     0.040 C 
BRANCH   5   6
HETATM    6  C8  UNL     1     -34.426   6.333   5.846  1.00 20.00     0.005 C 
HETATM    7  C6  UNL     1     -33.427   7.104   6.715  1.00 20.00     0.014 C 
BRANCH   6   8
HETATM    8  C2  UNL     1     -34.250   4.853   6.078  1.00 20.00    -0.033 C 
HETATM    9  C1  UNL     1     -35.155   3.929   5.733  1.00 20.00     0.007 C 
ENDBRANCH   6   8
ENDBRANCH   5   6
ENDBRANCH   1   5
BRANCH   1  10
HETATM   10  O10 UNL     1     -34.065   5.228   2.473  1.00 20.00    -0.395 OA
HETATM   11  H26 UNL     1     -34.721   4.632   2.865  1.00 20.00     0.210 HD
ENDBRANCH   1  10
TORSDOF 5
ENDMDL
MODEL 2
REMARK VINA RESULT:      -4.8      0.962      4.252
REMARK  5 active torsions:
REMARK  status: ('A' for Active; 'I' for Inactive)
REMARK    1  A    between atoms: C2_2  and  C8_8 
REMARK    2  A    between atoms: C5_5  and  C9_9 
REMARK    3  A    between atoms: C7_7  and  C8_8 
REMARK    4  A    between atoms: C7_7  and  C9_9 
REMARK    5  A    between atoms: C9_9  and  O10_10 
ROOT
HETATM    1  C9  UNL     1     -33.869   6.108   3.883  1.00 20.00     0.122 C 
ENDROOT
BRANCH   1   2
HETATM    2  C5  UNL     1     -33.791   5.418   5.237  1.00 20.00     0.014 A 
HETATM    3  C3  UNL     1     -34.309   6.107   6.469  1.00 20.00     0.007 A 
HETATM    4  C4  UNL     1     -35.042   4.921   5.906  1.00 20.00     0.007 A 
ENDBRANCH   1   2
BRANCH   1   5
HETATM    5  C7  UNL     1     -32.591   5.952   3.045  1.00 20.00     0.040 C 
BRANCH   5   6
HETATM    6  C8  UNL     1     -31.760   7.235   2.857  1.00 20.00     0.005 C 
HETATM    7  C6  UNL     1     -31.372   7.808   4.224  1.00 20.00     0.014 C 
BRANCH   6   8
HETATM    8  C2  UNL     1     -32.515   8.281   2.075  1.00 20.00    -0.033 C 
HETATM    9  C1  UNL     1     -32.010   8.940   1.025  1.00 20.00     0.007 C 
ENDBRANCH   6   8
ENDBRANCH   5   6
ENDBRANCH   1   5
BRANCH   1  10
HETATM   10  O10 UNL     1     -34.955   5.516   3.166  1.00 20.00    -0.395 OA
HETATM   11  H26 UNL     1     -34.931   5.896   2.275  1.00 20.00     0.210 HD
ENDBRANCH   1  10
TORSDOF 5
ENDMDL
MODEL 3
REMARK VINA RESULT:      -4.7      1.709      4.473
REMARK  5 active torsions:
REMARK  status: ('A' for Active; 'I' for Inactive)
REMARK    1  A    between atoms: C2_2  and  C8_8 
REMARK    2  A    between atoms: C5_5  and  C9_9 
REMARK    3  A    between atoms: C7_7  and  C8_8 
REMARK    4  A    between atoms: C7_7  and  C9_9 
REMARK    5  A    between atoms: C9_9  and  O10_10 
ROOT
HETATM    1  C9  UNL     1     -33.595   6.257   5.368  1.00 20.00     0.122 C 
ENDROOT
BRANCH   1   2
HETATM    2  C5  UNL     1     -34.786   5.373   5.709  1.00 20.00     0.014 A 
HETATM    3  C3  UNL     1     -35.374   4.460   4.669  1.00 20.00     0.007 A 
HETATM    4  C4  UNL     1     -34.612   3.884   5.830  1.00 20.00     0.007 A 
ENDBRANCH   1   2
BRANCH   1   5
HETATM    5  C7  UNL     1     -33.822   7.133   4.127  1.00 20.00     0.040 C 
BRANCH   5   6
HETATM    6  C8  UNL     1     -32.927   6.813   2.915  1.00 20.00     0.005 C 
HETATM    7  C6  UNL     1     -32.086   5.566   3.206  1.00 20.00     0.014 C 
BRANCH   6   8
HETATM    8  C2  UNL     1     -32.013   7.964   2.576  1.00 20.00    -0.033 C 
HETATM    9  C1  UNL     1     -32.064   8.647   1.426  1.00 20.00     0.007 C 
ENDBRANCH   6   8
ENDBRANCH   5   6
ENDBRANCH   1   5
BRANCH   1  10
HETATM   10  O10 UNL     1     -33.365   7.113   6.490  1.00 20.00    -0.395 OA
HETATM   11  H26 UNL     1     -32.403   7.192   6.579  1.00 20.00     0.210 HD
ENDBRANCH   1  10
TORSDOF 5
ENDMDL
MODEL 4
REMARK VINA RESULT:      -4.6      1.638      2.071
REMARK  5 active torsions:
REMARK  status: ('A' for Active; 'I' for Inactive)
REMARK    1  A    between atoms: C2_2  and  C8_8 
REMARK    2  A    between atoms: C5_5  and  C9_9 
REMARK    3  A    between atoms: C7_7  and  C8_8 
REMARK    4  A    between atoms: C7_7  and  C9_9 
REMARK    5  A    between atoms: C9_9  and  O10_10 
ROOT
HETATM    1  C9  UNL     1     -32.502   7.625   3.322  1.00 20.00     0.122 C 
ENDROOT
BRANCH   1   2
HETATM    2  C5  UNL     1     -32.674   8.120   1.893  1.00 20.00     0.014 A 
HETATM    3  C3  UNL     1     -32.577   9.588   1.583  1.00 20.00     0.007 A 
HETATM    4  C4  UNL     1     -31.493   8.651   1.128  1.00 20.00     0.007 A 
ENDBRANCH   1   2
BRANCH   1   5
HETATM    5  C7  UNL     1     -33.127   6.244   3.567  1.00 20.00     0.040 C 
BRANCH   5   6
HETATM    6  C8  UNL     1     -34.311   6.216   4.551  1.00 20.00     0.005 C 
HETATM    7  C6  UNL     1     -33.814   6.508   5.970  1.00 20.00     0.014 C 
BRANCH   6   8
HETATM    8  C2  UNL     1     -35.021   4.886   4.535  1.00 20.00    -0.033 C 
HETATM    9  C1  UNL     1     -35.009   4.018   5.555  1.00 20.00     0.007 C 
ENDBRANCH   6   8
ENDBRANCH   5   6
ENDBRANCH   1   5
BRANCH   1  10
HETATM   10  O10 UNL     1     -31.098   7.538   3.576  1.00 20.00    -0.395 OA
HETATM   11  H26 UNL     1     -30.825   8.411   3.895  1.00 20.00     0.210 HD
ENDBRANCH   1  10
TORSDOF 5
ENDMDL
MODEL 5
REMARK VINA RESULT:      -4.5     11.725     12.590
REMARK  5 active torsions:
REMARK  status: ('A' for Active; 'I' for Inactive)
REMARK    1  A    between atoms: C2_2  and  C8_8 
REMARK    2  A    between atoms: C5_5  and  C9_9 
REMARK    3  A    between atoms: C7_7  and  C8_8 
REMARK    4  A    between atoms: C7_7  and  C9_9 
REMARK    5  A    between atoms: C9_9  and  O10_10 
ROOT
HETATM    1  C9  UNL     1     -34.857  13.802  -4.552  1.00 20.00     0.122 C 
ENDROOT
BRANCH   1   2
HETATM    2  C5  UNL     1     -35.195  14.010  -6.021  1.00 20.00     0.014 A 
HETATM    3  C3  UNL     1     -35.882  15.269  -6.470  1.00 20.00     0.007 A 
HETATM    4  C4  UNL     1     -34.444  15.027  -6.834  1.00 20.00     0.007 A 
ENDBRANCH   1   2
BRANCH   1   5
HETATM    5  C7  UNL     1     -35.479  14.860  -3.628  1.00 20.00     0.040 C 
BRANCH   5   6
HETATM    6  C8  UNL     1     -34.510  15.936  -3.104  1.00 20.00     0.005 C 
HETATM    7  C6  UNL     1     -33.064  15.510  -3.377  1.00 20.00     0.014 C 
BRANCH   6   8
HETATM    8  C2  UNL     1     -34.689  16.178  -1.626  1.00 20.00    -0.033 C 
HETATM    9  C1  UNL     1     -34.083  17.161  -0.950  1.00 20.00     0.007 C 
ENDBRANCH   6   8
ENDBRANCH   5   6
ENDBRANCH   1   5
BRANCH   1  10
HETATM   10  O10 UNL     1     -35.363  12.519  -4.175  1.00 20.00    -0.395 OA
HETATM   11  H26 UNL     1     -36.290  12.500  -4.456  1.00 20.00     0.210 HD
ENDBRANCH   1  10
TORSDOF 5
ENDMDL
MODEL 6
REMARK VINA RESULT:      -4.4      0.674      1.994
REMARK  5 active torsions:
REMARK  status: ('A' for Active; 'I' for Inactive)
REMARK    1  A    between atoms: C2_2  and  C8_8 
REMARK    2  A    between atoms: C5_5  and  C9_9 
REMARK    3  A    between atoms: C7_7  and  C8_8 
REMARK    4  A    between atoms: C7_7  and  C9_9 
REMARK    5  A    between atoms: C9_9  and  O10_10 
ROOT
HETATM    1  C9  UNL     1     -33.375   5.806   3.241  1.00 20.00     0.122 C 
ENDROOT
BRANCH   1   2
HETATM    2  C5  UNL     1     -32.943   7.261   3.127  1.00 20.00     0.014 A 
HETATM    3  C3  UNL     1     -31.546   7.669   3.502  1.00 20.00     0.007 A 
HETATM    4  C4  UNL     1     -31.971   7.681   2.060  1.00 20.00     0.007 A 
ENDBRANCH   1   2
BRANCH   1   5
HETATM    5  C7  UNL     1     -34.586   5.600   4.163  1.00 20.00     0.040 C 
BRANCH   5   6
HETATM    6  C8  UNL     1     -34.265   5.054   5.567  1.00 20.00     0.005 C 
HETATM    7  C6  UNL     1     -35.226   3.912   5.912  1.00 20.00     0.014 C 
BRANCH   6   8
HETATM    8  C2  UNL     1     -34.368   6.128   6.621  1.00 20.00    -0.033 C 
HETATM    9  C1  UNL     1     -33.558   7.191   6.689  1.00 20.00     0.007 C 
ENDBRANCH   6   8
ENDBRANCH   5   6
ENDBRANCH   1   5
BRANCH   1  10
HETATM   10  O10 UNL     1     -33.725   5.361   1.928  1.00 20.00    -0.395 OA
HETATM   11  H26 UNL     1     -33.943   4.421   2.008  1.00 20.00     0.210 HD
ENDBRANCH   1  10
TORSDOF 5
ENDMDL
MODEL 7
REMARK VINA RESULT:      -4.2     11.395     13.353
REMARK  5 active torsions:
REMARK  status: ('A' for Active; 'I' for Inactive)
REMARK    1  A    between atoms: C2_2  and  C8_8 
REMARK    2  A    between atoms: C5_5  and  C9_9 
REMARK    3  A    between atoms: C7_7  and  C8_8 
REMARK    4  A    between atoms: C7_7  and  C9_9 
REMARK    5  A    between atoms: C9_9  and  O10_10 
ROOT
HETATM    1  C9  UNL     1     -35.174  13.902  -4.352  1.00 20.00     0.122 C 
ENDROOT
BRANCH   1   2
HETATM    2  C5  UNL     1     -34.161  14.374  -3.318  1.00 20.00     0.014 A 
HETATM    3  C3  UNL     1     -33.146  15.423  -3.676  1.00 20.00     0.007 A 
HETATM    4  C4  UNL     1     -34.267  15.754  -2.731  1.00 20.00     0.007 A 
ENDBRANCH   1   2
BRANCH   1   5
HETATM    5  C7  UNL     1     -34.698  14.089  -5.800  1.00 20.00     0.040 C 
BRANCH   5   6
HETATM    6  C8  UNL     1     -35.455  15.155  -6.615  1.00 20.00     0.005 C 
HETATM    7  C6  UNL     1     -34.474  16.219  -7.116  1.00 20.00     0.014 C 
BRANCH   6   8
HETATM    8  C2  UNL     1     -36.536  15.819  -5.799  1.00 20.00    -0.033 C 
HETATM    9  C1  UNL     1     -36.563  17.126  -5.514  1.00 20.00     0.007 C 
ENDBRANCH   6   8
ENDBRANCH   5   6
ENDBRANCH   1   5
BRANCH   1  10
HETATM   10  O10 UNL     1     -35.395  12.508  -4.125  1.00 20.00    -0.395 OA
HETATM   11  H26 UNL     1     -35.634  12.419  -3.190  1.00 20.00     0.210 HD
ENDBRANCH   1  10
TORSDOF 5
ENDMDL
MODEL 8
REMARK VINA RESULT:      -4.2     11.737     12.581
REMARK  5 active torsions:
REMARK  status: ('A' for Active; 'I' for Inactive)
REMARK    1  A    between atoms: C2_2  and  C8_8 
REMARK    2  A    between atoms: C5_5  and  C9_9 
REMARK    3  A    between atoms: C7_7  and  C8_8 
REMARK    4  A    between atoms: C7_7  and  C9_9 
REMARK    5  A    between atoms: C9_9  and  O10_10 
ROOT
HETATM    1  C9  UNL     1     -33.839  15.756  -4.344  1.00 20.00     0.122 C 
ENDROOT
BRANCH   1   2
HETATM    2  C5  UNL     1     -34.419  14.557  -5.081  1.00 20.00     0.014 A 
HETATM    3  C3  UNL     1     -34.831  13.327  -4.321  1.00 20.00     0.007 A 
HETATM    4  C4  UNL     1     -35.876  14.214  -4.940  1.00 20.00     0.007 A 
ENDBRANCH   1   2
BRANCH   1   5
HETATM    5  C7  UNL     1     -33.767  15.559  -2.822  1.00 20.00     0.040 C 
BRANCH   5   6
HETATM    6  C8  UNL     1     -34.846  16.294  -2.006  1.00 20.00     0.005 C 
HETATM    7  C6  UNL     1     -35.554  17.325  -2.890  1.00 20.00     0.014 C 
BRANCH   6   8
HETATM    8  C2  UNL     1     -34.259  16.988  -0.802  1.00 20.00    -0.033 C 
HETATM    9  C1  UNL     1     -34.957  17.296   0.298  1.00 20.00     0.007 C 
ENDBRANCH   6   8
ENDBRANCH   5   6
ENDBRANCH   1   5
BRANCH   1  10
HETATM   10  O10 UNL     1     -32.513  15.959  -4.838  1.00 20.00    -0.395 OA
HETATM   11  H26 UNL     1     -32.530  15.709  -5.774  1.00 20.00     0.210 HD
ENDBRANCH   1  10
TORSDOF 5
ENDMDL
MODEL 9
REMARK VINA RESULT:      -4.2     11.508     12.443
REMARK  5 active torsions:
REMARK  status: ('A' for Active; 'I' for Inactive)
REMARK    1  A    between atoms: C2_2  and  C8_8 
REMARK    2  A    between atoms: C5_5  and  C9_9 
REMARK    3  A    between atoms: C7_7  and  C8_8 
REMARK    4  A    between atoms: C7_7  and  C9_9 
REMARK    5  A    between atoms: C9_9  and  O10_10 
ROOT
HETATM    1  C9  UNL     1     -35.330  16.899  -2.086  1.00 20.00     0.122 C 
ENDROOT
BRANCH   1   2
HETATM    2  C5  UNL     1     -34.568  16.719  -0.781  1.00 20.00     0.014 A 
HETATM    3  C3  UNL     1     -33.739  17.844  -0.227  1.00 20.00     0.007 A 
HETATM    4  C4  UNL     1     -35.013  17.439   0.461  1.00 20.00     0.007 A 
ENDBRANCH   1   2
BRANCH   1   5
HETATM    5  C7  UNL     1     -35.281  15.663  -2.996  1.00 20.00     0.040 C 
BRANCH   5   6
HETATM    6  C8  UNL     1     -33.875  15.097  -3.270  1.00 20.00     0.005 C 
HETATM    7  C6  UNL     1     -33.165  15.954  -4.323  1.00 20.00     0.014 C 
BRANCH   6   8
HETATM    8  C2  UNL     1     -33.931  13.667  -3.746  1.00 20.00    -0.033 C 
HETATM    9  C1  UNL     1     -34.642  13.257  -4.804  1.00 20.00     0.007 C 
ENDBRANCH   6   8
ENDBRANCH   5   6
ENDBRANCH   1   5
BRANCH   1  10
HETATM   10  O10 UNL     1     -36.696  17.158  -1.749  1.00 20.00    -0.395 OA
HETATM   11  H26 UNL     1     -36.955  16.471  -1.118  1.00 20.00     0.210 HD
ENDBRANCH   1  10
TORSDOF 5
ENDMDL
