MODEL 1
REMARK VINA RESULT:      -3.9      0.000      0.000
REMARK  3 active torsions:
REMARK  status: ('A' for Active; 'I' for Inactive)
REMARK    1  A    between atoms: C1_1  and  C4_4 
REMARK       I    between atoms: C1_1  and  N7_7 
REMARK    2  A    between atoms: C5_5  and  C6_6 
REMARK    3  A    between atoms: C5_5  and  N7_7 
ROOT
HETATM    1  C1  UNL     1     -34.145   6.172   5.771  1.00 20.00     0.219 C 
HETATM    2  C3  UNL     1     -34.669   5.782   3.354  1.00 20.00     0.152 C 
HETATM    3  N7  UNL     1     -33.790   6.247   4.419  1.00 20.00    -0.355 N 
HETATM    4  O8  UNL     1     -33.749   6.972   6.623  1.00 20.00    -0.273 OA
ENDROOT
BRANCH   3   5
HETATM    5  C5  UNL     1     -32.512   6.798   3.975  1.00 20.00     0.140 C 
BRANCH   5   6
HETATM    6  C6  UNL     1     -32.363   6.779   2.462  1.00 20.00     0.134 C 
HETATM    7 CL9  UNL     1     -32.039   8.408   1.822  1.00 20.00    -0.129 Cl
ENDBRANCH   5   6
ENDBRANCH   3   5
BRANCH   1   8
HETATM    8  C4  UNL     1     -35.069   5.027   6.159  1.00 20.00     0.098 C 
HETATM    9  C2  UNL     1     -34.435   3.662   5.947  1.00 20.00     0.014 C 
ENDBRANCH   1   8
TORSDOF 3
ENDMDL
MODEL 2
REMARK VINA RESULT:      -3.9     11.910     13.006
REMARK  3 active torsions:
REMARK  status: ('A' for Active; 'I' for Inactive)
REMARK    1  A    between atoms: C1_1  and  C4_4 
REMARK       I    between atoms: C1_1  and  N7_7 
REMARK    2  A    between atoms: C5_5  and  C6_6 
REMARK    3  A    between atoms: C5_5  and  N7_7 
ROOT
HETATM    1  C1  UNL     1     -35.038  13.862  -5.118  1.00 20.00     0.219 C 
HETATM    2  C3  UNL     1     -36.113  15.950  -4.250  1.00 20.00     0.152 C 
HETATM    3  N7  UNL     1     -35.138  14.870  -4.154  1.00 20.00    -0.355 N 
HETATM    4  O8  UNL     1     -34.664  12.713  -4.864  1.00 20.00    -0.273 OA
ENDROOT
BRANCH   3   5
HETATM    5  C5  UNL     1     -34.273  14.917  -2.977  1.00 20.00     0.140 C 
BRANCH   5   6
HETATM    6  C6  UNL     1     -34.047  16.334  -2.475  1.00 20.00     0.134 C 
HETATM    7 CL9  UNL     1     -34.610  16.525  -0.797  1.00 20.00    -0.129 Cl
ENDBRANCH   5   6
ENDBRANCH   3   5
BRANCH   1   8
HETATM    8  C4  UNL     1     -35.421  14.251  -6.539  1.00 20.00     0.098 C 
HETATM    9  C2  UNL     1     -34.332  15.044  -7.244  1.00 20.00     0.014 C 
ENDBRANCH   1   8
TORSDOF 3
ENDMDL
MODEL 3
REMARK VINA RESULT:      -3.9      2.838      4.457
REMARK  3 active torsions:
REMARK  status: ('A' for Active; 'I' for Inactive)
REMARK    1  A    between atoms: C1_1  and  C4_4 
REMARK       I    between atoms: C1_1  and  N7_7 
REMARK    2  A    between atoms: C5_5  and  C6_6 
REMARK    3  A    between atoms: C5_5  and  N7_7 
ROOT
HETATM    1  C1  UNL     1     -32.111   7.304   3.224  1.00 20.00     0.219 C 
HETATM    2  C3  UNL     1     -33.666   5.486   2.486  1.00 20.00     0.152 C 
HETATM    3  N7  UNL     1     -33.135   6.391   3.498  1.00 20.00    -0.355 N 
HETATM    4  O8  UNL     1     -31.292   7.680   4.068  1.00 20.00    -0.273 OA
ENDROOT
BRANCH   3   5
HETATM    5  C5  UNL     1     -33.749   6.276   4.818  1.00 20.00     0.140 C 
BRANCH   5   6
HETATM    6  C6  UNL     1     -35.001   5.415   4.807  1.00 20.00     0.134 C 
HETATM    7 CL9  UNL     1     -34.831   4.008   5.884  1.00 20.00    -0.129 Cl
ENDBRANCH   5   6
ENDBRANCH   3   5
BRANCH   1   8
HETATM    8  C4  UNL     1     -32.045   7.831   1.798  1.00 20.00     0.098 C 
HETATM    9  C2  UNL     1     -32.382   9.311   1.703  1.00 20.00     0.014 C 
ENDBRANCH   1   8
TORSDOF 3
ENDMDL
MODEL 4
REMARK VINA RESULT:      -3.8     12.048     12.441
REMARK  3 active torsions:
REMARK  status: ('A' for Active; 'I' for Inactive)
REMARK    1  A    between atoms: C1_1  and  C4_4 
REMARK       I    between atoms: C1_1  and  N7_7 
REMARK    2  A    between atoms: C5_5  and  C6_6 
REMARK    3  A    between atoms: C5_5  and  N7_7 
ROOT
HETATM    1  C1  UNL     1     -34.265  15.542  -2.812  1.00 20.00     0.219 C 
HETATM    2  C3  UNL     1     -36.631  15.092  -3.495  1.00 20.00     0.152 C 
HETATM    3  N7  UNL     1     -35.209  14.773  -3.501  1.00 20.00    -0.355 N 
HETATM    4  O8  UNL     1     -33.093  15.668  -3.179  1.00 20.00    -0.273 OA
ENDROOT
BRANCH   3   5
HETATM    5  C5  UNL     1     -34.841  13.593  -4.279  1.00 20.00     0.140 C 
BRANCH   5   6
HETATM    6  C6  UNL     1     -35.085  13.776  -5.768  1.00 20.00     0.134 C 
HETATM    7 CL9  UNL     1     -34.247  15.218  -6.391  1.00 20.00    -0.129 Cl
ENDBRANCH   5   6
ENDBRANCH   3   5
BRANCH   1   8
HETATM    8  C4  UNL     1     -34.757  16.239  -1.552  1.00 20.00     0.098 C 
HETATM    9  C2  UNL     1     -33.814  17.333  -1.079  1.00 20.00     0.014 C 
ENDBRANCH   1   8
TORSDOF 3
ENDMDL
MODEL 5
REMARK VINA RESULT:      -3.6     11.736     12.837
REMARK  3 active torsions:
REMARK  status: ('A' for Active; 'I' for Inactive)
REMARK    1  A    between atoms: C1_1  and  C4_4 
REMARK       I    between atoms: C1_1  and  N7_7 
REMARK    2  A    between atoms: C5_5  and  C6_6 
REMARK    3  A    between atoms: C5_5  and  N7_7 
ROOT
HETATM    1  C1  UNL     1     -36.102  14.466  -4.222  1.00 20.00     0.219 C 
HETATM    2  C3  UNL     1     -35.122  16.496  -5.310  1.00 20.00     0.152 C 
HETATM    3  N7  UNL     1     -35.921  15.852  -4.275  1.00 20.00    -0.355 N 
HETATM    4  O8  UNL     1     -37.115  13.930  -3.763  1.00 20.00    -0.273 OA
ENDROOT
BRANCH   3   5
HETATM    5  C5  UNL     1     -36.520  16.758  -3.298  1.00 20.00     0.140 C 
BRANCH   5   6
HETATM    6  C6  UNL     1     -35.482  17.436  -2.418  1.00 20.00     0.134 C 
HETATM    7 CL9  UNL     1     -34.660  16.262  -1.363  1.00 20.00    -0.129 Cl
ENDBRANCH   5   6
ENDBRANCH   3   5
BRANCH   1   8
HETATM    8  C4  UNL     1     -34.962  13.618  -4.767  1.00 20.00     0.098 C 
HETATM    9  C2  UNL     1     -33.779  13.542  -3.816  1.00 20.00     0.014 C 
ENDBRANCH   1   8
TORSDOF 3
ENDMDL
MODEL 6
REMARK VINA RESULT:      -3.6     11.797     12.476
REMARK  3 active torsions:
REMARK  status: ('A' for Active; 'I' for Inactive)
REMARK    1  A    between atoms: C1_1  and  C4_4 
REMARK       I    between atoms: C1_1  and  N7_7 
REMARK    2  A    between atoms: C5_5  and  C6_6 
REMARK    3  A    between atoms: C5_5  and  N7_7 
ROOT
HETATM    1  C1  UNL     1     -35.030  15.138  -3.193  1.00 20.00     0.219 C 
HETATM    2  C3  UNL     1     -32.997  13.724  -3.554  1.00 20.00     0.152 C 
HETATM    3  N7  UNL     1     -34.340  14.159  -3.916  1.00 20.00    -0.355 N 
HETATM    4  O8  UNL     1     -36.261  15.168  -3.094  1.00 20.00    -0.273 OA
ENDROOT
BRANCH   3   5
HETATM    5  C5  UNL     1     -34.912  13.500  -5.087  1.00 20.00     0.140 C 
BRANCH   5   6
HETATM    6  C6  UNL     1     -34.927  14.397  -6.314  1.00 20.00     0.134 C 
HETATM    7 CL9  UNL     1     -36.554  15.050  -6.621  1.00 20.00    -0.129 Cl
ENDBRANCH   5   6
ENDBRANCH   3   5
BRANCH   1   8
HETATM    8  C4  UNL     1     -34.177  16.199  -2.514  1.00 20.00     0.098 C 
HETATM    9  C2  UNL     1     -34.634  16.502  -1.097  1.00 20.00     0.014 C 
ENDBRANCH   1   8
TORSDOF 3
ENDMDL
MODEL 7
REMARK VINA RESULT:      -3.6     12.309     13.088
REMARK  3 active torsions:
REMARK  status: ('A' for Active; 'I' for Inactive)
REMARK    1  A    between atoms: C1_1  and  C4_4 
REMARK       I    between atoms: C1_1  and  N7_7 
REMARK    2  A    between atoms: C5_5  and  C6_6 
REMARK    3  A    between atoms: C5_5  and  N7_7 
ROOT
HETATM    1  C1  UNL     1     -33.812  14.535  -4.003  1.00 20.00     0.219 C 
HETATM    2  C3  UNL     1     -33.739  16.272  -5.804  1.00 20.00     0.152 C 
HETATM    3  N7  UNL     1     -34.192  14.994  -5.269  1.00 20.00    -0.355 N 
HETATM    4  O8  UNL     1     -33.699  13.339  -3.720  1.00 20.00    -0.273 OA
ENDROOT
BRANCH   3   5
HETATM    5  C5  UNL     1     -35.070  14.229  -6.149  1.00 20.00     0.140 C 
BRANCH   5   6
HETATM    6  C6  UNL     1     -36.355  14.970  -6.481  1.00 20.00     0.134 C 
HETATM    7 CL9  UNL     1     -37.268  15.378  -5.008  1.00 20.00    -0.129 Cl
ENDBRANCH   5   6
ENDBRANCH   3   5
BRANCH   1   8
HETATM    8  C4  UNL     1     -33.535  15.604  -2.956  1.00 20.00     0.098 C 
HETATM    9  C2  UNL     1     -34.762  15.945  -2.126  1.00 20.00     0.014 C 
ENDBRANCH   1   8
TORSDOF 3
ENDMDL
MODEL 8
REMARK VINA RESULT:      -3.6     12.214     13.693
REMARK  3 active torsions:
REMARK  status: ('A' for Active; 'I' for Inactive)
REMARK    1  A    between atoms: C1_1  and  C4_4 
REMARK       I    between atoms: C1_1  and  N7_7 
REMARK    2  A    between atoms: C5_5  and  C6_6 
REMARK    3  A    between atoms: C5_5  and  N7_7 
ROOT
HETATM    1  C1  UNL     1     -33.745  15.748  -5.407  1.00 20.00     0.219 C 
HETATM    2  C3  UNL     1     -34.786  13.482  -5.183  1.00 20.00     0.152 C 
HETATM    3  N7  UNL     1     -34.241  14.708  -4.613  1.00 20.00    -0.355 N 
HETATM    4  O8  UNL     1     -32.841  16.507  -5.045  1.00 20.00    -0.273 OA
ENDROOT
BRANCH   3   5
HETATM    5  C5  UNL     1     -34.251  14.773  -3.154  1.00 20.00     0.140 C 
BRANCH   5   6
HETATM    6  C6  UNL     1     -35.198  15.837  -2.623  1.00 20.00     0.134 C 
HETATM    7 CL9  UNL     1     -34.691  16.415  -1.017  1.00 20.00    -0.129 Cl
ENDBRANCH   5   6
ENDBRANCH   3   5
BRANCH   1   8
HETATM    8  C4  UNL     1     -34.385  15.910  -6.778  1.00 20.00     0.098 C 
HETATM    9  C2  UNL     1     -34.681  17.361  -7.119  1.00 20.00     0.014 C 
ENDBRANCH   1   8
TORSDOF 3
ENDMDL
MODEL 9
REMARK VINA RESULT:      -3.4     12.459     13.135
REMARK  3 active torsions:
REMARK  status: ('A' for Active; 'I' for Inactive)
REMARK    1  A    between atoms: C1_1  and  C4_4 
REMARK       I    between atoms: C1_1  and  N7_7 
REMARK    2  A    between atoms: C5_5  and  C6_6 
REMARK    3  A    between atoms: C5_5  and  N7_7 
ROOT
HETATM    1  C1  UNL     1     -34.272  16.939  -2.551  1.00 20.00     0.219 C 
HETATM    2  C3  UNL     1     -34.758  14.659  -3.462  1.00 20.00     0.152 C 
HETATM    3  N7  UNL     1     -34.080  15.948  -3.520  1.00 20.00    -0.355 N 
HETATM    4  O8  UNL     1     -34.186  18.148  -2.790  1.00 20.00    -0.273 OA
ENDROOT
BRANCH   3   5
HETATM    5  C5  UNL     1     -33.186  16.130  -4.660  1.00 20.00     0.140 C 
BRANCH   5   6
HETATM    6  C6  UNL     1     -33.925  16.551  -5.920  1.00 20.00     0.134 C 
HETATM    7 CL9  UNL     1     -34.180  15.170  -7.015  1.00 20.00    -0.129 Cl
ENDBRANCH   5   6
ENDBRANCH   3   5
BRANCH   1   8
HETATM    8  C4  UNL     1     -34.601  16.453  -1.147  1.00 20.00     0.098 C 
HETATM    9  C2  UNL     1     -34.373  17.518  -0.088  1.00 20.00     0.014 C 
ENDBRANCH   1   8
TORSDOF 3
ENDMDL
