MODEL 1
REMARK VINA RESULT:      -4.4      0.000      0.000
REMARK  3 active torsions:
REMARK  status: ('A' for Active; 'I' for Inactive)
REMARK    1  A    between atoms: C7_7  and  C8_8 
REMARK    2  A    between atoms: C7_7  and  C9_9 
REMARK    3  A    between atoms: C8_8  and  N10_10 
ROOT
HETATM    1  C1  UNL     1     -36.209  14.225  -4.216  1.00 20.00     0.052 C 
HETATM    2  C2  UNL     1     -35.862  15.360  -3.254  1.00 20.00     0.274 C 
HETATM    3  C3  UNL     1     -33.834  14.406  -3.909  1.00 20.00     0.292 C 
HETATM    4  C4  UNL     1     -34.880  13.790  -4.827  1.00 20.00     0.112 C 
HETATM    5  N10 UNL     1     -34.461  15.676  -3.536  1.00 20.00     0.089 N 
HETATM    6 CL11 UNL     1     -34.711  14.429  -6.490  1.00 20.00    -0.123 Cl
ENDROOT
BRANCH   5   7
HETATM    7  C8  UNL     1     -33.794  16.324  -2.418  1.00 20.00     0.272 C 
BRANCH   7   8
HETATM    8  C7  UNL     1     -34.683  16.412  -1.180  1.00 20.00     0.034 C 
BRANCH   8   9
HETATM    9  C9  UNL     1     -34.577  17.733  -0.393  1.00 20.00    -0.021 C 
HETATM   10  C5  UNL     1     -33.124  18.218  -0.392  1.00 20.00     0.009 C 
HETATM   11  C6  UNL     1     -35.077  17.599   1.047  1.00 20.00     0.009 C 
ENDBRANCH   8   9
ENDBRANCH   7   8
ENDBRANCH   5   7
TORSDOF 3
ENDMDL
MODEL 2
REMARK VINA RESULT:      -4.3     11.145     11.685
REMARK  3 active torsions:
REMARK  status: ('A' for Active; 'I' for Inactive)
REMARK    1  A    between atoms: C7_7  and  C8_8 
REMARK    2  A    between atoms: C7_7  and  C9_9 
REMARK    3  A    between atoms: C8_8  and  N10_10 
ROOT
HETATM    1  C1  UNL     1     -35.224   5.171   3.933  1.00 20.00     0.052 C 
HETATM    2  C2  UNL     1     -34.107   5.765   3.074  1.00 20.00     0.274 C 
HETATM    3  C3  UNL     1     -33.747   6.533   5.249  1.00 20.00     0.292 C 
HETATM    4  C4  UNL     1     -34.826   5.467   5.376  1.00 20.00     0.112 C 
HETATM    5  N10 UNL     1     -33.055   6.126   4.024  1.00 20.00     0.089 N 
HETATM    6 CL11 UNL     1     -34.171   4.000   6.163  1.00 20.00    -0.123 Cl
ENDROOT
BRANCH   5   7
HETATM    7  C8  UNL     1     -32.166   7.158   3.513  1.00 20.00     0.272 C 
BRANCH   7   8
HETATM    8  C7  UNL     1     -32.236   7.289   1.994  1.00 20.00     0.034 C 
BRANCH   8   9
HETATM    9  C9  UNL     1     -31.920   8.694   1.444  1.00 20.00    -0.021 C 
HETATM   10  C5  UNL     1     -32.725   9.743   2.217  1.00 20.00     0.009 C 
HETATM   11  C6  UNL     1     -32.215   8.817  -0.052  1.00 20.00     0.009 C 
ENDBRANCH   8   9
ENDBRANCH   7   8
ENDBRANCH   5   7
TORSDOF 3
ENDMDL
MODEL 3
REMARK VINA RESULT:      -4.3      2.800      5.218
REMARK  3 active torsions:
REMARK  status: ('A' for Active; 'I' for Inactive)
REMARK    1  A    between atoms: C7_7  and  C8_8 
REMARK    2  A    between atoms: C7_7  and  C9_9 
REMARK    3  A    between atoms: C8_8  and  N10_10 
ROOT
HETATM    1  C1  UNL     1     -34.507  17.726   0.297  1.00 20.00     0.052 C 
HETATM    2  C2  UNL     1     -34.589  16.640  -0.777  1.00 20.00     0.274 C 
HETATM    3  C3  UNL     1     -33.635  18.510  -1.799  1.00 20.00     0.292 C 
HETATM    4  C4  UNL     1     -33.654  18.835  -0.312  1.00 20.00     0.112 C 
HETATM    5  N10 UNL     1     -33.618  17.046  -1.795  1.00 20.00     0.089 N 
HETATM    6 CL11 UNL     1     -31.996  18.797   0.361  1.00 20.00    -0.123 Cl
ENDROOT
BRANCH   5   7
HETATM    7  C8  UNL     1     -33.905  16.478  -3.102  1.00 20.00     0.272 C 
BRANCH   7   8
HETATM    8  C7  UNL     1     -34.935  15.353  -3.037  1.00 20.00     0.034 C 
BRANCH   8   9
HETATM    9  C9  UNL     1     -34.401  13.956  -3.409  1.00 20.00    -0.021 C 
HETATM   10  C5  UNL     1     -32.890  14.027  -3.644  1.00 20.00     0.009 C 
HETATM   11  C6  UNL     1     -35.089  13.376  -4.646  1.00 20.00     0.009 C 
ENDBRANCH   8   9
ENDBRANCH   7   8
ENDBRANCH   5   7
TORSDOF 3
ENDMDL
MODEL 4
REMARK VINA RESULT:      -4.2      2.695      5.142
REMARK  3 active torsions:
REMARK  status: ('A' for Active; 'I' for Inactive)
REMARK    1  A    between atoms: C7_7  and  C8_8 
REMARK    2  A    between atoms: C7_7  and  C9_9 
REMARK    3  A    between atoms: C8_8  and  N10_10 
ROOT
HETATM    1  C1  UNL     1     -34.766  17.227  -0.372  1.00 20.00     0.052 C 
HETATM    2  C2  UNL     1     -34.589  16.221  -1.509  1.00 20.00     0.274 C 
HETATM    3  C3  UNL     1     -33.813  18.270  -2.314  1.00 20.00     0.292 C 
HETATM    4  C4  UNL     1     -34.023  18.482  -0.821  1.00 20.00     0.112 C 
HETATM    5  N10 UNL     1     -33.591  16.825  -2.392  1.00 20.00     0.089 N 
HETATM    6 CL11 UNL     1     -32.450  18.618   0.021  1.00 20.00    -0.123 Cl
ENDROOT
BRANCH   5   7
HETATM    7  C8  UNL     1     -33.666  16.319  -3.754  1.00 20.00     0.272 C 
BRANCH   7   8
HETATM    8  C7  UNL     1     -33.296  14.841  -3.849  1.00 20.00     0.034 C 
BRANCH   8   9
HETATM    9  C9  UNL     1     -34.211  13.996  -4.758  1.00 20.00    -0.021 C 
HETATM   10  C5  UNL     1     -34.443  14.730  -6.082  1.00 20.00     0.009 C 
HETATM   11  C6  UNL     1     -35.556  13.680  -4.102  1.00 20.00     0.009 C 
ENDBRANCH   8   9
ENDBRANCH   7   8
ENDBRANCH   5   7
TORSDOF 3
ENDMDL
MODEL 5
REMARK VINA RESULT:      -4.2      1.895      2.434
REMARK  3 active torsions:
REMARK  status: ('A' for Active; 'I' for Inactive)
REMARK    1  A    between atoms: C7_7  and  C8_8 
REMARK    2  A    between atoms: C7_7  and  C9_9 
REMARK    3  A    between atoms: C8_8  and  N10_10 
ROOT
HETATM    1  C1  UNL     1     -34.505  16.806  -6.596  1.00 20.00     0.052 C 
HETATM    2  C2  UNL     1     -33.480  16.629  -5.475  1.00 20.00     0.274 C 
HETATM    3  C3  UNL     1     -35.305  15.284  -4.920  1.00 20.00     0.292 C 
HETATM    4  C4  UNL     1     -35.563  15.734  -6.351  1.00 20.00     0.112 C 
HETATM    5  N10 UNL     1     -33.846  15.369  -4.828  1.00 20.00     0.089 N 
HETATM    6 CL11 UNL     1     -35.352  14.368  -7.487  1.00 20.00    -0.123 Cl
ENDROOT
BRANCH   5   7
HETATM    7  C8  UNL     1     -33.364  15.281  -3.458  1.00 20.00     0.272 C 
BRANCH   7   8
HETATM    8  C7  UNL     1     -34.381  15.802  -2.446  1.00 20.00     0.034 C 
BRANCH   8   9
HETATM    9  C9  UNL     1     -33.858  16.904  -1.503  1.00 20.00    -0.021 C 
HETATM   10  C5  UNL     1     -34.763  17.000  -0.271  1.00 20.00     0.009 C 
HETATM   11  C6  UNL     1     -33.773  18.269  -2.188  1.00 20.00     0.009 C 
ENDBRANCH   8   9
ENDBRANCH   7   8
ENDBRANCH   5   7
TORSDOF 3
ENDMDL
MODEL 6
REMARK VINA RESULT:      -4.1      2.571      5.071
REMARK  3 active torsions:
REMARK  status: ('A' for Active; 'I' for Inactive)
REMARK    1  A    between atoms: C7_7  and  C8_8 
REMARK    2  A    between atoms: C7_7  and  C9_9 
REMARK    3  A    between atoms: C8_8  and  N10_10 
ROOT
HETATM    1  C1  UNL     1     -35.136  17.638  -3.043  1.00 20.00     0.052 C 
HETATM    2  C2  UNL     1     -36.089  16.725  -3.813  1.00 20.00     0.274 C 
HETATM    3  C3  UNL     1     -34.383  15.358  -2.994  1.00 20.00     0.292 C 
HETATM    4  C4  UNL     1     -34.183  16.701  -2.306  1.00 20.00     0.112 C 
HETATM    5  N10 UNL     1     -35.814  15.380  -3.303  1.00 20.00     0.089 N 
HETATM    6 CL11 UNL     1     -34.620  16.592  -0.574  1.00 20.00    -0.123 Cl
ENDROOT
BRANCH   5   7
HETATM    7  C8  UNL     1     -36.202  14.336  -4.238  1.00 20.00     0.272 C 
BRANCH   7   8
HETATM    8  C7  UNL     1     -35.050  13.901  -5.140  1.00 20.00     0.034 C 
BRANCH   8   9
HETATM    9  C9  UNL     1     -35.126  14.419  -6.590  1.00 20.00    -0.021 C 
HETATM   10  C5  UNL     1     -34.128  15.566  -6.781  1.00 20.00     0.009 C 
HETATM   11  C6  UNL     1     -36.530  14.889  -6.972  1.00 20.00     0.009 C 
ENDBRANCH   8   9
ENDBRANCH   7   8
ENDBRANCH   5   7
TORSDOF 3
ENDMDL
MODEL 7
REMARK VINA RESULT:      -4.1      1.394      1.733
REMARK  3 active torsions:
REMARK  status: ('A' for Active; 'I' for Inactive)
REMARK    1  A    between atoms: C7_7  and  C8_8 
REMARK    2  A    between atoms: C7_7  and  C9_9 
REMARK    3  A    between atoms: C8_8  and  N10_10 
ROOT
HETATM    1  C1  UNL     1     -34.114  15.567  -6.175  1.00 20.00     0.052 C 
HETATM    2  C2  UNL     1     -33.451  16.555  -5.216  1.00 20.00     0.274 C 
HETATM    3  C3  UNL     1     -35.285  15.664  -4.080  1.00 20.00     0.292 C 
HETATM    4  C4  UNL     1     -35.141  14.813  -5.334  1.00 20.00     0.112 C 
HETATM    5  N10 UNL     1     -33.922  16.163  -3.888  1.00 20.00     0.089 N 
HETATM    6 CL11 UNL     1     -34.538  13.180  -4.918  1.00 20.00    -0.123 Cl
ENDROOT
BRANCH   5   7
HETATM    7  C8  UNL     1     -33.854  17.251  -2.924  1.00 20.00     0.272 C 
BRANCH   7   8
HETATM    8  C7  UNL     1     -34.095  16.779  -1.493  1.00 20.00     0.034 C 
BRANCH   8   9
HETATM    9  C9  UNL     1     -34.290  17.906  -0.458  1.00 20.00    -0.021 C 
HETATM   10  C5  UNL     1     -32.926  18.467  -0.045  1.00 20.00     0.009 C 
HETATM   11  C6  UNL     1     -35.051  17.436   0.782  1.00 20.00     0.009 C 
ENDBRANCH   8   9
ENDBRANCH   7   8
ENDBRANCH   5   7
TORSDOF 3
ENDMDL
MODEL 8
REMARK VINA RESULT:      -3.9     11.519     12.036
REMARK  3 active torsions:
REMARK  status: ('A' for Active; 'I' for Inactive)
REMARK    1  A    between atoms: C7_7  and  C8_8 
REMARK    2  A    between atoms: C7_7  and  C9_9 
REMARK    3  A    between atoms: C8_8  and  N10_10 
ROOT
HETATM    1  C1  UNL     1     -31.311   7.271   3.366  1.00 20.00     0.052 C 
HETATM    2  C2  UNL     1     -32.028   5.923   3.433  1.00 20.00     0.274 C 
HETATM    3  C3  UNL     1     -33.657   7.513   2.912  1.00 20.00     0.292 C 
HETATM    4  C4  UNL     1     -32.329   8.244   2.776  1.00 20.00     0.112 C 
HETATM    5  N10 UNL     1     -33.268   6.120   2.680  1.00 20.00     0.089 N 
HETATM    6 CL11 UNL     1     -31.965   8.569   1.054  1.00 20.00    -0.123 Cl
ENDROOT
BRANCH   5   7
HETATM    7  C8  UNL     1     -34.309   5.177   3.057  1.00 20.00     0.272 C 
BRANCH   7   8
HETATM    8  C7  UNL     1     -35.272   5.752   4.092  1.00 20.00     0.034 C 
BRANCH   8   9
HETATM    9  C9  UNL     1     -35.129   5.168   5.512  1.00 20.00    -0.021 C 
HETATM   10  C5  UNL     1     -34.213   6.066   6.348  1.00 20.00     0.009 C 
HETATM   11  C6  UNL     1     -34.586   3.739   5.505  1.00 20.00     0.009 C 
ENDBRANCH   8   9
ENDBRANCH   7   8
ENDBRANCH   5   7
TORSDOF 3
ENDMDL
MODEL 9
REMARK VINA RESULT:      -3.8      3.504      5.796
REMARK  3 active torsions:
REMARK  status: ('A' for Active; 'I' for Inactive)
REMARK    1  A    between atoms: C7_7  and  C8_8 
REMARK    2  A    between atoms: C7_7  and  C9_9 
REMARK    3  A    between atoms: C8_8  and  N10_10 
ROOT
HETATM    1  C1  UNL     1     -35.066  18.077   1.756  1.00 20.00     0.052 C 
HETATM    2  C2  UNL     1     -35.042  17.296   0.442  1.00 20.00     0.274 C 
HETATM    3  C3  UNL     1     -33.600  19.109   0.159  1.00 20.00     0.292 C 
HETATM    4  C4  UNL     1     -33.934  19.095   1.643  1.00 20.00     0.112 C 
HETATM    5  N10 UNL     1     -33.802  17.709  -0.217  1.00 20.00     0.089 N 
HETATM    6 CL11 UNL     1     -32.518  18.571   2.602  1.00 20.00    -0.123 Cl
ENDROOT
BRANCH   5   7
HETATM    7  C8  UNL     1     -33.840  17.514  -1.658  1.00 20.00     0.272 C 
BRANCH   7   8
HETATM    8  C7  UNL     1     -34.435  16.164  -2.050  1.00 20.00     0.034 C 
BRANCH   8   9
HETATM    9  C9  UNL     1     -33.623  15.371  -3.092  1.00 20.00    -0.021 C 
HETATM   10  C5  UNL     1     -33.333  16.260  -4.305  1.00 20.00     0.009 C 
HETATM   11  C6  UNL     1     -34.338  14.097  -3.546  1.00 20.00     0.009 C 
ENDBRANCH   8   9
ENDBRANCH   7   8
ENDBRANCH   5   7
TORSDOF 3
ENDMDL
