MODEL 1
REMARK VINA RESULT:      -4.4      0.000      0.000
REMARK  1 active torsions:
REMARK  status: ('A' for Active; 'I' for Inactive)
REMARK    1  A    between atoms: C6_6  and  N7_7 
ROOT
HETATM    1  C1  UNL     1     -32.216   7.640   2.572  1.00 20.00     0.158 C 
HETATM    2  N7  UNL     1     -32.222   6.778   3.366  1.00 20.00    -0.268 NA
HETATM    3  S9  UNL     1     -32.169   8.806   1.487  1.00 20.00    -0.055 SA
ENDROOT
BRANCH   2   4
HETATM    4  C6  UNL     1     -33.511   6.572   4.029  1.00 20.00     0.133 C 
HETATM    5  C3  UNL     1     -34.209   5.365   3.406  1.00 20.00     0.032 C 
HETATM    6  C2  UNL     1     -35.454   4.999   4.208  1.00 20.00     0.028 C 
HETATM    7  C4  UNL     1     -35.121   4.867   5.688  1.00 20.00     0.167 C 
HETATM    8  O8  UNL     1     -34.514   6.060   6.181  1.00 20.00    -0.389 OA
HETATM    9  C5  UNL     1     -33.283   6.351   5.520  1.00 20.00     0.195 C 
ENDBRANCH   2   4
TORSDOF 1
ENDMDL
MODEL 2
REMARK VINA RESULT:      -4.0     11.471     11.677
REMARK  1 active torsions:
REMARK  status: ('A' for Active; 'I' for Inactive)
REMARK    1  A    between atoms: C6_6  and  N7_7 
ROOT
HETATM    1  C1  UNL     1     -34.212  16.801  -1.401  1.00 20.00     0.158 C 
HETATM    2  N7  UNL     1     -33.775  16.426  -2.422  1.00 20.00    -0.268 NA
HETATM    3  S9  UNL     1     -34.786  17.343  -0.018  1.00 20.00    -0.055 SA
ENDROOT
BRANCH   2   4
HETATM    4  C6  UNL     1     -34.234  15.097  -2.829  1.00 20.00     0.133 C 
HETATM    5  C3  UNL     1     -35.531  15.234  -3.622  1.00 20.00     0.032 C 
HETATM    6  C2  UNL     1     -35.924  13.894  -4.234  1.00 20.00     0.028 C 
HETATM    7  C4  UNL     1     -34.754  13.287  -4.999  1.00 20.00     0.167 C 
HETATM    8  O8  UNL     1     -33.608  13.162  -4.158  1.00 20.00    -0.389 OA
HETATM    9  C5  UNL     1     -33.156  14.426  -3.672  1.00 20.00     0.195 C 
ENDBRANCH   2   4
TORSDOF 1
ENDMDL
MODEL 3
REMARK VINA RESULT:      -3.8     11.784     12.149
REMARK  1 active torsions:
REMARK  status: ('A' for Active; 'I' for Inactive)
REMARK    1  A    between atoms: C6_6  and  N7_7 
ROOT
HETATM    1  C1  UNL     1     -33.768  17.381  -3.819  1.00 20.00     0.158 C 
HETATM    2  N7  UNL     1     -33.852  16.782  -2.814  1.00 20.00    -0.268 NA
HETATM    3  S9  UNL     1     -33.645  18.226  -5.164  1.00 20.00    -0.055 SA
ENDROOT
BRANCH   2   4
HETATM    4  C6  UNL     1     -34.208  15.372  -2.975  1.00 20.00     0.133 C 
HETATM    5  C3  UNL     1     -35.510  15.268  -3.765  1.00 20.00     0.032 C 
HETATM    6  C2  UNL     1     -35.799  13.816  -4.126  1.00 20.00     0.028 C 
HETATM    7  C4  UNL     1     -34.585  13.173  -4.785  1.00 20.00     0.167 C 
HETATM    8  O8  UNL     1     -33.435  13.285  -3.949  1.00 20.00    -0.389 OA
HETATM    9  C5  UNL     1     -33.080  14.645  -3.699  1.00 20.00     0.195 C 
ENDBRANCH   2   4
TORSDOF 1
ENDMDL
MODEL 4
REMARK VINA RESULT:      -3.7     11.654     12.212
REMARK  1 active torsions:
REMARK  status: ('A' for Active; 'I' for Inactive)
REMARK    1  A    between atoms: C6_6  and  N7_7 
ROOT
HETATM    1  C1  UNL     1     -38.136  15.191  -3.611  1.00 20.00     0.158 C 
HETATM    2  N7  UNL     1     -37.440  14.255  -3.733  1.00 20.00    -0.268 NA
HETATM    3  S9  UNL     1     -39.111  16.438  -3.436  1.00 20.00    -0.055 SA
ENDROOT
BRANCH   2   4
HETATM    4  C6  UNL     1     -36.063  14.568  -4.113  1.00 20.00     0.133 C 
HETATM    5  C3  UNL     1     -35.380  15.311  -2.968  1.00 20.00     0.032 C 
HETATM    6  C2  UNL     1     -33.889  15.469  -3.249  1.00 20.00     0.028 C 
HETATM    7  C4  UNL     1     -33.266  14.128  -3.619  1.00 20.00     0.167 C 
HETATM    8  O8  UNL     1     -33.948  13.540  -4.726  1.00 20.00    -0.389 OA
HETATM    9  C5  UNL     1     -35.321  13.275  -4.434  1.00 20.00     0.195 C 
ENDBRANCH   2   4
TORSDOF 1
ENDMDL
MODEL 5
REMARK VINA RESULT:      -3.6     11.954     13.002
REMARK  1 active torsions:
REMARK  status: ('A' for Active; 'I' for Inactive)
REMARK    1  A    between atoms: C6_6  and  N7_7 
ROOT
HETATM    1  C1  UNL     1     -34.095  17.818  -4.132  1.00 20.00     0.158 C 
HETATM    2  N7  UNL     1     -33.210  17.403  -4.779  1.00 20.00    -0.268 NA
HETATM    3  S9  UNL     1     -35.283  18.418  -3.256  1.00 20.00    -0.055 SA
ENDROOT
BRANCH   2   4
HETATM    4  C6  UNL     1     -33.225  15.953  -4.970  1.00 20.00     0.133 C 
HETATM    5  C3  UNL     1     -33.173  15.265  -3.608  1.00 20.00     0.032 C 
HETATM    6  C2  UNL     1     -33.395  13.764  -3.762  1.00 20.00     0.028 C 
HETATM    7  C4  UNL     1     -34.646  13.485  -4.585  1.00 20.00     0.167 C 
HETATM    8  O8  UNL     1     -34.574  14.136  -5.853  1.00 20.00    -0.389 OA
HETATM    9  C5  UNL     1     -34.487  15.555  -5.727  1.00 20.00     0.195 C 
ENDBRANCH   2   4
TORSDOF 1
ENDMDL
MODEL 6
REMARK VINA RESULT:      -3.6     10.006     10.690
REMARK  1 active torsions:
REMARK  status: ('A' for Active; 'I' for Inactive)
REMARK    1  A    between atoms: C6_6  and  N7_7 
ROOT
HETATM    1  C1  UNL     1     -42.519   8.214  -4.072  1.00 20.00     0.158 C 
HETATM    2  N7  UNL     1     -42.909   7.521  -3.212  1.00 20.00    -0.268 NA
HETATM    3  S9  UNL     1     -42.024   9.168  -5.248  1.00 20.00    -0.055 SA
ENDROOT
BRANCH   2   4
HETATM    4  C6  UNL     1     -41.871   6.733  -2.548  1.00 20.00     0.133 C 
HETATM    5  C3  UNL     1     -41.652   7.274  -1.137  1.00 20.00     0.032 C 
HETATM    6  C2  UNL     1     -40.729   6.350  -0.350  1.00 20.00     0.028 C 
HETATM    7  C4  UNL     1     -41.216   4.908  -0.427  1.00 20.00     0.167 C 
HETATM    8  O8  UNL     1     -41.344   4.487  -1.784  1.00 20.00    -0.389 OA
HETATM    9  C5  UNL     1     -42.297   5.270  -2.503  1.00 20.00     0.195 C 
ENDBRANCH   2   4
TORSDOF 1
ENDMDL
MODEL 7
REMARK VINA RESULT:      -3.6     11.869     12.685
REMARK  1 active torsions:
REMARK  status: ('A' for Active; 'I' for Inactive)
REMARK    1  A    between atoms: C6_6  and  N7_7 
ROOT
HETATM    1  C1  UNL     1     -38.003  14.783  -3.765  1.00 20.00     0.158 C 
HETATM    2  N7  UNL     1     -37.029  14.151  -3.925  1.00 20.00    -0.268 NA
HETATM    3  S9  UNL     1     -39.348  15.612  -3.560  1.00 20.00    -0.055 SA
ENDROOT
BRANCH   2   4
HETATM    4  C6  UNL     1     -35.789  14.849  -3.582  1.00 20.00     0.133 C 
HETATM    5  C3  UNL     1     -34.604  13.916  -3.822  1.00 20.00     0.032 C 
HETATM    6  C2  UNL     1     -33.291  14.676  -3.672  1.00 20.00     0.028 C 
HETATM    7  C4  UNL     1     -33.303  15.945  -4.516  1.00 20.00     0.167 C 
HETATM    8  O8  UNL     1     -34.422  16.765  -4.183  1.00 20.00    -0.389 OA
HETATM    9  C5  UNL     1     -35.665  16.107  -4.433  1.00 20.00     0.195 C 
ENDBRANCH   2   4
TORSDOF 1
ENDMDL
MODEL 8
REMARK VINA RESULT:      -3.5     11.638     12.229
REMARK  1 active torsions:
REMARK  status: ('A' for Active; 'I' for Inactive)
REMARK    1  A    between atoms: C6_6  and  N7_7 
ROOT
HETATM    1  C1  UNL     1     -34.911  13.877  -5.970  1.00 20.00     0.158 C 
HETATM    2  N7  UNL     1     -34.750  13.284  -4.972  1.00 20.00    -0.268 NA
HETATM    3  S9  UNL     1     -35.125  14.651  -7.346  1.00 20.00    -0.055 SA
ENDROOT
BRANCH   2   4
HETATM    4  C6  UNL     1     -34.780  14.108  -3.763  1.00 20.00     0.133 C 
HETATM    5  C3  UNL     1     -33.590  15.064  -3.776  1.00 20.00     0.032 C 
HETATM    6  C2  UNL     1     -33.705  16.073  -2.639  1.00 20.00     0.028 C 
HETATM    7  C4  UNL     1     -35.076  16.739  -2.646  1.00 20.00     0.167 C 
HETATM    8  O8  UNL     1     -36.115  15.763  -2.587  1.00 20.00    -0.389 OA
HETATM    9  C5  UNL     1     -36.092  14.883  -3.711  1.00 20.00     0.195 C 
ENDBRANCH   2   4
TORSDOF 1
ENDMDL
MODEL 9
REMARK VINA RESULT:      -3.5     11.686     12.461
REMARK  1 active torsions:
REMARK  status: ('A' for Active; 'I' for Inactive)
REMARK    1  A    between atoms: C6_6  and  N7_7 
ROOT
HETATM    1  C1  UNL     1     -34.146  16.901  -1.319  1.00 20.00     0.158 C 
HETATM    2  N7  UNL     1     -34.707  16.004  -1.823  1.00 20.00    -0.268 NA
HETATM    3  S9  UNL     1     -33.409  18.121  -0.607  1.00 20.00    -0.055 SA
ENDROOT
BRANCH   2   4
HETATM    4  C6  UNL     1     -34.089  15.514  -3.055  1.00 20.00     0.133 C 
HETATM    5  C3  UNL     1     -34.730  14.185  -3.446  1.00 20.00     0.032 C 
HETATM    6  C2  UNL     1     -34.255  13.751  -4.829  1.00 20.00     0.028 C 
HETATM    7  C4  UNL     1     -34.430  14.881  -5.836  1.00 20.00     0.167 C 
HETATM    8  O8  UNL     1     -33.757  16.060  -5.398  1.00 20.00    -0.389 OA
HETATM    9  C5  UNL     1     -34.275  16.547  -4.160  1.00 20.00     0.195 C 
ENDBRANCH   2   4
TORSDOF 1
ENDMDL
