MODEL 1
REMARK VINA RESULT:      -4.6      0.000      0.000
REMARK  3 active torsions:
REMARK  status: ('A' for Active; 'I' for Inactive)
REMARK    1  A    between atoms: C6_6  and  C7_7 
REMARK    2  A    between atoms: C7_7  and  C8_8 
REMARK    3  A    between atoms: C8_8  and  N9_9 
ROOT
HETATM    1  C1  UNL     1     -34.249   6.313   6.014  1.00 20.00     0.052 C 
HETATM    2  C2  UNL     1     -33.176   6.739   5.012  1.00 20.00     0.274 C 
HETATM    3  C3  UNL     1     -34.731   5.471   3.816  1.00 20.00     0.292 C 
HETATM    4  C4  UNL     1     -35.105   5.282   5.280  1.00 20.00     0.112 C 
HETATM    5  N9  UNL     1     -33.305   5.795   3.901  1.00 20.00     0.089 N 
HETATM    6 CL10 UNL     1     -34.701   3.625   5.823  1.00 20.00    -0.123 Cl
ENDROOT
BRANCH   5   7
HETATM    7  C8  UNL     1     -32.774   6.320   2.653  1.00 20.00     0.272 C 
BRANCH   7   8
HETATM    8  C7  UNL     1     -32.039   7.643   2.844  1.00 20.00     0.030 C 
BRANCH   8   9
HETATM    9  C6  UNL     1     -31.863   8.412   1.533  1.00 20.00    -0.003 C 
HETATM   10  C5  UNL     1     -32.542   9.772   1.592  1.00 20.00     0.005 C 
ENDBRANCH   8   9
ENDBRANCH   7   8
ENDBRANCH   5   7
TORSDOF 3
ENDMDL
MODEL 2
REMARK VINA RESULT:      -4.3     11.461     12.259
REMARK  3 active torsions:
REMARK  status: ('A' for Active; 'I' for Inactive)
REMARK    1  A    between atoms: C6_6  and  C7_7 
REMARK    2  A    between atoms: C7_7  and  C8_8 
REMARK    3  A    between atoms: C8_8  and  N9_9 
ROOT
HETATM    1  C1  UNL     1     -34.491  13.268  -4.901  1.00 20.00     0.052 C 
HETATM    2  C2  UNL     1     -33.733  13.929  -3.751  1.00 20.00     0.274 C 
HETATM    3  C3  UNL     1     -35.127  15.571  -4.653  1.00 20.00     0.292 C 
HETATM    4  C4  UNL     1     -35.194  14.409  -5.634  1.00 20.00     0.112 C 
HETATM    5  N9  UNL     1     -33.823  15.365  -4.019  1.00 20.00     0.089 N 
HETATM    6 CL10 UNL     1     -34.329  14.814  -7.148  1.00 20.00    -0.123 Cl
ENDROOT
BRANCH   5   7
HETATM    7  C8  UNL     1     -33.647  16.172  -2.822  1.00 20.00     0.272 C 
BRANCH   7   8
HETATM    8  C7  UNL     1     -34.799  16.008  -1.835  1.00 20.00     0.030 C 
BRANCH   8   9
HETATM    9  C6  UNL     1     -34.627  16.869  -0.582  1.00 20.00    -0.003 C 
HETATM   10  C5  UNL     1     -33.453  17.825  -0.722  1.00 20.00     0.005 C 
ENDBRANCH   8   9
ENDBRANCH   7   8
ENDBRANCH   5   7
TORSDOF 3
ENDMDL
MODEL 3
REMARK VINA RESULT:      -4.1     11.353     11.901
REMARK  3 active torsions:
REMARK  status: ('A' for Active; 'I' for Inactive)
REMARK    1  A    between atoms: C6_6  and  C7_7 
REMARK    2  A    between atoms: C7_7  and  C8_8 
REMARK    3  A    between atoms: C8_8  and  N9_9 
ROOT
HETATM    1  C1  UNL     1     -33.780  13.601  -4.147  1.00 20.00     0.052 C 
HETATM    2  C2  UNL     1     -33.747  14.841  -3.253  1.00 20.00     0.274 C 
HETATM    3  C3  UNL     1     -35.983  14.509  -3.839  1.00 20.00     0.292 C 
HETATM    4  C4  UNL     1     -35.194  13.553  -4.723  1.00 20.00     0.112 C 
HETATM    5  N9  UNL     1     -34.993  15.548  -3.548  1.00 20.00     0.089 N 
HETATM    6 CL10 UNL     1     -35.202  14.118  -6.422  1.00 20.00    -0.123 Cl
ENDROOT
BRANCH   5   7
HETATM    7  C8  UNL     1     -35.407  16.430  -2.468  1.00 20.00     0.272 C 
BRANCH   7   8
HETATM    8  C7  UNL     1     -34.292  16.675  -1.456  1.00 20.00     0.030 C 
BRANCH   8   9
HETATM    9  C6  UNL     1     -34.823  17.105  -0.087  1.00 20.00    -0.003 C 
HETATM   10  C5  UNL     1     -33.956  18.192   0.528  1.00 20.00     0.005 C 
ENDBRANCH   8   9
ENDBRANCH   7   8
ENDBRANCH   5   7
TORSDOF 3
ENDMDL
MODEL 4
REMARK VINA RESULT:      -3.8     11.784     12.943
REMARK  3 active torsions:
REMARK  status: ('A' for Active; 'I' for Inactive)
REMARK    1  A    between atoms: C6_6  and  C7_7 
REMARK    2  A    between atoms: C7_7  and  C8_8 
REMARK    3  A    between atoms: C8_8  and  N9_9 
ROOT
HETATM    1  C1  UNL     1     -34.168  16.281  -6.491  1.00 20.00     0.052 C 
HETATM    2  C2  UNL     1     -34.264  16.478  -4.978  1.00 20.00     0.274 C 
HETATM    3  C3  UNL     1     -34.480  14.185  -5.359  1.00 20.00     0.292 C 
HETATM    4  C4  UNL     1     -34.567  14.827  -6.737  1.00 20.00     0.112 C 
HETATM    5  N9  UNL     1     -34.925  15.270  -4.483  1.00 20.00     0.089 N 
HETATM    6 CL10 UNL     1     -36.239  14.730  -7.370  1.00 20.00    -0.123 Cl
ENDROOT
BRANCH   5   7
HETATM    7  C8  UNL     1     -34.644  15.010  -3.080  1.00 20.00     0.272 C 
BRANCH   7   8
HETATM    8  C7  UNL     1     -33.987  16.200  -2.388  1.00 20.00     0.030 C 
BRANCH   8   9
HETATM    9  C6  UNL     1     -34.628  16.522  -1.037  1.00 20.00    -0.003 C 
HETATM   10  C5  UNL     1     -33.950  17.708  -0.369  1.00 20.00     0.005 C 
ENDBRANCH   8   9
ENDBRANCH   7   8
ENDBRANCH   5   7
TORSDOF 3
ENDMDL
MODEL 5
REMARK VINA RESULT:      -3.8     11.002     12.094
REMARK  3 active torsions:
REMARK  status: ('A' for Active; 'I' for Inactive)
REMARK    1  A    between atoms: C6_6  and  C7_7 
REMARK    2  A    between atoms: C7_7  and  C8_8 
REMARK    3  A    between atoms: C8_8  and  N9_9 
ROOT
HETATM    1  C1  UNL     1     -34.665  18.133  -2.663  1.00 20.00     0.052 C 
HETATM    2  C2  UNL     1     -33.734  17.299  -3.543  1.00 20.00     0.274 C 
HETATM    3  C3  UNL     1     -34.879  15.789  -2.179  1.00 20.00     0.292 C 
HETATM    4  C4  UNL     1     -35.207  17.164  -1.613  1.00 20.00     0.112 C 
HETATM    5  N9  UNL     1     -33.593  16.025  -2.838  1.00 20.00     0.089 N 
HETATM    6 CL10 UNL     1     -34.382  17.409  -0.043  1.00 20.00    -0.123 Cl
ENDROOT
BRANCH   5   7
HETATM    7  C8  UNL     1     -33.206  14.935  -3.720  1.00 20.00     0.272 C 
BRANCH   7   8
HETATM    8  C7  UNL     1     -34.160  13.748  -3.631  1.00 20.00     0.030 C 
BRANCH   8   9
HETATM    9  C6  UNL     1     -34.636  13.271  -5.005  1.00 20.00    -0.003 C 
HETATM   10  C5  UNL     1     -34.758  14.429  -5.983  1.00 20.00     0.005 C 
ENDBRANCH   8   9
ENDBRANCH   7   8
ENDBRANCH   5   7
TORSDOF 3
ENDMDL
MODEL 6
REMARK VINA RESULT:      -3.8      1.160      1.577
REMARK  3 active torsions:
REMARK  status: ('A' for Active; 'I' for Inactive)
REMARK    1  A    between atoms: C6_6  and  C7_7 
REMARK    2  A    between atoms: C7_7  and  C8_8 
REMARK    3  A    between atoms: C8_8  and  N9_9 
ROOT
HETATM    1  C1  UNL     1     -35.449   4.948   4.535  1.00 20.00     0.052 C 
HETATM    2  C2  UNL     1     -34.861   5.638   3.304  1.00 20.00     0.274 C 
HETATM    3  C3  UNL     1     -33.075   5.240   4.755  1.00 20.00     0.292 C 
HETATM    4  C4  UNL     1     -34.325   4.932   5.568  1.00 20.00     0.112 C 
HETATM    5  N9  UNL     1     -33.581   6.185   3.757  1.00 20.00     0.089 N 
HETATM    6 CL10 UNL     1     -34.592   6.192   6.812  1.00 20.00    -0.123 Cl
ENDROOT
BRANCH   5   7
HETATM    7  C8  UNL     1     -32.645   6.402   2.666  1.00 20.00     0.272 C 
BRANCH   7   8
HETATM    8  C7  UNL     1     -31.951   7.758   2.756  1.00 20.00     0.030 C 
BRANCH   8   9
HETATM    9  C6  UNL     1     -31.877   8.472   1.405  1.00 20.00    -0.003 C 
HETATM   10  C5  UNL     1     -32.520   9.848   1.468  1.00 20.00     0.005 C 
ENDBRANCH   8   9
ENDBRANCH   7   8
ENDBRANCH   5   7
TORSDOF 3
ENDMDL
MODEL 7
REMARK VINA RESULT:      -3.7     11.933     13.298
REMARK  3 active torsions:
REMARK  status: ('A' for Active; 'I' for Inactive)
REMARK    1  A    between atoms: C6_6  and  C7_7 
REMARK    2  A    between atoms: C7_7  and  C8_8 
REMARK    3  A    between atoms: C8_8  and  N9_9 
ROOT
HETATM    1  C1  UNL     1     -35.634  17.007  -5.650  1.00 20.00     0.052 C 
HETATM    2  C2  UNL     1     -35.525  16.690  -4.159  1.00 20.00     0.274 C 
HETATM    3  C3  UNL     1     -33.343  16.716  -4.991  1.00 20.00     0.292 C 
HETATM    4  C4  UNL     1     -34.238  16.766  -6.221  1.00 20.00     0.112 C 
HETATM    5  N9  UNL     1     -34.210  16.068  -4.004  1.00 20.00     0.089 N 
HETATM    6 CL10 UNL     1     -34.178  15.209  -7.104  1.00 20.00    -0.123 Cl
ENDROOT
BRANCH   5   7
HETATM    7  C8  UNL     1     -33.694  16.175  -2.648  1.00 20.00     0.272 C 
BRANCH   7   8
HETATM    8  C7  UNL     1     -34.803  16.162  -1.601  1.00 20.00     0.030 C 
BRANCH   8   9
HETATM    9  C6  UNL     1     -34.499  17.074  -0.411  1.00 20.00    -0.003 C 
HETATM   10  C5  UNL     1     -33.362  18.034  -0.723  1.00 20.00     0.005 C 
ENDBRANCH   8   9
ENDBRANCH   7   8
ENDBRANCH   5   7
TORSDOF 3
ENDMDL
MODEL 8
REMARK VINA RESULT:      -3.7      9.849     11.165
REMARK  3 active torsions:
REMARK  status: ('A' for Active; 'I' for Inactive)
REMARK    1  A    between atoms: C6_6  and  C7_7 
REMARK    2  A    between atoms: C7_7  and  C8_8 
REMARK    3  A    between atoms: C8_8  and  N9_9 
ROOT
HETATM    1  C1  UNL     1     -42.249   5.199   0.511  1.00 20.00     0.052 C 
HETATM    2  C2  UNL     1     -43.063   4.285  -0.406  1.00 20.00     0.274 C 
HETATM    3  C3  UNL     1     -40.971   4.535  -1.412  1.00 20.00     0.292 C 
HETATM    4  C4  UNL     1     -40.993   5.555  -0.283  1.00 20.00     0.112 C 
HETATM    5  N9  UNL     1     -42.396   4.367  -1.705  1.00 20.00     0.089 N 
HETATM    6 CL10 UNL     1     -41.113   7.216  -0.940  1.00 20.00    -0.123 Cl
ENDROOT
BRANCH   5   7
HETATM    7  C8  UNL     1     -42.663   3.212  -2.548  1.00 20.00     0.272 C 
BRANCH   7   8
HETATM    8  C7  UNL     1     -41.387   2.604  -3.123  1.00 20.00     0.030 C 
BRANCH   8   9
HETATM    9  C6  UNL     1     -41.670   1.567  -4.212  1.00 20.00    -0.003 C 
HETATM   10  C5  UNL     1     -42.174   0.261  -3.619  1.00 20.00     0.005 C 
ENDBRANCH   8   9
ENDBRANCH   7   8
ENDBRANCH   5   7
TORSDOF 3
ENDMDL
MODEL 9
REMARK VINA RESULT:      -3.6     11.599     12.700
REMARK  3 active torsions:
REMARK  status: ('A' for Active; 'I' for Inactive)
REMARK    1  A    between atoms: C6_6  and  C7_7 
REMARK    2  A    between atoms: C7_7  and  C8_8 
REMARK    3  A    between atoms: C8_8  and  N9_9 
ROOT
HETATM    1  C1  UNL     1     -35.865  15.386  -5.680  1.00 20.00     0.052 C 
HETATM    2  C2  UNL     1     -35.673  16.693  -4.911  1.00 20.00     0.274 C 
HETATM    3  C3  UNL     1     -33.655  15.530  -4.750  1.00 20.00     0.292 C 
HETATM    4  C4  UNL     1     -34.641  14.536  -5.348  1.00 20.00     0.112 C 
HETATM    5  N9  UNL     1     -34.539  16.441  -4.021  1.00 20.00     0.089 N 
HETATM    6 CL10 UNL     1     -35.058  13.269  -4.154  1.00 20.00    -0.123 Cl
ENDROOT
BRANCH   5   7
HETATM    7  C8  UNL     1     -33.867  17.663  -3.607  1.00 20.00     0.272 C 
BRANCH   7   8
HETATM    8  C7  UNL     1     -33.714  17.758  -2.092  1.00 20.00     0.030 C 
BRANCH   8   9
HETATM    9  C6  UNL     1     -34.463  16.646  -1.355  1.00 20.00    -0.003 C 
HETATM   10  C5  UNL     1     -34.871  17.083   0.043  1.00 20.00     0.005 C 
ENDBRANCH   8   9
ENDBRANCH   7   8
ENDBRANCH   5   7
TORSDOF 3
ENDMDL
