MODEL 1
REMARK VINA RESULT:      -4.3      0.000      0.000
REMARK  3 active torsions:
REMARK  status: ('A' for Active; 'I' for Inactive)
REMARK    1  A    between atoms: C7_7  and  C9_9 
REMARK    2  A    between atoms: C8_8  and  C9_9 
REMARK    3  A    between atoms: C8_8  and  N10_10 
ROOT
HETATM    1  C1  UNL     1     -34.207  13.490  -4.865  1.00 20.00     0.052 C 
HETATM    2  C2  UNL     1     -34.484  13.929  -3.438  1.00 20.00     0.274 C 
HETATM    3  C3  UNL     1     -35.622  15.465  -4.788  1.00 20.00     0.292 C 
HETATM    4  C4  UNL     1     -35.218  14.290  -5.681  1.00 20.00     0.112 C 
HETATM    5  N10 UNL     1     -34.743  15.357  -3.619  1.00 20.00     0.090 N 
HETATM    6 CL11 UNL     1     -34.529  14.819  -7.230  1.00 20.00    -0.123 Cl
ENDROOT
BRANCH   5   7
HETATM    7  C8  UNL     1     -35.310  15.978  -2.431  1.00 20.00     0.276 C 
BRANCH   7   8
HETATM    8  C9  UNL     1     -34.267  16.684  -1.552  1.00 20.00     0.009 C 
HETATM    9  C6  UNL     1     -33.727  17.939  -2.246  1.00 20.00     0.011 C 
BRANCH   8  10
HETATM   10  C7  UNL     1     -34.778  17.046  -0.145  1.00 20.00     0.001 C 
HETATM   11  C5  UNL     1     -33.979  18.153   0.529  1.00 20.00     0.005 C 
ENDBRANCH   8  10
ENDBRANCH   7   8
ENDBRANCH   5   7
TORSDOF 3
ENDMDL
MODEL 2
REMARK VINA RESULT:      -4.0      1.875      2.318
REMARK  3 active torsions:
REMARK  status: ('A' for Active; 'I' for Inactive)
REMARK    1  A    between atoms: C7_7  and  C9_9 
REMARK    2  A    between atoms: C8_8  and  C9_9 
REMARK    3  A    between atoms: C8_8  and  N10_10 
ROOT
HETATM    1  C1  UNL     1     -33.342  16.232  -4.907  1.00 20.00     0.052 C 
HETATM    2  C2  UNL     1     -33.638  17.460  -4.063  1.00 20.00     0.274 C 
HETATM    3  C3  UNL     1     -34.107  15.631  -2.679  1.00 20.00     0.292 C 
HETATM    4  C4  UNL     1     -33.332  15.098  -3.886  1.00 20.00     0.112 C 
HETATM    5  N10 UNL     1     -34.622  16.932  -3.119  1.00 20.00     0.090 N 
HETATM    6 CL11 UNL     1     -34.048  13.617  -4.553  1.00 20.00    -0.123 Cl
ENDROOT
BRANCH   5   7
HETATM    7  C8  UNL     1     -34.877  17.838  -2.010  1.00 20.00     0.276 C 
BRANCH   7   8
HETATM    8  C9  UNL     1     -34.139  17.451  -0.719  1.00 20.00     0.009 C 
HETATM    9  C6  UNL     1     -32.981  18.416  -0.442  1.00 20.00     0.011 C 
BRANCH   8  10
HETATM   10  C7  UNL     1     -35.051  17.362   0.519  1.00 20.00     0.001 C 
HETATM   11  C5  UNL     1     -34.571  18.205   1.692  1.00 20.00     0.005 C 
ENDBRANCH   8  10
ENDBRANCH   7   8
ENDBRANCH   5   7
TORSDOF 3
ENDMDL
MODEL 3
REMARK VINA RESULT:      -4.0      1.087      1.605
REMARK  3 active torsions:
REMARK  status: ('A' for Active; 'I' for Inactive)
REMARK    1  A    between atoms: C7_7  and  C9_9 
REMARK    2  A    between atoms: C8_8  and  C9_9 
REMARK    3  A    between atoms: C8_8  and  N10_10 
ROOT
HETATM    1  C1  UNL     1     -34.835  13.223  -5.004  1.00 20.00     0.052 C 
HETATM    2  C2  UNL     1     -34.174  13.765  -3.748  1.00 20.00     0.274 C 
HETATM    3  C3  UNL     1     -34.665  15.648  -5.051  1.00 20.00     0.292 C 
HETATM    4  C4  UNL     1     -35.432  14.468  -5.652  1.00 20.00     0.112 C 
HETATM    5  N10 UNL     1     -33.615  15.026  -4.236  1.00 20.00     0.090 N 
HETATM    6 CL11 UNL     1     -35.301  14.405  -7.422  1.00 20.00    -0.123 Cl
ENDROOT
BRANCH   5   7
HETATM    7  C8  UNL     1     -33.155  15.889  -3.159  1.00 20.00     0.276 C 
BRANCH   7   8
HETATM    8  C9  UNL     1     -34.243  16.831  -2.621  1.00 20.00     0.009 C 
HETATM    9  C6  UNL     1     -34.638  16.449  -1.190  1.00 20.00     0.011 C 
BRANCH   8  10
HETATM   10  C7  UNL     1     -33.862  18.322  -2.677  1.00 20.00     0.001 C 
HETATM   11  C5  UNL     1     -33.286  18.854  -1.372  1.00 20.00     0.005 C 
ENDBRANCH   8  10
ENDBRANCH   7   8
ENDBRANCH   5   7
TORSDOF 3
ENDMDL
MODEL 4
REMARK VINA RESULT:      -4.0      2.759      4.969
REMARK  3 active torsions:
REMARK  status: ('A' for Active; 'I' for Inactive)
REMARK    1  A    between atoms: C7_7  and  C9_9 
REMARK    2  A    between atoms: C8_8  and  C9_9 
REMARK    3  A    between atoms: C8_8  and  N10_10 
ROOT
HETATM    1  C1  UNL     1     -35.737  17.584  -2.326  1.00 20.00     0.052 C 
HETATM    2  C2  UNL     1     -35.398  17.156  -3.743  1.00 20.00     0.274 C 
HETATM    3  C3  UNL     1     -33.758  16.174  -2.391  1.00 20.00     0.292 C 
HETATM    4  C4  UNL     1     -34.871  16.669  -1.466  1.00 20.00     0.112 C 
HETATM    5  N10 UNL     1     -33.958  16.921  -3.638  1.00 20.00     0.090 N 
HETATM    6 CL11 UNL     1     -34.241  17.522  -0.041  1.00 20.00    -0.123 Cl
ENDROOT
BRANCH   5   7
HETATM    7  C8  UNL     1     -33.416  16.231  -4.799  1.00 20.00     0.276 C 
BRANCH   7   8
HETATM    8  C9  UNL     1     -34.469  15.438  -5.587  1.00 20.00     0.009 C 
HETATM    9  C6  UNL     1     -34.364  15.732  -7.088  1.00 20.00     0.011 C 
BRANCH   8  10
HETATM   10  C7  UNL     1     -34.415  13.917  -5.349  1.00 20.00     0.001 C 
HETATM   11  C5  UNL     1     -35.316  13.444  -4.217  1.00 20.00     0.005 C 
ENDBRANCH   8  10
ENDBRANCH   7   8
ENDBRANCH   5   7
TORSDOF 3
ENDMDL
MODEL 5
REMARK VINA RESULT:      -4.0      1.460      1.986
REMARK  3 active torsions:
REMARK  status: ('A' for Active; 'I' for Inactive)
REMARK    1  A    between atoms: C7_7  and  C9_9 
REMARK    2  A    between atoms: C8_8  and  C9_9 
REMARK    3  A    between atoms: C8_8  and  N10_10 
ROOT
HETATM    1  C1  UNL     1     -35.856  15.387  -4.814  1.00 20.00     0.052 C 
HETATM    2  C2  UNL     1     -35.604  16.722  -4.135  1.00 20.00     0.274 C 
HETATM    3  C3  UNL     1     -33.551  15.598  -4.071  1.00 20.00     0.292 C 
HETATM    4  C4  UNL     1     -34.451  14.842  -5.050  1.00 20.00     0.112 C 
HETATM    5  N10 UNL     1     -34.479  16.394  -3.260  1.00 20.00     0.090 N 
HETATM    6 CL11 UNL     1     -34.388  13.083  -4.811  1.00 20.00    -0.123 Cl
ENDROOT
BRANCH   5   7
HETATM    7  C8  UNL     1     -33.852  17.575  -2.687  1.00 20.00     0.276 C 
BRANCH   7   8
HETATM    8  C9  UNL     1     -33.580  17.455  -1.180  1.00 20.00     0.009 C 
HETATM    9  C6  UNL     1     -33.096  18.790  -0.603  1.00 20.00     0.011 C 
BRANCH   8  10
HETATM   10  C7  UNL     1     -34.784  16.942  -0.367  1.00 20.00     0.001 C 
HETATM   11  C5  UNL     1     -34.967  17.652   0.967  1.00 20.00     0.005 C 
ENDBRANCH   8  10
ENDBRANCH   7   8
ENDBRANCH   5   7
TORSDOF 3
ENDMDL
MODEL 6
REMARK VINA RESULT:      -3.9      3.093      5.546
REMARK  3 active torsions:
REMARK  status: ('A' for Active; 'I' for Inactive)
REMARK    1  A    between atoms: C7_7  and  C9_9 
REMARK    2  A    between atoms: C8_8  and  C9_9 
REMARK    3  A    between atoms: C8_8  and  N10_10 
ROOT
HETATM    1  C1  UNL     1     -33.388  18.977  -1.386  1.00 20.00     0.052 C 
HETATM    2  C2  UNL     1     -33.772  18.058  -2.533  1.00 20.00     0.274 C 
HETATM    3  C3  UNL     1     -34.518  16.974  -0.596  1.00 20.00     0.292 C 
HETATM    4  C4  UNL     1     -34.173  18.413  -0.206  1.00 20.00     0.112 C 
HETATM    5  N10 UNL     1     -33.810  16.758  -1.863  1.00 20.00     0.090 N 
HETATM    6 CL11 UNL     1     -33.237  18.502   1.300  1.00 20.00    -0.123 Cl
ENDROOT
BRANCH   5   7
HETATM    7  C8  UNL     1     -34.426  15.724  -2.680  1.00 20.00     0.276 C 
BRANCH   7   8
HETATM    8  C9  UNL     1     -33.520  15.217  -3.812  1.00 20.00     0.009 C 
HETATM    9  C6  UNL     1     -33.341  13.697  -3.730  1.00 20.00     0.011 C 
BRANCH   8  10
HETATM   10  C7  UNL     1     -34.001  15.610  -5.222  1.00 20.00     0.001 C 
HETATM   11  C5  UNL     1     -34.647  14.464  -5.987  1.00 20.00     0.005 C 
ENDBRANCH   8  10
ENDBRANCH   7   8
ENDBRANCH   5   7
TORSDOF 3
ENDMDL
MODEL 7
REMARK VINA RESULT:      -3.8      2.698      3.741
REMARK  3 active torsions:
REMARK  status: ('A' for Active; 'I' for Inactive)
REMARK    1  A    between atoms: C7_7  and  C9_9 
REMARK    2  A    between atoms: C8_8  and  C9_9 
REMARK    3  A    between atoms: C8_8  and  N10_10 
ROOT
HETATM    1  C1  UNL     1     -38.582  15.505  -5.569  1.00 20.00     0.052 C 
HETATM    2  C2  UNL     1     -37.132  15.401  -6.010  1.00 20.00     0.274 C 
HETATM    3  C3  UNL     1     -37.140  14.773  -3.754  1.00 20.00     0.292 C 
HETATM    4  C4  UNL     1     -38.595  14.779  -4.228  1.00 20.00     0.112 C 
HETATM    5  N10 UNL     1     -36.430  15.594  -4.741  1.00 20.00     0.090 N 
HETATM    6 CL11 UNL     1     -39.683  15.572  -3.070  1.00 20.00    -0.123 Cl
ENDROOT
BRANCH   5   7
HETATM    7  C8  UNL     1     -35.015  15.267  -4.829  1.00 20.00     0.276 C 
BRANCH   7   8
HETATM    8  C9  UNL     1     -34.392  14.871  -3.482  1.00 20.00     0.009 C 
HETATM    9  C6  UNL     1     -33.299  13.815  -3.674  1.00 20.00     0.011 C 
BRANCH   8  10
HETATM   10  C7  UNL     1     -33.833  16.061  -2.679  1.00 20.00     0.001 C 
HETATM   11  C5  UNL     1     -34.611  16.356  -1.403  1.00 20.00     0.005 C 
ENDBRANCH   8  10
ENDBRANCH   7   8
ENDBRANCH   5   7
TORSDOF 3
ENDMDL
MODEL 8
REMARK VINA RESULT:      -3.8      2.226      3.263
REMARK  3 active torsions:
REMARK  status: ('A' for Active; 'I' for Inactive)
REMARK    1  A    between atoms: C7_7  and  C9_9 
REMARK    2  A    between atoms: C8_8  and  C9_9 
REMARK    3  A    between atoms: C8_8  and  N10_10 
ROOT
HETATM    1  C1  UNL     1     -34.406  15.703  -2.537  1.00 20.00     0.052 C 
HETATM    2  C2  UNL     1     -34.569  16.536  -1.277  1.00 20.00     0.274 C 
HETATM    3  C3  UNL     1     -33.865  18.041  -2.927  1.00 20.00     0.292 C 
HETATM    4  C4  UNL     1     -34.282  16.751  -3.638  1.00 20.00     0.112 C 
HETATM    5  N10 UNL     1     -33.640  17.636  -1.535  1.00 20.00     0.090 N 
HETATM    6 CL11 UNL     1     -33.114  16.254  -4.881  1.00 20.00    -0.123 Cl
ENDROOT
BRANCH   5   7
HETATM    7  C8  UNL     1     -33.801  18.737  -0.598  1.00 20.00     0.276 C 
BRANCH   7   8
HETATM    8  C9  UNL     1     -33.191  18.458   0.784  1.00 20.00     0.009 C 
HETATM    9  C6  UNL     1     -31.866  19.207   0.958  1.00 20.00     0.011 C 
BRANCH   8  10
HETATM   10  C7  UNL     1     -34.133  18.785   1.960  1.00 20.00     0.001 C 
HETATM   11  C5  UNL     1     -35.207  17.731   2.192  1.00 20.00     0.005 C 
ENDBRANCH   8  10
ENDBRANCH   7   8
ENDBRANCH   5   7
TORSDOF 3
ENDMDL
MODEL 9
REMARK VINA RESULT:      -3.8      1.605      2.028
REMARK  3 active torsions:
REMARK  status: ('A' for Active; 'I' for Inactive)
REMARK    1  A    between atoms: C7_7  and  C9_9 
REMARK    2  A    between atoms: C8_8  and  C9_9 
REMARK    3  A    between atoms: C8_8  and  N10_10 
ROOT
HETATM    1  C1  UNL     1     -35.410  14.664  -7.157  1.00 20.00     0.052 C 
HETATM    2  C2  UNL     1     -34.778  14.180  -5.864  1.00 20.00     0.274 C 
HETATM    3  C3  UNL     1     -36.672  15.391  -5.211  1.00 20.00     0.292 C 
HETATM    4  C4  UNL     1     -36.789  15.144  -6.716  1.00 20.00     0.112 C 
HETATM    5  N10 UNL     1     -35.250  15.189  -4.915  1.00 20.00     0.090 N 
HETATM    6 CL11 UNL     1     -37.286  16.598  -7.606  1.00 20.00    -0.123 Cl
ENDROOT
BRANCH   5   7
HETATM    7  C8  UNL     1     -35.012  14.811  -3.531  1.00 20.00     0.276 C 
BRANCH   7   8
HETATM    8  C9  UNL     1     -34.088  15.781  -2.780  1.00 20.00     0.009 C 
HETATM    9  C6  UNL     1     -33.684  16.955  -3.678  1.00 20.00     0.011 C 
BRANCH   8  10
HETATM   10  C7  UNL     1     -34.679  16.313  -1.461  1.00 20.00     0.001 C 
HETATM   11  C5  UNL     1     -33.860  17.433  -0.833  1.00 20.00     0.005 C 
ENDBRANCH   8  10
ENDBRANCH   7   8
ENDBRANCH   5   7
TORSDOF 3
ENDMDL
