MODEL 1
REMARK VINA RESULT:      -4.1      0.000      0.000
REMARK  1 active torsions:
REMARK  status: ('A' for Active; 'I' for Inactive)
REMARK    1  A    between atoms: C3_3  and  N9_9 
ROOT
HETATM    1  C4  UNL     1     -34.798  13.287  -4.616  1.00 20.00     0.041 C 
HETATM    2  C5  UNL     1     -33.979  14.114  -3.624  1.00 20.00     0.126 C 
HETATM    3  C6  UNL     1     -35.765  15.473  -4.538  1.00 20.00     0.145 C 
HETATM    4  C7  UNL     1     -35.461  14.330  -5.508  1.00 20.00     0.102 C 
HETATM    5  N9  UNL     1     -34.712  15.375  -3.527  1.00 20.00    -0.358 N 
HETATM    6 CL11 UNL     1     -34.333  14.873  -6.786  1.00 20.00    -0.123 Cl
ENDROOT
BRANCH   5   7
HETATM    7  C3  UNL     1     -34.458  16.342  -2.578  1.00 20.00     0.168 A 
HETATM    8  N8  UNL     1     -34.620  16.169  -1.284  1.00 20.00    -0.236 NA
HETATM    9  C1  UNL     1     -34.276  17.336  -0.632  1.00 20.00     0.126 A 
HETATM   10  C2  UNL     1     -33.860  18.377  -1.437  1.00 20.00     0.072 A 
HETATM   11  S10 UNL     1     -33.895  17.882  -3.078  1.00 20.00    -0.063 SA
ENDBRANCH   5   7
TORSDOF 1
ENDMDL
MODEL 2
REMARK VINA RESULT:      -3.9      2.816      4.415
REMARK  1 active torsions:
REMARK  status: ('A' for Active; 'I' for Inactive)
REMARK    1  A    between atoms: C3_3  and  N9_9 
ROOT
HETATM    1  C4  UNL     1     -34.471  15.943  -2.147  1.00 20.00     0.041 C 
HETATM    2  C5  UNL     1     -35.811  16.359  -2.756  1.00 20.00     0.126 C 
HETATM    3  C6  UNL     1     -35.051  14.302  -3.787  1.00 20.00     0.145 C 
HETATM    4  C7  UNL     1     -33.846  15.045  -3.208  1.00 20.00     0.102 C 
HETATM    5  N9  UNL     1     -36.161  15.244  -3.633  1.00 20.00    -0.358 N 
HETATM    6 CL11 UNL     1     -33.047  16.026  -4.472  1.00 20.00    -0.123 Cl
ENDROOT
BRANCH   5   7
HETATM    7  C3  UNL     1     -37.398  15.085  -4.220  1.00 20.00     0.168 A 
HETATM    8  N8  UNL     1     -38.405  14.448  -3.664  1.00 20.00    -0.236 NA
HETATM    9  C1  UNL     1     -39.483  14.480  -4.526  1.00 20.00     0.126 A 
HETATM   10  C2  UNL     1     -39.281  15.138  -5.721  1.00 20.00     0.072 A 
HETATM   11  S10 UNL     1     -37.679  15.747  -5.777  1.00 20.00    -0.063 SA
ENDBRANCH   5   7
TORSDOF 1
ENDMDL
MODEL 3
REMARK VINA RESULT:      -3.9      3.257      4.701
REMARK  1 active torsions:
REMARK  status: ('A' for Active; 'I' for Inactive)
REMARK    1  A    between atoms: C3_3  and  N9_9 
ROOT
HETATM    1  C4  UNL     1     -33.488  13.795  -3.701  1.00 20.00     0.041 C 
HETATM    2  C5  UNL     1     -34.931  13.682  -4.193  1.00 20.00     0.126 C 
HETATM    3  C6  UNL     1     -33.924  15.697  -5.084  1.00 20.00     0.145 C 
HETATM    4  C7  UNL     1     -33.174  15.282  -3.817  1.00 20.00     0.102 C 
HETATM    5  N9  UNL     1     -35.071  14.790  -5.134  1.00 20.00    -0.358 N 
HETATM    6 CL11 UNL     1     -33.800  16.169  -2.396  1.00 20.00    -0.123 Cl
ENDROOT
BRANCH   5   7
HETATM    7  C3  UNL     1     -36.143  14.945  -5.987  1.00 20.00     0.168 A 
HETATM    8  N8  UNL     1     -37.348  15.307  -5.604  1.00 20.00    -0.236 NA
HETATM    9  C1  UNL     1     -38.170  15.361  -6.711  1.00 20.00     0.126 A 
HETATM   10  C2  UNL     1     -37.581  15.041  -7.917  1.00 20.00     0.072 A 
HETATM   11  S10 UNL     1     -35.929  14.657  -7.665  1.00 20.00    -0.063 SA
ENDBRANCH   5   7
TORSDOF 1
ENDMDL
MODEL 4
REMARK VINA RESULT:      -3.8      2.432      4.501
REMARK  1 active torsions:
REMARK  status: ('A' for Active; 'I' for Inactive)
REMARK    1  A    between atoms: C3_3  and  N9_9 
ROOT
HETATM    1  C4  UNL     1     -33.859  17.555  -0.939  1.00 20.00     0.041 C 
HETATM    2  C5  UNL     1     -34.474  16.268  -1.489  1.00 20.00     0.126 C 
HETATM    3  C6  UNL     1     -33.749  17.673  -3.325  1.00 20.00     0.145 C 
HETATM    4  C7  UNL     1     -33.983  18.545  -2.090  1.00 20.00     0.102 C 
HETATM    5  N9  UNL     1     -34.240  16.353  -2.929  1.00 20.00    -0.358 N 
HETATM    6 CL11 UNL     1     -35.620  19.263  -2.129  1.00 20.00    -0.123 Cl
ENDROOT
BRANCH   5   7
HETATM    7  C3  UNL     1     -34.433  15.305  -3.803  1.00 20.00     0.168 A 
HETATM    8  N8  UNL     1     -34.444  14.038  -3.450  1.00 20.00    -0.236 NA
HETATM    9  C1  UNL     1     -34.660  13.264  -4.572  1.00 20.00     0.126 A 
HETATM   10  C2  UNL     1     -34.808  13.951  -5.760  1.00 20.00     0.072 A 
HETATM   11  S10 UNL     1     -34.677  15.635  -5.469  1.00 20.00    -0.063 SA
ENDBRANCH   5   7
TORSDOF 1
ENDMDL
MODEL 5
REMARK VINA RESULT:      -3.8     13.165     14.628
REMARK  1 active torsions:
REMARK  status: ('A' for Active; 'I' for Inactive)
REMARK    1  A    between atoms: C3_3  and  N9_9 
ROOT
HETATM    1  C4  UNL     1     -40.793   6.257  -0.765  1.00 20.00     0.041 C 
HETATM    2  C5  UNL     1     -40.997   4.741  -0.762  1.00 20.00     0.126 C 
HETATM    3  C6  UNL     1     -42.248   5.728  -2.588  1.00 20.00     0.145 C 
HETATM    4  C7  UNL     1     -42.007   6.792  -1.516  1.00 20.00     0.102 C 
HETATM    5  N9  UNL     1     -41.770   4.487  -1.975  1.00 20.00    -0.358 N 
HETATM    6 CL11 UNL     1     -43.417   6.915  -0.424  1.00 20.00    -0.123 Cl
ENDROOT
BRANCH   5   7
HETATM    7  C3  UNL     1     -41.997   3.231  -2.495  1.00 20.00     0.168 A 
HETATM    8  N8  UNL     1     -41.188   2.618  -3.331  1.00 20.00    -0.236 NA
HETATM    9  C1  UNL     1     -41.721   1.385  -3.646  1.00 20.00     0.126 A 
HETATM   10  C2  UNL     1     -42.925   1.078  -3.046  1.00 20.00     0.072 A 
HETATM   11  S10 UNL     1     -43.416   2.379  -2.044  1.00 20.00    -0.063 SA
ENDBRANCH   5   7
TORSDOF 1
ENDMDL
MODEL 6
REMARK VINA RESULT:      -3.8      3.139      4.503
REMARK  1 active torsions:
REMARK  status: ('A' for Active; 'I' for Inactive)
REMARK    1  A    between atoms: C3_3  and  N9_9 
ROOT
HETATM    1  C4  UNL     1     -33.693  15.255  -3.239  1.00 20.00     0.041 C 
HETATM    2  C5  UNL     1     -35.009  14.512  -3.471  1.00 20.00     0.126 C 
HETATM    3  C6  UNL     1     -35.412  16.901  -3.464  1.00 20.00     0.145 C 
HETATM    4  C7  UNL     1     -34.125  16.610  -2.692  1.00 20.00     0.102 C 
HETATM    5  N9  UNL     1     -35.973  15.578  -3.739  1.00 20.00    -0.358 N 
HETATM    6 CL11 UNL     1     -34.454  16.504  -0.938  1.00 20.00    -0.123 Cl
ENDROOT
BRANCH   5   7
HETATM    7  C3  UNL     1     -37.246  15.361  -4.221  1.00 20.00     0.168 A 
HETATM    8  N8  UNL     1     -38.071  14.452  -3.750  1.00 20.00    -0.236 NA
HETATM    9  C1  UNL     1     -39.252  14.509  -4.462  1.00 20.00     0.126 A 
HETATM   10  C2  UNL     1     -39.308  15.459  -5.461  1.00 20.00     0.072 A 
HETATM   11  S10 UNL     1     -37.827  16.321  -5.518  1.00 20.00    -0.063 SA
ENDBRANCH   5   7
TORSDOF 1
ENDMDL
MODEL 7
REMARK VINA RESULT:      -3.8      2.677      3.972
REMARK  1 active torsions:
REMARK  status: ('A' for Active; 'I' for Inactive)
REMARK    1  A    between atoms: C3_3  and  N9_9 
ROOT
HETATM    1  C4  UNL     1     -33.407  16.127  -4.685  1.00 20.00     0.041 C 
HETATM    2  C5  UNL     1     -34.809  15.838  -5.223  1.00 20.00     0.126 C 
HETATM    3  C6  UNL     1     -34.777  15.517  -2.822  1.00 20.00     0.145 C 
HETATM    4  C7  UNL     1     -33.355  15.367  -3.365  1.00 20.00     0.102 C 
HETATM    5  N9  UNL     1     -35.610  15.616  -4.021  1.00 20.00    -0.358 N 
HETATM    6 CL11 UNL     1     -32.967  13.644  -3.645  1.00 20.00    -0.123 Cl
ENDROOT
BRANCH   5   7
HETATM    7  C3  UNL     1     -36.986  15.540  -4.016  1.00 20.00     0.168 A 
HETATM    8  N8  UNL     1     -37.665  14.425  -3.854  1.00 20.00    -0.236 NA
HETATM    9  C1  UNL     1     -39.014  14.713  -3.905  1.00 20.00     0.126 A 
HETATM   10  C2  UNL     1     -39.341  16.039  -4.104  1.00 20.00     0.072 A 
HETATM   11  S10 UNL     1     -37.907  16.970  -4.232  1.00 20.00    -0.063 SA
ENDBRANCH   5   7
TORSDOF 1
ENDMDL
MODEL 8
REMARK VINA RESULT:      -3.8      2.759      4.796
REMARK  1 active torsions:
REMARK  status: ('A' for Active; 'I' for Inactive)
REMARK    1  A    between atoms: C3_3  and  N9_9 
ROOT
HETATM    1  C4  UNL     1     -34.890  18.859  -1.810  1.00 20.00     0.041 C 
HETATM    2  C5  UNL     1     -34.539  17.928  -2.971  1.00 20.00     0.126 C 
HETATM    3  C6  UNL     1     -34.711  16.646  -0.922  1.00 20.00     0.145 C 
HETATM    4  C7  UNL     1     -34.413  18.105  -0.574  1.00 20.00     0.102 C 
HETATM    5  N9  UNL     1     -34.589  16.593  -2.379  1.00 20.00    -0.358 N 
HETATM    6 CL11 UNL     1     -32.659  18.347  -0.328  1.00 20.00    -0.123 Cl
ENDROOT
BRANCH   5   7
HETATM    7  C3  UNL     1     -34.555  15.425  -3.111  1.00 20.00     0.168 A 
HETATM    8  N8  UNL     1     -33.456  14.764  -3.400  1.00 20.00    -0.236 NA
HETATM    9  C1  UNL     1     -33.787  13.649  -4.143  1.00 20.00     0.126 A 
HETATM   10  C2  UNL     1     -35.130  13.478  -4.408  1.00 20.00     0.072 A 
HETATM   11  S10 UNL     1     -36.022  14.760  -3.701  1.00 20.00    -0.063 SA
ENDBRANCH   5   7
TORSDOF 1
ENDMDL
MODEL 9
REMARK VINA RESULT:      -3.8      1.412      1.863
REMARK  1 active torsions:
REMARK  status: ('A' for Active; 'I' for Inactive)
REMARK    1  A    between atoms: C3_3  and  N9_9 
ROOT
HETATM    1  C4  UNL     1     -34.788  15.634  -5.444  1.00 20.00     0.041 C 
HETATM    2  C5  UNL     1     -35.316  16.461  -4.272  1.00 20.00     0.126 C 
HETATM    3  C6  UNL     1     -33.404  15.159  -3.553  1.00 20.00     0.145 C 
HETATM    4  C7  UNL     1     -34.030  14.492  -4.779  1.00 20.00     0.102 C 
HETATM    5  N9  UNL     1     -34.342  16.228  -3.208  1.00 20.00    -0.358 N 
HETATM    6 CL11 UNL     1     -35.155  13.194  -4.282  1.00 20.00    -0.123 Cl
ENDROOT
BRANCH   5   7
HETATM    7  C3  UNL     1     -34.297  16.948  -2.034  1.00 20.00     0.168 A 
HETATM    8  N8  UNL     1     -34.680  16.485  -0.865  1.00 20.00    -0.236 NA
HETATM    9  C1  UNL     1     -34.500  17.468   0.086  1.00 20.00     0.126 A 
HETATM   10  C2  UNL     1     -33.984  18.663  -0.372  1.00 20.00     0.072 A 
HETATM   11  S10 UNL     1     -33.707  18.559  -2.060  1.00 20.00    -0.063 SA
ENDBRANCH   5   7
TORSDOF 1
ENDMDL
