MODEL 1
REMARK VINA RESULT:      -4.2      0.000      0.000
REMARK  2 active torsions:
REMARK  status: ('A' for Active; 'I' for Inactive)
REMARK    1  A    between atoms: C6_6  and  C8_8 
REMARK    2  A    between atoms: C8_8  and  N9_9 
ROOT
HETATM    1  C3  UNL     1     -34.317  14.096  -4.508  1.00 20.00     0.052 C 
HETATM    2  C4  UNL     1     -33.135  14.795  -3.839  1.00 20.00     0.274 C 
HETATM    3  C5  UNL     1     -33.774  16.178  -5.596  1.00 20.00     0.292 C 
HETATM    4  C7  UNL     1     -34.844  15.097  -5.529  1.00 20.00     0.112 C 
HETATM    5  N9  UNL     1     -33.184  16.207  -4.248  1.00 20.00     0.090 N 
HETATM    6 CL10 UNL     1     -35.142  14.360  -7.113  1.00 20.00    -0.123 Cl
ENDROOT
BRANCH   5   7
HETATM    7  C8  UNL     1     -33.985  17.004  -3.319  1.00 20.00     0.277 C 
BRANCH   7   8
HETATM    8  C6  UNL     1     -33.696  16.634  -1.904  1.00 20.00     0.014 A 
HETATM    9  C1  UNL     1     -33.679  17.690  -0.834  1.00 20.00     0.007 A 
HETATM   10  C2  UNL     1     -34.788  16.676  -0.872  1.00 20.00     0.007 A 
ENDBRANCH   7   8
ENDBRANCH   5   7
TORSDOF 2
ENDMDL
MODEL 2
REMARK VINA RESULT:      -4.1      1.638      2.316
REMARK  2 active torsions:
REMARK  status: ('A' for Active; 'I' for Inactive)
REMARK    1  A    between atoms: C6_6  and  C8_8 
REMARK    2  A    between atoms: C8_8  and  N9_9 
ROOT
HETATM    1  C3  UNL     1     -33.100  15.298  -3.833  1.00 20.00     0.052 C 
HETATM    2  C4  UNL     1     -33.665  16.664  -3.447  1.00 20.00     0.274 C 
HETATM    3  C5  UNL     1     -35.435  15.170  -3.248  1.00 20.00     0.292 C 
HETATM    4  C7  UNL     1     -34.212  14.305  -3.516  1.00 20.00     0.112 C 
HETATM    5  N9  UNL     1     -34.898  16.418  -2.684  1.00 20.00     0.090 N 
HETATM    6 CL10 UNL     1     -34.490  13.151  -4.832  1.00 20.00    -0.123 Cl
ENDROOT
BRANCH   5   7
HETATM    7  C8  UNL     1     -34.623  16.296  -1.252  1.00 20.00     0.277 C 
BRANCH   7   8
HETATM    8  C6  UNL     1     -34.917  17.570  -0.536  1.00 20.00     0.014 A 
HETATM    9  C1  UNL     1     -35.166  17.566   0.947  1.00 20.00     0.007 A 
HETATM   10  C2  UNL     1     -33.901  18.165   0.398  1.00 20.00     0.007 A 
ENDBRANCH   7   8
ENDBRANCH   5   7
TORSDOF 2
ENDMDL
MODEL 3
REMARK VINA RESULT:      -4.0      1.481      1.872
REMARK  2 active torsions:
REMARK  status: ('A' for Active; 'I' for Inactive)
REMARK    1  A    between atoms: C6_6  and  C8_8 
REMARK    2  A    between atoms: C8_8  and  N9_9 
ROOT
HETATM    1  C3  UNL     1     -36.443  15.037  -5.471  1.00 20.00     0.052 C 
HETATM    2  C4  UNL     1     -36.536  14.433  -4.071  1.00 20.00     0.274 C 
HETATM    3  C5  UNL     1     -34.280  14.873  -4.420  1.00 20.00     0.292 C 
HETATM    4  C7  UNL     1     -34.996  15.494  -5.611  1.00 20.00     0.112 C 
HETATM    5  N9  UNL     1     -35.300  14.801  -3.363  1.00 20.00     0.090 N 
HETATM    6 CL10 UNL     1     -34.273  15.001  -7.153  1.00 20.00    -0.123 Cl
ENDROOT
BRANCH   5   7
HETATM    7  C8  UNL     1     -35.447  16.075  -2.659  1.00 20.00     0.277 C 
BRANCH   7   8
HETATM    8  C6  UNL     1     -34.462  16.191  -1.546  1.00 20.00     0.014 A 
HETATM    9  C1  UNL     1     -33.727  17.483  -1.317  1.00 20.00     0.007 A 
HETATM   10  C2  UNL     1     -34.778  17.033  -0.341  1.00 20.00     0.007 A 
ENDBRANCH   7   8
ENDBRANCH   5   7
TORSDOF 2
ENDMDL
MODEL 4
REMARK VINA RESULT:      -3.9      2.640      4.639
REMARK  2 active torsions:
REMARK  status: ('A' for Active; 'I' for Inactive)
REMARK    1  A    between atoms: C6_6  and  C8_8 
REMARK    2  A    between atoms: C8_8  and  N9_9 
ROOT
HETATM    1  C3  UNL     1     -33.230  15.190  -3.425  1.00 20.00     0.052 C 
HETATM    2  C4  UNL     1     -34.102  13.997  -3.814  1.00 20.00     0.274 C 
HETATM    3  C5  UNL     1     -35.539  15.531  -2.819  1.00 20.00     0.292 C 
HETATM    4  C7  UNL     1     -34.208  16.259  -2.951  1.00 20.00     0.112 C 
HETATM    5  N9  UNL     1     -35.493  14.474  -3.842  1.00 20.00     0.090 N 
HETATM    6 CL10 UNL     1     -33.709  17.012  -1.427  1.00 20.00    -0.123 Cl
ENDROOT
BRANCH   5   7
HETATM    7  C8  UNL     1     -35.858  14.979  -5.165  1.00 20.00     0.277 C 
BRANCH   7   8
HETATM    8  C6  UNL     1     -35.033  14.341  -6.231  1.00 20.00     0.014 A 
HETATM    9  C1  UNL     1     -35.484  14.384  -7.665  1.00 20.00     0.007 A 
HETATM   10  C2  UNL     1     -34.294  15.191  -7.226  1.00 20.00     0.007 A 
ENDBRANCH   7   8
ENDBRANCH   5   7
TORSDOF 2
ENDMDL
MODEL 5
REMARK VINA RESULT:      -3.8      2.529      4.712
REMARK  2 active torsions:
REMARK  status: ('A' for Active; 'I' for Inactive)
REMARK    1  A    between atoms: C6_6  and  C8_8 
REMARK    2  A    between atoms: C8_8  and  N9_9 
ROOT
HETATM    1  C3  UNL     1     -33.884  17.116  -3.505  1.00 20.00     0.052 C 
HETATM    2  C4  UNL     1     -33.164  16.207  -4.500  1.00 20.00     0.274 C 
HETATM    3  C5  UNL     1     -34.260  14.784  -3.024  1.00 20.00     0.292 C 
HETATM    4  C7  UNL     1     -34.747  16.182  -2.666  1.00 20.00     0.112 C 
HETATM    5  N9  UNL     1     -33.810  14.888  -4.420  1.00 20.00     0.090 N 
HETATM    6 CL10 UNL     1     -34.613  16.507  -0.929  1.00 20.00    -0.123 Cl
ENDROOT
BRANCH   5   7
HETATM    7  C8  UNL     1     -34.925  14.782  -5.362  1.00 20.00     0.277 C 
BRANCH   7   8
HETATM    8  C6  UNL     1     -34.459  14.952  -6.768  1.00 20.00     0.014 A 
HETATM    9  C1  UNL     1     -35.366  14.598  -7.914  1.00 20.00     0.007 A 
HETATM   10  C2  UNL     1     -35.040  16.037  -7.631  1.00 20.00     0.007 A 
ENDBRANCH   7   8
ENDBRANCH   5   7
TORSDOF 2
ENDMDL
MODEL 6
REMARK VINA RESULT:      -3.7      3.007      4.625
REMARK  2 active torsions:
REMARK  status: ('A' for Active; 'I' for Inactive)
REMARK    1  A    between atoms: C6_6  and  C8_8 
REMARK    2  A    between atoms: C8_8  and  N9_9 
ROOT
HETATM    1  C3  UNL     1     -34.695  16.633  -0.806  1.00 20.00     0.052 C 
HETATM    2  C4  UNL     1     -35.438  16.615  -2.141  1.00 20.00     0.274 C 
HETATM    3  C5  UNL     1     -33.756  18.203  -2.377  1.00 20.00     0.292 C 
HETATM    4  C7  UNL     1     -33.486  17.532  -1.037  1.00 20.00     0.112 C 
HETATM    5  N9  UNL     1     -34.543  17.220  -3.139  1.00 20.00     0.090 N 
HETATM    6 CL10 UNL     1     -33.257  18.714   0.263  1.00 20.00    -0.123 Cl
ENDROOT
BRANCH   5   7
HETATM    7  C8  UNL     1     -33.691  16.213  -3.772  1.00 20.00     0.277 C 
BRANCH   7   8
HETATM    8  C6  UNL     1     -34.337  14.869  -3.747  1.00 20.00     0.014 A 
HETATM    9  C1  UNL     1     -34.362  14.017  -4.985  1.00 20.00     0.007 A 
HETATM   10  C2  UNL     1     -33.497  13.624  -3.820  1.00 20.00     0.007 A 
ENDBRANCH   7   8
ENDBRANCH   5   7
TORSDOF 2
ENDMDL
MODEL 7
REMARK VINA RESULT:      -3.7     11.908     12.696
REMARK  2 active torsions:
REMARK  status: ('A' for Active; 'I' for Inactive)
REMARK    1  A    between atoms: C6_6  and  C8_8 
REMARK    2  A    between atoms: C8_8  and  N9_9 
ROOT
HETATM    1  C3  UNL     1     -35.138   4.692   4.013  1.00 20.00     0.052 C 
HETATM    2  C4  UNL     1     -34.998   5.979   3.201  1.00 20.00     0.274 C 
HETATM    3  C5  UNL     1     -33.968   6.404   5.243  1.00 20.00     0.292 C 
HETATM    4  C7  UNL     1     -34.299   4.918   5.264  1.00 20.00     0.112 C 
HETATM    5  N9  UNL     1     -33.910   6.756   3.815  1.00 20.00     0.090 N 
HETATM    6 CL10 UNL     1     -35.148   4.448   6.748  1.00 20.00    -0.123 Cl
ENDROOT
BRANCH   5   7
HETATM    7  C8  UNL     1     -32.615   6.420   3.223  1.00 20.00     0.277 C 
BRANCH   7   8
HETATM    8  C6  UNL     1     -31.871   7.649   2.822  1.00 20.00     0.014 A 
HETATM    9  C1  UNL     1     -31.781   8.040   1.373  1.00 20.00     0.007 A 
HETATM   10  C2  UNL     1     -32.616   8.854   2.322  1.00 20.00     0.007 A 
ENDBRANCH   7   8
ENDBRANCH   5   7
TORSDOF 2
ENDMDL
MODEL 8
REMARK VINA RESULT:      -3.6     13.446     15.033
REMARK  2 active torsions:
REMARK  status: ('A' for Active; 'I' for Inactive)
REMARK    1  A    between atoms: C6_6  and  C8_8 
REMARK    2  A    between atoms: C8_8  and  N9_9 
ROOT
HETATM    1  C3  UNL     1     -41.704   5.048  -0.038  1.00 20.00     0.052 C 
HETATM    2  C4  UNL     1     -42.728   4.103  -0.665  1.00 20.00     0.274 C 
HETATM    3  C5  UNL     1     -42.119   5.584  -2.352  1.00 20.00     0.292 C 
HETATM    4  C7  UNL     1     -41.175   5.886  -1.196  1.00 20.00     0.112 C 
HETATM    5  N9  UNL     1     -42.562   4.199  -2.124  1.00 20.00     0.090 N 
HETATM    6 CL10 UNL     1     -41.123   7.616  -0.816  1.00 20.00    -0.123 Cl
ENDROOT
BRANCH   5   7
HETATM    7  C8  UNL     1     -41.587   3.226  -2.616  1.00 20.00     0.277 C 
BRANCH   7   8
HETATM    8  C6  UNL     1     -42.210   2.285  -3.590  1.00 20.00     0.014 A 
HETATM    9  C1  UNL     1     -41.495   1.024  -3.988  1.00 20.00     0.007 A 
HETATM   10  C2  UNL     1     -42.727   0.951  -3.129  1.00 20.00     0.007 A 
ENDBRANCH   7   8
ENDBRANCH   5   7
TORSDOF 2
ENDMDL
MODEL 9
REMARK VINA RESULT:      -3.5     12.975     14.541
REMARK  2 active torsions:
REMARK  status: ('A' for Active; 'I' for Inactive)
REMARK    1  A    between atoms: C6_6  and  C8_8 
REMARK    2  A    between atoms: C8_8  and  N9_9 
ROOT
HETATM    1  C3  UNL     1     -41.100   6.732  -1.122  1.00 20.00     0.052 C 
HETATM    2  C4  UNL     1     -40.912   5.239  -0.862  1.00 20.00     0.274 C 
HETATM    3  C5  UNL     1     -43.208   5.568  -1.021  1.00 20.00     0.292 C 
HETATM    4  C7  UNL     1     -42.586   6.901  -1.413  1.00 20.00     0.112 C 
HETATM    5  N9  UNL     1     -42.156   4.572  -1.276  1.00 20.00     0.090 N 
HETATM    6 CL10 UNL     1     -43.305   8.256  -0.524  1.00 20.00    -0.123 Cl
ENDROOT
BRANCH   5   7
HETATM    7  C8  UNL     1     -42.107   4.178  -2.684  1.00 20.00     0.277 C 
BRANCH   7   8
HETATM    8  C6  UNL     1     -42.260   2.703  -2.836  1.00 20.00     0.014 A 
HETATM    9  C1  UNL     1     -42.785   2.124  -4.121  1.00 20.00     0.007 A 
HETATM   10  C2  UNL     1     -41.341   1.937  -3.747  1.00 20.00     0.007 A 
ENDBRANCH   7   8
ENDBRANCH   5   7
TORSDOF 2
ENDMDL
