MODEL 1
REMARK VINA RESULT:      -4.6      0.000      0.000
REMARK  2 active torsions:
REMARK  status: ('A' for Active; 'I' for Inactive)
REMARK    1  A    between atoms: C3_3  and  C6_6 
REMARK    2  A    between atoms: C5_5  and  C6_6 
ROOT
HETATM    1  C6  UNL     1     -34.205   6.323   4.719  1.00 20.00     0.086 C 
HETATM    2 CL7  UNL     1     -33.949   6.659   6.459  1.00 20.00    -0.125 Cl
ENDROOT
BRANCH   1   3
HETATM    3  C3  UNL     1     -32.862   6.174   4.065  1.00 20.00     0.004 A 
HETATM    4  C1  UNL     1     -32.763   5.883   2.594  1.00 20.00     0.006 A 
HETATM    5  C2  UNL     1     -32.358   7.230   3.122  1.00 20.00     0.006 A 
ENDBRANCH   1   3
BRANCH   1   6
HETATM    6  C5  UNL     1     -35.070   5.074   4.521  1.00 20.00     0.016 C 
HETATM    7  C4  UNL     1     -34.929   4.052   5.641  1.00 20.00     0.006 C 
ENDBRANCH   1   6
TORSDOF 2
ENDMDL
MODEL 2
REMARK VINA RESULT:      -4.4      0.821      3.149
REMARK  2 active torsions:
REMARK  status: ('A' for Active; 'I' for Inactive)
REMARK    1  A    between atoms: C3_3  and  C6_6 
REMARK    2  A    between atoms: C5_5  and  C6_6 
ROOT
HETATM    1  C6  UNL     1     -33.585   6.076   5.366  1.00 20.00     0.086 C 
HETATM    2 CL7  UNL     1     -33.467   7.288   6.678  1.00 20.00    -0.125 Cl
ENDROOT
BRANCH   1   3
HETATM    3  C3  UNL     1     -34.877   5.328   5.531  1.00 20.00     0.004 A 
HETATM    4  C1  UNL     1     -35.317   4.337   4.490  1.00 20.00     0.006 A 
HETATM    5  C2  UNL     1     -34.866   3.857   5.841  1.00 20.00     0.006 A 
ENDBRANCH   1   3
BRANCH   1   6
HETATM    6  C5  UNL     1     -33.492   6.742   3.989  1.00 20.00     0.016 C 
HETATM    7  C4  UNL     1     -32.317   6.252   3.155  1.00 20.00     0.006 C 
ENDBRANCH   1   6
TORSDOF 2
ENDMDL
MODEL 3
REMARK VINA RESULT:      -4.4      1.869      3.771
REMARK  2 active torsions:
REMARK  status: ('A' for Active; 'I' for Inactive)
REMARK    1  A    between atoms: C3_3  and  C6_6 
REMARK    2  A    between atoms: C5_5  and  C6_6 
ROOT
HETATM    1  C6  UNL     1     -33.692   6.255   3.835  1.00 20.00     0.086 C 
HETATM    2 CL7  UNL     1     -34.363   5.212   2.544  1.00 20.00    -0.125 Cl
ENDROOT
BRANCH   1   3
HETATM    3  C3  UNL     1     -33.736   5.493   5.128  1.00 20.00     0.004 A 
HETATM    4  C1  UNL     1     -34.263   6.146   6.375  1.00 20.00     0.006 A 
HETATM    5  C2  UNL     1     -35.055   5.058   5.705  1.00 20.00     0.006 A 
ENDBRANCH   1   3
BRANCH   1   6
HETATM    6  C5  UNL     1     -32.266   6.704   3.496  1.00 20.00     0.016 C 
HETATM    7  C4  UNL     1     -32.210   7.818   2.460  1.00 20.00     0.006 C 
ENDBRANCH   1   6
TORSDOF 2
ENDMDL
MODEL 4
REMARK VINA RESULT:      -4.2      1.864      2.405
REMARK  2 active torsions:
REMARK  status: ('A' for Active; 'I' for Inactive)
REMARK    1  A    between atoms: C3_3  and  C6_6 
REMARK    2  A    between atoms: C5_5  and  C6_6 
ROOT
HETATM    1  C6  UNL     1     -34.078   5.247   5.291  1.00 20.00     0.086 C 
HETATM    2 CL7  UNL     1     -35.152   3.817   5.208  1.00 20.00    -0.125 Cl
ENDROOT
BRANCH   1   3
HETATM    3  C3  UNL     1     -34.238   6.031   4.021  1.00 20.00     0.004 A 
HETATM    4  C1  UNL     1     -33.028   6.503   3.264  1.00 20.00     0.006 A 
HETATM    5  C2  UNL     1     -33.888   5.408   2.698  1.00 20.00     0.006 A 
ENDBRANCH   1   3
BRANCH   1   6
HETATM    6  C5  UNL     1     -34.393   6.102   6.523  1.00 20.00     0.016 C 
HETATM    7  C4  UNL     1     -33.417   7.252   6.731  1.00 20.00     0.006 C 
ENDBRANCH   1   6
TORSDOF 2
ENDMDL
MODEL 5
REMARK VINA RESULT:      -4.0      1.660      1.871
REMARK  2 active torsions:
REMARK  status: ('A' for Active; 'I' for Inactive)
REMARK    1  A    between atoms: C3_3  and  C6_6 
REMARK    2  A    between atoms: C5_5  and  C6_6 
ROOT
HETATM    1  C6  UNL     1     -33.931   5.763   4.255  1.00 20.00     0.086 C 
HETATM    2 CL7  UNL     1     -35.544   5.462   3.538  1.00 20.00    -0.125 Cl
ENDROOT
BRANCH   1   3
HETATM    3  C3  UNL     1     -33.279   6.882   3.496  1.00 20.00     0.004 A 
HETATM    4  C1  UNL     1     -31.857   7.269   3.788  1.00 20.00     0.006 A 
HETATM    5  C2  UNL     1     -32.198   6.588   2.493  1.00 20.00     0.006 A 
ENDBRANCH   1   3
BRANCH   1   6
HETATM    6  C5  UNL     1     -34.044   6.087   5.749  1.00 20.00     0.016 C 
HETATM    7  C4  UNL     1     -34.818   5.042   6.541  1.00 20.00     0.006 C 
ENDBRANCH   1   6
TORSDOF 2
ENDMDL
MODEL 6
REMARK VINA RESULT:      -3.7      1.925      2.900
REMARK  2 active torsions:
REMARK  status: ('A' for Active; 'I' for Inactive)
REMARK    1  A    between atoms: C3_3  and  C6_6 
REMARK    2  A    between atoms: C5_5  and  C6_6 
ROOT
HETATM    1  C6  UNL     1     -33.305   5.932   4.132  1.00 20.00     0.086 C 
HETATM    2 CL7  UNL     1     -32.213   7.142   3.393  1.00 20.00    -0.125 Cl
ENDROOT
BRANCH   1   3
HETATM    3  C3  UNL     1     -34.058   6.595   5.249  1.00 20.00     0.004 A 
HETATM    4  C1  UNL     1     -34.422   5.820   6.484  1.00 20.00     0.006 A 
HETATM    5  C2  UNL     1     -33.371   6.892   6.553  1.00 20.00     0.006 A 
ENDBRANCH   1   3
BRANCH   1   6
HETATM    6  C5  UNL     1     -34.256   5.336   3.088  1.00 20.00     0.016 C 
HETATM    7  C4  UNL     1     -35.723   5.637   3.360  1.00 20.00     0.006 C 
ENDBRANCH   1   6
TORSDOF 2
ENDMDL
MODEL 7
REMARK VINA RESULT:      -3.5      1.844      3.023
REMARK  2 active torsions:
REMARK  status: ('A' for Active; 'I' for Inactive)
REMARK    1  A    between atoms: C3_3  and  C6_6 
REMARK    2  A    between atoms: C5_5  and  C6_6 
ROOT
HETATM    1  C6  UNL     1     -33.593   6.520   4.380  1.00 20.00     0.086 C 
HETATM    2 CL7  UNL     1     -32.068   6.666   3.453  1.00 20.00    -0.125 Cl
ENDROOT
BRANCH   1   3
HETATM    3  C3  UNL     1     -34.422   5.434   3.756  1.00 20.00     0.004 A 
HETATM    4  C1  UNL     1     -35.259   4.531   4.617  1.00 20.00     0.006 A 
HETATM    5  C2  UNL     1     -35.920   5.548   3.731  1.00 20.00     0.006 A 
ENDBRANCH   1   3
BRANCH   1   6
HETATM    6  C5  UNL     1     -33.312   6.234   5.860  1.00 20.00     0.016 C 
HETATM    7  C4  UNL     1     -33.767   7.349   6.792  1.00 20.00     0.006 C 
ENDBRANCH   1   6
TORSDOF 2
ENDMDL
MODEL 8
REMARK VINA RESULT:      -3.4     11.939     12.749
REMARK  2 active torsions:
REMARK  status: ('A' for Active; 'I' for Inactive)
REMARK    1  A    between atoms: C3_3  and  C6_6 
REMARK    2  A    between atoms: C5_5  and  C6_6 
ROOT
HETATM    1  C6  UNL     1     -33.601  16.061  -3.068  1.00 20.00     0.086 C 
HETATM    2 CL7  UNL     1     -33.324  16.869  -4.641  1.00 20.00    -0.125 Cl
ENDROOT
BRANCH   1   3
HETATM    3  C3  UNL     1     -34.297  17.029  -2.156  1.00 20.00     0.004 A 
HETATM    4  C1  UNL     1     -34.650  16.628  -0.752  1.00 20.00     0.006 A 
HETATM    5  C2  UNL     1     -33.562  17.636  -0.994  1.00 20.00     0.006 A 
ENDBRANCH   1   3
BRANCH   1   6
HETATM    6  C5  UNL     1     -34.411  14.772  -3.246  1.00 20.00     0.016 C 
HETATM    7  C4  UNL     1     -33.614  13.632  -3.864  1.00 20.00     0.006 C 
ENDBRANCH   1   6
TORSDOF 2
ENDMDL
MODEL 9
REMARK VINA RESULT:      -3.4     11.808     12.323
REMARK  2 active torsions:
REMARK  status: ('A' for Active; 'I' for Inactive)
REMARK    1  A    between atoms: C3_3  and  C6_6 
REMARK    2  A    between atoms: C5_5  and  C6_6 
ROOT
HETATM    1  C6  UNL     1     -35.209  15.521  -2.864  1.00 20.00     0.086 C 
HETATM    2 CL7  UNL     1     -36.503  16.588  -3.490  1.00 20.00    -0.125 Cl
ENDROOT
BRANCH   1   3
HETATM    3  C3  UNL     1     -34.598  14.789  -4.024  1.00 20.00     0.004 A 
HETATM    4  C1  UNL     1     -33.535  13.753  -3.791  1.00 20.00     0.006 A 
HETATM    5  C2  UNL     1     -34.905  13.335  -4.247  1.00 20.00     0.006 A 
ENDBRANCH   1   3
BRANCH   1   6
HETATM    6  C5  UNL     1     -34.159  16.325  -2.089  1.00 20.00     0.016 C 
HETATM    7  C4  UNL     1     -34.606  16.720  -0.689  1.00 20.00     0.006 C 
ENDBRANCH   1   6
TORSDOF 2
ENDMDL
