MODEL 1
REMARK VINA RESULT:      -4.5      0.000      0.000
REMARK  2 active torsions:
REMARK  status: ('A' for Active; 'I' for Inactive)
REMARK    1  A    between atoms: C3_3  and  C6_6 
REMARK    2  A    between atoms: C5_5  and  C6_6 
ROOT
HETATM    1  C6  UNL     1     -34.099   6.451   4.499  1.00 20.00     0.086 C 
HETATM    2 CL7  UNL     1     -35.073   5.349   3.480  1.00 20.00    -0.125 Cl
ENDROOT
BRANCH   1   3
HETATM    3  C3  UNL     1     -32.686   6.438   3.992  1.00 20.00     0.004 A 
HETATM    4  C1  UNL     1     -32.383   5.947   2.604  1.00 20.00     0.006 A 
HETATM    5  C2  UNL     1     -32.254   7.410   2.929  1.00 20.00     0.006 A 
ENDBRANCH   1   3
BRANCH   1   6
HETATM    6  C5  UNL     1     -34.173   6.044   5.975  1.00 20.00     0.016 C 
HETATM    7  C4  UNL     1     -34.870   4.709   6.203  1.00 20.00     0.006 C 
ENDBRANCH   1   6
TORSDOF 2
ENDMDL
MODEL 2
REMARK VINA RESULT:      -4.4      1.575      1.788
REMARK  2 active torsions:
REMARK  status: ('A' for Active; 'I' for Inactive)
REMARK    1  A    between atoms: C3_3  and  C6_6 
REMARK    2  A    between atoms: C5_5  and  C6_6 
ROOT
HETATM    1  C6  UNL     1     -33.690   5.821   4.961  1.00 20.00     0.086 C 
HETATM    2 CL7  UNL     1     -33.746   6.933   6.362  1.00 20.00    -0.125 Cl
ENDROOT
BRANCH   1   3
HETATM    3  C3  UNL     1     -33.362   6.622   3.735  1.00 20.00     0.004 A 
HETATM    4  C1  UNL     1     -32.009   7.259   3.585  1.00 20.00     0.006 A 
HETATM    5  C2  UNL     1     -32.388   6.089   2.721  1.00 20.00     0.006 A 
ENDBRANCH   1   3
BRANCH   1   6
HETATM    6  C5  UNL     1     -35.016   5.067   4.804  1.00 20.00     0.016 C 
HETATM    7  C4  UNL     1     -35.212   3.963   5.835  1.00 20.00     0.006 C 
ENDBRANCH   1   6
TORSDOF 2
ENDMDL
MODEL 3
REMARK VINA RESULT:      -4.3      1.691      3.531
REMARK  2 active torsions:
REMARK  status: ('A' for Active; 'I' for Inactive)
REMARK    1  A    between atoms: C3_3  and  C6_6 
REMARK    2  A    between atoms: C5_5  and  C6_6 
ROOT
HETATM    1  C6  UNL     1     -33.609   6.696   4.283  1.00 20.00     0.086 C 
HETATM    2 CL7  UNL     1     -33.500   6.724   6.069  1.00 20.00    -0.125 Cl
ENDROOT
BRANCH   1   3
HETATM    3  C3  UNL     1     -34.322   5.440   3.873  1.00 20.00     0.004 A 
HETATM    4  C1  UNL     1     -35.108   4.651   4.883  1.00 20.00     0.006 A 
HETATM    5  C2  UNL     1     -35.824   5.412   3.801  1.00 20.00     0.006 A 
ENDBRANCH   1   3
BRANCH   1   6
HETATM    6  C5  UNL     1     -32.219   6.789   3.645  1.00 20.00     0.016 C 
HETATM    7  C4  UNL     1     -32.157   7.746   2.461  1.00 20.00     0.006 C 
ENDBRANCH   1   6
TORSDOF 2
ENDMDL
MODEL 4
REMARK VINA RESULT:      -4.1      1.030      3.439
REMARK  2 active torsions:
REMARK  status: ('A' for Active; 'I' for Inactive)
REMARK    1  A    between atoms: C3_3  and  C6_6 
REMARK    2  A    between atoms: C5_5  and  C6_6 
ROOT
HETATM    1  C6  UNL     1     -33.336   5.765   4.011  1.00 20.00     0.086 C 
HETATM    2 CL7  UNL     1     -34.059   5.329   2.433  1.00 20.00    -0.125 Cl
ENDROOT
BRANCH   1   3
HETATM    3  C3  UNL     1     -34.437   5.842   5.029  1.00 20.00     0.004 A 
HETATM    4  C1  UNL     1     -35.218   4.611   5.396  1.00 20.00     0.006 A 
HETATM    5  C2  UNL     1     -34.259   5.214   6.384  1.00 20.00     0.006 A 
ENDBRANCH   1   3
BRANCH   1   6
HETATM    6  C5  UNL     1     -32.563   7.084   3.916  1.00 20.00     0.016 C 
HETATM    7  C4  UNL     1     -32.198   7.473   2.490  1.00 20.00     0.006 C 
ENDBRANCH   1   6
TORSDOF 2
ENDMDL
MODEL 5
REMARK VINA RESULT:      -3.9      0.997      3.456
REMARK  2 active torsions:
REMARK  status: ('A' for Active; 'I' for Inactive)
REMARK    1  A    between atoms: C3_3  and  C6_6 
REMARK    2  A    between atoms: C5_5  and  C6_6 
ROOT
HETATM    1  C6  UNL     1     -34.297   5.488   3.842  1.00 20.00     0.086 C 
HETATM    2 CL7  UNL     1     -36.050   5.775   3.629  1.00 20.00    -0.125 Cl
ENDROOT
BRANCH   1   3
HETATM    3  C3  UNL     1     -34.039   5.194   5.291  1.00 20.00     0.004 A 
HETATM    4  C1  UNL     1     -35.182   5.127   6.266  1.00 20.00     0.006 A 
HETATM    5  C2  UNL     1     -34.449   3.872   5.880  1.00 20.00     0.006 A 
ENDBRANCH   1   3
BRANCH   1   6
HETATM    6  C5  UNL     1     -33.479   6.691   3.357  1.00 20.00     0.016 C 
HETATM    7  C4  UNL     1     -32.001   6.380   3.163  1.00 20.00     0.006 C 
ENDBRANCH   1   6
TORSDOF 2
ENDMDL
MODEL 6
REMARK VINA RESULT:      -3.4      1.871      2.922
REMARK  2 active torsions:
REMARK  status: ('A' for Active; 'I' for Inactive)
REMARK    1  A    between atoms: C3_3  and  C6_6 
REMARK    2  A    between atoms: C5_5  and  C6_6 
ROOT
HETATM    1  C6  UNL     1     -33.995   6.432   4.143  1.00 20.00     0.086 C 
HETATM    2 CL7  UNL     1     -32.558   6.749   3.125  1.00 20.00    -0.125 Cl
ENDROOT
BRANCH   1   3
HETATM    3  C3  UNL     1     -33.528   6.106   5.532  1.00 20.00     0.004 A 
HETATM    4  C1  UNL     1     -33.271   7.206   6.523  1.00 20.00     0.006 A 
HETATM    5  C2  UNL     1     -34.451   6.292   6.704  1.00 20.00     0.006 A 
ENDBRANCH   1   3
BRANCH   1   6
HETATM    6  C5  UNL     1     -34.848   5.302   3.555  1.00 20.00     0.016 C 
HETATM    7  C4  UNL     1     -35.138   4.183   4.546  1.00 20.00     0.006 C 
ENDBRANCH   1   6
TORSDOF 2
ENDMDL
MODEL 7
REMARK VINA RESULT:      -3.4     11.702     12.427
REMARK  2 active torsions:
REMARK  status: ('A' for Active; 'I' for Inactive)
REMARK    1  A    between atoms: C3_3  and  C6_6 
REMARK    2  A    between atoms: C5_5  and  C6_6 
ROOT
HETATM    1  C6  UNL     1     -35.473  15.933  -3.018  1.00 20.00     0.086 C 
HETATM    2 CL7  UNL     1     -35.190  17.180  -4.269  1.00 20.00    -0.125 Cl
ENDROOT
BRANCH   1   3
HETATM    3  C3  UNL     1     -34.387  16.042  -1.988  1.00 20.00     0.004 A 
HETATM    4  C1  UNL     1     -33.785  17.380  -1.660  1.00 20.00     0.006 A 
HETATM    5  C2  UNL     1     -34.666  16.688  -0.659  1.00 20.00     0.006 A 
ENDBRANCH   1   3
BRANCH   1   6
HETATM    6  C5  UNL     1     -35.522  14.532  -3.638  1.00 20.00     0.016 C 
HETATM    7  C4  UNL     1     -34.179  13.813  -3.621  1.00 20.00     0.006 C 
ENDBRANCH   1   6
TORSDOF 2
ENDMDL
MODEL 8
REMARK VINA RESULT:      -3.4      1.686      3.075
REMARK  2 active torsions:
REMARK  status: ('A' for Active; 'I' for Inactive)
REMARK    1  A    between atoms: C3_3  and  C6_6 
REMARK    2  A    between atoms: C5_5  and  C6_6 
ROOT
HETATM    1  C6  UNL     1     -33.418   5.865   4.750  1.00 20.00     0.086 C 
HETATM    2 CL7  UNL     1     -33.461   5.988   2.965  1.00 20.00    -0.125 Cl
ENDROOT
BRANCH   1   3
HETATM    3  C3  UNL     1     -34.752   5.363   5.221  1.00 20.00     0.004 A 
HETATM    4  C1  UNL     1     -35.412   4.201   4.531  1.00 20.00     0.006 A 
HETATM    5  C2  UNL     1     -34.858   4.036   5.919  1.00 20.00     0.006 A 
ENDBRANCH   1   3
BRANCH   1   6
HETATM    6  C5  UNL     1     -33.066   7.214   5.387  1.00 20.00     0.016 C 
HETATM    7  C4  UNL     1     -33.524   7.339   6.834  1.00 20.00     0.006 C 
ENDBRANCH   1   6
TORSDOF 2
ENDMDL
MODEL 9
REMARK VINA RESULT:      -3.4     11.657     12.446
REMARK  2 active torsions:
REMARK  status: ('A' for Active; 'I' for Inactive)
REMARK    1  A    between atoms: C3_3  and  C6_6 
REMARK    2  A    between atoms: C5_5  and  C6_6 
ROOT
HETATM    1  C6  UNL     1     -33.296  15.885  -3.566  1.00 20.00     0.086 C 
HETATM    2 CL7  UNL     1     -33.286  16.749  -5.132  1.00 20.00    -0.125 Cl
ENDROOT
BRANCH   1   3
HETATM    3  C3  UNL     1     -34.254  14.733  -3.668  1.00 20.00     0.004 A 
HETATM    4  C1  UNL     1     -34.509  14.075  -4.995  1.00 20.00     0.006 A 
HETATM    5  C2  UNL     1     -33.742  13.344  -3.928  1.00 20.00     0.006 A 
ENDBRANCH   1   3
BRANCH   1   6
HETATM    6  C5  UNL     1     -33.671  16.829  -2.418  1.00 20.00     0.016 C 
HETATM    7  C4  UNL     1     -34.735  16.262  -1.488  1.00 20.00     0.006 C 
ENDBRANCH   1   6
TORSDOF 2
ENDMDL
