MODEL 1
REMARK VINA RESULT:      -4.3      0.000      0.000
REMARK  3 active torsions:
REMARK  status: ('A' for Active; 'I' for Inactive)
REMARK    1  A    between atoms: C6_6  and  C7_7 
REMARK    2  A    between atoms: C7_7  and  C8_8 
REMARK    3  A    between atoms: C8_8  and  N9_9 
ROOT
HETATM    1  C1  UNL     1     -34.843   4.973   3.605  1.00 20.00     0.052 C 
HETATM    2  C2  UNL     1     -33.890   5.922   2.900  1.00 20.00     0.274 C 
HETATM    3  C3  UNL     1     -33.665   6.403   5.180  1.00 20.00     0.292 C 
HETATM    4  C4  UNL     1     -34.919   5.540   5.020  1.00 20.00     0.112 C 
HETATM    5  N9  UNL     1     -32.902   6.175   3.947  1.00 20.00     0.089 N 
HETATM    6 CL10 UNL     1     -35.014   4.248   6.234  1.00 20.00    -0.123 Cl
ENDROOT
BRANCH   5   7
HETATM    7  C8  UNL     1     -32.012   7.279   3.625  1.00 20.00     0.272 C 
BRANCH   7   8
HETATM    8  C7  UNL     1     -31.989   7.592   2.132  1.00 20.00     0.030 C 
BRANCH   8   9
HETATM    9  C6  UNL     1     -32.185   9.080   1.840  1.00 20.00    -0.003 C 
HETATM   10  C5  UNL     1     -32.474   9.324   0.368  1.00 20.00     0.005 C 
ENDBRANCH   8   9
ENDBRANCH   7   8
ENDBRANCH   5   7
TORSDOF 3
ENDMDL
MODEL 2
REMARK VINA RESULT:      -4.1     10.966     11.939
REMARK  3 active torsions:
REMARK  status: ('A' for Active; 'I' for Inactive)
REMARK    1  A    between atoms: C6_6  and  C7_7 
REMARK    2  A    between atoms: C7_7  and  C8_8 
REMARK    3  A    between atoms: C8_8  and  N9_9 
ROOT
HETATM    1  C1  UNL     1     -34.470  13.269  -4.920  1.00 20.00     0.052 C 
HETATM    2  C2  UNL     1     -34.409  13.842  -3.515  1.00 20.00     0.274 C 
HETATM    3  C3  UNL     1     -34.950  15.652  -4.897  1.00 20.00     0.292 C 
HETATM    4  C4  UNL     1     -34.483  14.513  -5.805  1.00 20.00     0.112 C 
HETATM    5  N9  UNL     1     -35.300  14.996  -3.633  1.00 20.00     0.089 N 
HETATM    6 CL10 UNL     1     -35.536  14.295  -7.218  1.00 20.00    -0.123 Cl
ENDROOT
BRANCH   5   7
HETATM    7  C8  UNL     1     -35.210  15.892  -2.491  1.00 20.00     0.272 C 
BRANCH   7   8
HETATM    8  C7  UNL     1     -33.810  16.473  -2.316  1.00 20.00     0.030 C 
BRANCH   8   9
HETATM    9  C6  UNL     1     -33.694  17.365  -1.078  1.00 20.00    -0.003 C 
HETATM   10  C5  UNL     1     -34.843  17.126  -0.112  1.00 20.00     0.005 C 
ENDBRANCH   8   9
ENDBRANCH   7   8
ENDBRANCH   5   7
TORSDOF 3
ENDMDL
MODEL 3
REMARK VINA RESULT:      -3.9     11.672     12.820
REMARK  3 active torsions:
REMARK  status: ('A' for Active; 'I' for Inactive)
REMARK    1  A    between atoms: C6_6  and  C7_7 
REMARK    2  A    between atoms: C7_7  and  C8_8 
REMARK    3  A    between atoms: C8_8  and  N9_9 
ROOT
HETATM    1  C1  UNL     1     -34.306  16.503  -6.702  1.00 20.00     0.052 C 
HETATM    2  C2  UNL     1     -33.635  16.674  -5.351  1.00 20.00     0.274 C 
HETATM    3  C3  UNL     1     -34.925  14.730  -5.159  1.00 20.00     0.292 C 
HETATM    4  C4  UNL     1     -35.376  15.450  -6.432  1.00 20.00     0.112 C 
HETATM    5  N9  UNL     1     -33.603  15.295  -4.866  1.00 20.00     0.089 N 
HETATM    6 CL10 UNL     1     -35.562  14.343  -7.808  1.00 20.00    -0.123 Cl
ENDROOT
BRANCH   5   7
HETATM    7  C8  UNL     1     -33.254  15.203  -3.457  1.00 20.00     0.272 C 
BRANCH   7   8
HETATM    8  C7  UNL     1     -33.667  16.445  -2.673  1.00 20.00     0.030 C 
BRANCH   8   9
HETATM    9  C6  UNL     1     -34.780  16.159  -1.663  1.00 20.00    -0.003 C 
HETATM   10  C5  UNL     1     -34.625  17.006  -0.410  1.00 20.00     0.005 C 
ENDBRANCH   8   9
ENDBRANCH   7   8
ENDBRANCH   5   7
TORSDOF 3
ENDMDL
MODEL 4
REMARK VINA RESULT:      -3.8     11.198     12.023
REMARK  3 active torsions:
REMARK  status: ('A' for Active; 'I' for Inactive)
REMARK    1  A    between atoms: C6_6  and  C7_7 
REMARK    2  A    between atoms: C7_7  and  C8_8 
REMARK    3  A    between atoms: C8_8  and  N9_9 
ROOT
HETATM    1  C1  UNL     1     -34.061  15.952  -5.268  1.00 20.00     0.052 C 
HETATM    2  C2  UNL     1     -33.814  17.028  -4.226  1.00 20.00     0.274 C 
HETATM    3  C3  UNL     1     -34.723  15.222  -3.045  1.00 20.00     0.292 C 
HETATM    4  C4  UNL     1     -34.948  14.950  -4.534  1.00 20.00     0.112 C 
HETATM    5  N9  UNL     1     -33.655  16.228  -3.013  1.00 20.00     0.089 N 
HETATM    6 CL10 UNL     1     -34.554  13.279  -4.986  1.00 20.00    -0.123 Cl
ENDROOT
BRANCH   5   7
HETATM    7  C8  UNL     1     -33.678  17.033  -1.802  1.00 20.00     0.272 C 
BRANCH   7   8
HETATM    8  C7  UNL     1     -34.778  16.600  -0.837  1.00 20.00     0.030 C 
BRANCH   8   9
HETATM    9  C6  UNL     1     -34.786  17.423   0.453  1.00 20.00    -0.003 C 
HETATM   10  C5  UNL     1     -33.638  18.420   0.483  1.00 20.00     0.005 C 
ENDBRANCH   8   9
ENDBRANCH   7   8
ENDBRANCH   5   7
TORSDOF 3
ENDMDL
MODEL 5
REMARK VINA RESULT:      -3.8     10.828     11.887
REMARK  3 active torsions:
REMARK  status: ('A' for Active; 'I' for Inactive)
REMARK    1  A    between atoms: C6_6  and  C7_7 
REMARK    2  A    between atoms: C7_7  and  C8_8 
REMARK    3  A    between atoms: C8_8  and  N9_9 
ROOT
HETATM    1  C1  UNL     1     -34.212  18.296   1.258  1.00 20.00     0.052 C 
HETATM    2  C2  UNL     1     -35.174  17.476   0.417  1.00 20.00     0.274 C 
HETATM    3  C3  UNL     1     -33.410  18.024  -1.021  1.00 20.00     0.292 C 
HETATM    4  C4  UNL     1     -33.273  18.907   0.221  1.00 20.00     0.112 C 
HETATM    5  N9  UNL     1     -34.276  16.919  -0.593  1.00 20.00     0.089 N 
HETATM    6 CL10 UNL     1     -31.603  18.984   0.820  1.00 20.00    -0.123 Cl
ENDROOT
BRANCH   5   7
HETATM    7  C8  UNL     1     -34.990  16.304  -1.701  1.00 20.00     0.272 C 
BRANCH   7   8
HETATM    8  C7  UNL     1     -34.051  15.823  -2.803  1.00 20.00     0.030 C 
BRANCH   8   9
HETATM    9  C6  UNL     1     -34.511  14.507  -3.434  1.00 20.00    -0.003 C 
HETATM   10  C5  UNL     1     -33.329  13.626  -3.804  1.00 20.00     0.005 C 
ENDBRANCH   8   9
ENDBRANCH   7   8
ENDBRANCH   5   7
TORSDOF 3
ENDMDL
MODEL 6
REMARK VINA RESULT:      -3.8     11.158     12.049
REMARK  3 active torsions:
REMARK  status: ('A' for Active; 'I' for Inactive)
REMARK    1  A    between atoms: C6_6  and  C7_7 
REMARK    2  A    between atoms: C7_7  and  C8_8 
REMARK    3  A    between atoms: C8_8  and  N9_9 
ROOT
HETATM    1  C1  UNL     1     -34.600  16.977  -0.799  1.00 20.00     0.052 C 
HETATM    2  C2  UNL     1     -34.765  15.906  -1.864  1.00 20.00     0.274 C 
HETATM    3  C3  UNL     1     -33.665  17.675  -2.932  1.00 20.00     0.292 C 
HETATM    4  C4  UNL     1     -34.201  18.211  -1.603  1.00 20.00     0.112 C 
HETATM    5  N9  UNL     1     -33.656  16.218  -2.764  1.00 20.00     0.089 N 
HETATM    6 CL10 UNL     1     -33.004  19.194  -0.734  1.00 20.00    -0.123 Cl
ENDROOT
BRANCH   5   7
HETATM    7  C8  UNL     1     -33.744  15.506  -4.029  1.00 20.00     0.272 C 
BRANCH   7   8
HETATM    8  C7  UNL     1     -33.704  13.992  -3.849  1.00 20.00     0.030 C 
BRANCH   8   9
HETATM    9  C6  UNL     1     -34.752  13.271  -4.699  1.00 20.00    -0.003 C 
HETATM   10  C5  UNL     1     -35.051  14.035  -5.978  1.00 20.00     0.005 C 
ENDBRANCH   8   9
ENDBRANCH   7   8
ENDBRANCH   5   7
TORSDOF 3
ENDMDL
MODEL 7
REMARK VINA RESULT:      -3.7      9.845     11.251
REMARK  3 active torsions:
REMARK  status: ('A' for Active; 'I' for Inactive)
REMARK    1  A    between atoms: C6_6  and  C7_7 
REMARK    2  A    between atoms: C7_7  and  C8_8 
REMARK    3  A    between atoms: C8_8  and  N9_9 
ROOT
HETATM    1  C1  UNL     1     -40.732   5.796  -0.633  1.00 20.00     0.052 C 
HETATM    2  C2  UNL     1     -40.883   4.411  -1.238  1.00 20.00     0.274 C 
HETATM    3  C3  UNL     1     -42.953   5.455  -1.561  1.00 20.00     0.292 C 
HETATM    4  C4  UNL     1     -42.169   6.304  -0.558  1.00 20.00     0.112 C 
HETATM    5  N9  UNL     1     -41.934   4.640  -2.229  1.00 20.00     0.089 N 
HETATM    6 CL10 UNL     1     -42.264   8.041  -0.916  1.00 20.00    -0.123 Cl
ENDROOT
BRANCH   5   7
HETATM    7  C8  UNL     1     -42.472   3.402  -2.772  1.00 20.00     0.272 C 
BRANCH   7   8
HETATM    8  C7  UNL     1     -41.378   2.459  -3.265  1.00 20.00     0.030 C 
BRANCH   8   9
HETATM    9  C6  UNL     1     -41.872   1.504  -4.353  1.00 20.00    -0.003 C 
HETATM   10  C5  UNL     1     -41.637   0.053  -3.968  1.00 20.00     0.005 C 
ENDBRANCH   8   9
ENDBRANCH   7   8
ENDBRANCH   5   7
TORSDOF 3
ENDMDL
MODEL 8
REMARK VINA RESULT:      -3.6     11.273     12.125
REMARK  3 active torsions:
REMARK  status: ('A' for Active; 'I' for Inactive)
REMARK    1  A    between atoms: C6_6  and  C7_7 
REMARK    2  A    between atoms: C7_7  and  C8_8 
REMARK    3  A    between atoms: C8_8  and  N9_9 
ROOT
HETATM    1  C1  UNL     1     -35.713  16.323  -2.511  1.00 20.00     0.052 C 
HETATM    2  C2  UNL     1     -35.812  15.276  -3.606  1.00 20.00     0.274 C 
HETATM    3  C3  UNL     1     -33.539  15.819  -3.476  1.00 20.00     0.292 C 
HETATM    4  C4  UNL     1     -34.305  16.886  -2.691  1.00 20.00     0.112 C 
HETATM    5  N9  UNL     1     -34.473  14.691  -3.572  1.00 20.00     0.089 N 
HETATM    6 CL10 UNL     1     -33.548  17.255  -1.128  1.00 20.00    -0.123 Cl
ENDROOT
BRANCH   5   7
HETATM    7  C8  UNL     1     -34.204  13.836  -4.717  1.00 20.00     0.272 C 
BRANCH   7   8
HETATM    8  C7  UNL     1     -35.105  14.157  -5.906  1.00 20.00     0.030 C 
BRANCH   8   9
HETATM    9  C6  UNL     1     -34.360  14.880  -7.030  1.00 20.00    -0.003 C 
HETATM   10  C5  UNL     1     -34.628  16.376  -7.001  1.00 20.00     0.005 C 
ENDBRANCH   8   9
ENDBRANCH   7   8
ENDBRANCH   5   7
TORSDOF 3
ENDMDL
MODEL 9
REMARK VINA RESULT:      -3.5     11.161     12.321
REMARK  3 active torsions:
REMARK  status: ('A' for Active; 'I' for Inactive)
REMARK    1  A    between atoms: C6_6  and  C7_7 
REMARK    2  A    between atoms: C7_7  and  C8_8 
REMARK    3  A    between atoms: C8_8  and  N9_9 
ROOT
HETATM    1  C1  UNL     1     -33.722  18.035  -2.128  1.00 20.00     0.052 C 
HETATM    2  C2  UNL     1     -34.001  17.744  -3.593  1.00 20.00     0.274 C 
HETATM    3  C3  UNL     1     -35.070  16.031  -2.409  1.00 20.00     0.292 C 
HETATM    4  C4  UNL     1     -34.132  16.740  -1.430  1.00 20.00     0.112 C 
HETATM    5  N9  UNL     1     -35.249  16.987  -3.507  1.00 20.00     0.089 N 
HETATM    6 CL10 UNL     1     -34.902  17.062   0.137  1.00 20.00    -0.123 Cl
ENDROOT
BRANCH   5   7
HETATM    7  C8  UNL     1     -35.601  16.342  -4.762  1.00 20.00     0.272 C 
BRANCH   7   8
HETATM    8  C7  UNL     1     -34.418  15.616  -5.395  1.00 20.00     0.030 C 
BRANCH   8   9
HETATM    9  C6  UNL     1     -34.790  14.224  -5.910  1.00 20.00    -0.003 C 
HETATM   10  C5  UNL     1     -34.663  13.176  -4.817  1.00 20.00     0.005 C 
ENDBRANCH   8   9
ENDBRANCH   7   8
ENDBRANCH   5   7
TORSDOF 3
ENDMDL
