MODEL 1
REMARK VINA RESULT:      -4.3      0.000      0.000
REMARK  1 active torsions:
REMARK  status: ('A' for Active; 'I' for Inactive)
REMARK    1  A    between atoms: C4_4  and  C9_9 
ROOT
HETATM    1  C1  UNL     1     -34.623   5.475   6.761  1.00 20.00    -0.003 A 
HETATM    2  C2  UNL     1     -33.931   6.248   5.763  1.00 20.00     0.004 A 
HETATM    3  C3  UNL     1     -35.187   4.403   6.188  1.00 20.00    -0.022 A 
HETATM    4  C4  UNL     1     -34.065   5.656   4.567  1.00 20.00    -0.069 A 
HETATM    5  C5  UNL     1     -34.889   4.405   4.715  1.00 20.00     0.062 A 
ENDROOT
BRANCH   4   6
HETATM    6  C9  UNL     1     -33.512   6.103   3.240  1.00 20.00    -0.028 C 
HETATM    7  C6  UNL     1     -34.212   5.326   2.117  1.00 20.00     0.019 C 
HETATM    8  C7  UNL     1     -32.002   5.828   3.192  1.00 20.00     0.019 C 
HETATM    9  C8  UNL     1     -33.760   7.607   3.058  1.00 20.00     0.019 C 
ENDBRANCH   4   6
TORSDOF 1
ENDMDL
MODEL 2
REMARK VINA RESULT:      -4.3      0.025      1.442
REMARK  1 active torsions:
REMARK  status: ('A' for Active; 'I' for Inactive)
REMARK    1  A    between atoms: C4_4  and  C9_9 
ROOT
HETATM    1  C1  UNL     1     -34.626   5.508   6.761  1.00 20.00    -0.003 A 
HETATM    2  C2  UNL     1     -33.936   6.276   5.758  1.00 20.00     0.004 A 
HETATM    3  C3  UNL     1     -35.188   4.431   6.195  1.00 20.00    -0.022 A 
HETATM    4  C4  UNL     1     -34.068   5.675   4.565  1.00 20.00    -0.069 A 
HETATM    5  C5  UNL     1     -34.890   4.424   4.723  1.00 20.00     0.062 A 
ENDROOT
BRANCH   4   6
HETATM    6  C9  UNL     1     -33.517   6.114   3.235  1.00 20.00    -0.028 C 
HETATM    7  C6  UNL     1     -33.789   7.612   3.049  1.00 20.00     0.019 C 
HETATM    8  C7  UNL     1     -34.198   5.322   2.109  1.00 20.00     0.019 C 
HETATM    9  C8  UNL     1     -32.004   5.855   3.194  1.00 20.00     0.019 C 
ENDBRANCH   4   6
TORSDOF 1
ENDMDL
MODEL 3
REMARK VINA RESULT:      -4.3      0.011      1.446
REMARK  1 active torsions:
REMARK  status: ('A' for Active; 'I' for Inactive)
REMARK    1  A    between atoms: C4_4  and  C9_9 
ROOT
HETATM    1  C1  UNL     1     -34.623   5.483   6.758  1.00 20.00    -0.003 A 
HETATM    2  C2  UNL     1     -33.927   6.251   5.759  1.00 20.00     0.004 A 
HETATM    3  C3  UNL     1     -35.194   4.414   6.186  1.00 20.00    -0.022 A 
HETATM    4  C4  UNL     1     -34.065   5.659   4.563  1.00 20.00    -0.069 A 
HETATM    5  C5  UNL     1     -34.896   4.413   4.714  1.00 20.00     0.062 A 
ENDROOT
BRANCH   4   6
HETATM    6  C9  UNL     1     -33.511   6.101   3.235  1.00 20.00    -0.028 C 
HETATM    7  C6  UNL     1     -32.004   5.812   3.199  1.00 20.00     0.019 C 
HETATM    8  C7  UNL     1     -33.751   7.607   3.053  1.00 20.00     0.019 C 
HETATM    9  C8  UNL     1     -34.210   5.334   2.104  1.00 20.00     0.019 C 
ENDBRANCH   4   6
TORSDOF 1
ENDMDL
MODEL 4
REMARK VINA RESULT:      -4.2     11.785     12.757
REMARK  1 active torsions:
REMARK  status: ('A' for Active; 'I' for Inactive)
REMARK    1  A    between atoms: C4_4  and  C9_9 
ROOT
HETATM    1  C1  UNL     1     -33.814  13.645  -4.102  1.00 20.00    -0.003 A 
HETATM    2  C2  UNL     1     -33.519  14.864  -3.398  1.00 20.00     0.004 A 
HETATM    3  C3  UNL     1     -35.141  13.510  -4.234  1.00 20.00    -0.022 A 
HETATM    4  C4  UNL     1     -34.665  15.491  -3.089  1.00 20.00    -0.069 A 
HETATM    5  C5  UNL     1     -35.829  14.683  -3.596  1.00 20.00     0.062 A 
ENDROOT
BRANCH   4   6
HETATM    6  C9  UNL     1     -34.846  16.794  -2.358  1.00 20.00    -0.028 C 
HETATM    7  C6  UNL     1     -36.269  17.313  -2.603  1.00 20.00     0.019 C 
HETATM    8  C7  UNL     1     -33.827  17.821  -2.874  1.00 20.00     0.019 C 
HETATM    9  C8  UNL     1     -34.629  16.575  -0.854  1.00 20.00     0.019 C 
ENDBRANCH   4   6
TORSDOF 1
ENDMDL
MODEL 5
REMARK VINA RESULT:      -4.1     11.770     12.800
REMARK  1 active torsions:
REMARK  status: ('A' for Active; 'I' for Inactive)
REMARK    1  A    between atoms: C4_4  and  C9_9 
ROOT
HETATM    1  C1  UNL     1     -35.035  13.583  -4.075  1.00 20.00    -0.003 A 
HETATM    2  C2  UNL     1     -35.637  14.716  -3.425  1.00 20.00     0.004 A 
HETATM    3  C3  UNL     1     -33.701  13.712  -4.064  1.00 20.00    -0.022 A 
HETATM    4  C4  UNL     1     -34.676  15.554  -3.007  1.00 20.00    -0.069 A 
HETATM    5  C5  UNL     1     -33.328  14.995  -3.376  1.00 20.00     0.062 A 
ENDROOT
BRANCH   4   6
HETATM    6  C9  UNL     1     -34.832  16.863  -2.280  1.00 20.00    -0.028 C 
HETATM    7  C6  UNL     1     -33.800  17.863  -2.818  1.00 20.00     0.019 C 
HETATM    8  C7  UNL     1     -34.604  16.647  -0.776  1.00 20.00     0.019 C 
HETATM    9  C8  UNL     1     -36.248  17.411  -2.504  1.00 20.00     0.019 C 
ENDBRANCH   4   6
TORSDOF 1
ENDMDL
MODEL 6
REMARK VINA RESULT:      -4.0     11.674     12.946
REMARK  1 active torsions:
REMARK  status: ('A' for Active; 'I' for Inactive)
REMARK    1  A    between atoms: C4_4  and  C9_9 
ROOT
HETATM    1  C1  UNL     1     -34.375  17.155  -1.139  1.00 20.00    -0.003 A 
HETATM    2  C2  UNL     1     -34.710  15.903  -1.763  1.00 20.00     0.004 A 
HETATM    3  C3  UNL     1     -33.795  17.965  -2.036  1.00 20.00    -0.022 A 
HETATM    4  C4  UNL     1     -34.339  15.932  -3.052  1.00 20.00    -0.069 A 
HETATM    5  C5  UNL     1     -33.710  17.264  -3.362  1.00 20.00     0.062 A 
ENDROOT
BRANCH   4   6
HETATM    6  C9  UNL     1     -34.490  14.852  -4.090  1.00 20.00    -0.028 C 
HETATM    7  C6  UNL     1     -33.487  13.729  -3.795  1.00 20.00     0.019 C 
HETATM    8  C7  UNL     1     -34.215  15.436  -5.484  1.00 20.00     0.019 C 
HETATM    9  C8  UNL     1     -35.919  14.293  -4.047  1.00 20.00     0.019 C 
ENDBRANCH   4   6
TORSDOF 1
ENDMDL
MODEL 7
REMARK VINA RESULT:      -4.0     11.676     12.973
REMARK  1 active torsions:
REMARK  status: ('A' for Active; 'I' for Inactive)
REMARK    1  A    between atoms: C4_4  and  C9_9 
ROOT
HETATM    1  C1  UNL     1     -34.362  17.209  -1.046  1.00 20.00    -0.003 A 
HETATM    2  C2  UNL     1     -34.673  15.954  -1.677  1.00 20.00     0.004 A 
HETATM    3  C3  UNL     1     -33.810  18.039  -1.943  1.00 20.00    -0.022 A 
HETATM    4  C4  UNL     1     -34.314  16.000  -2.969  1.00 20.00    -0.069 A 
HETATM    5  C5  UNL     1     -33.720  17.349  -3.275  1.00 20.00     0.062 A 
ENDROOT
BRANCH   4   6
HETATM    6  C9  UNL     1     -34.448  14.924  -4.013  1.00 20.00    -0.028 C 
HETATM    7  C6  UNL     1     -34.167  15.528  -5.395  1.00 20.00     0.019 C 
HETATM    8  C7  UNL     1     -35.873  14.351  -3.981  1.00 20.00     0.019 C 
HETATM    9  C8  UNL     1     -33.443  13.800  -3.726  1.00 20.00     0.019 C 
ENDBRANCH   4   6
TORSDOF 1
ENDMDL
MODEL 8
REMARK VINA RESULT:      -4.0     11.667     12.878
REMARK  1 active torsions:
REMARK  status: ('A' for Active; 'I' for Inactive)
REMARK    1  A    between atoms: C4_4  and  C9_9 
ROOT
HETATM    1  C1  UNL     1     -34.426  17.128  -1.137  1.00 20.00    -0.003 A 
HETATM    2  C2  UNL     1     -34.757  15.879  -1.771  1.00 20.00     0.004 A 
HETATM    3  C3  UNL     1     -33.809  17.929  -2.017  1.00 20.00    -0.022 A 
HETATM    4  C4  UNL     1     -34.345  15.902  -3.048  1.00 20.00    -0.069 A 
HETATM    5  C5  UNL     1     -33.690  17.226  -3.339  1.00 20.00     0.062 A 
ENDROOT
BRANCH   4   6
HETATM    6  C9  UNL     1     -34.476  14.823  -4.089  1.00 20.00    -0.028 C 
HETATM    7  C6  UNL     1     -35.897  14.248  -4.039  1.00 20.00     0.019 C 
HETATM    8  C7  UNL     1     -33.459  13.708  -3.805  1.00 20.00     0.019 C 
HETATM    9  C8  UNL     1     -34.206  15.414  -5.480  1.00 20.00     0.019 C 
ENDBRANCH   4   6
TORSDOF 1
ENDMDL
MODEL 9
REMARK VINA RESULT:      -3.9      1.157      3.685
REMARK  1 active torsions:
REMARK  status: ('A' for Active; 'I' for Inactive)
REMARK    1  A    between atoms: C4_4  and  C9_9 
ROOT
HETATM    1  C1  UNL     1     -32.146   6.715   2.562  1.00 20.00    -0.003 A 
HETATM    2  C2  UNL     1     -33.209   5.796   2.875  1.00 20.00     0.004 A 
HETATM    3  C3  UNL     1     -31.835   7.432   3.651  1.00 20.00    -0.022 A 
HETATM    4  C4  UNL     1     -33.561   5.941   4.162  1.00 20.00    -0.069 A 
HETATM    5  C5  UNL     1     -32.713   7.011   4.796  1.00 20.00     0.062 A 
ENDROOT
BRANCH   4   6
HETATM    6  C9  UNL     1     -34.622   5.196   4.927  1.00 20.00    -0.028 C 
HETATM    7  C6  UNL     1     -35.970   5.372   4.217  1.00 20.00     0.019 C 
HETATM    8  C7  UNL     1     -34.714   5.755   6.355  1.00 20.00     0.019 C 
HETATM    9  C8  UNL     1     -34.261   3.705   4.988  1.00 20.00     0.019 C 
ENDBRANCH   4   6
TORSDOF 1
ENDMDL
