MODEL 1
REMARK VINA RESULT:      -5.4      0.000      0.000
REMARK  0 active torsions:
REMARK  status: ('A' for Active; 'I' for Inactive)
ROOT
HETATM    1  C1  UNL     1     -34.587   4.905   3.299  1.00 20.00     0.009 A 
HETATM    2  C2  UNL     1     -33.777   5.786   2.578  1.00 20.00     0.019 A 
HETATM    3  C3  UNL     1     -33.134   6.947   4.624  1.00 20.00     0.026 A 
HETATM    4  C4  UNL     1     -34.644   5.076   4.662  1.00 20.00    -0.051 A 
HETATM    5  C5  UNL     1     -33.941   6.065   5.304  1.00 20.00    -0.050 A 
HETATM    6  C6  UNL     1     -33.056   6.801   3.237  1.00 20.00     0.011 A 
HETATM    7  C7  UNL     1     -35.247   4.549   5.930  1.00 20.00     0.043 A 
HETATM    8  C8  UNL     1     -34.445   5.677   6.662  1.00 20.00     0.043 A 
HETATM    9 BR9  UNL     1     -31.967   7.976   2.230  1.00 20.00    -0.051 Br
ENDROOT
TORSDOF 0
ENDMDL
MODEL 2
REMARK VINA RESULT:      -5.2      0.778      2.008
REMARK  0 active torsions:
REMARK  status: ('A' for Active; 'I' for Inactive)
ROOT
HETATM    1  C1  UNL     1     -33.608   6.655   6.201  1.00 20.00     0.009 A 
HETATM    2  C2  UNL     1     -32.939   7.315   5.168  1.00 20.00     0.019 A 
HETATM    3  C3  UNL     1     -33.792   5.721   3.531  1.00 20.00     0.026 A 
HETATM    4  C4  UNL     1     -34.348   5.546   5.865  1.00 20.00    -0.051 A 
HETATM    5  C5  UNL     1     -34.437   5.093   4.571  1.00 20.00    -0.050 A 
HETATM    6  C6  UNL     1     -33.031   6.851   3.841  1.00 20.00     0.011 A 
HETATM    7  C7  UNL     1     -35.233   4.464   6.406  1.00 20.00     0.043 A 
HETATM    8  C8  UNL     1     -35.334   3.947   4.931  1.00 20.00     0.043 A 
HETATM    9 BR9  UNL     1     -32.113   7.769   2.465  1.00 20.00    -0.051 Br
ENDROOT
TORSDOF 0
ENDMDL
MODEL 3
REMARK VINA RESULT:      -4.4      2.312      3.591
REMARK  0 active torsions:
REMARK  status: ('A' for Active; 'I' for Inactive)
ROOT
HETATM    1  C1  UNL     1     -34.178   5.578   2.667  1.00 20.00     0.009 A 
HETATM    2  C2  UNL     1     -34.794   5.021   3.790  1.00 20.00     0.019 A 
HETATM    3  C3  UNL     1     -33.326   6.275   5.279  1.00 20.00     0.026 A 
HETATM    4  C4  UNL     1     -33.153   6.467   2.888  1.00 20.00    -0.051 A 
HETATM    5  C5  UNL     1     -32.740   6.805   4.154  1.00 20.00    -0.050 A 
HETATM    6  C6  UNL     1     -34.371   5.367   5.088  1.00 20.00     0.011 A 
HETATM    7  C7  UNL     1     -32.148   7.356   2.219  1.00 20.00     0.043 A 
HETATM    8  C8  UNL     1     -31.677   7.740   3.662  1.00 20.00     0.043 A 
HETATM    9 BR9  UNL     1     -35.228   4.594   6.587  1.00 20.00    -0.051 Br
ENDROOT
TORSDOF 0
ENDMDL
MODEL 4
REMARK VINA RESULT:      -4.4      9.539     10.566
REMARK  0 active torsions:
REMARK  status: ('A' for Active; 'I' for Inactive)
ROOT
HETATM    1  C1  UNL     1     -42.883   6.030  -2.789  1.00 20.00     0.009 A 
HETATM    2  C2  UNL     1     -42.908   4.706  -3.235  1.00 20.00     0.019 A 
HETATM    3  C3  UNL     1     -41.172   4.084  -1.640  1.00 20.00     0.026 A 
HETATM    4  C4  UNL     1     -41.999   6.338  -1.782  1.00 20.00    -0.051 A 
HETATM    5  C5  UNL     1     -41.169   5.395  -1.225  1.00 20.00    -0.050 A 
HETATM    6  C6  UNL     1     -42.058   3.739  -2.664  1.00 20.00     0.011 A 
HETATM    7  C7  UNL     1     -41.489   7.443  -0.906  1.00 20.00     0.043 A 
HETATM    8  C8  UNL     1     -40.543   6.368  -0.271  1.00 20.00     0.043 A 
HETATM    9 BR9  UNL     1     -42.119   1.955  -3.290  1.00 20.00    -0.051 Br
ENDROOT
TORSDOF 0
ENDMDL
MODEL 5
REMARK VINA RESULT:      -4.3     12.130     12.960
REMARK  0 active torsions:
REMARK  status: ('A' for Active; 'I' for Inactive)
ROOT
HETATM    1  C1  UNL     1     -32.770  18.552  -0.221  1.00 20.00     0.009 A 
HETATM    2  C2  UNL     1     -33.199  18.886   1.066  1.00 20.00     0.019 A 
HETATM    3  C3  UNL     1     -35.103  17.376   0.879  1.00 20.00     0.026 A 
HETATM    4  C4  UNL     1     -33.526  17.639  -0.918  1.00 20.00    -0.051 A 
HETATM    5  C5  UNL     1     -34.657  17.069  -0.385  1.00 20.00    -0.050 A 
HETATM    6  C6  UNL     1     -34.358  18.302   1.612  1.00 20.00     0.011 A 
HETATM    7  C7  UNL     1     -33.644  16.894  -2.213  1.00 20.00     0.043 A 
HETATM    8  C8  UNL     1     -34.933  16.244  -1.606  1.00 20.00     0.043 A 
HETATM    9 BR9  UNL     1     -34.909  18.776   3.359  1.00 20.00    -0.051 Br
ENDROOT
TORSDOF 0
ENDMDL
MODEL 6
REMARK VINA RESULT:      -4.3      9.505     10.616
REMARK  0 active torsions:
REMARK  status: ('A' for Active; 'I' for Inactive)
ROOT
HETATM    1  C1  UNL     1     -40.699   5.436  -0.739  1.00 20.00     0.009 A 
HETATM    2  C2  UNL     1     -40.862   4.193  -1.355  1.00 20.00     0.019 A 
HETATM    3  C3  UNL     1     -42.572   5.097  -2.839  1.00 20.00     0.026 A 
HETATM    4  C4  UNL     1     -41.481   6.471  -1.194  1.00 20.00    -0.051 A 
HETATM    5  C5  UNL     1     -42.389   6.307  -2.212  1.00 20.00    -0.050 A 
HETATM    6  C6  UNL     1     -41.793   4.025  -2.398  1.00 20.00     0.011 A 
HETATM    7  C7  UNL     1     -41.800   7.925  -1.013  1.00 20.00     0.043 A 
HETATM    8  C8  UNL     1     -42.836   7.738  -2.173  1.00 20.00     0.043 A 
HETATM    9 BR9  UNL     1     -41.988   2.328  -3.212  1.00 20.00    -0.051 Br
ENDROOT
TORSDOF 0
ENDMDL
MODEL 7
REMARK VINA RESULT:      -4.2     11.917     13.537
REMARK  0 active torsions:
REMARK  status: ('A' for Active; 'I' for Inactive)
ROOT
HETATM    1  C1  UNL     1     -34.466  13.810  -4.734  1.00 20.00     0.009 A 
HETATM    2  C2  UNL     1     -34.492  14.346  -3.444  1.00 20.00     0.019 A 
HETATM    3  C3  UNL     1     -34.540  16.616  -4.334  1.00 20.00     0.026 A 
HETATM    4  C4  UNL     1     -34.476  14.698  -5.784  1.00 20.00    -0.051 A 
HETATM    5  C5  UNL     1     -34.512  16.058  -5.590  1.00 20.00    -0.050 A 
HETATM    6  C6  UNL     1     -34.529  15.740  -3.246  1.00 20.00     0.011 A 
HETATM    7  C7  UNL     1     -34.464  14.815  -7.279  1.00 20.00     0.043 A 
HETATM    8  C8  UNL     1     -34.505  16.365  -7.058  1.00 20.00     0.043 A 
HETATM    9 BR9  UNL     1     -34.566  16.432  -1.485  1.00 20.00    -0.051 Br
ENDROOT
TORSDOF 0
ENDMDL
MODEL 8
REMARK VINA RESULT:      -4.2     11.793     12.879
REMARK  0 active torsions:
REMARK  status: ('A' for Active; 'I' for Inactive)
ROOT
HETATM    1  C1  UNL     1     -33.594  17.319  -4.057  1.00 20.00     0.009 A 
HETATM    2  C2  UNL     1     -33.864  16.193  -4.838  1.00 20.00     0.019 A 
HETATM    3  C3  UNL     1     -34.734  14.995  -2.900  1.00 20.00     0.026 A 
HETATM    4  C4  UNL     1     -33.903  17.245  -2.719  1.00 20.00    -0.051 A 
HETATM    5  C5  UNL     1     -34.455  16.119  -2.158  1.00 20.00    -0.050 A 
HETATM    6  C6  UNL     1     -34.430  15.038  -4.263  1.00 20.00     0.011 A 
HETATM    7  C7  UNL     1     -33.885  17.998  -1.422  1.00 20.00     0.043 A 
HETATM    8  C8  UNL     1     -34.514  16.714  -0.783  1.00 20.00     0.043 A 
HETATM    9 BR9  UNL     1     -34.785  13.531  -5.351  1.00 20.00    -0.051 Br
ENDROOT
TORSDOF 0
ENDMDL
MODEL 9
REMARK VINA RESULT:      -4.2     11.696     12.883
REMARK  0 active torsions:
REMARK  status: ('A' for Active; 'I' for Inactive)
ROOT
HETATM    1  C1  UNL     1     -33.745  16.418  -5.063  1.00 20.00     0.009 A 
HETATM    2  C2  UNL     1     -33.578  17.174  -3.900  1.00 20.00     0.019 A 
HETATM    3  C3  UNL     1     -34.542  15.391  -2.543  1.00 20.00     0.026 A 
HETATM    4  C4  UNL     1     -34.308  15.171  -4.927  1.00 20.00    -0.051 A 
HETATM    5  C5  UNL     1     -34.694  14.673  -3.706  1.00 20.00    -0.050 A 
HETATM    6  C6  UNL     1     -33.974  16.663  -2.648  1.00 20.00     0.011 A 
HETATM    7  C7  UNL     1     -34.738  13.943  -5.672  1.00 20.00     0.043 A 
HETATM    8  C8  UNL     1     -35.179  13.375  -4.280  1.00 20.00     0.043 A 
HETATM    9 BR9  UNL     1     -33.732  17.713  -1.093  1.00 20.00    -0.051 Br
ENDROOT
TORSDOF 0
ENDMDL
