MODEL 1
REMARK VINA RESULT:      -4.5      0.000      0.000
REMARK  2 active torsions:
REMARK  status: ('A' for Active; 'I' for Inactive)
REMARK    1  A    between atoms: C3_3  and  C10_10 
REMARK    2  A    between atoms: C4_4  and  C10_10 
ROOT
HETATM    1  C5  UNL     1     -34.652  13.416  -4.580  1.00 20.00     0.000 C 
HETATM    2  C6  UNL     1     -33.425  13.710  -3.723  1.00 20.00     0.001 C 
HETATM    3  C7  UNL     1     -35.840  14.276  -4.166  1.00 20.00     0.001 C 
HETATM    4  C8  UNL     1     -33.062  15.195  -3.749  1.00 20.00     0.017 C 
HETATM    5  C9  UNL     1     -35.498  15.766  -4.191  1.00 20.00     0.017 C 
HETATM    6  C10 UNL     1     -34.242  16.109  -3.374  1.00 20.00    -0.006 C 
ENDROOT
BRANCH   6   7
HETATM    7  C3  UNL     1     -34.536  15.981  -1.899  1.00 20.00    -0.023 C 
HETATM    8  C1  UNL     1     -34.325  16.953  -1.006  1.00 20.00     0.008 C 
ENDBRANCH   6   7
BRANCH   6   9
HETATM    9  C4  UNL     1     -33.870  17.534  -3.693  1.00 20.00    -0.023 C 
HETATM   10  C2  UNL     1     -33.594  17.978  -4.923  1.00 20.00     0.008 C 
ENDBRANCH   6   9
TORSDOF 2
ENDMDL
MODEL 2
REMARK VINA RESULT:      -4.4      0.751      2.671
REMARK  2 active torsions:
REMARK  status: ('A' for Active; 'I' for Inactive)
REMARK    1  A    between atoms: C3_3  and  C10_10 
REMARK    2  A    between atoms: C4_4  and  C10_10 
ROOT
HETATM    1  C5  UNL     1     -35.249  13.325  -4.199  1.00 20.00     0.000 C 
HETATM    2  C6  UNL     1     -36.144  14.559  -4.205  1.00 20.00     0.001 C 
HETATM    3  C7  UNL     1     -33.779  13.702  -4.336  1.00 20.00     0.001 C 
HETATM    4  C8  UNL     1     -35.732  15.560  -3.125  1.00 20.00     0.017 C 
HETATM    5  C9  UNL     1     -33.346  14.699  -3.261  1.00 20.00     0.017 C 
HETATM    6  C10 UNL     1     -34.244  15.945  -3.198  1.00 20.00    -0.006 C 
ENDROOT
BRANCH   6   7
HETATM    7  C3  UNL     1     -34.003  16.815  -4.407  1.00 20.00    -0.023 C 
HETATM    8  C1  UNL     1     -33.822  18.139  -4.354  1.00 20.00     0.008 C 
ENDBRANCH   6   7
BRANCH   6   9
HETATM    9  C4  UNL     1     -33.879  16.704  -1.949  1.00 20.00    -0.023 C 
HETATM   10  C2  UNL     1     -34.576  16.648  -0.809  1.00 20.00     0.008 C 
ENDBRANCH   6   9
TORSDOF 2
ENDMDL
MODEL 3
REMARK VINA RESULT:      -4.2      1.787      3.878
REMARK  2 active torsions:
REMARK  status: ('A' for Active; 'I' for Inactive)
REMARK    1  A    between atoms: C3_3  and  C10_10 
REMARK    2  A    between atoms: C4_4  and  C10_10 
ROOT
HETATM    1  C5  UNL     1     -32.893  15.108  -3.614  1.00 20.00     0.000 C 
HETATM    2  C6  UNL     1     -33.503  13.726  -3.822  1.00 20.00     0.001 C 
HETATM    3  C7  UNL     1     -33.247  16.051  -4.757  1.00 20.00     0.001 C 
HETATM    4  C8  UNL     1     -35.017  13.802  -4.020  1.00 20.00     0.017 C 
HETATM    5  C9  UNL     1     -34.758  16.146  -4.967  1.00 20.00     0.017 C 
HETATM    6  C10 UNL     1     -35.428  14.773  -5.142  1.00 20.00    -0.006 C 
ENDROOT
BRANCH   6   7
HETATM    7  C3  UNL     1     -35.060  14.187  -6.483  1.00 20.00    -0.023 C 
HETATM    8  C1  UNL     1     -35.309  14.782  -7.654  1.00 20.00     0.008 C 
ENDBRANCH   6   7
BRANCH   6   9
HETATM    9  C4  UNL     1     -36.918  14.985  -5.074  1.00 20.00    -0.023 C 
HETATM   10  C2  UNL     1     -37.658  14.762  -3.983  1.00 20.00     0.008 C 
ENDBRANCH   6   9
TORSDOF 2
ENDMDL
MODEL 4
REMARK VINA RESULT:      -4.2     11.683     13.835
REMARK  2 active torsions:
REMARK  status: ('A' for Active; 'I' for Inactive)
REMARK    1  A    between atoms: C3_3  and  C10_10 
REMARK    2  A    between atoms: C4_4  and  C10_10 
ROOT
HETATM    1  C5  UNL     1     -40.986   7.243  -0.953  1.00 20.00     0.000 C 
HETATM    2  C6  UNL     1     -42.250   7.142  -1.799  1.00 20.00     0.001 C 
HETATM    3  C7  UNL     1     -40.826   6.032  -0.043  1.00 20.00     0.001 C 
HETATM    4  C8  UNL     1     -42.286   5.843  -2.605  1.00 20.00     0.017 C 
HETATM    5  C9  UNL     1     -40.854   4.722  -0.832  1.00 20.00     0.017 C 
HETATM    6  C10 UNL     1     -42.091   4.590  -1.735  1.00 20.00    -0.006 C 
ENDROOT
BRANCH   6   7
HETATM    7  C3  UNL     1     -43.321   4.359  -0.892  1.00 20.00    -0.023 C 
HETATM    8  C1  UNL     1     -43.375   3.509   0.139  1.00 20.00     0.008 C 
ENDBRANCH   6   7
BRANCH   6   9
HETATM    9  C4  UNL     1     -41.868   3.404  -2.637  1.00 20.00    -0.023 C 
HETATM   10  C2  UNL     1     -42.788   2.920  -3.479  1.00 20.00     0.008 C 
ENDBRANCH   6   9
TORSDOF 2
ENDMDL
MODEL 5
REMARK VINA RESULT:      -4.1      1.038      3.309
REMARK  2 active torsions:
REMARK  status: ('A' for Active; 'I' for Inactive)
REMARK    1  A    between atoms: C3_3  and  C10_10 
REMARK    2  A    between atoms: C4_4  and  C10_10 
ROOT
HETATM    1  C5  UNL     1     -34.900  17.919  -5.559  1.00 20.00     0.000 C 
HETATM    2  C6  UNL     1     -35.852  17.610  -4.408  1.00 20.00     0.001 C 
HETATM    3  C7  UNL     1     -33.460  17.575  -5.198  1.00 20.00     0.001 C 
HETATM    4  C8  UNL     1     -35.734  16.155  -3.953  1.00 20.00     0.017 C 
HETATM    5  C9  UNL     1     -33.320  16.121  -4.746  1.00 20.00     0.017 C 
HETATM    6  C10 UNL     1     -34.290  15.747  -3.613  1.00 20.00    -0.006 C 
ENDROOT
BRANCH   6   7
HETATM    7  C3  UNL     1     -33.862  16.414  -2.328  1.00 20.00    -0.023 C 
HETATM    8  C1  UNL     1     -34.604  16.445  -1.217  1.00 20.00     0.008 C 
ENDBRANCH   6   7
BRANCH   6   9
HETATM    9  C4  UNL     1     -34.237  14.251  -3.447  1.00 20.00    -0.023 C 
HETATM   10  C2  UNL     1     -34.932  13.389  -4.198  1.00 20.00     0.008 C 
ENDBRANCH   6   9
TORSDOF 2
ENDMDL
MODEL 6
REMARK VINA RESULT:      -4.1      1.512      3.321
REMARK  2 active torsions:
REMARK  status: ('A' for Active; 'I' for Inactive)
REMARK    1  A    between atoms: C3_3  and  C10_10 
REMARK    2  A    between atoms: C4_4  and  C10_10 
ROOT
HETATM    1  C5  UNL     1     -32.671  14.857  -3.653  1.00 20.00     0.000 C 
HETATM    2  C6  UNL     1     -33.571  16.086  -3.638  1.00 20.00     0.001 C 
HETATM    3  C7  UNL     1     -33.485  13.570  -3.719  1.00 20.00     0.001 C 
HETATM    4  C8  UNL     1     -34.523  16.103  -4.834  1.00 20.00     0.017 C 
HETATM    5  C9  UNL     1     -34.440  13.565  -4.914  1.00 20.00     0.017 C 
HETATM    6  C10 UNL     1     -35.343  14.807  -4.967  1.00 20.00    -0.006 C 
ENDROOT
BRANCH   6   7
HETATM    7  C3  UNL     1     -36.374  14.742  -3.867  1.00 20.00    -0.023 C 
HETATM    8  C1  UNL     1     -37.695  14.727  -4.078  1.00 20.00     0.008 C 
ENDBRANCH   6   7
BRANCH   6   9
HETATM    9  C4  UNL     1     -36.033  14.808  -6.307  1.00 20.00    -0.023 C 
HETATM   10  C2  UNL     1     -35.431  14.494  -7.459  1.00 20.00     0.008 C 
ENDBRANCH   6   9
TORSDOF 2
ENDMDL
MODEL 7
REMARK VINA RESULT:      -4.1      1.311      2.798
REMARK  2 active torsions:
REMARK  status: ('A' for Active; 'I' for Inactive)
REMARK    1  A    between atoms: C3_3  and  C10_10 
REMARK    2  A    between atoms: C4_4  and  C10_10 
ROOT
HETATM    1  C5  UNL     1     -35.274  16.678  -6.244  1.00 20.00     0.000 C 
HETATM    2  C6  UNL     1     -33.877  16.106  -6.031  1.00 20.00     0.001 C 
HETATM    3  C7  UNL     1     -36.251  16.165  -5.193  1.00 20.00     0.001 C 
HETATM    4  C8  UNL     1     -33.360  16.388  -4.621  1.00 20.00     0.017 C 
HETATM    5  C9  UNL     1     -35.755  16.443  -3.774  1.00 20.00     0.017 C 
HETATM    6  C10 UNL     1     -34.330  15.922  -3.521  1.00 20.00    -0.006 C 
ENDROOT
BRANCH   6   7
HETATM    7  C3  UNL     1     -34.338  14.415  -3.455  1.00 20.00    -0.023 C 
HETATM    8  C1  UNL     1     -33.264  13.649  -3.678  1.00 20.00     0.008 C 
ENDBRANCH   6   7
BRANCH   6   9
HETATM    9  C4  UNL     1     -33.870  16.484  -2.201  1.00 20.00    -0.023 C 
HETATM   10  C2  UNL     1     -34.615  16.492  -1.090  1.00 20.00     0.008 C 
ENDBRANCH   6   9
TORSDOF 2
ENDMDL
MODEL 8
REMARK VINA RESULT:      -4.0      2.238      3.197
REMARK  2 active torsions:
REMARK  status: ('A' for Active; 'I' for Inactive)
REMARK    1  A    between atoms: C3_3  and  C10_10 
REMARK    2  A    between atoms: C4_4  and  C10_10 
ROOT
HETATM    1  C5  UNL     1     -36.944  15.144  -7.429  1.00 20.00     0.000 C 
HETATM    2  C6  UNL     1     -35.661  14.424  -7.829  1.00 20.00     0.001 C 
HETATM    3  C7  UNL     1     -37.064  15.269  -5.915  1.00 20.00     0.001 C 
HETATM    4  C8  UNL     1     -34.426  15.102  -7.236  1.00 20.00     0.017 C 
HETATM    5  C9  UNL     1     -35.839  15.951  -5.304  1.00 20.00     0.017 C 
HETATM    6  C10 UNL     1     -34.514  15.286  -5.711  1.00 20.00    -0.006 C 
ENDROOT
BRANCH   6   7
HETATM    7  C3  UNL     1     -34.379  13.948  -5.028  1.00 20.00    -0.023 C 
HETATM    8  C1  UNL     1     -34.014  13.791  -3.751  1.00 20.00     0.008 C 
ENDBRANCH   6   7
BRANCH   6   9
HETATM    9  C4  UNL     1     -33.397  16.195  -5.269  1.00 20.00    -0.023 C 
HETATM   10  C2  UNL     1     -33.548  17.499  -5.015  1.00 20.00     0.008 C 
ENDBRANCH   6   9
TORSDOF 2
ENDMDL
MODEL 9
REMARK VINA RESULT:      -3.9      1.052      3.659
REMARK  2 active torsions:
REMARK  status: ('A' for Active; 'I' for Inactive)
REMARK    1  A    between atoms: C3_3  and  C10_10 
REMARK    2  A    between atoms: C4_4  and  C10_10 
ROOT
HETATM    1  C5  UNL     1     -33.731  18.374  -2.457  1.00 20.00     0.000 C 
HETATM    2  C6  UNL     1     -33.689  17.222  -1.461  1.00 20.00     0.001 C 
HETATM    3  C7  UNL     1     -33.704  17.870  -3.895  1.00 20.00     0.001 C 
HETATM    4  C8  UNL     1     -34.815  16.218  -1.710  1.00 20.00     0.017 C 
HETATM    5  C9  UNL     1     -34.828  16.869  -4.166  1.00 20.00     0.017 C 
HETATM    6  C10 UNL     1     -34.854  15.706  -3.160  1.00 20.00    -0.006 C 
ENDROOT
BRANCH   6   7
HETATM    7  C3  UNL     1     -33.682  14.787  -3.406  1.00 20.00    -0.023 C 
HETATM    8  C1  UNL     1     -33.766  13.626  -4.066  1.00 20.00     0.008 C 
ENDBRANCH   6   7
BRANCH   6   9
HETATM    9  C4  UNL     1     -36.141  14.952  -3.372  1.00 20.00    -0.023 C 
HETATM   10  C2  UNL     1     -37.303  15.531  -3.694  1.00 20.00     0.008 C 
ENDBRANCH   6   9
TORSDOF 2
ENDMDL
