MODEL 1
REMARK VINA RESULT:      -3.8      0.000      0.000
REMARK  0 active torsions:
REMARK  status: ('A' for Active; 'I' for Inactive)
ROOT
HETATM    1  C1  UNL     1     -34.540  13.676  -4.476  1.00 20.00     0.119 C 
HETATM    2  C2  UNL     1     -34.297  15.378  -2.685  1.00 20.00     0.063 A 
HETATM    3  C3  UNL     1     -33.550  17.012  -3.960  1.00 20.00     0.137 A 
HETATM    4  C4  UNL     1     -34.200  14.980  -3.999  1.00 20.00     0.137 A 
HETATM    5  C5  UNL     1     -33.875  16.697  -2.660  1.00 20.00     0.031 A 
HETATM    6  N6  UNL     1     -34.814  12.617  -4.865  1.00 20.00    -0.190 NA
HETATM    7  N7  UNL     1     -33.746  15.970  -4.774  1.00 20.00    -0.249 NA
HETATM    8 BR8  UNL     1     -33.768  17.821  -1.161  1.00 20.00    -0.050 Br
ENDROOT
TORSDOF 0
ENDMDL
MODEL 2
REMARK VINA RESULT:      -3.8      1.359      1.483
REMARK  0 active torsions:
REMARK  status: ('A' for Active; 'I' for Inactive)
ROOT
HETATM    1  C1  UNL     1     -34.908  13.622  -4.178  1.00 20.00     0.119 C 
HETATM    2  C2  UNL     1     -34.036  15.373  -2.649  1.00 20.00     0.063 A 
HETATM    3  C3  UNL     1     -35.864  16.600  -2.568  1.00 20.00     0.137 A 
HETATM    4  C4  UNL     1     -35.037  14.827  -3.421  1.00 20.00     0.137 A 
HETATM    5  C5  UNL     1     -34.574  16.523  -2.095  1.00 20.00     0.031 A 
HETATM    6  N6  UNL     1     -34.804  12.644  -4.794  1.00 20.00    -0.190 NA
HETATM    7  N7  UNL     1     -36.147  15.571  -3.374  1.00 20.00    -0.249 NA
HETATM    8 BR8  UNL     1     -33.716  17.729  -0.940  1.00 20.00    -0.050 Br
ENDROOT
TORSDOF 0
ENDMDL
MODEL 3
REMARK VINA RESULT:      -3.7     11.455     12.294
REMARK  0 active torsions:
REMARK  status: ('A' for Active; 'I' for Inactive)
ROOT
HETATM    1  C1  UNL     1     -32.412   7.456   2.598  1.00 20.00     0.119 C 
HETATM    2  C2  UNL     1     -33.390   6.432   4.638  1.00 20.00     0.063 A 
HETATM    3  C3  UNL     1     -34.685   4.972   3.617  1.00 20.00     0.137 A 
HETATM    4  C4  UNL     1     -33.268   6.528   3.270  1.00 20.00     0.137 A 
HETATM    5  C5  UNL     1     -34.310   5.421   4.863  1.00 20.00     0.031 A 
HETATM    6  N6  UNL     1     -31.719   8.209   2.051  1.00 20.00    -0.190 NA
HETATM    7  N7  UNL     1     -34.053   5.644   2.649  1.00 20.00    -0.249 NA
HETATM    8 BR8  UNL     1     -34.920   4.797   6.524  1.00 20.00    -0.050 Br
ENDROOT
TORSDOF 0
ENDMDL
MODEL 4
REMARK VINA RESULT:      -3.6      3.027      4.043
REMARK  0 active torsions:
REMARK  status: ('A' for Active; 'I' for Inactive)
ROOT
HETATM    1  C1  UNL     1     -34.654  15.702  -2.209  1.00 20.00     0.119 C 
HETATM    2  C2  UNL     1     -35.017  15.471  -4.654  1.00 20.00     0.063 A 
HETATM    3  C3  UNL     1     -34.534  13.327  -4.801  1.00 20.00     0.137 A 
HETATM    4  C4  UNL     1     -34.684  14.950  -3.424  1.00 20.00     0.137 A 
HETATM    5  C5  UNL     1     -34.920  14.417  -5.547  1.00 20.00     0.031 A 
HETATM    6  N6  UNL     1     -34.629  16.312  -1.221  1.00 20.00    -0.190 NA
HETATM    7  N7  UNL     1     -34.390  13.650  -3.511  1.00 20.00    -0.249 NA
HETATM    8 BR8  UNL     1     -35.245  14.467  -7.395  1.00 20.00    -0.050 Br
ENDROOT
TORSDOF 0
ENDMDL
MODEL 5
REMARK VINA RESULT:      -3.5      2.812      3.123
REMARK  0 active torsions:
REMARK  status: ('A' for Active; 'I' for Inactive)
ROOT
HETATM    1  C1  UNL     1     -34.587  13.752  -4.839  1.00 20.00     0.119 C 
HETATM    2  C2  UNL     1     -34.757  15.646  -6.437  1.00 20.00     0.063 A 
HETATM    3  C3  UNL     1     -33.444  17.040  -5.348  1.00 20.00     0.137 A 
HETATM    4  C4  UNL     1     -34.276  15.076  -5.279  1.00 20.00     0.137 A 
HETATM    5  C5  UNL     1     -34.216  16.920  -6.481  1.00 20.00     0.031 A 
HETATM    6  N6  UNL     1     -34.840  12.678  -4.481  1.00 20.00    -0.190 NA
HETATM    7  N7  UNL     1     -33.480  15.921  -4.617  1.00 20.00    -0.249 NA
HETATM    8 BR8  UNL     1     -34.485  18.216  -7.812  1.00 20.00    -0.050 Br
ENDROOT
TORSDOF 0
ENDMDL
MODEL 6
REMARK VINA RESULT:      -3.5      3.067      3.437
REMARK  0 active torsions:
REMARK  status: ('A' for Active; 'I' for Inactive)
ROOT
HETATM    1  C1  UNL     1     -35.537  13.576  -4.262  1.00 20.00     0.119 C 
HETATM    2  C2  UNL     1     -36.308  15.865  -3.686  1.00 20.00     0.063 A 
HETATM    3  C3  UNL     1     -38.453  15.395  -3.511  1.00 20.00     0.137 A 
HETATM    4  C4  UNL     1     -36.548  14.532  -3.933  1.00 20.00     0.137 A 
HETATM    5  C5  UNL     1     -37.546  16.425  -3.411  1.00 20.00     0.031 A 
HETATM    6  N6  UNL     1     -34.717  12.800  -4.530  1.00 20.00    -0.190 NA
HETATM    7  N7  UNL     1     -37.849  14.245  -3.828  1.00 20.00    -0.249 NA
HETATM    8 BR8  UNL     1     -37.907  18.218  -2.993  1.00 20.00    -0.050 Br
ENDROOT
TORSDOF 0
ENDMDL
MODEL 7
REMARK VINA RESULT:      -3.4     12.545     13.348
REMARK  0 active torsions:
REMARK  status: ('A' for Active; 'I' for Inactive)
ROOT
HETATM    1  C1  UNL     1     -41.562   2.834  -2.905  1.00 20.00     0.119 C 
HETATM    2  C2  UNL     1     -42.357   5.119  -2.346  1.00 20.00     0.063 A 
HETATM    3  C3  UNL     1     -40.820   5.581  -0.837  1.00 20.00     0.137 A 
HETATM    4  C4  UNL     1     -41.483   4.067  -2.187  1.00 20.00     0.137 A 
HETATM    5  C5  UNL     1     -41.925   6.102  -1.470  1.00 20.00     0.031 A 
HETATM    6  N6  UNL     1     -41.625   1.832  -3.488  1.00 20.00    -0.190 NA
HETATM    7  N7  UNL     1     -40.550   4.345  -1.270  1.00 20.00    -0.249 NA
HETATM    8 BR8  UNL     1     -42.694   7.793  -1.202  1.00 20.00    -0.050 Br
ENDROOT
TORSDOF 0
ENDMDL
MODEL 8
REMARK VINA RESULT:      -3.4      1.877      1.962
REMARK  0 active torsions:
REMARK  status: ('A' for Active; 'I' for Inactive)
ROOT
HETATM    1  C1  UNL     1     -36.812  14.825  -3.556  1.00 20.00     0.119 C 
HETATM    2  C2  UNL     1     -35.516  16.377  -2.114  1.00 20.00     0.063 A 
HETATM    3  C3  UNL     1     -33.536  15.976  -2.993  1.00 20.00     0.137 A 
HETATM    4  C4  UNL     1     -35.600  15.449  -3.128  1.00 20.00     0.137 A 
HETATM    5  C5  UNL     1     -34.177  16.719  -2.027  1.00 20.00     0.031 A 
HETATM    6  N6  UNL     1     -37.796  14.317  -3.904  1.00 20.00    -0.190 NA
HETATM    7  N7  UNL     1     -34.399  15.204  -3.662  1.00 20.00    -0.249 NA
HETATM    8 BR8  UNL     1     -33.398  17.941  -0.835  1.00 20.00    -0.050 Br
ENDROOT
TORSDOF 0
ENDMDL
MODEL 9
REMARK VINA RESULT:      -3.4     13.005     13.924
REMARK  0 active torsions:
REMARK  status: ('A' for Active; 'I' for Inactive)
ROOT
HETATM    1  C1  UNL     1     -42.256   2.246  -3.146  1.00 20.00     0.119 C 
HETATM    2  C2  UNL     1     -41.539   4.292  -1.934  1.00 20.00     0.063 A 
HETATM    3  C3  UNL     1     -42.905   5.698  -2.939  1.00 20.00     0.137 A 
HETATM    4  C4  UNL     1     -42.321   3.646  -2.865  1.00 20.00     0.137 A 
HETATM    5  C5  UNL     1     -41.918   5.623  -1.982  1.00 20.00     0.031 A 
HETATM    6  N6  UNL     1     -42.204   1.110  -3.375  1.00 20.00    -0.190 NA
HETATM    7  N7  UNL     1     -43.151   4.498  -3.476  1.00 20.00    -0.249 NA
HETATM    8 BR8  UNL     1     -41.226   7.033  -0.955  1.00 20.00    -0.050 Br
ENDROOT
TORSDOF 0
ENDMDL
