MODEL 1
REMARK VINA RESULT:      -4.3      0.000      0.000
REMARK  1 active torsions:
REMARK  status: ('A' for Active; 'I' for Inactive)
REMARK    1  A    between atoms: C6_6  and  C7_7 
ROOT
HETATM    1  C3  UNL     1     -35.049   4.195   4.518  1.00 20.00     0.296 C 
HETATM    2  C4  UNL     1     -35.111   4.240   6.038  1.00 20.00     0.197 C 
HETATM    3  C5  UNL     1     -34.178   6.399   6.072  1.00 20.00     0.203 C 
HETATM    4  C7  UNL     1     -34.137   6.452   4.541  1.00 20.00     0.248 C 
HETATM    5  N8  UNL     1     -35.132   5.543   3.948  1.00 20.00     0.092 N 
HETATM    6  O9  UNL     1     -34.059   5.057   6.549  1.00 20.00    -0.387 OA
HETATM    7  H22 UNL     1     -34.962   5.479   2.938  1.00 20.00     0.316 HD
ENDROOT
BRANCH   4   8
HETATM    8  C6  UNL     1     -32.757   6.185   4.000  1.00 20.00     0.021 A 
HETATM    9  C1  UNL     1     -32.535   6.063   2.517  1.00 20.00     0.007 A 
HETATM   10  C2  UNL     1     -32.014   7.263   3.258  1.00 20.00     0.007 A 
ENDBRANCH   4   8
TORSDOF 1
ENDMDL
MODEL 2
REMARK VINA RESULT:      -3.8     12.605     13.121
REMARK  1 active torsions:
REMARK  status: ('A' for Active; 'I' for Inactive)
REMARK    1  A    between atoms: C6_6  and  C7_7 
ROOT
HETATM    1  C3  UNL     1     -33.380  15.905  -4.434  1.00 20.00     0.296 C 
HETATM    2  C4  UNL     1     -34.158  14.656  -4.825  1.00 20.00     0.197 C 
HETATM    3  C5  UNL     1     -35.852  15.151  -3.269  1.00 20.00     0.203 C 
HETATM    4  C7  UNL     1     -35.156  16.455  -2.864  1.00 20.00     0.248 C 
HETATM    5  N8  UNL     1     -34.279  16.950  -3.936  1.00 20.00     0.092 N 
HETATM    6  O9  UNL     1     -34.907  14.174  -3.710  1.00 20.00    -0.387 OA
HETATM    7  H22 UNL     1     -33.710  17.720  -3.570  1.00 20.00     0.316 HD
ENDROOT
BRANCH   4   8
HETATM    8  C6  UNL     1     -34.410  16.320  -1.562  1.00 20.00     0.021 A 
HETATM    9  C1  UNL     1     -33.621  17.478  -1.017  1.00 20.00     0.007 A 
HETATM   10  C2  UNL     1     -34.890  17.048  -0.336  1.00 20.00     0.007 A 
ENDBRANCH   4   8
TORSDOF 1
ENDMDL
MODEL 3
REMARK VINA RESULT:      -3.8     12.540     13.257
REMARK  1 active torsions:
REMARK  status: ('A' for Active; 'I' for Inactive)
REMARK    1  A    between atoms: C6_6  and  C7_7 
ROOT
HETATM    1  C3  UNL     1     -35.197  14.226  -4.138  1.00 20.00     0.296 C 
HETATM    2  C4  UNL     1     -34.835  14.677  -5.546  1.00 20.00     0.197 C 
HETATM    3  C5  UNL     1     -33.176  16.126  -4.721  1.00 20.00     0.203 C 
HETATM    4  C7  UNL     1     -33.443  15.679  -3.279  1.00 20.00     0.248 C 
HETATM    5  N8  UNL     1     -34.045  14.337  -3.238  1.00 20.00     0.092 N 
HETATM    6  O9  UNL     1     -34.353  16.020  -5.523  1.00 20.00    -0.387 OA
HETATM    7  H22 UNL     1     -34.362  14.144  -2.281  1.00 20.00     0.316 HD
ENDROOT
BRANCH   4   8
HETATM    8  C6  UNL     1     -34.276  16.679  -2.519  1.00 20.00     0.021 A 
HETATM    9  C1  UNL     1     -34.685  16.400  -1.099  1.00 20.00     0.007 A 
HETATM   10  C2  UNL     1     -33.668  17.468  -1.391  1.00 20.00     0.007 A 
ENDBRANCH   4   8
TORSDOF 1
ENDMDL
MODEL 4
REMARK VINA RESULT:      -3.7     12.026     12.775
REMARK  1 active torsions:
REMARK  status: ('A' for Active; 'I' for Inactive)
REMARK    1  A    between atoms: C6_6  and  C7_7 
ROOT
HETATM    1  C3  UNL     1     -33.439  13.705  -3.881  1.00 20.00     0.296 C 
HETATM    2  C4  UNL     1     -34.680  13.244  -4.633  1.00 20.00     0.197 C 
HETATM    3  C5  UNL     1     -35.689  15.354  -4.384  1.00 20.00     0.203 C 
HETATM    4  C7  UNL     1     -34.451  15.908  -3.670  1.00 20.00     0.248 C 
HETATM    5  N8  UNL     1     -33.242  15.150  -4.029  1.00 20.00     0.092 N 
HETATM    6  O9  UNL     1     -35.828  13.949  -4.165  1.00 20.00    -0.387 OA
HETATM    7  H22 UNL     1     -32.475  15.437  -3.411  1.00 20.00     0.316 HD
ENDROOT
BRANCH   4   8
HETATM    8  C6  UNL     1     -34.637  15.972  -2.176  1.00 20.00     0.021 A 
HETATM    9  C1  UNL     1     -33.849  16.955  -1.356  1.00 20.00     0.007 A 
HETATM   10  C2  UNL     1     -35.326  17.154  -1.550  1.00 20.00     0.007 A 
ENDBRANCH   4   8
TORSDOF 1
ENDMDL
MODEL 5
REMARK VINA RESULT:      -3.7     12.485     13.845
REMARK  1 active torsions:
REMARK  status: ('A' for Active; 'I' for Inactive)
REMARK    1  A    between atoms: C6_6  and  C7_7 
ROOT
HETATM    1  C3  UNL     1     -33.546  17.359  -5.317  1.00 20.00     0.296 C 
HETATM    2  C4  UNL     1     -33.684  18.203  -4.058  1.00 20.00     0.197 C 
HETATM    3  C5  UNL     1     -33.765  16.280  -2.705  1.00 20.00     0.203 C 
HETATM    4  C7  UNL     1     -33.570  15.366  -3.920  1.00 20.00     0.248 C 
HETATM    5  N8  UNL     1     -32.901  16.076  -5.022  1.00 20.00     0.092 N 
HETATM    6  O9  UNL     1     -34.428  17.493  -3.069  1.00 20.00    -0.387 OA
HETATM    7  H22 UNL     1     -32.940  15.492  -5.865  1.00 20.00     0.316 HD
ENDROOT
BRANCH   4   8
HETATM    8  C6  UNL     1     -34.864  14.741  -4.374  1.00 20.00     0.021 A 
HETATM    9  C1  UNL     1     -34.909  13.927  -5.638  1.00 20.00     0.007 A 
HETATM   10  C2  UNL     1     -35.048  13.249  -4.304  1.00 20.00     0.007 A 
ENDBRANCH   4   8
TORSDOF 1
ENDMDL
MODEL 6
REMARK VINA RESULT:      -3.6     12.398     13.631
REMARK  1 active torsions:
REMARK  status: ('A' for Active; 'I' for Inactive)
REMARK    1  A    between atoms: C6_6  and  C7_7 
ROOT
HETATM    1  C3  UNL     1     -33.794  16.082  -3.881  1.00 20.00     0.296 C 
HETATM    2  C4  UNL     1     -34.615  15.465  -2.757  1.00 20.00     0.197 C 
HETATM    3  C5  UNL     1     -35.329  13.715  -4.157  1.00 20.00     0.203 C 
HETATM    4  C7  UNL     1     -34.481  14.243  -5.320  1.00 20.00     0.248 C 
HETATM    5  N8  UNL     1     -33.356  15.059  -4.835  1.00 20.00     0.092 N 
HETATM    6  O9  UNL     1     -35.743  14.776  -3.293  1.00 20.00    -0.387 OA
HETATM    7  H22 UNL     1     -32.918  15.528  -5.635  1.00 20.00     0.316 HD
ENDROOT
BRANCH   4   8
HETATM    8  C6  UNL     1     -35.309  14.993  -6.331  1.00 20.00     0.021 A 
HETATM    9  C1  UNL     1     -34.642  15.709  -7.474  1.00 20.00     0.007 A 
HETATM   10  C2  UNL     1     -35.448  14.467  -7.734  1.00 20.00     0.007 A 
ENDBRANCH   4   8
TORSDOF 1
ENDMDL
MODEL 7
REMARK VINA RESULT:      -3.6     12.596     13.601
REMARK  1 active torsions:
REMARK  status: ('A' for Active; 'I' for Inactive)
REMARK    1  A    between atoms: C6_6  and  C7_7 
ROOT
HETATM    1  C3  UNL     1     -33.714  17.604  -4.268  1.00 20.00     0.296 C 
HETATM    2  C4  UNL     1     -33.219  16.277  -4.827  1.00 20.00     0.197 C 
HETATM    3  C5  UNL     1     -34.295  15.084  -3.109  1.00 20.00     0.203 C 
HETATM    4  C7  UNL     1     -34.878  16.374  -2.521  1.00 20.00     0.248 C 
HETATM    5  N8  UNL     1     -34.974  17.432  -3.540  1.00 20.00     0.092 N 
HETATM    6  O9  UNL     1     -33.054  15.331  -3.772  1.00 20.00    -0.387 OA
HETATM    7  H22 UNL     1     -35.205  18.318  -3.078  1.00 20.00     0.316 HD
ENDROOT
BRANCH   4   8
HETATM    8  C6  UNL     1     -34.113  16.844  -1.311  1.00 20.00     0.021 A 
HETATM    9  C1  UNL     1     -34.310  18.238  -0.784  1.00 20.00     0.007 A 
HETATM   10  C2  UNL     1     -34.824  17.061  -0.004  1.00 20.00     0.007 A 
ENDBRANCH   4   8
TORSDOF 1
ENDMDL
MODEL 8
REMARK VINA RESULT:      -3.6     12.144     13.448
REMARK  1 active torsions:
REMARK  status: ('A' for Active; 'I' for Inactive)
REMARK    1  A    between atoms: C6_6  and  C7_7 
ROOT
HETATM    1  C3  UNL     1     -33.150  15.317  -3.997  1.00 20.00     0.296 C 
HETATM    2  C4  UNL     1     -33.007  13.880  -3.513  1.00 20.00     0.197 C 
HETATM    3  C5  UNL     1     -34.672  13.149  -5.005  1.00 20.00     0.203 C 
HETATM    4  C7  UNL     1     -34.832  14.559  -5.584  1.00 20.00     0.248 C 
HETATM    5  N8  UNL     1     -33.613  15.360  -5.387  1.00 20.00     0.092 N 
HETATM    6  O9  UNL     1     -34.251  13.193  -3.640  1.00 20.00    -0.387 OA
HETATM    7  H22 UNL     1     -33.814  16.336  -5.631  1.00 20.00     0.316 HD
ENDROOT
BRANCH   4   8
HETATM    8  C6  UNL     1     -36.047  15.263  -5.038  1.00 20.00     0.021 A 
HETATM    9  C1  UNL     1     -36.331  16.689  -5.420  1.00 20.00     0.007 A 
HETATM   10  C2  UNL     1     -37.205  15.584  -5.943  1.00 20.00     0.007 A 
ENDBRANCH   4   8
TORSDOF 1
ENDMDL
MODEL 9
REMARK VINA RESULT:      -3.4     12.794     14.047
REMARK  1 active torsions:
REMARK  status: ('A' for Active; 'I' for Inactive)
REMARK    1  A    between atoms: C6_6  and  C7_7 
ROOT
HETATM    1  C3  UNL     1     -33.947  13.967  -4.058  1.00 20.00     0.296 C 
HETATM    2  C4  UNL     1     -32.869  14.897  -3.515  1.00 20.00     0.197 C 
HETATM    3  C5  UNL     1     -33.669  16.683  -4.821  1.00 20.00     0.203 C 
HETATM    4  C7  UNL     1     -34.816  15.825  -5.367  1.00 20.00     0.248 C 
HETATM    5  N8  UNL     1     -35.141  14.720  -4.452  1.00 20.00     0.092 N 
HETATM    6  O9  UNL     1     -32.533  15.881  -4.492  1.00 20.00    -0.387 OA
HETATM    7  H22 UNL     1     -35.788  14.078  -4.923  1.00 20.00     0.316 HD
ENDROOT
BRANCH   4   8
HETATM    8  C6  UNL     1     -34.536  15.322  -6.759  1.00 20.00     0.021 A 
HETATM    9  C1  UNL     1     -35.498  14.383  -7.434  1.00 20.00     0.007 A 
HETATM   10  C2  UNL     1     -35.368  15.800  -7.918  1.00 20.00     0.007 A 
ENDBRANCH   4   8
TORSDOF 1
ENDMDL
