MODEL 1
REMARK VINA RESULT:      -4.2      0.000      0.000
REMARK  0 active torsions:
REMARK  status: ('A' for Active; 'I' for Inactive)
ROOT
HETATM    1  C1  UNL     1     -35.303   4.712   4.156  1.00 20.00     0.036 A 
HETATM    2  C2  UNL     1     -34.676   5.587   3.364  1.00 20.00     0.007 A 
HETATM    3  C3  UNL     1     -34.968   4.913   5.573  1.00 20.00     0.086 A 
HETATM    4  C4  UNL     1     -33.776   6.593   3.996  1.00 20.00     0.172 A 
HETATM    5  N5  UNL     1     -35.408   4.225   6.564  1.00 20.00    -0.293 NA
HETATM    6  S6  UNL     1     -33.857   6.249   5.778  1.00 20.00    -0.086 SA
HETATM    7 CL7  UNL     1     -32.121   6.416   3.386  1.00 20.00    -0.109 Cl
HETATM    8  H11 UNL     1     -35.011   4.590   7.438  1.00 20.00     0.187 HD
ENDROOT
TORSDOF 0
ENDMDL
MODEL 2
REMARK VINA RESULT:      -4.2     12.151     12.478
REMARK  0 active torsions:
REMARK  status: ('A' for Active; 'I' for Inactive)
ROOT
HETATM    1  C1  UNL     1     -33.324  13.942  -3.815  1.00 20.00     0.036 A 
HETATM    2  C2  UNL     1     -33.025  15.183  -3.421  1.00 20.00     0.007 A 
HETATM    3  C3  UNL     1     -34.775  13.722  -3.889  1.00 20.00     0.086 A 
HETATM    4  C4  UNL     1     -34.146  16.122  -3.132  1.00 20.00     0.172 A 
HETATM    5  N5  UNL     1     -35.363  12.632  -4.229  1.00 20.00    -0.293 NA
HETATM    6  S6  UNL     1     -35.658  15.166  -3.447  1.00 20.00    -0.086 SA
HETATM    7 CL7  UNL     1     -34.078  16.672  -1.448  1.00 20.00    -0.109 Cl
HETATM    8  H11 UNL     1     -36.381  12.767  -4.196  1.00 20.00     0.187 HD
ENDROOT
TORSDOF 0
ENDMDL
MODEL 3
REMARK VINA RESULT:      -3.8     12.486     12.960
REMARK  0 active torsions:
REMARK  status: ('A' for Active; 'I' for Inactive)
ROOT
HETATM    1  C1  UNL     1     -33.226  13.742  -3.586  1.00 20.00     0.036 A 
HETATM    2  C2  UNL     1     -32.661  14.944  -3.724  1.00 20.00     0.007 A 
HETATM    3  C3  UNL     1     -34.547  13.677  -4.225  1.00 20.00     0.086 A 
HETATM    4  C4  UNL     1     -33.408  15.995  -4.472  1.00 20.00     0.172 A 
HETATM    5  N5  UNL     1     -35.330  12.659  -4.253  1.00 20.00    -0.293 NA
HETATM    6  S6  UNL     1     -34.960  15.200  -4.980  1.00 20.00    -0.086 SA
HETATM    7 CL7  UNL     1     -33.720  17.396  -3.432  1.00 20.00    -0.109 Cl
HETATM    8  H11 UNL     1     -36.184  12.898  -4.772  1.00 20.00     0.187 HD
ENDROOT
TORSDOF 0
ENDMDL
MODEL 4
REMARK VINA RESULT:      -3.8      2.995      3.556
REMARK  0 active torsions:
REMARK  status: ('A' for Active; 'I' for Inactive)
ROOT
HETATM    1  C1  UNL     1     -33.220   6.865   5.246  1.00 20.00     0.036 A 
HETATM    2  C2  UNL     1     -34.152   6.206   5.939  1.00 20.00     0.007 A 
HETATM    3  C3  UNL     1     -33.269   6.544   3.813  1.00 20.00     0.086 A 
HETATM    4  C4  UNL     1     -35.066   5.288   5.200  1.00 20.00     0.172 A 
HETATM    5  N5  UNL     1     -32.498   7.015   2.901  1.00 20.00    -0.293 NA
HETATM    6  S6  UNL     1     -34.548   5.402   3.463  1.00 20.00    -0.086 SA
HETATM    7 CL7  UNL     1     -34.907   3.630   5.806  1.00 20.00    -0.109 Cl
HETATM    8  H11 UNL     1     -32.762   6.620   1.991  1.00 20.00     0.187 HD
ENDROOT
TORSDOF 0
ENDMDL
MODEL 5
REMARK VINA RESULT:      -3.5     12.907     13.361
REMARK  0 active torsions:
REMARK  status: ('A' for Active; 'I' for Inactive)
ROOT
HETATM    1  C1  UNL     1     -34.489  13.312  -4.793  1.00 20.00     0.036 A 
HETATM    2  C2  UNL     1     -33.796  13.744  -3.736  1.00 20.00     0.007 A 
HETATM    3  C3  UNL     1     -34.694  14.372  -5.789  1.00 20.00     0.086 A 
HETATM    4  C4  UNL     1     -33.348  15.167  -3.718  1.00 20.00     0.172 A 
HETATM    5  N5  UNL     1     -35.326  14.259  -6.902  1.00 20.00    -0.293 NA
HETATM    6  S6  UNL     1     -33.952  15.872  -5.279  1.00 20.00    -0.086 SA
HETATM    7 CL7  UNL     1     -34.037  16.018  -2.324  1.00 20.00    -0.109 Cl
HETATM    8  H11 UNL     1     -35.308  15.158  -7.398  1.00 20.00     0.187 HD
ENDROOT
TORSDOF 0
ENDMDL
MODEL 6
REMARK VINA RESULT:      -3.5      9.739     10.044
REMARK  0 active torsions:
REMARK  status: ('A' for Active; 'I' for Inactive)
ROOT
HETATM    1  C1  UNL     1     -40.739   4.862  -0.801  1.00 20.00     0.036 A 
HETATM    2  C2  UNL     1     -40.865   6.183  -0.654  1.00 20.00     0.007 A 
HETATM    3  C3  UNL     1     -41.593   4.342  -1.878  1.00 20.00     0.086 A 
HETATM    4  C4  UNL     1     -41.803   6.908  -1.559  1.00 20.00     0.172 A 
HETATM    5  N5  UNL     1     -41.691   3.116  -2.248  1.00 20.00    -0.293 NA
HETATM    6  S6  UNL     1     -42.503   5.628  -2.640  1.00 20.00    -0.086 SA
HETATM    7 CL7  UNL     1     -43.072   7.715  -0.621  1.00 20.00    -0.109 Cl
HETATM    8  H11 UNL     1     -42.358   3.045  -3.025  1.00 20.00     0.187 HD
ENDROOT
TORSDOF 0
ENDMDL
MODEL 7
REMARK VINA RESULT:      -3.5     12.519     12.930
REMARK  0 active torsions:
REMARK  status: ('A' for Active; 'I' for Inactive)
ROOT
HETATM    1  C1  UNL     1     -35.918  14.921  -3.433  1.00 20.00     0.036 A 
HETATM    2  C2  UNL     1     -35.399  16.113  -3.124  1.00 20.00     0.007 A 
HETATM    3  C3  UNL     1     -34.885  13.959  -3.841  1.00 20.00     0.086 A 
HETATM    4  C4  UNL     1     -33.922  16.288  -3.226  1.00 20.00     0.172 A 
HETATM    5  N5  UNL     1     -35.078  12.741  -4.201  1.00 20.00    -0.293 NA
HETATM    6  S6  UNL     1     -33.291  14.678  -3.781  1.00 20.00    -0.086 SA
HETATM    7 CL7  UNL     1     -33.527  17.565  -4.392  1.00 20.00    -0.109 Cl
HETATM    8  H11 UNL     1     -34.177  12.304  -4.427  1.00 20.00     0.187 HD
ENDROOT
TORSDOF 0
ENDMDL
MODEL 8
REMARK VINA RESULT:      -3.4      9.480      9.861
REMARK  0 active torsions:
REMARK  status: ('A' for Active; 'I' for Inactive)
ROOT
HETATM    1  C1  UNL     1     -40.814   5.801  -0.152  1.00 20.00     0.036 A 
HETATM    2  C2  UNL     1     -41.256   4.565  -0.397  1.00 20.00     0.007 A 
HETATM    3  C3  UNL     1     -41.305   6.769  -1.143  1.00 20.00     0.086 A 
HETATM    4  C4  UNL     1     -42.143   4.352  -1.576  1.00 20.00     0.172 A 
HETATM    5  N5  UNL     1     -41.045   8.027  -1.173  1.00 20.00    -0.293 NA
HETATM    6  S6  UNL     1     -42.329   5.994  -2.331  1.00 20.00    -0.086 SA
HETATM    7 CL7  UNL     1     -41.404   3.209  -2.711  1.00 20.00    -0.109 Cl
HETATM    8  H11 UNL     1     -41.525   8.457  -1.972  1.00 20.00     0.187 HD
ENDROOT
TORSDOF 0
ENDMDL
MODEL 9
REMARK VINA RESULT:      -3.4      2.471      2.804
REMARK  0 active torsions:
REMARK  status: ('A' for Active; 'I' for Inactive)
ROOT
HETATM    1  C1  UNL     1     -35.271   4.756   4.783  1.00 20.00     0.036 A 
HETATM    2  C2  UNL     1     -34.804   5.065   5.996  1.00 20.00     0.007 A 
HETATM    3  C3  UNL     1     -34.498   5.401   3.713  1.00 20.00     0.086 A 
HETATM    4  C4  UNL     1     -33.623   5.971   6.088  1.00 20.00     0.172 A 
HETATM    5  N5  UNL     1     -34.712   5.298   2.451  1.00 20.00    -0.293 NA
HETATM    6  S6  UNL     1     -33.195   6.368   4.368  1.00 20.00    -0.086 SA
HETATM    7 CL7  UNL     1     -34.034   7.436   6.998  1.00 20.00    -0.109 Cl
HETATM    8  H11 UNL     1     -34.016   5.853   1.939  1.00 20.00     0.187 HD
ENDROOT
TORSDOF 0
ENDMDL
