MODEL 1
REMARK VINA RESULT:      -4.9      0.000      0.000
REMARK  0 active torsions:
REMARK  status: ('A' for Active; 'I' for Inactive)
ROOT
HETATM    1  C1  UNL     1     -34.233  17.384  -4.574  1.00 20.00     0.017 A 
HETATM    2  C2  UNL     1     -33.964  17.956  -3.331  1.00 20.00     0.025 A 
HETATM    3  C3  UNL     1     -34.536  13.800  -3.680  1.00 20.00     0.031 A 
HETATM    4  C4  UNL     1     -34.072  15.771  -2.301  1.00 20.00     0.036 A 
HETATM    5  C5  UNL     1     -34.800  13.291  -4.944  1.00 20.00     0.119 A 
HETATM    6  C6  UNL     1     -34.424  15.997  -4.690  1.00 20.00     0.010 A 
HETATM    7  C7  UNL     1     -34.343  15.179  -3.544  1.00 20.00    -0.020 A 
HETATM    8  C8  UNL     1     -33.884  17.152  -2.197  1.00 20.00     0.034 A 
HETATM    9  C9  UNL     1     -34.695  15.372  -5.910  1.00 20.00     0.113 A 
HETATM   10  N10 UNL     1     -34.885  14.041  -6.062  1.00 20.00    -0.253 NA
HETATM   11 CL11 UNL     1     -33.553  17.860  -0.663  1.00 20.00    -0.084 Cl
HETATM   12 BR12 UNL     1     -34.836  16.342  -7.556  1.00 20.00    -0.028 Br
ENDROOT
TORSDOF 0
ENDMDL
MODEL 2
REMARK VINA RESULT:      -4.8      1.835      2.867
REMARK  0 active torsions:
REMARK  status: ('A' for Active; 'I' for Inactive)
ROOT
HETATM    1  C1  UNL     1     -34.608  15.873  -1.924  1.00 20.00     0.017 A 
HETATM    2  C2  UNL     1     -34.467  16.759  -0.857  1.00 20.00     0.025 A 
HETATM    3  C3  UNL     1     -33.520  17.980  -4.772  1.00 20.00     0.031 A 
HETATM    4  C4  UNL     1     -33.692  18.471  -2.378  1.00 20.00     0.036 A 
HETATM    5  C5  UNL     1     -33.682  17.053  -5.792  1.00 20.00     0.119 A 
HETATM    6  C6  UNL     1     -34.292  16.281  -3.231  1.00 20.00     0.010 A 
HETATM    7  C7  UNL     1     -33.829  17.593  -3.464  1.00 20.00    -0.020 A 
HETATM    8  C8  UNL     1     -34.009  18.055  -1.082  1.00 20.00     0.034 A 
HETATM    9  C9  UNL     1     -34.417  15.436  -4.336  1.00 20.00     0.113 A 
HETATM   10  N10 UNL     1     -34.123  15.791  -5.607  1.00 20.00    -0.253 NA
HETATM   11 CL11 UNL     1     -33.834  19.147   0.238  1.00 20.00    -0.084 Cl
HETATM   12 BR12 UNL     1     -35.032  13.628  -4.186  1.00 20.00    -0.028 Br
ENDROOT
TORSDOF 0
ENDMDL
MODEL 3
REMARK VINA RESULT:      -4.8      2.153      2.300
REMARK  0 active torsions:
REMARK  status: ('A' for Active; 'I' for Inactive)
ROOT
HETATM    1  C1  UNL     1     -36.392  16.901  -2.599  1.00 20.00     0.017 A 
HETATM    2  C2  UNL     1     -35.551  17.817  -1.968  1.00 20.00     0.025 A 
HETATM    3  C3  UNL     1     -33.992  14.241  -3.549  1.00 20.00     0.031 A 
HETATM    4  C4  UNL     1     -33.660  16.368  -2.378  1.00 20.00     0.036 A 
HETATM    5  C5  UNL     1     -34.878  13.370  -4.165  1.00 20.00     0.119 A 
HETATM    6  C6  UNL     1     -35.871  15.707  -3.126  1.00 20.00     0.010 A 
HETATM    7  C7  UNL     1     -34.491  15.435  -3.017  1.00 20.00    -0.020 A 
HETATM    8  C8  UNL     1     -34.188  17.552  -1.857  1.00 20.00     0.034 A 
HETATM    9  C9  UNL     1     -36.666  14.755  -3.769  1.00 20.00     0.113 A 
HETATM   10  N10 UNL     1     -36.202  13.596  -4.289  1.00 20.00    -0.253 NA
HETATM   11 CL11 UNL     1     -33.153  18.684  -1.076  1.00 20.00    -0.084 Cl
HETATM   12 BR12 UNL     1     -38.555  14.977  -3.999  1.00 20.00    -0.028 Br
ENDROOT
TORSDOF 0
ENDMDL
MODEL 4
REMARK VINA RESULT:      -4.6      1.630      2.148
REMARK  0 active torsions:
REMARK  status: ('A' for Active; 'I' for Inactive)
ROOT
HETATM    1  C1  UNL     1     -33.716  18.661  -2.625  1.00 20.00     0.017 A 
HETATM    2  C2  UNL     1     -33.696  18.910  -1.253  1.00 20.00     0.025 A 
HETATM    3  C3  UNL     1     -34.904  15.151  -2.713  1.00 20.00     0.031 A 
HETATM    4  C4  UNL     1     -34.480  16.662  -0.831  1.00 20.00     0.036 A 
HETATM    5  C5  UNL     1     -34.901  14.964  -4.088  1.00 20.00     0.119 A 
HETATM    6  C6  UNL     1     -34.119  17.406  -3.112  1.00 20.00     0.010 A 
HETATM    7  C7  UNL     1     -34.506  16.394  -2.208  1.00 20.00    -0.020 A 
HETATM    8  C8  UNL     1     -34.078  17.913  -0.358  1.00 20.00     0.034 A 
HETATM    9  C9  UNL     1     -34.157  17.102  -4.474  1.00 20.00     0.113 A 
HETATM   10  N10 UNL     1     -34.538  15.907  -4.981  1.00 20.00    -0.253 NA
HETATM   11 CL11 UNL     1     -34.054  18.225   1.336  1.00 20.00    -0.084 Cl
HETATM   12 BR12 UNL     1     -33.662  18.366  -5.826  1.00 20.00    -0.028 Br
ENDROOT
TORSDOF 0
ENDMDL
MODEL 5
REMARK VINA RESULT:      -4.5      3.539      4.757
REMARK  0 active torsions:
REMARK  status: ('A' for Active; 'I' for Inactive)
ROOT
HETATM    1  C1  UNL     1     -34.239  15.550  -2.589  1.00 20.00     0.017 A 
HETATM    2  C2  UNL     1     -34.461  14.436  -3.397  1.00 20.00     0.025 A 
HETATM    3  C3  UNL     1     -33.672  18.192  -5.124  1.00 20.00     0.031 A 
HETATM    4  C4  UNL     1     -34.163  15.804  -5.368  1.00 20.00     0.036 A 
HETATM    5  C5  UNL     1     -33.458  19.262  -4.267  1.00 20.00     0.119 A 
HETATM    6  C6  UNL     1     -33.975  16.803  -3.165  1.00 20.00     0.010 A 
HETATM    7  C7  UNL     1     -33.936  16.935  -4.569  1.00 20.00    -0.020 A 
HETATM    8  C8  UNL     1     -34.424  14.562  -4.784  1.00 20.00     0.034 A 
HETATM    9  C9  UNL     1     -33.744  17.951  -2.404  1.00 20.00     0.113 A 
HETATM   10  N10 UNL     1     -33.487  19.174  -2.922  1.00 20.00    -0.253 NA
HETATM   11 CL11 UNL     1     -34.701  13.185  -5.780  1.00 20.00    -0.084 Cl
HETATM   12 BR12 UNL     1     -33.762  17.937  -0.488  1.00 20.00    -0.028 Br
ENDROOT
TORSDOF 0
ENDMDL
MODEL 6
REMARK VINA RESULT:      -4.4      6.507      7.889
REMARK  0 active torsions:
REMARK  status: ('A' for Active; 'I' for Inactive)
ROOT
HETATM    1  C1  UNL     1     -31.781  18.912   1.112  1.00 20.00     0.017 A 
HETATM    2  C2  UNL     1     -32.213  18.795  -0.209  1.00 20.00     0.025 A 
HETATM    3  C3  UNL     1     -34.864  18.027   2.969  1.00 20.00     0.031 A 
HETATM    4  C4  UNL     1     -34.415  18.164   0.564  1.00 20.00     0.036 A 
HETATM    5  C5  UNL     1     -34.376  18.161   4.261  1.00 20.00     0.119 A 
HETATM    6  C6  UNL     1     -32.667  18.656   2.172  1.00 20.00     0.010 A 
HETATM    7  C7  UNL     1     -33.998  18.278   1.899  1.00 20.00    -0.020 A 
HETATM    8  C8  UNL     1     -33.526  18.421  -0.483  1.00 20.00     0.034 A 
HETATM    9  C9  UNL     1     -32.289  18.759   3.513  1.00 20.00     0.113 A 
HETATM   10  N10 UNL     1     -33.111  18.521   4.560  1.00 20.00    -0.253 NA
HETATM   11 CL11 UNL     1     -34.055  18.276  -2.115  1.00 20.00    -0.084 Cl
HETATM   12 BR12 UNL     1     -30.519  19.262   4.049  1.00 20.00    -0.028 Br
ENDROOT
TORSDOF 0
ENDMDL
MODEL 7
REMARK VINA RESULT:      -4.4      6.017      7.244
REMARK  0 active torsions:
REMARK  status: ('A' for Active; 'I' for Inactive)
ROOT
HETATM    1  C1  UNL     1     -31.818  19.090   1.605  1.00 20.00     0.017 A 
HETATM    2  C2  UNL     1     -31.063  19.263   2.764  1.00 20.00     0.025 A 
HETATM    3  C3  UNL     1     -35.049  17.931   3.003  1.00 20.00     0.031 A 
HETATM    4  C4  UNL     1     -32.948  18.553   4.101  1.00 20.00     0.036 A 
HETATM    5  C5  UNL     1     -35.748  17.778   1.815  1.00 20.00     0.119 A 
HETATM    6  C6  UNL     1     -33.148  18.645   1.685  1.00 20.00     0.010 A 
HETATM    7  C7  UNL     1     -33.722  18.373   2.945  1.00 20.00    -0.020 A 
HETATM    8  C8  UNL     1     -31.626  18.995   4.010  1.00 20.00     0.034 A 
HETATM    9  C9  UNL     1     -33.949  18.454   0.557  1.00 20.00     0.113 A 
HETATM   10  N10 UNL     1     -35.232  18.027   0.593  1.00 20.00    -0.253 NA
HETATM   11 CL11 UNL     1     -30.692  19.211   5.440  1.00 20.00    -0.084 Cl
HETATM   12 BR12 UNL     1     -33.317  18.779  -1.222  1.00 20.00    -0.028 Br
ENDROOT
TORSDOF 0
ENDMDL
MODEL 8
REMARK VINA RESULT:      -4.3      6.198      7.710
REMARK  0 active torsions:
REMARK  status: ('A' for Active; 'I' for Inactive)
ROOT
HETATM    1  C1  UNL     1     -33.621  18.578   3.667  1.00 20.00     0.017 A 
HETATM    2  C2  UNL     1     -32.639  18.760   4.639  1.00 20.00     0.025 A 
HETATM    3  C3  UNL     1     -31.667  19.054   0.554  1.00 20.00     0.031 A 
HETATM    4  C4  UNL     1     -30.993  19.140   2.909  1.00 20.00     0.036 A 
HETATM    5  C5  UNL     1     -32.688  18.864  -0.365  1.00 20.00     0.119 A 
HETATM    6  C6  UNL     1     -33.297  18.677   2.304  1.00 20.00     0.010 A 
HETATM    7  C7  UNL     1     -31.970  18.960   1.917  1.00 20.00    -0.020 A 
HETATM    8  C8  UNL     1     -31.328  19.040   4.262  1.00 20.00     0.034 A 
HETATM    9  C9  UNL     1     -34.241  18.505   1.289  1.00 20.00     0.113 A 
HETATM   10  N10 UNL     1     -33.967  18.592  -0.033  1.00 20.00    -0.253 NA
HETATM   11 CL11 UNL     1     -30.116  19.263   5.465  1.00 20.00    -0.084 Cl
HETATM   12 BR12 UNL     1     -36.081  18.116   1.649  1.00 20.00    -0.028 Br
ENDROOT
TORSDOF 0
ENDMDL
MODEL 9
REMARK VINA RESULT:      -4.3     12.414     13.874
REMARK  0 active torsions:
REMARK  status: ('A' for Active; 'I' for Inactive)
ROOT
HETATM    1  C1  UNL     1     -43.173   5.143  -3.350  1.00 20.00     0.017 A 
HETATM    2  C2  UNL     1     -43.159   3.768  -3.582  1.00 20.00     0.025 A 
HETATM    3  C3  UNL     1     -40.644   5.456  -0.659  1.00 20.00     0.031 A 
HETATM    4  C4  UNL     1     -41.471   3.494  -1.874  1.00 20.00     0.036 A 
HETATM    5  C5  UNL     1     -40.704   6.829  -0.474  1.00 20.00     0.119 A 
HETATM    6  C6  UNL     1     -42.334   5.706  -2.374  1.00 20.00     0.010 A 
HETATM    7  C7  UNL     1     -41.472   4.876  -1.627  1.00 20.00    -0.020 A 
HETATM    8  C8  UNL     1     -42.310   2.945  -2.846  1.00 20.00     0.034 A 
HETATM    9  C9  UNL     1     -42.308   7.075  -2.100  1.00 20.00     0.113 A 
HETATM   10  N10 UNL     1     -41.515   7.654  -1.169  1.00 20.00    -0.253 NA
HETATM   11 CL11 UNL     1     -42.293   1.248  -3.136  1.00 20.00    -0.084 Cl
HETATM   12 BR12 UNL     1     -43.416   8.333  -3.027  1.00 20.00    -0.028 Br
ENDROOT
TORSDOF 0
ENDMDL
