MODEL 1
REMARK VINA RESULT:      -5.0      0.000      0.000
REMARK  0 active torsions:
REMARK  status: ('A' for Active; 'I' for Inactive)
ROOT
HETATM    1  C1  UNL     1     -34.105   5.405   2.859  1.00 20.00     0.105 C 
HETATM    2  C2  UNL     1     -34.221   6.330   4.780  1.00 20.00     0.260 C 
HETATM    3  C3  UNL     1     -33.048   5.959   3.838  1.00 20.00     0.128 C 
HETATM    4  C4  UNL     1     -35.032   5.206   4.080  1.00 20.00     0.276 C 
HETATM    5  F5  UNL     1     -33.995   6.158   6.101  1.00 20.00    -0.241 F 
HETATM    6  F6  UNL     1     -34.963   3.990   4.670  1.00 20.00    -0.203 F 
HETATM    7  F7  UNL     1     -36.341   5.469   3.874  1.00 20.00    -0.203 F 
HETATM    8 CL8  UNL     1     -31.959   7.253   3.274  1.00 20.00    -0.122 Cl
ENDROOT
TORSDOF 0
ENDMDL
MODEL 2
REMARK VINA RESULT:      -4.9      1.888      2.518
REMARK  0 active torsions:
REMARK  status: ('A' for Active; 'I' for Inactive)
ROOT
HETATM    1  C1  UNL     1     -35.019   5.147   6.224  1.00 20.00     0.105 C 
HETATM    2  C2  UNL     1     -33.861   5.716   4.523  1.00 20.00     0.260 C 
HETATM    3  C3  UNL     1     -34.340   6.464   5.794  1.00 20.00     0.128 C 
HETATM    4  C4  UNL     1     -35.070   4.764   4.728  1.00 20.00     0.276 C 
HETATM    5  F5  UNL     1     -33.865   6.435   3.379  1.00 20.00    -0.241 F 
HETATM    6  F6  UNL     1     -36.201   5.116   4.076  1.00 20.00    -0.203 F 
HETATM    7  F7  UNL     1     -34.844   3.462   4.446  1.00 20.00    -0.203 F 
HETATM    8 CL8  UNL     1     -33.119   7.187   6.874  1.00 20.00    -0.122 Cl
ENDROOT
TORSDOF 0
ENDMDL
MODEL 3
REMARK VINA RESULT:      -4.8      1.119      2.202
REMARK  0 active torsions:
REMARK  status: ('A' for Active; 'I' for Inactive)
ROOT
HETATM    1  C1  UNL     1     -34.139   6.003   5.093  1.00 20.00     0.105 C 
HETATM    2  C2  UNL     1     -33.966   5.140   3.148  1.00 20.00     0.260 C 
HETATM    3  C3  UNL     1     -33.609   6.526   3.742  1.00 20.00     0.128 C 
HETATM    4  C4  UNL     1     -35.010   5.011   4.290  1.00 20.00     0.276 C 
HETATM    5  F5  UNL     1     -34.465   5.146   1.892  1.00 20.00    -0.241 F 
HETATM    6  F6  UNL     1     -36.255   5.444   3.988  1.00 20.00    -0.203 F 
HETATM    7  F7  UNL     1     -35.142   3.777   4.826  1.00 20.00    -0.203 F 
HETATM    8 CL8  UNL     1     -31.921   7.091   3.647  1.00 20.00    -0.122 Cl
ENDROOT
TORSDOF 0
ENDMDL
MODEL 4
REMARK VINA RESULT:      -4.6      1.829      1.974
REMARK  0 active torsions:
REMARK  status: ('A' for Active; 'I' for Inactive)
ROOT
HETATM    1  C1  UNL     1     -34.142   6.592   4.133  1.00 20.00     0.105 C 
HETATM    2  C2  UNL     1     -35.088   5.284   5.529  1.00 20.00     0.260 C 
HETATM    3  C3  UNL     1     -33.727   6.024   5.506  1.00 20.00     0.128 C 
HETATM    4  C4  UNL     1     -35.065   5.362   3.979  1.00 20.00     0.276 C 
HETATM    5  F5  UNL     1     -35.074   4.039   6.056  1.00 20.00    -0.241 F 
HETATM    6  F6  UNL     1     -34.514   4.297   3.354  1.00 20.00    -0.203 F 
HETATM    7  F7  UNL     1     -36.257   5.592   3.387  1.00 20.00    -0.203 F 
HETATM    8 CL8  UNL     1     -33.348   7.165   6.823  1.00 20.00    -0.122 Cl
ENDROOT
TORSDOF 0
ENDMDL
MODEL 5
REMARK VINA RESULT:      -4.6      1.701      1.852
REMARK  0 active torsions:
REMARK  status: ('A' for Active; 'I' for Inactive)
ROOT
HETATM    1  C1  UNL     1     -34.589   4.906   4.543  1.00 20.00     0.105 C 
HETATM    2  C2  UNL     1     -34.050   6.494   5.865  1.00 20.00     0.260 C 
HETATM    3  C3  UNL     1     -33.485   5.983   4.516  1.00 20.00     0.128 C 
HETATM    4  C4  UNL     1     -34.606   5.061   6.081  1.00 20.00     0.276 C 
HETATM    5  F5  UNL     1     -33.136   6.913   6.768  1.00 20.00    -0.241 F 
HETATM    6  F6  UNL     1     -33.791   4.220   6.758  1.00 20.00    -0.203 F 
HETATM    7  F7  UNL     1     -35.822   4.986   6.666  1.00 20.00    -0.203 F 
HETATM    8 CL8  UNL     1     -33.422   7.106   3.132  1.00 20.00    -0.122 Cl
ENDROOT
TORSDOF 0
ENDMDL
MODEL 6
REMARK VINA RESULT:      -4.5      1.116      2.186
REMARK  0 active torsions:
REMARK  status: ('A' for Active; 'I' for Inactive)
ROOT
HETATM    1  C1  UNL     1     -33.416   5.391   5.326  1.00 20.00     0.105 C 
HETATM    2  C2  UNL     1     -34.960   5.253   3.858  1.00 20.00     0.260 C 
HETATM    3  C3  UNL     1     -33.953   6.362   4.253  1.00 20.00     0.128 C 
HETATM    4  C4  UNL     1     -34.802   4.708   5.303  1.00 20.00     0.276 C 
HETATM    5  F5  UNL     1     -36.199   5.673   3.520  1.00 20.00    -0.241 F 
HETATM    6  F6  UNL     1     -35.698   5.180   6.201  1.00 20.00    -0.203 F 
HETATM    7  F7  UNL     1     -34.797   3.362   5.425  1.00 20.00    -0.203 F 
HETATM    8 CL8  UNL     1     -32.825   6.976   3.017  1.00 20.00    -0.122 Cl
ENDROOT
TORSDOF 0
ENDMDL
MODEL 7
REMARK VINA RESULT:      -4.3      2.662      3.041
REMARK  0 active torsions:
REMARK  status: ('A' for Active; 'I' for Inactive)
ROOT
HETATM    1  C1  UNL     1     -34.449   5.247   3.549  1.00 20.00     0.105 C 
HETATM    2  C2  UNL     1     -33.562   6.057   5.313  1.00 20.00     0.260 C 
HETATM    3  C3  UNL     1     -34.903   5.338   5.021  1.00 20.00     0.128 C 
HETATM    4  C4  UNL     1     -33.556   6.478   3.819  1.00 20.00     0.276 C 
HETATM    5  F5  UNL     1     -33.616   7.067   6.210  1.00 20.00    -0.241 F 
HETATM    6  F6  UNL     1     -34.123   7.677   3.554  1.00 20.00    -0.203 F 
HETATM    7  F7  UNL     1     -32.348   6.473   3.214  1.00 20.00    -0.203 F 
HETATM    8 CL8  UNL     1     -35.275   3.829   5.894  1.00 20.00    -0.122 Cl
ENDROOT
TORSDOF 0
ENDMDL
MODEL 8
REMARK VINA RESULT:      -4.2      2.771      3.350
REMARK  0 active torsions:
REMARK  status: ('A' for Active; 'I' for Inactive)
ROOT
HETATM    1  C1  UNL     1     -33.168   6.533   4.969  1.00 20.00     0.105 C 
HETATM    2  C2  UNL     1     -34.332   5.694   3.389  1.00 20.00     0.260 C 
HETATM    3  C3  UNL     1     -33.980   5.229   4.824  1.00 20.00     0.128 C 
HETATM    4  C4  UNL     1     -33.029   6.537   3.430  1.00 20.00     0.276 C 
HETATM    5  F5  UNL     1     -34.376   4.725   2.448  1.00 20.00    -0.241 F 
HETATM    6  F6  UNL     1     -31.927   5.923   2.944  1.00 20.00    -0.203 F 
HETATM    7  F7  UNL     1     -33.097   7.749   2.837  1.00 20.00    -0.203 F 
HETATM    8 CL8  UNL     1     -35.306   4.917   5.974  1.00 20.00    -0.122 Cl
ENDROOT
TORSDOF 0
ENDMDL
MODEL 9
REMARK VINA RESULT:      -3.9     11.884     12.372
REMARK  0 active torsions:
REMARK  status: ('A' for Active; 'I' for Inactive)
ROOT
HETATM    1  C1  UNL     1     -35.468  14.565  -3.849  1.00 20.00     0.105 C 
HETATM    2  C2  UNL     1     -33.350  14.605  -3.587  1.00 20.00     0.260 C 
HETATM    3  C3  UNL     1     -34.491  15.595  -3.243  1.00 20.00     0.128 C 
HETATM    4  C4  UNL     1     -34.283  14.039  -4.690  1.00 20.00     0.276 C 
HETATM    5  F5  UNL     1     -32.196  15.161  -4.020  1.00 20.00    -0.241 F 
HETATM    6  F6  UNL     1     -34.143  14.601  -5.912  1.00 20.00    -0.203 F 
HETATM    7  F7  UNL     1     -34.236  12.700  -4.867  1.00 20.00    -0.203 F 
HETATM    8 CL8  UNL     1     -34.717  16.088  -1.545  1.00 20.00    -0.122 Cl
ENDROOT
TORSDOF 0
ENDMDL
