MODEL 1
REMARK VINA RESULT:      -4.8      0.000      0.000
REMARK  1 active torsions:
REMARK  status: ('A' for Active; 'I' for Inactive)
REMARK    1  A    between atoms: C1_1  and  C2_2 
ROOT
HETATM    1  C2  UNL     1     -35.000   4.967   4.573  1.00 20.00     0.357 C 
HETATM    2  F5  UNL     1     -34.914   3.643   4.298  1.00 20.00    -0.187 F 
HETATM    3  F6  UNL     1     -36.211   5.386   4.130  1.00 20.00    -0.187 F 
HETATM    4 BR7  UNL     1     -33.594   5.932   3.651  1.00 20.00    -0.005 Br
ENDROOT
BRANCH   1   5
HETATM    5  C1  UNL     1     -34.906   5.185   6.060  1.00 20.00     0.436 C 
HETATM    6  F3  UNL     1     -34.369   6.401   6.326  1.00 20.00    -0.207 F 
HETATM    7  F4  UNL     1     -34.060   4.265   6.591  1.00 20.00    -0.207 F 
ENDBRANCH   1   5
TORSDOF 1
ENDMDL
MODEL 2
REMARK VINA RESULT:      -4.6      0.631      1.224
REMARK  1 active torsions:
REMARK  status: ('A' for Active; 'I' for Inactive)
REMARK    1  A    between atoms: C1_1  and  C2_2 
ROOT
HETATM    1  C2  UNL     1     -34.847   4.964   4.548  1.00 20.00     0.357 C 
HETATM    2  F5  UNL     1     -34.817   3.679   4.119  1.00 20.00    -0.187 F 
HETATM    3  F6  UNL     1     -36.085   5.445   4.272  1.00 20.00    -0.187 F 
HETATM    4 BR7  UNL     1     -33.512   6.012   3.612  1.00 20.00    -0.005 Br
ENDROOT
BRANCH   1   5
HETATM    5  C1  UNL     1     -34.611   5.009   6.035  1.00 20.00     0.436 C 
HETATM    6  F3  UNL     1     -35.620   4.386   6.692  1.00 20.00    -0.207 F 
HETATM    7  F4  UNL     1     -34.625   6.304   6.447  1.00 20.00    -0.207 F 
ENDBRANCH   1   5
TORSDOF 1
ENDMDL
MODEL 3
REMARK VINA RESULT:      -4.5      1.965      2.486
REMARK  1 active torsions:
REMARK  status: ('A' for Active; 'I' for Inactive)
REMARK    1  A    between atoms: C1_1  and  C2_2 
ROOT
HETATM    1  C2  UNL     1     -34.839   5.343   3.896  1.00 20.00     0.357 C 
HETATM    2  F5  UNL     1     -36.075   5.766   3.536  1.00 20.00    -0.187 F 
HETATM    3  F6  UNL     1     -34.321   4.679   2.832  1.00 20.00    -0.187 F 
HETATM    4 BR7  UNL     1     -34.960   4.149   5.419  1.00 20.00    -0.005 Br
ENDROOT
BRANCH   1   5
HETATM    5  C1  UNL     1     -33.969   6.529   4.219  1.00 20.00     0.436 C 
HETATM    6  F3  UNL     1     -32.729   6.360   3.697  1.00 20.00    -0.207 F 
HETATM    7  F4  UNL     1     -33.813   6.611   5.566  1.00 20.00    -0.207 F 
ENDBRANCH   1   5
TORSDOF 1
ENDMDL
MODEL 4
REMARK VINA RESULT:      -4.5      1.925      2.784
REMARK  1 active torsions:
REMARK  status: ('A' for Active; 'I' for Inactive)
REMARK    1  A    between atoms: C1_1  and  C2_2 
ROOT
HETATM    1  C2  UNL     1     -35.020   5.030   4.403  1.00 20.00     0.357 C 
HETATM    2  F5  UNL     1     -36.308   5.363   4.147  1.00 20.00    -0.187 F 
HETATM    3  F6  UNL     1     -34.914   3.689   4.224  1.00 20.00    -0.187 F 
HETATM    4 BR7  UNL     1     -34.564   5.486   6.231  1.00 20.00    -0.005 Br
ENDROOT
BRANCH   1   5
HETATM    5  C1  UNL     1     -34.108   5.738   3.435  1.00 20.00     0.436 C 
HETATM    6  F3  UNL     1     -34.059   5.068   2.258  1.00 20.00    -0.207 F 
HETATM    7  F4  UNL     1     -32.845   5.736   3.934  1.00 20.00    -0.207 F 
ENDBRANCH   1   5
TORSDOF 1
ENDMDL
MODEL 5
REMARK VINA RESULT:      -4.4      1.622      2.700
REMARK  1 active torsions:
REMARK  status: ('A' for Active; 'I' for Inactive)
REMARK    1  A    between atoms: C1_1  and  C2_2 
ROOT
HETATM    1  C2  UNL     1     -34.637   4.777   5.751  1.00 20.00     0.357 C 
HETATM    2  F5  UNL     1     -35.751   4.492   6.469  1.00 20.00    -0.187 F 
HETATM    3  F6  UNL     1     -33.728   3.809   6.029  1.00 20.00    -0.187 F 
HETATM    4 BR7  UNL     1     -33.934   6.507   6.270  1.00 20.00    -0.005 Br
ENDROOT
BRANCH   1   5
HETATM    5  C1  UNL     1     -34.960   4.754   4.280  1.00 20.00     0.436 C 
HETATM    6  F3  UNL     1     -34.037   5.461   3.584  1.00 20.00    -0.207 F 
HETATM    7  F4  UNL     1     -36.152   5.373   4.078  1.00 20.00    -0.207 F 
ENDBRANCH   1   5
TORSDOF 1
ENDMDL
MODEL 6
REMARK VINA RESULT:      -4.4      1.562      2.022
REMARK  1 active torsions:
REMARK  status: ('A' for Active; 'I' for Inactive)
REMARK    1  A    between atoms: C1_1  and  C2_2 
ROOT
HETATM    1  C2  UNL     1     -34.573   5.083   5.812  1.00 20.00     0.357 C 
HETATM    2  F5  UNL     1     -33.958   3.887   5.977  1.00 20.00    -0.187 F 
HETATM    3  F6  UNL     1     -35.628   5.106   6.664  1.00 20.00    -0.187 F 
HETATM    4 BR7  UNL     1     -35.199   5.265   3.986  1.00 20.00    -0.005 Br
ENDROOT
BRANCH   1   5
HETATM    5  C1  UNL     1     -33.622   6.197   6.161  1.00 20.00     0.436 C 
HETATM    6  F3  UNL     1     -34.268   7.170   6.849  1.00 20.00    -0.207 F 
HETATM    7  F4  UNL     1     -33.170   6.770   5.015  1.00 20.00    -0.207 F 
ENDBRANCH   1   5
TORSDOF 1
ENDMDL
MODEL 7
REMARK VINA RESULT:      -4.4      1.964      2.569
REMARK  1 active torsions:
REMARK  status: ('A' for Active; 'I' for Inactive)
REMARK    1  A    between atoms: C1_1  and  C2_2 
ROOT
HETATM    1  C2  UNL     1     -34.020   6.079   4.348  1.00 20.00     0.357 C 
HETATM    2  F5  UNL     1     -32.774   5.728   3.948  1.00 20.00    -0.187 F 
HETATM    3  F6  UNL     1     -34.302   7.270   3.764  1.00 20.00    -0.187 F 
HETATM    4 BR7  UNL     1     -34.072   6.266   6.277  1.00 20.00    -0.005 Br
ENDROOT
BRANCH   1   5
HETATM    5  C1  UNL     1     -35.014   5.046   3.887  1.00 20.00     0.436 C 
HETATM    6  F3  UNL     1     -36.207   5.628   3.614  1.00 20.00    -0.207 F 
HETATM    7  F4  UNL     1     -35.236   4.164   4.896  1.00 20.00    -0.207 F 
ENDBRANCH   1   5
TORSDOF 1
ENDMDL
MODEL 8
REMARK VINA RESULT:      -4.2      0.968      1.992
REMARK  1 active torsions:
REMARK  status: ('A' for Active; 'I' for Inactive)
REMARK    1  A    between atoms: C1_1  and  C2_2 
ROOT
HETATM    1  C2  UNL     1     -34.371   5.859   4.460  1.00 20.00     0.357 C 
HETATM    2  F5  UNL     1     -35.493   5.907   3.702  1.00 20.00    -0.187 F 
HETATM    3  F6  UNL     1     -34.415   6.923   5.301  1.00 20.00    -0.187 F 
HETATM    4 BR7  UNL     1     -32.799   5.979   3.332  1.00 20.00    -0.005 Br
ENDROOT
BRANCH   1   5
HETATM    5  C1  UNL     1     -34.353   4.585   5.263  1.00 20.00     0.436 C 
HETATM    6  F3  UNL     1     -35.167   3.661   4.698  1.00 20.00    -0.207 F 
HETATM    7  F4  UNL     1     -34.852   4.834   6.501  1.00 20.00    -0.207 F 
ENDBRANCH   1   5
TORSDOF 1
ENDMDL
MODEL 9
REMARK VINA RESULT:      -4.1      1.429      2.528
REMARK  1 active torsions:
REMARK  status: ('A' for Active; 'I' for Inactive)
REMARK    1  A    between atoms: C1_1  and  C2_2 
ROOT
HETATM    1  C2  UNL     1     -33.990   6.310   4.381  1.00 20.00     0.357 C 
HETATM    2  F5  UNL     1     -34.705   7.385   3.969  1.00 20.00    -0.187 F 
HETATM    3  F6  UNL     1     -33.578   6.570   5.647  1.00 20.00    -0.187 F 
HETATM    4 BR7  UNL     1     -32.452   6.051   3.230  1.00 20.00    -0.005 Br
ENDROOT
BRANCH   1   5
HETATM    5  C1  UNL     1     -34.866   5.085   4.380  1.00 20.00     0.436 C 
HETATM    6  F3  UNL     1     -36.047   5.351   3.770  1.00 20.00    -0.207 F 
HETATM    7  F4  UNL     1     -35.161   4.750   5.663  1.00 20.00    -0.207 F 
ENDBRANCH   1   5
TORSDOF 1
ENDMDL
