MODEL 1
REMARK VINA RESULT:      -5.1      0.000      0.000
REMARK  0 active torsions:
REMARK  status: ('A' for Active; 'I' for Inactive)
ROOT
HETATM    1  C1  UNL     1     -35.923  13.909  -3.999  1.00 20.00     0.009 C 
HETATM    2  C2  UNL     1     -34.540  14.458  -6.019  1.00 20.00     0.012 C 
HETATM    3  C3  UNL     1     -33.421  13.786  -3.871  1.00 20.00     0.012 C 
HETATM    4  C4  UNL     1     -35.767  16.279  -4.806  1.00 20.00     0.012 C 
HETATM    5  C5  UNL     1     -34.650  15.608  -2.664  1.00 20.00     0.012 C 
HETATM    6  C6  UNL     1     -34.645  13.551  -4.778  1.00 20.00    -0.013 C 
HETATM    7  C7  UNL     1     -35.880  15.384  -3.561  1.00 20.00    -0.013 C 
HETATM    8  C8  UNL     1     -34.487  15.934  -5.590  1.00 20.00     0.021 C 
HETATM    9  C9  UNL     1     -33.364  15.259  -3.434  1.00 20.00     0.021 C 
HETATM   10  C10 UNL     1     -33.263  16.143  -4.687  1.00 20.00     0.178 C 
HETATM   11  F11 UNL     1     -33.199  17.449  -4.310  1.00 20.00    -0.249 F 
ENDROOT
TORSDOF 0
ENDMDL
MODEL 2
REMARK VINA RESULT:      -5.1      1.414      2.669
REMARK  0 active torsions:
REMARK  status: ('A' for Active; 'I' for Inactive)
ROOT
HETATM    1  C1  UNL     1     -34.611  15.623  -2.647  1.00 20.00     0.009 C 
HETATM    2  C2  UNL     1     -33.428  13.762  -3.845  1.00 20.00     0.012 C 
HETATM    3  C3  UNL     1     -33.206  16.129  -4.662  1.00 20.00     0.012 C 
HETATM    4  C4  UNL     1     -35.926  13.955  -3.980  1.00 20.00     0.012 C 
HETATM    5  C5  UNL     1     -35.703  16.315  -4.796  1.00 20.00     0.012 C 
HETATM    6  C6  UNL     1     -33.332  15.238  -3.412  1.00 20.00    -0.013 C 
HETATM    7  C7  UNL     1     -35.844  15.428  -3.547  1.00 20.00    -0.013 C 
HETATM    8  C8  UNL     1     -34.653  13.560  -4.753  1.00 20.00     0.021 C 
HETATM    9  C9  UNL     1     -34.430  15.935  -5.573  1.00 20.00     0.021 C 
HETATM   10  C10 UNL     1     -34.507  14.458  -5.990  1.00 20.00     0.178 C 
HETATM   11  F11 UNL     1     -35.581  14.278  -6.806  1.00 20.00    -0.249 F 
ENDROOT
TORSDOF 0
ENDMDL
MODEL 3
REMARK VINA RESULT:      -5.1      1.368      2.741
REMARK  0 active torsions:
REMARK  status: ('A' for Active; 'I' for Inactive)
ROOT
HETATM    1  C1  UNL     1     -35.627  16.551  -5.043  1.00 20.00     0.009 C 
HETATM    2  C2  UNL     1     -36.387  14.358  -4.091  1.00 20.00     0.012 C 
HETATM    3  C3  UNL     1     -35.056  15.952  -2.675  1.00 20.00     0.012 C 
HETATM    4  C4  UNL     1     -34.587  14.412  -5.837  1.00 20.00     0.012 C 
HETATM    5  C5  UNL     1     -33.260  16.001  -4.424  1.00 20.00     0.012 C 
HETATM    6  C6  UNL     1     -36.132  15.844  -3.772  1.00 20.00    -0.013 C 
HETATM    7  C7  UNL     1     -34.323  15.895  -5.531  1.00 20.00    -0.013 C 
HETATM    8  C8  UNL     1     -35.086  13.691  -4.570  1.00 20.00     0.021 C 
HETATM    9  C9  UNL     1     -33.751  15.291  -3.150  1.00 20.00     0.021 C 
HETATM   10  C10 UNL     1     -34.030  13.813  -3.463  1.00 20.00     0.178 C 
HETATM   11  F11 UNL     1     -32.878  13.216  -3.872  1.00 20.00    -0.249 F 
ENDROOT
TORSDOF 0
ENDMDL
MODEL 4
REMARK VINA RESULT:      -5.1      1.200      2.558
REMARK  0 active torsions:
REMARK  status: ('A' for Active; 'I' for Inactive)
ROOT
HETATM    1  C1  UNL     1     -33.419  13.773  -3.864  1.00 20.00     0.009 C 
HETATM    2  C2  UNL     1     -33.185  16.150  -4.633  1.00 20.00     0.012 C 
HETATM    3  C3  UNL     1     -34.606  15.607  -2.631  1.00 20.00     0.012 C 
HETATM    4  C4  UNL     1     -34.497  14.511  -6.005  1.00 20.00     0.012 C 
HETATM    5  C5  UNL     1     -35.915  13.971  -4.009  1.00 20.00     0.012 C 
HETATM    6  C6  UNL     1     -33.323  15.237  -3.399  1.00 20.00    -0.013 C 
HETATM    7  C7  UNL     1     -34.641  13.590  -4.783  1.00 20.00    -0.013 C 
HETATM    8  C8  UNL     1     -34.407  15.980  -5.551  1.00 20.00     0.021 C 
HETATM    9  C9  UNL     1     -35.833  15.435  -3.544  1.00 20.00     0.021 C 
HETATM   10  C10 UNL     1     -35.672  16.352  -4.766  1.00 20.00     0.178 C 
HETATM   11  F11 UNL     1     -36.759  16.217  -5.574  1.00 20.00    -0.249 F 
ENDROOT
TORSDOF 0
ENDMDL
MODEL 5
REMARK VINA RESULT:      -5.0      0.729      2.377
REMARK  0 active torsions:
REMARK  status: ('A' for Active; 'I' for Inactive)
ROOT
HETATM    1  C1  UNL     1     -33.434  13.764  -3.869  1.00 20.00     0.009 C 
HETATM    2  C2  UNL     1     -35.930  13.993  -4.002  1.00 20.00     0.012 C 
HETATM    3  C3  UNL     1     -34.507  14.524  -6.005  1.00 20.00     0.012 C 
HETATM    4  C4  UNL     1     -34.592  15.611  -2.628  1.00 20.00     0.012 C 
HETATM    5  C5  UNL     1     -33.174  16.140  -4.627  1.00 20.00     0.012 C 
HETATM    6  C6  UNL     1     -34.662  13.598  -4.783  1.00 20.00    -0.013 C 
HETATM    7  C7  UNL     1     -33.319  15.225  -3.399  1.00 20.00    -0.013 C 
HETATM    8  C8  UNL     1     -35.827  15.456  -3.536  1.00 20.00     0.021 C 
HETATM    9  C9  UNL     1     -34.399  15.988  -5.546  1.00 20.00     0.021 C 
HETATM   10  C10 UNL     1     -35.672  16.358  -4.769  1.00 20.00     0.178 C 
HETATM   11  F11 UNL     1     -35.591  17.656  -4.368  1.00 20.00    -0.249 F 
ENDROOT
TORSDOF 0
ENDMDL
MODEL 6
REMARK VINA RESULT:      -5.0      1.130      2.401
REMARK  0 active torsions:
REMARK  status: ('A' for Active; 'I' for Inactive)
ROOT
HETATM    1  C1  UNL     1     -34.608  14.412  -5.954  1.00 20.00     0.009 C 
HETATM    2  C2  UNL     1     -35.654  16.522  -5.087  1.00 20.00     0.012 C 
HETATM    3  C3  UNL     1     -33.161  16.215  -4.979  1.00 20.00     0.012 C 
HETATM    4  C4  UNL     1     -35.970  14.364  -3.848  1.00 20.00     0.012 C 
HETATM    5  C5  UNL     1     -33.484  14.059  -3.740  1.00 20.00     0.012 C 
HETATM    6  C6  UNL     1     -34.427  15.934  -5.811  1.00 20.00    -0.013 C 
HETATM    7  C7  UNL     1     -34.748  13.764  -4.565  1.00 20.00    -0.013 C 
HETATM    8  C8  UNL     1     -35.797  15.886  -3.693  1.00 20.00     0.021 C 
HETATM    9  C9  UNL     1     -33.296  15.578  -3.585  1.00 20.00     0.021 C 
HETATM   10  C10 UNL     1     -34.525  16.177  -2.884  1.00 20.00     0.178 C 
HETATM   11  F11 UNL     1     -34.646  15.629  -1.644  1.00 20.00    -0.249 F 
ENDROOT
TORSDOF 0
ENDMDL
MODEL 7
REMARK VINA RESULT:      -4.9      0.771      2.412
REMARK  0 active torsions:
REMARK  status: ('A' for Active; 'I' for Inactive)
ROOT
HETATM    1  C1  UNL     1     -34.530  14.539  -6.013  1.00 20.00     0.009 C 
HETATM    2  C2  UNL     1     -33.464  13.739  -3.887  1.00 20.00     0.012 C 
HETATM    3  C3  UNL     1     -35.958  14.028  -4.015  1.00 20.00     0.012 C 
HETATM    4  C4  UNL     1     -33.155  16.115  -4.630  1.00 20.00     0.012 C 
HETATM    5  C5  UNL     1     -35.642  16.403  -4.756  1.00 20.00     0.012 C 
HETATM    6  C6  UNL     1     -34.700  13.609  -4.799  1.00 20.00    -0.013 C 
HETATM    7  C7  UNL     1     -34.385  15.998  -5.545  1.00 20.00    -0.013 C 
HETATM    8  C8  UNL     1     -33.316  15.193  -3.407  1.00 20.00     0.021 C 
HETATM    9  C9  UNL     1     -35.819  15.483  -3.535  1.00 20.00     0.021 C 
HETATM   10  C10 UNL     1     -34.581  15.589  -2.631  1.00 20.00     0.178 C 
HETATM   11  F11 UNL     1     -34.455  16.871  -2.191  1.00 20.00    -0.249 F 
ENDROOT
TORSDOF 0
ENDMDL
MODEL 8
REMARK VINA RESULT:      -4.9      1.554      3.039
REMARK  0 active torsions:
REMARK  status: ('A' for Active; 'I' for Inactive)
ROOT
HETATM    1  C1  UNL     1     -33.036  16.071  -4.694  1.00 20.00     0.009 C 
HETATM    2  C2  UNL     1     -34.388  15.769  -2.602  1.00 20.00     0.012 C 
HETATM    3  C3  UNL     1     -33.550  13.761  -3.862  1.00 20.00     0.012 C 
HETATM    4  C4  UNL     1     -35.483  16.619  -4.692  1.00 20.00     0.012 C 
HETATM    5  C5  UNL     1     -34.648  14.616  -5.948  1.00 20.00     0.012 C 
HETATM    6  C6  UNL     1     -33.221  15.204  -3.436  1.00 20.00    -0.013 C 
HETATM    7  C7  UNL     1     -34.324  16.062  -5.536  1.00 20.00    -0.013 C 
HETATM    8  C8  UNL     1     -35.682  15.755  -3.433  1.00 20.00     0.021 C 
HETATM    9  C9  UNL     1     -34.842  13.741  -4.697  1.00 20.00     0.021 C 
HETATM   10  C10 UNL     1     -35.989  14.309  -3.847  1.00 20.00     0.178 C 
HETATM   11  F11 UNL     1     -37.140  14.284  -4.573  1.00 20.00    -0.249 F 
ENDROOT
TORSDOF 0
ENDMDL
MODEL 9
REMARK VINA RESULT:      -4.9      1.272      2.701
REMARK  0 active torsions:
REMARK  status: ('A' for Active; 'I' for Inactive)
ROOT
HETATM    1  C1  UNL     1     -34.450  15.737  -2.539  1.00 20.00     0.009 C 
HETATM    2  C2  UNL     1     -35.719  16.779  -4.436  1.00 20.00     0.012 C 
HETATM    3  C3  UNL     1     -36.153  14.388  -3.793  1.00 20.00     0.012 C 
HETATM    4  C4  UNL     1     -33.278  16.263  -4.692  1.00 20.00     0.012 C 
HETATM    5  C5  UNL     1     -33.711  13.878  -4.051  1.00 20.00     0.012 C 
HETATM    6  C6  UNL     1     -35.811  15.791  -3.257  1.00 20.00    -0.013 C 
HETATM    7  C7  UNL     1     -33.355  15.276  -3.516  1.00 20.00    -0.013 C 
HETATM    8  C8  UNL     1     -34.632  16.320  -5.423  1.00 20.00     0.021 C 
HETATM    9  C9  UNL     1     -35.067  13.921  -4.778  1.00 20.00     0.021 C 
HETATM   10  C10 UNL     1     -34.993  14.921  -5.942  1.00 20.00     0.178 C 
HETATM   11  F11 UNL     1     -34.043  14.510  -6.826  1.00 20.00    -0.249 F 
ENDROOT
TORSDOF 0
ENDMDL
