MODEL 1
REMARK VINA RESULT:      -3.7      0.000      0.000
REMARK  1 active torsions:
REMARK  status: ('A' for Active; 'I' for Inactive)
REMARK    1  A    between atoms: C2_2  and  C3_3 
ROOT
HETATM    1  C1  UNL     1     -34.765  13.289  -4.268  1.00 20.00     0.058 C 
HETATM    2  C2  UNL     1     -34.512  14.752  -4.631  1.00 20.00     0.189 C 
HETATM    3 CL6  UNL     1     -34.323  14.893  -6.412  1.00 20.00    -0.094 Cl
HETATM    4 CL7  UNL     1     -35.977  15.701  -4.174  1.00 20.00    -0.094 Cl
ENDROOT
BRANCH   2   5
HETATM    5  C3  UNL     1     -33.298  15.352  -3.910  1.00 20.00     0.354 C 
HETATM    6  F4  UNL     1     -32.643  16.202  -4.747  1.00 20.00    -0.184 F 
HETATM    7  F5  UNL     1     -32.410  14.371  -3.597  1.00 20.00    -0.184 F 
HETATM    8 CL8  UNL     1     -33.705  16.241  -2.423  1.00 20.00    -0.045 Cl
ENDBRANCH   2   5
TORSDOF 1
ENDMDL
MODEL 2
REMARK VINA RESULT:      -3.6     11.782     12.753
REMARK  1 active torsions:
REMARK  status: ('A' for Active; 'I' for Inactive)
REMARK    1  A    between atoms: C2_2  and  C3_3 
ROOT
HETATM    1  C1  UNL     1     -32.476   6.185   3.576  1.00 20.00     0.058 C 
HETATM    2  C2  UNL     1     -33.890   6.378   4.124  1.00 20.00     0.189 C 
HETATM    3 CL6  UNL     1     -33.815   6.499   5.915  1.00 20.00    -0.094 Cl
HETATM    4 CL7  UNL     1     -34.515   7.954   3.509  1.00 20.00    -0.094 Cl
ENDROOT
BRANCH   2   5
HETATM    5  C3  UNL     1     -34.860   5.268   3.698  1.00 20.00     0.354 C 
HETATM    6  F4  UNL     1     -34.436   4.715   2.529  1.00 20.00    -0.184 F 
HETATM    7  F5  UNL     1     -36.088   5.794   3.444  1.00 20.00    -0.184 F 
HETATM    8 CL8  UNL     1     -35.040   3.964   4.896  1.00 20.00    -0.045 Cl
ENDBRANCH   2   5
TORSDOF 1
ENDMDL
MODEL 3
REMARK VINA RESULT:      -3.6      1.121      1.745
REMARK  1 active torsions:
REMARK  status: ('A' for Active; 'I' for Inactive)
REMARK    1  A    between atoms: C2_2  and  C3_3 
ROOT
HETATM    1  C1  UNL     1     -35.845  15.802  -4.429  1.00 20.00     0.058 C 
HETATM    2  C2  UNL     1     -34.637  14.900  -4.679  1.00 20.00     0.189 C 
HETATM    3 CL6  UNL     1     -35.061  13.210  -4.236  1.00 20.00    -0.094 Cl
HETATM    4 CL7  UNL     1     -34.288  14.914  -6.449  1.00 20.00    -0.094 Cl
ENDROOT
BRANCH   2   5
HETATM    5  C3  UNL     1     -33.377  15.354  -3.930  1.00 20.00     0.354 C 
HETATM    6  F4  UNL     1     -32.629  16.154  -4.738  1.00 20.00    -0.184 F 
HETATM    7  F5  UNL     1     -32.598  14.280  -3.635  1.00 20.00    -0.184 F 
HETATM    8 CL8  UNL     1     -33.711  16.242  -2.424  1.00 20.00    -0.045 Cl
ENDBRANCH   2   5
TORSDOF 1
ENDMDL
MODEL 4
REMARK VINA RESULT:      -3.6      2.109      3.126
REMARK  1 active torsions:
REMARK  status: ('A' for Active; 'I' for Inactive)
REMARK    1  A    between atoms: C2_2  and  C3_3 
ROOT
HETATM    1  C1  UNL     1     -34.761  15.541  -2.871  1.00 20.00     0.058 C 
HETATM    2  C2  UNL     1     -33.986  15.015  -4.079  1.00 20.00     0.189 C 
HETATM    3 CL6  UNL     1     -33.691  16.368  -5.225  1.00 20.00    -0.094 Cl
HETATM    4 CL7  UNL     1     -32.375  14.445  -3.502  1.00 20.00    -0.094 Cl
ENDROOT
BRANCH   2   5
HETATM    5  C3  UNL     1     -34.690  13.850  -4.788  1.00 20.00     0.354 C 
HETATM    6  F4  UNL     1     -35.787  13.477  -4.074  1.00 20.00    -0.184 F 
HETATM    7  F5  UNL     1     -33.874  12.764  -4.822  1.00 20.00    -0.184 F 
HETATM    8 CL8  UNL     1     -35.208  14.221  -6.450  1.00 20.00    -0.045 Cl
ENDBRANCH   2   5
TORSDOF 1
ENDMDL
MODEL 5
REMARK VINA RESULT:      -3.6      1.181      1.667
REMARK  1 active torsions:
REMARK  status: ('A' for Active; 'I' for Inactive)
REMARK    1  A    between atoms: C2_2  and  C3_3 
ROOT
HETATM    1  C1  UNL     1     -34.424  14.892  -6.218  1.00 20.00     0.058 C 
HETATM    2  C2  UNL     1     -34.617  14.886  -4.702  1.00 20.00     0.189 C 
HETATM    3 CL6  UNL     1     -36.028  15.917  -4.283  1.00 20.00    -0.094 Cl
HETATM    4 CL7  UNL     1     -35.020  13.201  -4.199  1.00 20.00    -0.094 Cl
ENDROOT
BRANCH   2   5
HETATM    5  C3  UNL     1     -33.369  15.340  -3.932  1.00 20.00     0.354 C 
HETATM    6  F4  UNL     1     -32.618  16.155  -4.721  1.00 20.00    -0.184 F 
HETATM    7  F5  UNL     1     -32.586  14.267  -3.642  1.00 20.00    -0.184 F 
HETATM    8 CL8  UNL     1     -33.727  16.205  -2.419  1.00 20.00    -0.045 Cl
ENDBRANCH   2   5
TORSDOF 1
ENDMDL
MODEL 6
REMARK VINA RESULT:      -3.6      2.402      2.722
REMARK  1 active torsions:
REMARK  status: ('A' for Active; 'I' for Inactive)
REMARK    1  A    between atoms: C2_2  and  C3_3 
ROOT
HETATM    1  C1  UNL     1     -35.868  16.035  -5.229  1.00 20.00     0.058 C 
HETATM    2  C2  UNL     1     -34.593  15.210  -5.406  1.00 20.00     0.189 C 
HETATM    3 CL6  UNL     1     -34.371  14.838  -7.150  1.00 20.00    -0.094 Cl
HETATM    4 CL7  UNL     1     -33.195  16.230  -4.897  1.00 20.00    -0.094 Cl
ENDROOT
BRANCH   2   5
HETATM    5  C3  UNL     1     -34.587  13.921  -4.574  1.00 20.00     0.354 C 
HETATM    6  F4  UNL     1     -34.810  12.852  -5.386  1.00 20.00    -0.184 F 
HETATM    7  F5  UNL     1     -35.612  13.938  -3.681  1.00 20.00    -0.184 F 
HETATM    8 CL8  UNL     1     -33.069  13.639  -3.688  1.00 20.00    -0.045 Cl
ENDBRANCH   2   5
TORSDOF 1
ENDMDL
MODEL 7
REMARK VINA RESULT:      -3.6     12.716     13.570
REMARK  1 active torsions:
REMARK  status: ('A' for Active; 'I' for Inactive)
REMARK    1  A    between atoms: C2_2  and  C3_3 
ROOT
HETATM    1  C1  UNL     1     -43.417   3.435  -1.239  1.00 20.00     0.058 C 
HETATM    2  C2  UNL     1     -42.208   4.076  -1.919  1.00 20.00     0.189 C 
HETATM    3 CL6  UNL     1     -41.415   2.860  -2.978  1.00 20.00    -0.094 Cl
HETATM    4 CL7  UNL     1     -42.806   5.402  -2.985  1.00 20.00    -0.094 Cl
ENDROOT
BRANCH   2   5
HETATM    5  C3  UNL     1     -41.198   4.667  -0.925  1.00 20.00     0.354 C 
HETATM    6  F4  UNL     1     -39.996   4.048  -1.074  1.00 20.00    -0.184 F 
HETATM    7  F5  UNL     1     -41.599   4.416   0.350  1.00 20.00    -0.184 F 
HETATM    8 CL8  UNL     1     -40.947   6.420  -1.104  1.00 20.00    -0.045 Cl
ENDBRANCH   2   5
TORSDOF 1
ENDMDL
MODEL 8
REMARK VINA RESULT:      -3.5      2.336      2.644
REMARK  1 active torsions:
REMARK  status: ('A' for Active; 'I' for Inactive)
REMARK    1  A    between atoms: C2_2  and  C3_3 
ROOT
HETATM    1  C1  UNL     1     -34.585  14.790  -6.941  1.00 20.00     0.058 C 
HETATM    2  C2  UNL     1     -34.606  15.133  -5.451  1.00 20.00     0.189 C 
HETATM    3 CL6  UNL     1     -33.219  16.213  -5.077  1.00 20.00    -0.094 Cl
HETATM    4 CL7  UNL     1     -36.113  16.067  -5.116  1.00 20.00    -0.094 Cl
ENDROOT
BRANCH   2   5
HETATM    5  C3  UNL     1     -34.587  13.895  -4.545  1.00 20.00     0.354 C 
HETATM    6  F4  UNL     1     -34.828  12.781  -5.289  1.00 20.00    -0.184 F 
HETATM    7  F5  UNL     1     -35.595  13.968  -3.635  1.00 20.00    -0.184 F 
HETATM    8 CL8  UNL     1     -33.053  13.660  -3.673  1.00 20.00    -0.045 Cl
ENDBRANCH   2   5
TORSDOF 1
ENDMDL
MODEL 9
REMARK VINA RESULT:      -3.5      1.536      1.960
REMARK  1 active torsions:
REMARK  status: ('A' for Active; 'I' for Inactive)
REMARK    1  A    between atoms: C2_2  and  C3_3 
ROOT
HETATM    1  C1  UNL     1     -35.858  16.259  -4.570  1.00 20.00     0.058 C 
HETATM    2  C2  UNL     1     -34.493  15.579  -4.674  1.00 20.00     0.189 C 
HETATM    3 CL6  UNL     1     -34.583  14.260  -5.891  1.00 20.00    -0.094 Cl
HETATM    4 CL7  UNL     1     -33.311  16.793  -5.291  1.00 20.00    -0.094 Cl
ENDROOT
BRANCH   2   5
HETATM    5  C3  UNL     1     -33.983  15.040  -3.331  1.00 20.00     0.354 C 
HETATM    6  F4  UNL     1     -32.622  15.055  -3.320  1.00 20.00    -0.184 F 
HETATM    7  F5  UNL     1     -34.348  13.738  -3.182  1.00 20.00    -0.184 F 
HETATM    8 CL8  UNL     1     -34.561  15.954  -1.917  1.00 20.00    -0.045 Cl
ENDBRANCH   2   5
TORSDOF 1
ENDMDL
