MODEL 1
REMARK VINA RESULT:      -4.6      0.000      0.000
REMARK  1 active torsions:
REMARK  status: ('A' for Active; 'I' for Inactive)
REMARK    1  A    between atoms: C1_1  and  C4_4 
ROOT
HETATM    1  C2  UNL     1     -33.694   6.757   5.914  1.00 20.00     0.013 C 
HETATM    2  C3  UNL     1     -34.751   5.756   6.416  1.00 20.00     0.010 C 
HETATM    3  C4  UNL     1     -33.281   5.715   4.844  1.00 20.00     0.062 C 
HETATM    4  C5  UNL     1     -34.709   5.082   5.013  1.00 20.00    -0.037 C 
HETATM    5  C7  UNL     1     -34.701   3.557   5.062  1.00 20.00     0.015 C 
HETATM    6  C8  UNL     1     -35.792   5.598   4.062  1.00 20.00     0.015 C 
ENDROOT
BRANCH   3   7
HETATM    7  C1  UNL     1     -32.866   6.229   3.463  1.00 20.00     0.128 C 
HETATM    8  C6  UNL     1     -31.895   7.379   3.432  1.00 20.00     0.091 C 
HETATM    9  O9  UNL     1     -33.302   5.727   2.428  1.00 20.00    -0.298 OA
ENDBRANCH   3   7
TORSDOF 1
ENDMDL
MODEL 2
REMARK VINA RESULT:      -4.6     11.906     13.010
REMARK  1 active torsions:
REMARK  status: ('A' for Active; 'I' for Inactive)
REMARK    1  A    between atoms: C1_1  and  C4_4 
ROOT
HETATM    1  C2  UNL     1     -35.199  15.159  -2.556  1.00 20.00     0.013 C 
HETATM    2  C3  UNL     1     -34.164  16.293  -2.446  1.00 20.00     0.010 C 
HETATM    3  C4  UNL     1     -35.017  15.204  -4.095  1.00 20.00     0.062 C 
HETATM    4  C5  UNL     1     -33.614  15.863  -3.837  1.00 20.00    -0.037 C 
HETATM    5  C7  UNL     1     -33.307  17.033  -4.767  1.00 20.00     0.015 C 
HETATM    6  C8  UNL     1     -32.425  14.903  -3.746  1.00 20.00     0.015 C 
ENDROOT
BRANCH   3   7
HETATM    7  C1  UNL     1     -35.076  13.883  -4.866  1.00 20.00     0.128 C 
HETATM    8  C6  UNL     1     -35.118  13.976  -6.367  1.00 20.00     0.091 C 
HETATM    9  O9  UNL     1     -35.086  12.797  -4.288  1.00 20.00    -0.298 OA
ENDBRANCH   3   7
TORSDOF 1
ENDMDL
MODEL 3
REMARK VINA RESULT:      -4.4     12.141     12.836
REMARK  1 active torsions:
REMARK  status: ('A' for Active; 'I' for Inactive)
REMARK    1  A    between atoms: C1_1  and  C4_4 
ROOT
HETATM    1  C2  UNL     1     -35.721  14.084  -4.187  1.00 20.00     0.013 C 
HETATM    2  C3  UNL     1     -34.412  13.660  -4.878  1.00 20.00     0.010 C 
HETATM    3  C4  UNL     1     -34.867  14.761  -3.085  1.00 20.00     0.062 C 
HETATM    4  C5  UNL     1     -33.697  14.824  -4.132  1.00 20.00    -0.037 C 
HETATM    5  C7  UNL     1     -32.337  14.443  -3.554  1.00 20.00     0.015 C 
HETATM    6  C8  UNL     1     -33.604  16.107  -4.963  1.00 20.00     0.015 C 
ENDROOT
BRANCH   3   7
HETATM    7  C1  UNL     1     -35.381  16.071  -2.480  1.00 20.00     0.128 C 
HETATM    8  C6  UNL     1     -34.678  16.567  -1.245  1.00 20.00     0.091 C 
HETATM    9  O9  UNL     1     -36.319  16.689  -2.979  1.00 20.00    -0.298 OA
ENDBRANCH   3   7
TORSDOF 1
ENDMDL
MODEL 4
REMARK VINA RESULT:      -4.4     12.137     13.948
REMARK  1 active torsions:
REMARK  status: ('A' for Active; 'I' for Inactive)
REMARK    1  A    between atoms: C1_1  and  C4_4 
ROOT
HETATM    1  C2  UNL     1     -35.484  14.365  -7.005  1.00 20.00     0.013 C 
HETATM    2  C3  UNL     1     -35.400  15.890  -7.206  1.00 20.00     0.010 C 
HETATM    3  C4  UNL     1     -34.410  14.498  -5.896  1.00 20.00     0.062 C 
HETATM    4  C5  UNL     1     -34.843  16.002  -5.757  1.00 20.00    -0.037 C 
HETATM    5  C7  UNL     1     -33.668  16.967  -5.622  1.00 20.00     0.015 C 
HETATM    6  C8  UNL     1     -35.923  16.298  -4.715  1.00 20.00     0.015 C 
ENDROOT
BRANCH   3   7
HETATM    7  C1  UNL     1     -34.523  13.586  -4.672  1.00 20.00     0.128 C 
HETATM    8  C6  UNL     1     -33.386  13.631  -3.687  1.00 20.00     0.091 C 
HETATM    9  O9  UNL     1     -35.496  12.853  -4.499  1.00 20.00    -0.298 OA
ENDBRANCH   3   7
TORSDOF 1
ENDMDL
MODEL 5
REMARK VINA RESULT:      -4.4     12.031     13.178
REMARK  1 active torsions:
REMARK  status: ('A' for Active; 'I' for Inactive)
REMARK    1  A    between atoms: C1_1  and  C4_4 
ROOT
HETATM    1  C2  UNL     1     -35.302  15.957  -2.246  1.00 20.00     0.013 C 
HETATM    2  C3  UNL     1     -33.790  16.173  -2.446  1.00 20.00     0.010 C 
HETATM    3  C4  UNL     1     -35.456  15.936  -3.788  1.00 20.00     0.062 C 
HETATM    4  C5  UNL     1     -33.936  15.545  -3.863  1.00 20.00    -0.037 C 
HETATM    5  C7  UNL     1     -33.165  16.290  -4.950  1.00 20.00     0.015 C 
HETATM    6  C8  UNL     1     -33.627  14.046  -3.895  1.00 20.00     0.015 C 
ENDROOT
BRANCH   3   7
HETATM    7  C1  UNL     1     -36.489  14.983  -4.395  1.00 20.00     0.128 C 
HETATM    8  C6  UNL     1     -36.774  15.139  -5.864  1.00 20.00     0.091 C 
HETATM    9  O9  UNL     1     -37.058  14.129  -3.716  1.00 20.00    -0.298 OA
ENDBRANCH   3   7
TORSDOF 1
ENDMDL
MODEL 6
REMARK VINA RESULT:      -4.4     11.931     13.317
REMARK  1 active torsions:
REMARK  status: ('A' for Active; 'I' for Inactive)
REMARK    1  A    between atoms: C1_1  and  C4_4 
ROOT
HETATM    1  C2  UNL     1     -34.122  13.758  -3.592  1.00 20.00     0.013 C 
HETATM    2  C3  UNL     1     -34.733  13.246  -4.910  1.00 20.00     0.010 C 
HETATM    3  C4  UNL     1     -33.718  15.056  -4.337  1.00 20.00     0.062 C 
HETATM    4  C5  UNL     1     -34.850  14.727  -5.376  1.00 20.00    -0.037 C 
HETATM    5  C7  UNL     1     -34.434  14.951  -6.827  1.00 20.00     0.015 C 
HETATM    6  C8  UNL     1     -36.223  15.343  -5.094  1.00 20.00     0.015 C 
ENDROOT
BRANCH   3   7
HETATM    7  C1  UNL     1     -33.789  16.378  -3.569  1.00 20.00     0.128 C 
HETATM    8  C6  UNL     1     -34.184  16.298  -2.119  1.00 20.00     0.091 C 
HETATM    9  O9  UNL     1     -33.534  17.454  -4.108  1.00 20.00    -0.298 OA
ENDBRANCH   3   7
TORSDOF 1
ENDMDL
MODEL 7
REMARK VINA RESULT:      -4.3     11.908     12.952
REMARK  1 active torsions:
REMARK  status: ('A' for Active; 'I' for Inactive)
REMARK    1  A    between atoms: C1_1  and  C4_4 
ROOT
HETATM    1  C2  UNL     1     -33.287  16.508  -4.587  1.00 20.00     0.013 C 
HETATM    2  C3  UNL     1     -33.787  17.540  -3.560  1.00 20.00     0.010 C 
HETATM    3  C4  UNL     1     -33.557  15.400  -3.537  1.00 20.00     0.062 C 
HETATM    4  C5  UNL     1     -34.569  16.391  -2.857  1.00 20.00    -0.037 C 
HETATM    5  C7  UNL     1     -34.468  16.419  -1.334  1.00 20.00     0.015 C 
HETATM    6  C8  UNL     1     -36.026  16.286  -3.313  1.00 20.00     0.015 C 
ENDROOT
BRANCH   3   7
HETATM    7  C1  UNL     1     -34.078  14.049  -4.035  1.00 20.00     0.128 C 
HETATM    8  C6  UNL     1     -34.533  13.985  -5.469  1.00 20.00     0.091 C 
HETATM    9  O9  UNL     1     -34.121  13.063  -3.302  1.00 20.00    -0.298 OA
ENDBRANCH   3   7
TORSDOF 1
ENDMDL
MODEL 8
REMARK VINA RESULT:      -4.3     12.082     12.943
REMARK  1 active torsions:
REMARK  status: ('A' for Active; 'I' for Inactive)
REMARK    1  A    between atoms: C1_1  and  C4_4 
ROOT
HETATM    1  C2  UNL     1     -33.655  13.646  -4.158  1.00 20.00     0.013 C 
HETATM    2  C3  UNL     1     -32.685  14.603  -3.440  1.00 20.00     0.010 C 
HETATM    3  C4  UNL     1     -34.830  14.450  -3.544  1.00 20.00     0.062 C 
HETATM    4  C5  UNL     1     -33.832  15.654  -3.394  1.00 20.00    -0.037 C 
HETATM    5  C7  UNL     1     -33.948  16.382  -2.056  1.00 20.00     0.015 C 
HETATM    6  C8  UNL     1     -33.791  16.646  -4.559  1.00 20.00     0.015 C 
ENDROOT
BRANCH   3   7
HETATM    7  C1  UNL     1     -36.089  14.643  -4.393  1.00 20.00     0.128 C 
HETATM    8  C6  UNL     1     -37.341  15.054  -3.663  1.00 20.00     0.091 C 
HETATM    9  O9  UNL     1     -36.081  14.474  -5.611  1.00 20.00    -0.298 OA
ENDBRANCH   3   7
TORSDOF 1
ENDMDL
MODEL 9
REMARK VINA RESULT:      -4.3     12.034     13.381
REMARK  1 active torsions:
REMARK  status: ('A' for Active; 'I' for Inactive)
REMARK    1  A    between atoms: C1_1  and  C4_4 
ROOT
HETATM    1  C2  UNL     1     -34.347  15.511  -6.358  1.00 20.00     0.013 C 
HETATM    2  C3  UNL     1     -35.630  14.662  -6.437  1.00 20.00     0.010 C 
HETATM    3  C4  UNL     1     -34.680  15.793  -4.871  1.00 20.00     0.062 C 
HETATM    4  C5  UNL     1     -35.551  14.485  -4.893  1.00 20.00    -0.037 C 
HETATM    5  C7  UNL     1     -36.896  14.634  -4.186  1.00 20.00     0.015 C 
HETATM    6  C8  UNL     1     -34.843  13.197  -4.467  1.00 20.00     0.015 C 
ENDROOT
BRANCH   3   7
HETATM    7  C1  UNL     1     -33.518  15.883  -3.878  1.00 20.00     0.128 C 
HETATM    8  C6  UNL     1     -33.856  16.317  -2.477  1.00 20.00     0.091 C 
HETATM    9  O9  UNL     1     -32.364  15.613  -4.208  1.00 20.00    -0.298 OA
ENDBRANCH   3   7
TORSDOF 1
ENDMDL
