MODEL 1
REMARK VINA RESULT:      -5.6      0.000      0.000
REMARK  0 active torsions:
REMARK  status: ('A' for Active; 'I' for Inactive)
ROOT
HETATM    1  C1  UNL     1     -33.653  14.232  -3.641  1.00 20.00    -0.019 A 
HETATM    2  C2  UNL     1     -32.748  15.159  -3.999  1.00 20.00    -0.019 A 
HETATM    3  C3  UNL     1     -34.895  16.246  -1.605  1.00 20.00    -0.023 C 
HETATM    4  C4  UNL     1     -33.985  17.172  -1.949  1.00 20.00    -0.086 C 
HETATM    5  C5  UNL     1     -35.675  15.446  -2.605  1.00 20.00     0.042 C 
HETATM    6  C6  UNL     1     -33.683  17.481  -3.393  1.00 20.00     0.048 C 
HETATM    7  C7  UNL     1     -35.053  14.425  -6.321  1.00 20.00     0.001 C 
HETATM    8  C8  UNL     1     -34.023  15.480  -6.731  1.00 20.00     0.001 C 
HETATM    9  C9  UNL     1     -35.796  14.726  -5.022  1.00 20.00     0.015 C 
HETATM   10  C10 UNL     1     -33.903  16.664  -5.773  1.00 20.00     0.015 C 
HETATM   11  C11 UNL     1     -34.858  15.153  -3.876  1.00 20.00    -0.009 A 
HETATM   12  C12 UNL     1     -33.798  16.237  -4.296  1.00 20.00    -0.008 A 
HETATM   13  C13 UNL     1     -33.247  17.978  -0.923  1.00 20.00     0.043 C 
ENDROOT
TORSDOF 0
ENDMDL
MODEL 2
REMARK VINA RESULT:      -5.5      0.582      4.298
REMARK  0 active torsions:
REMARK  status: ('A' for Active; 'I' for Inactive)
ROOT
HETATM    1  C1  UNL     1     -32.768  15.385  -3.839  1.00 20.00    -0.019 A 
HETATM    2  C2  UNL     1     -33.773  14.520  -3.616  1.00 20.00    -0.019 A 
HETATM    3  C3  UNL     1     -34.054  16.158  -6.576  1.00 20.00    -0.023 C 
HETATM    4  C4  UNL     1     -35.053  15.286  -6.365  1.00 20.00    -0.086 C 
HETATM    5  C5  UNL     1     -33.583  17.137  -5.543  1.00 20.00     0.042 C 
HETATM    6  C6  UNL     1     -35.789  15.234  -5.051  1.00 20.00     0.048 C 
HETATM    7  C7  UNL     1     -33.743  17.232  -1.644  1.00 20.00     0.001 C 
HETATM    8  C8  UNL     1     -34.887  16.249  -1.388  1.00 20.00     0.001 C 
HETATM    9  C9  UNL     1     -33.626  17.718  -3.087  1.00 20.00     0.015 C 
HETATM   10  C10 UNL     1     -35.727  15.909  -2.618  1.00 20.00     0.015 C 
HETATM   11  C11 UNL     1     -33.700  16.573  -4.116  1.00 20.00    -0.009 A 
HETATM   12  C12 UNL     1     -34.875  15.561  -3.854  1.00 20.00    -0.008 A 
HETATM   13  C13 UNL     1     -35.522  14.342  -7.432  1.00 20.00     0.043 C 
ENDROOT
TORSDOF 0
ENDMDL
MODEL 3
REMARK VINA RESULT:      -5.4      1.057      2.401
REMARK  0 active torsions:
REMARK  status: ('A' for Active; 'I' for Inactive)
ROOT
HETATM    1  C1  UNL     1     -36.142  16.342  -4.647  1.00 20.00    -0.019 A 
HETATM    2  C2  UNL     1     -36.215  15.419  -3.673  1.00 20.00    -0.019 A 
HETATM    3  C3  UNL     1     -34.017  17.913  -2.986  1.00 20.00    -0.023 C 
HETATM    4  C4  UNL     1     -34.096  17.002  -2.003  1.00 20.00    -0.086 C 
HETATM    5  C5  UNL     1     -33.878  17.553  -4.434  1.00 20.00     0.042 C 
HETATM    6  C6  UNL     1     -34.043  15.524  -2.293  1.00 20.00     0.048 C 
HETATM    7  C7  UNL     1     -34.792  14.388  -6.528  1.00 20.00     0.001 C 
HETATM    8  C8  UNL     1     -34.875  13.335  -5.420  1.00 20.00     0.001 C 
HETATM    9  C9  UNL     1     -34.107  15.691  -6.124  1.00 20.00     0.015 C 
HETATM   10  C10 UNL     1     -34.261  13.759  -4.087  1.00 20.00     0.015 C 
HETATM   11  C11 UNL     1     -34.616  16.247  -4.779  1.00 20.00    -0.009 A 
HETATM   12  C12 UNL     1     -34.703  15.166  -3.640  1.00 20.00    -0.008 A 
HETATM   13  C13 UNL     1     -34.202  17.397  -0.560  1.00 20.00     0.043 C 
ENDROOT
TORSDOF 0
ENDMDL
MODEL 4
REMARK VINA RESULT:      -5.3      1.255      2.582
REMARK  0 active torsions:
REMARK  status: ('A' for Active; 'I' for Inactive)
ROOT
HETATM    1  C1  UNL     1     -34.479  17.159  -5.512  1.00 20.00    -0.019 A 
HETATM    2  C2  UNL     1     -35.673  17.349  -4.926  1.00 20.00    -0.019 A 
HETATM    3  C3  UNL     1     -33.414  15.839  -2.892  1.00 20.00    -0.023 C 
HETATM    4  C4  UNL     1     -34.601  16.039  -2.296  1.00 20.00    -0.086 C 
HETATM    5  C5  UNL     1     -33.269  15.256  -4.265  1.00 20.00     0.042 C 
HETATM    6  C6  UNL     1     -35.895  15.678  -2.978  1.00 20.00     0.048 C 
HETATM    7  C7  UNL     1     -35.621  15.059  -7.375  1.00 20.00     0.001 C 
HETATM    8  C8  UNL     1     -36.982  15.275  -6.709  1.00 20.00     0.001 C 
HETATM    9  C9  UNL     1     -34.484  14.723  -6.413  1.00 20.00     0.015 C 
HETATM   10  C10 UNL     1     -36.983  15.122  -5.189  1.00 20.00     0.015 C 
HETATM   11  C11 UNL     1     -34.432  15.659  -5.190  1.00 20.00    -0.009 A 
HETATM   12  C12 UNL     1     -35.830  15.882  -4.505  1.00 20.00    -0.008 A 
HETATM   13  C13 UNL     1     -34.708  16.594  -0.907  1.00 20.00     0.043 C 
ENDROOT
TORSDOF 0
ENDMDL
MODEL 5
REMARK VINA RESULT:      -5.2      0.976      1.184
REMARK  0 active torsions:
REMARK  status: ('A' for Active; 'I' for Inactive)
ROOT
HETATM    1  C1  UNL     1     -35.263  13.844  -4.210  1.00 20.00    -0.019 A 
HETATM    2  C2  UNL     1     -33.978  14.221  -4.324  1.00 20.00    -0.019 A 
HETATM    3  C3  UNL     1     -35.808  16.296  -2.357  1.00 20.00    -0.023 C 
HETATM    4  C4  UNL     1     -34.523  16.670  -2.456  1.00 20.00    -0.086 C 
HETATM    5  C5  UNL     1     -36.648  15.910  -3.537  1.00 20.00     0.042 C 
HETATM    6  C6  UNL     1     -33.821  16.736  -3.788  1.00 20.00     0.048 C 
HETATM    7  C7  UNL     1     -35.825  14.548  -7.103  1.00 20.00     0.001 C 
HETATM    8  C8  UNL     1     -34.362  14.977  -7.234  1.00 20.00     0.001 C 
HETATM    9  C9  UNL     1     -36.591  15.221  -5.966  1.00 20.00     0.015 C 
HETATM   10  C10 UNL     1     -33.903  16.009  -6.206  1.00 20.00     0.015 C 
HETATM   11  C11 UNL     1     -35.820  15.210  -4.631  1.00 20.00    -0.009 A 
HETATM   12  C12 UNL     1     -34.316  15.651  -4.765  1.00 20.00    -0.008 A 
HETATM   13  C13 UNL     1     -33.722  17.082  -1.257  1.00 20.00     0.043 C 
ENDROOT
TORSDOF 0
ENDMDL
MODEL 6
REMARK VINA RESULT:      -5.2      1.516      4.506
REMARK  0 active torsions:
REMARK  status: ('A' for Active; 'I' for Inactive)
ROOT
HETATM    1  C1  UNL     1     -34.622  13.671  -4.790  1.00 20.00    -0.019 A 
HETATM    2  C2  UNL     1     -35.862  13.902  -4.326  1.00 20.00    -0.019 A 
HETATM    3  C3  UNL     1     -35.396  15.010  -7.501  1.00 20.00    -0.023 C 
HETATM    4  C4  UNL     1     -36.641  15.232  -7.048  1.00 20.00    -0.086 C 
HETATM    5  C5  UNL     1     -34.163  15.327  -6.709  1.00 20.00     0.042 C 
HETATM    6  C6  UNL     1     -36.889  15.832  -5.689  1.00 20.00     0.048 C 
HETATM    7  C7  UNL     1     -33.430  15.712  -2.894  1.00 20.00     0.001 C 
HETATM    8  C8  UNL     1     -34.841  15.977  -2.365  1.00 20.00     0.001 C 
HETATM    9  C9  UNL     1     -33.275  15.858  -4.406  1.00 20.00     0.015 C 
HETATM   10  C10 UNL     1     -35.868  16.342  -3.435  1.00 20.00     0.015 C 
HETATM   11  C11 UNL     1     -34.379  15.130  -5.198  1.00 20.00    -0.009 A 
HETATM   12  C12 UNL     1     -35.830  15.400  -4.655  1.00 20.00    -0.008 A 
HETATM   13  C13 UNL     1     -37.852  14.934  -7.880  1.00 20.00     0.043 C 
ENDROOT
TORSDOF 0
ENDMDL
MODEL 7
REMARK VINA RESULT:      -5.2      0.917      1.061
REMARK  0 active torsions:
REMARK  status: ('A' for Active; 'I' for Inactive)
ROOT
HETATM    1  C1  UNL     1     -33.061  14.923  -3.652  1.00 20.00    -0.019 A 
HETATM    2  C2  UNL     1     -32.827  15.930  -4.511  1.00 20.00    -0.019 A 
HETATM    3  C3  UNL     1     -34.144  16.972  -1.560  1.00 20.00    -0.023 C 
HETATM    4  C4  UNL     1     -33.901  17.984  -2.409  1.00 20.00    -0.086 C 
HETATM    5  C5  UNL     1     -34.842  15.708  -1.964  1.00 20.00     0.042 C 
HETATM    6  C6  UNL     1     -34.326  17.920  -3.853  1.00 20.00     0.048 C 
HETATM    7  C7  UNL     1     -35.319  13.856  -5.367  1.00 20.00     0.001 C 
HETATM    8  C8  UNL     1     -35.054  15.002  -6.347  1.00 20.00     0.001 C 
HETATM    9  C9  UNL     1     -35.565  14.291  -3.925  1.00 20.00     0.015 C 
HETATM   10  C10 UNL     1     -35.077  16.396  -5.723  1.00 20.00     0.015 C 
HETATM   11  C11 UNL     1     -34.527  15.312  -3.417  1.00 20.00    -0.009 A 
HETATM   12  C12 UNL     1     -34.254  16.489  -4.424  1.00 20.00    -0.008 A 
HETATM   13  C13 UNL     1     -33.230  19.248  -1.964  1.00 20.00     0.043 C 
ENDROOT
TORSDOF 0
ENDMDL
MODEL 8
REMARK VINA RESULT:      -5.1      1.111      4.087
REMARK  0 active torsions:
REMARK  status: ('A' for Active; 'I' for Inactive)
ROOT
HETATM    1  C1  UNL     1     -36.291  15.992  -3.450  1.00 20.00    -0.019 A 
HETATM    2  C2  UNL     1     -36.130  16.905  -4.424  1.00 20.00    -0.019 A 
HETATM    3  C3  UNL     1     -35.064  13.806  -5.310  1.00 20.00    -0.023 C 
HETATM    4  C4  UNL     1     -34.912  14.711  -6.291  1.00 20.00    -0.086 C 
HETATM    5  C5  UNL     1     -34.651  14.055  -3.890  1.00 20.00     0.042 C 
HETATM    6  C6  UNL     1     -34.300  16.062  -6.029  1.00 20.00     0.048 C 
HETATM    7  C7  UNL     1     -34.137  17.282  -1.754  1.00 20.00     0.001 C 
HETATM    8  C8  UNL     1     -33.952  18.322  -2.861  1.00 20.00     0.001 C 
HETATM    9  C9  UNL     1     -34.014  15.830  -2.212  1.00 20.00     0.015 C 
HETATM   10  C10 UNL     1     -33.677  17.741  -4.247  1.00 20.00     0.015 C 
HETATM   11  C11 UNL     1     -34.828  15.529  -3.486  1.00 20.00    -0.009 A 
HETATM   12  C12 UNL     1     -34.640  16.598  -4.624  1.00 20.00    -0.008 A 
HETATM   13  C13 UNL     1     -35.305  14.417  -7.708  1.00 20.00     0.043 C 
ENDROOT
TORSDOF 0
ENDMDL
MODEL 9
REMARK VINA RESULT:      -5.0      1.376      2.817
REMARK  0 active torsions:
REMARK  status: ('A' for Active; 'I' for Inactive)
ROOT
HETATM    1  C1  UNL     1     -35.813  17.591  -3.930  1.00 20.00    -0.019 A 
HETATM    2  C2  UNL     1     -36.192  16.507  -3.231  1.00 20.00    -0.019 A 
HETATM    3  C3  UNL     1     -34.294  18.665  -1.424  1.00 20.00    -0.023 C 
HETATM    4  C4  UNL     1     -34.681  17.592  -0.715  1.00 20.00    -0.086 C 
HETATM    5  C5  UNL     1     -33.716  18.577  -2.804  1.00 20.00     0.042 C 
HETATM    6  C6  UNL     1     -34.553  16.196  -1.268  1.00 20.00     0.048 C 
HETATM    7  C7  UNL     1     -33.963  15.938  -5.670  1.00 20.00     0.001 C 
HETATM    8  C8  UNL     1     -34.394  14.703  -4.875  1.00 20.00     0.001 C 
HETATM    9  C9  UNL     1     -33.426  17.089  -4.823  1.00 20.00     0.015 C 
HETATM   10  C10 UNL     1     -34.220  14.823  -3.362  1.00 20.00     0.015 C 
HETATM   11  C11 UNL     1     -34.322  17.415  -3.612  1.00 20.00    -0.009 A 
HETATM   12  C12 UNL     1     -34.766  16.147  -2.794  1.00 20.00    -0.008 A 
HETATM   13  C13 UNL     1     -35.224  17.714   0.677  1.00 20.00     0.043 C 
ENDROOT
TORSDOF 0
ENDMDL
