MODEL 1
REMARK VINA RESULT:      -5.2      0.000      0.000
REMARK  0 active torsions:
REMARK  status: ('A' for Active; 'I' for Inactive)
ROOT
HETATM    1  C1  UNL     1     -34.099  16.310  -2.891  1.00 20.00    -0.080 C 
HETATM    2  C2  UNL     1     -34.469  16.257  -1.606  1.00 20.00     0.015 C 
HETATM    3  C3  UNL     1     -33.988  17.578  -3.691  1.00 20.00     0.043 C 
HETATM    4  C4  UNL     1     -34.843  13.482  -5.222  1.00 20.00     0.002 C 
HETATM    5  C5  UNL     1     -34.589  14.701  -6.104  1.00 20.00     0.006 C 
HETATM    6  C6  UNL     1     -34.914  14.039  -3.807  1.00 20.00     0.014 C 
HETATM    7  C7  UNL     1     -33.854  15.720  -5.221  1.00 20.00     0.006 C 
HETATM    8  C8  UNL     1     -33.828  15.122  -3.786  1.00 20.00    -0.017 C 
HETATM    9  C9  UNL     1     -34.472  17.143  -5.089  1.00 20.00    -0.040 C 
HETATM   10  C10 UNL     1     -32.449  14.519  -3.466  1.00 20.00     0.020 C 
HETATM   11  C11 UNL     1     -33.918  18.080  -6.171  1.00 20.00     0.015 C 
HETATM   12  C12 UNL     1     -36.013  17.206  -5.145  1.00 20.00     0.015 C 
ENDROOT
TORSDOF 0
ENDMDL
MODEL 2
REMARK VINA RESULT:      -5.0      1.527      3.523
REMARK  0 active torsions:
REMARK  status: ('A' for Active; 'I' for Inactive)
ROOT
HETATM    1  C1  UNL     1     -34.912  14.986  -5.637  1.00 20.00    -0.080 C 
HETATM    2  C2  UNL     1     -34.226  15.176  -6.771  1.00 20.00     0.015 C 
HETATM    3  C3  UNL     1     -36.405  14.837  -5.562  1.00 20.00     0.043 C 
HETATM    4  C4  UNL     1     -33.683  16.389  -2.396  1.00 20.00     0.002 C 
HETATM    5  C5  UNL     1     -35.172  16.117  -2.201  1.00 20.00     0.006 C 
HETATM    6  C6  UNL     1     -33.448  16.193  -3.887  1.00 20.00     0.014 C 
HETATM    7  C7  UNL     1     -35.576  15.146  -3.320  1.00 20.00     0.006 C 
HETATM    8  C8  UNL     1     -34.333  14.991  -4.240  1.00 20.00    -0.017 C 
HETATM    9  C9  UNL     1     -36.756  15.563  -4.247  1.00 20.00    -0.040 C 
HETATM   10  C10 UNL     1     -33.606  13.664  -3.962  1.00 20.00     0.020 C 
HETATM   11  C11 UNL     1     -38.093  15.057  -3.689  1.00 20.00     0.015 C 
HETATM   12  C12 UNL     1     -36.890  17.077  -4.513  1.00 20.00     0.015 C 
ENDROOT
TORSDOF 0
ENDMDL
MODEL 3
REMARK VINA RESULT:      -4.9      1.512      2.000
REMARK  0 active torsions:
REMARK  status: ('A' for Active; 'I' for Inactive)
ROOT
HETATM    1  C1  UNL     1     -35.048  16.259  -2.731  1.00 20.00    -0.080 C 
HETATM    2  C2  UNL     1     -34.685  16.287  -1.443  1.00 20.00     0.015 C 
HETATM    3  C3  UNL     1     -36.227  17.000  -3.297  1.00 20.00     0.043 C 
HETATM    4  C4  UNL     1     -34.402  13.242  -4.842  1.00 20.00     0.002 C 
HETATM    5  C5  UNL     1     -35.500  14.027  -5.554  1.00 20.00     0.006 C 
HETATM    6  C6  UNL     1     -34.256  13.923  -3.489  1.00 20.00     0.014 C 
HETATM    7  C7  UNL     1     -35.453  15.447  -4.970  1.00 20.00     0.006 C 
HETATM    8  C8  UNL     1     -34.415  15.414  -3.813  1.00 20.00    -0.017 C 
HETATM    9  C9  UNL     1     -36.765  16.023  -4.362  1.00 20.00    -0.040 C 
HETATM   10  C10 UNL     1     -33.077  16.032  -4.256  1.00 20.00     0.020 C 
HETATM   11  C11 UNL     1     -37.575  16.775  -5.427  1.00 20.00     0.015 C 
HETATM   12  C12 UNL     1     -37.697  14.991  -3.692  1.00 20.00     0.015 C 
ENDROOT
TORSDOF 0
ENDMDL
MODEL 4
REMARK VINA RESULT:      -4.9      1.027      3.414
REMARK  0 active torsions:
REMARK  status: ('A' for Active; 'I' for Inactive)
ROOT
HETATM    1  C1  UNL     1     -34.814  16.238  -2.278  1.00 20.00    -0.080 C 
HETATM    2  C2  UNL     1     -34.706  16.661  -1.012  1.00 20.00     0.015 C 
HETATM    3  C3  UNL     1     -34.804  14.794  -2.693  1.00 20.00     0.043 C 
HETATM    4  C4  UNL     1     -33.527  18.311  -5.111  1.00 20.00     0.002 C 
HETATM    5  C5  UNL     1     -33.639  16.886  -5.647  1.00 20.00     0.006 C 
HETATM    6  C6  UNL     1     -33.757  18.177  -3.613  1.00 20.00     0.014 C 
HETATM    7  C7  UNL     1     -34.569  16.140  -4.679  1.00 20.00     0.006 C 
HETATM    8  C8  UNL     1     -34.861  17.118  -3.506  1.00 20.00    -0.017 C 
HETATM    9  C9  UNL     1     -34.037  14.828  -4.031  1.00 20.00    -0.040 C 
HETATM   10  C10 UNL     1     -36.256  17.751  -3.653  1.00 20.00     0.020 C 
HETATM   11  C11 UNL     1     -34.394  13.610  -4.893  1.00 20.00     0.015 C 
HETATM   12  C12 UNL     1     -32.519  14.791  -3.756  1.00 20.00     0.015 C 
ENDROOT
TORSDOF 0
ENDMDL
MODEL 5
REMARK VINA RESULT:      -4.8      1.321      3.213
REMARK  0 active torsions:
REMARK  status: ('A' for Active; 'I' for Inactive)
ROOT
HETATM    1  C1  UNL     1     -34.322  14.312  -3.871  1.00 20.00    -0.080 C 
HETATM    2  C2  UNL     1     -33.322  13.432  -3.733  1.00 20.00     0.015 C 
HETATM    3  C3  UNL     1     -35.748  13.937  -4.161  1.00 20.00     0.043 C 
HETATM    4  C4  UNL     1     -33.687  17.744  -5.212  1.00 20.00     0.002 C 
HETATM    5  C5  UNL     1     -35.180  17.488  -5.397  1.00 20.00     0.006 C 
HETATM    6  C6  UNL     1     -33.114  16.397  -4.795  1.00 20.00     0.014 C 
HETATM    7  C7  UNL     1     -35.529  16.319  -4.465  1.00 20.00     0.006 C 
HETATM    8  C8  UNL     1     -34.186  15.817  -3.863  1.00 20.00    -0.017 C 
HETATM    9  C9  UNL     1     -36.216  15.072  -5.095  1.00 20.00    -0.040 C 
HETATM   10  C10 UNL     1     -34.004  16.328  -2.423  1.00 20.00     0.020 C 
HETATM   11  C11 UNL     1     -37.744  15.213  -5.054  1.00 20.00     0.015 C 
HETATM   12  C12 UNL     1     -35.804  14.748  -6.546  1.00 20.00     0.015 C 
ENDROOT
TORSDOF 0
ENDMDL
MODEL 6
REMARK VINA RESULT:      -4.8      1.551      3.388
REMARK  0 active torsions:
REMARK  status: ('A' for Active; 'I' for Inactive)
ROOT
HETATM    1  C1  UNL     1     -36.879  15.441  -4.365  1.00 20.00    -0.080 C 
HETATM    2  C2  UNL     1     -37.978  15.069  -3.697  1.00 20.00     0.015 C 
HETATM    3  C3  UNL     1     -36.542  14.995  -5.760  1.00 20.00     0.043 C 
HETATM    4  C4  UNL     1     -33.702  16.217  -2.553  1.00 20.00     0.002 C 
HETATM    5  C5  UNL     1     -33.304  15.925  -3.996  1.00 20.00     0.006 C 
HETATM    6  C6  UNL     1     -35.169  15.820  -2.470  1.00 20.00     0.014 C 
HETATM    7  C7  UNL     1     -34.589  16.056  -4.827  1.00 20.00     0.006 C 
HETATM    8  C8  UNL     1     -35.748  16.279  -3.814  1.00 20.00    -0.017 C 
HETATM    9  C9  UNL     1     -35.008  14.843  -5.709  1.00 20.00    -0.040 C 
HETATM   10  C10 UNL     1     -36.158  17.761  -3.766  1.00 20.00     0.020 C 
HETATM   11  C11 UNL     1     -34.404  14.958  -7.115  1.00 20.00     0.015 C 
HETATM   12  C12 UNL     1     -34.646  13.454  -5.144  1.00 20.00     0.015 C 
ENDROOT
TORSDOF 0
ENDMDL
MODEL 7
REMARK VINA RESULT:      -4.8      1.458      3.258
REMARK  0 active torsions:
REMARK  status: ('A' for Active; 'I' for Inactive)
ROOT
HETATM    1  C1  UNL     1     -36.413  16.700  -4.549  1.00 20.00    -0.080 C 
HETATM    2  C2  UNL     1     -36.854  17.372  -5.620  1.00 20.00     0.015 C 
HETATM    3  C3  UNL     1     -35.865  17.346  -3.308  1.00 20.00     0.043 C 
HETATM    4  C4  UNL     1     -34.884  13.307  -4.911  1.00 20.00     0.002 C 
HETATM    5  C5  UNL     1     -34.411  13.842  -3.561  1.00 20.00     0.006 C 
HETATM    6  C6  UNL     1     -35.554  14.497  -5.583  1.00 20.00     0.014 C 
HETATM    7  C7  UNL     1     -35.365  14.991  -3.202  1.00 20.00     0.006 C 
HETATM    8  C8  UNL     1     -36.290  15.198  -4.434  1.00 20.00    -0.017 C 
HETATM    9  C9  UNL     1     -34.737  16.381  -2.889  1.00 20.00    -0.040 C 
HETATM   10  C10 UNL     1     -37.674  14.568  -4.195  1.00 20.00     0.020 C 
HETATM   11  C11 UNL     1     -34.435  16.517  -1.391  1.00 20.00     0.015 C 
HETATM   12  C12 UNL     1     -33.451  16.720  -3.670  1.00 20.00     0.015 C 
ENDROOT
TORSDOF 0
ENDMDL
MODEL 8
REMARK VINA RESULT:      -4.8      1.465      3.013
REMARK  0 active torsions:
REMARK  status: ('A' for Active; 'I' for Inactive)
ROOT
HETATM    1  C1  UNL     1     -33.967  14.642  -3.988  1.00 20.00    -0.080 C 
HETATM    2  C2  UNL     1     -33.554  13.370  -3.920  1.00 20.00     0.015 C 
HETATM    3  C3  UNL     1     -33.197  15.815  -3.451  1.00 20.00     0.043 C 
HETATM    4  C4  UNL     1     -37.611  15.481  -3.951  1.00 20.00     0.002 C 
HETATM    5  C5  UNL     1     -36.879  16.757  -3.546  1.00 20.00     0.006 C 
HETATM    6  C6  UNL     1     -36.536  14.403  -3.944  1.00 20.00     0.014 C 
HETATM    7  C7  UNL     1     -35.421  16.571  -3.990  1.00 20.00     0.006 C 
HETATM    8  C8  UNL     1     -35.303  15.113  -4.517  1.00 20.00    -0.017 C 
HETATM    9  C9  UNL     1     -34.309  16.736  -2.912  1.00 20.00    -0.040 C 
HETATM   10  C10 UNL     1     -35.308  15.081  -6.055  1.00 20.00     0.020 C 
HETATM   11  C11 UNL     1     -33.825  18.191  -2.848  1.00 20.00     0.015 C 
HETATM   12  C12 UNL     1     -34.697  16.298  -1.485  1.00 20.00     0.015 C 
ENDROOT
TORSDOF 0
ENDMDL
MODEL 9
REMARK VINA RESULT:      -4.7      1.083      3.490
REMARK  0 active torsions:
REMARK  status: ('A' for Active; 'I' for Inactive)
ROOT
HETATM    1  C1  UNL     1     -36.025  14.716  -4.371  1.00 20.00    -0.080 C 
HETATM    2  C2  UNL     1     -37.318  14.609  -4.039  1.00 20.00     0.015 C 
HETATM    3  C3  UNL     1     -34.898  14.073  -3.614  1.00 20.00     0.043 C 
HETATM    4  C4  UNL     1     -34.731  17.783  -6.073  1.00 20.00     0.002 C 
HETATM    5  C5  UNL     1     -33.515  17.097  -5.457  1.00 20.00     0.006 C 
HETATM    6  C6  UNL     1     -35.926  17.034  -5.502  1.00 20.00     0.014 C 
HETATM    7  C7  UNL     1     -33.945  15.652  -5.165  1.00 20.00     0.006 C 
HETATM    8  C8  UNL     1     -35.464  15.571  -5.484  1.00 20.00    -0.017 C 
HETATM    9  C9  UNL     1     -33.777  15.127  -3.709  1.00 20.00    -0.040 C 
HETATM   10  C10 UNL     1     -35.705  14.895  -6.846  1.00 20.00     0.020 C 
HETATM   11  C11 UNL     1     -32.401  14.474  -3.520  1.00 20.00     0.015 C 
HETATM   12  C12 UNL     1     -33.963  16.181  -2.597  1.00 20.00     0.015 C 
ENDROOT
TORSDOF 0
ENDMDL
