MODEL 1
REMARK VINA RESULT:      -4.8      0.000      0.000
REMARK  1 active torsions:
REMARK  status: ('A' for Active; 'I' for Inactive)
REMARK    1  A    between atoms: C8_8  and  O12_12 
ROOT
HETATM    1  C1  UNL     1     -35.505  16.842  -3.621  1.00 20.00    -0.049 C 
HETATM    2  C2  UNL     1     -35.858  14.308  -3.765  1.00 20.00     0.135 C 
HETATM    3  C3  UNL     1     -36.425  17.411  -4.402  1.00 20.00     0.017 C 
HETATM    4  C4  UNL     1     -34.781  13.470  -4.432  1.00 20.00     0.079 C 
HETATM    5  C5  UNL     1     -33.422  13.610  -3.757  1.00 20.00     0.008 C 
HETATM    6  C6  UNL     1     -32.991  15.072  -3.716  1.00 20.00     0.009 C 
HETATM    7  C7  UNL     1     -35.425  15.511  -2.897  1.00 20.00     0.092 C 
HETATM    8  C8  UNL     1     -34.159  17.326  -3.116  1.00 20.00     0.155 C 
HETATM    9  C9  UNL     1     -33.912  15.835  -2.762  1.00 20.00     0.034 C 
HETATM   10  O11 UNL     1     -37.046  14.024  -3.966  1.00 20.00    -0.297 OA
ENDROOT
BRANCH   8  11
HETATM   11  O12 UNL     1     -34.242  18.232  -2.000  1.00 20.00    -0.386 OA
HETATM   12  C10 UNL     1     -33.279  19.263  -2.115  1.00 20.00     0.202 C 
ENDBRANCH   8  11
TORSDOF 1
ENDMDL
MODEL 2
REMARK VINA RESULT:      -4.7      2.391      3.347
REMARK  1 active torsions:
REMARK  status: ('A' for Active; 'I' for Inactive)
REMARK    1  A    between atoms: C8_8  and  O12_12 
ROOT
HETATM    1  C1  UNL     1     -35.317  15.146  -6.479  1.00 20.00    -0.049 C 
HETATM    2  C2  UNL     1     -34.683  13.728  -4.441  1.00 20.00     0.135 C 
HETATM    3  C3  UNL     1     -35.400  14.318  -7.523  1.00 20.00     0.017 C 
HETATM    4  C4  UNL     1     -33.317  13.945  -3.813  1.00 20.00     0.079 C 
HETATM    5  C5  UNL     1     -33.106  15.378  -3.339  1.00 20.00     0.008 C 
HETATM    6  C6  UNL     1     -33.310  16.359  -4.489  1.00 20.00     0.009 C 
HETATM    7  C7  UNL     1     -35.451  14.957  -4.980  1.00 20.00     0.092 C 
HETATM    8  C8  UNL     1     -35.081  16.641  -6.384  1.00 20.00     0.155 C 
HETATM    9  C9  UNL     1     -34.788  16.358  -4.886  1.00 20.00     0.034 C 
HETATM   10  O11 UNL     1     -35.121  12.574  -4.533  1.00 20.00    -0.297 OA
ENDROOT
BRANCH   8  11
HETATM   11  O12 UNL     1     -36.248  17.439  -6.657  1.00 20.00    -0.386 OA
HETATM   12  C10 UNL     1     -35.950  18.468  -7.581  1.00 20.00     0.202 C 
ENDBRANCH   8  11
TORSDOF 1
ENDMDL
MODEL 3
REMARK VINA RESULT:      -4.5      1.941      2.386
REMARK  1 active torsions:
REMARK  status: ('A' for Active; 'I' for Inactive)
REMARK    1  A    between atoms: C8_8  and  O12_12 
ROOT
HETATM    1  C1  UNL     1     -34.761  15.971  -3.601  1.00 20.00    -0.049 C 
HETATM    2  C2  UNL     1     -34.563  13.875  -5.063  1.00 20.00     0.135 C 
HETATM    3  C3  UNL     1     -35.646  15.697  -2.640  1.00 20.00     0.017 C 
HETATM    4  C4  UNL     1     -35.069  13.946  -6.493  1.00 20.00     0.079 C 
HETATM    5  C5  UNL     1     -34.374  15.028  -7.312  1.00 20.00     0.008 C 
HETATM    6  C6  UNL     1     -34.522  16.388  -6.640  1.00 20.00     0.009 C 
HETATM    7  C7  UNL     1     -33.857  15.114  -4.467  1.00 20.00     0.092 C 
HETATM    8  C8  UNL     1     -34.282  17.280  -4.199  1.00 20.00     0.155 C 
HETATM    9  C9  UNL     1     -33.716  16.391  -5.339  1.00 20.00     0.034 C 
HETATM   10  O11 UNL     1     -34.764  12.843  -4.409  1.00 20.00    -0.297 OA
ENDROOT
BRANCH   8  11
HETATM   11  O12 UNL     1     -33.307  17.971  -3.397  1.00 20.00    -0.386 OA
HETATM   12  C10 UNL     1     -33.767  19.262  -3.045  1.00 20.00     0.202 C 
ENDBRANCH   8  11
TORSDOF 1
ENDMDL
MODEL 4
REMARK VINA RESULT:      -4.5      1.857      3.019
REMARK  1 active torsions:
REMARK  status: ('A' for Active; 'I' for Inactive)
REMARK    1  A    between atoms: C8_8  and  O12_12 
ROOT
HETATM    1  C1  UNL     1     -34.850  16.386  -2.457  1.00 20.00    -0.049 C 
HETATM    2  C2  UNL     1     -33.305  14.806  -3.755  1.00 20.00     0.135 C 
HETATM    3  C3  UNL     1     -34.281  16.601  -1.268  1.00 20.00     0.017 C 
HETATM    4  C4  UNL     1     -33.803  13.403  -4.059  1.00 20.00     0.079 C 
HETATM    5  C5  UNL     1     -35.094  13.399  -4.870  1.00 20.00     0.008 C 
HETATM    6  C6  UNL     1     -36.181  14.192  -4.154  1.00 20.00     0.009 C 
HETATM    7  C7  UNL     1     -34.313  15.976  -3.815  1.00 20.00     0.092 C 
HETATM    8  C8  UNL     1     -36.286  16.495  -2.931  1.00 20.00     0.155 C 
HETATM    9  C9  UNL     1     -35.798  15.674  -4.155  1.00 20.00     0.034 C 
HETATM   10  O11 UNL     1     -32.119  14.962  -3.434  1.00 20.00    -0.297 OA
ENDROOT
BRANCH   8  11
HETATM   11  O12 UNL     1     -36.713  17.841  -3.207  1.00 20.00    -0.386 OA
HETATM   12  C10 UNL     1     -37.924  18.135  -2.536  1.00 20.00     0.202 C 
ENDBRANCH   8  11
TORSDOF 1
ENDMDL
MODEL 5
REMARK VINA RESULT:      -4.4      1.836      4.290
REMARK  1 active torsions:
REMARK  status: ('A' for Active; 'I' for Inactive)
REMARK    1  A    between atoms: C8_8  and  O12_12 
ROOT
HETATM    1  C1  UNL     1     -35.474  14.158  -4.349  1.00 20.00    -0.049 C 
HETATM    2  C2  UNL     1     -33.465  15.685  -3.900  1.00 20.00     0.135 C 
HETATM    3  C3  UNL     1     -34.990  12.993  -4.786  1.00 20.00     0.017 C 
HETATM    4  C4  UNL     1     -33.279  16.906  -4.784  1.00 20.00     0.079 C 
HETATM    5  C5  UNL     1     -34.474  17.853  -4.740  1.00 20.00     0.008 C 
HETATM    6  C6  UNL     1     -35.754  17.121  -5.127  1.00 20.00     0.009 C 
HETATM    7  C7  UNL     1     -34.900  15.275  -3.498  1.00 20.00     0.092 C 
HETATM    8  C8  UNL     1     -36.827  14.823  -4.512  1.00 20.00     0.155 C 
HETATM    9  C9  UNL     1     -36.097  16.107  -4.033  1.00 20.00     0.034 C 
HETATM   10  O11 UNL     1     -32.466  15.037  -3.561  1.00 20.00    -0.297 OA
ENDROOT
BRANCH   8  11
HETATM   11  O12 UNL     1     -37.843  14.311  -3.631  1.00 20.00    -0.386 OA
HETATM   12  C10 UNL     1     -39.135  14.606  -4.126  1.00 20.00     0.202 C 
ENDBRANCH   8  11
TORSDOF 1
ENDMDL
MODEL 6
REMARK VINA RESULT:      -4.4      2.228      4.076
REMARK  1 active torsions:
REMARK  status: ('A' for Active; 'I' for Inactive)
REMARK    1  A    between atoms: C8_8  and  O12_12 
ROOT
HETATM    1  C1  UNL     1     -35.950  14.647  -5.551  1.00 20.00    -0.049 C 
HETATM    2  C2  UNL     1     -34.285  14.100  -3.681  1.00 20.00     0.135 C 
HETATM    3  C3  UNL     1     -35.342  14.378  -6.708  1.00 20.00     0.017 C 
HETATM    4  C4  UNL     1     -33.743  15.246  -2.844  1.00 20.00     0.079 C 
HETATM    5  C5  UNL     1     -34.842  16.030  -2.136  1.00 20.00     0.008 C 
HETATM    6  C6  UNL     1     -35.859  16.557  -3.142  1.00 20.00     0.009 C 
HETATM    7  C7  UNL     1     -35.763  14.148  -4.130  1.00 20.00     0.092 C 
HETATM    8  C8  UNL     1     -37.112  15.556  -5.200  1.00 20.00     0.155 C 
HETATM    9  C9  UNL     1     -36.629  15.375  -3.735  1.00 20.00     0.034 C 
HETATM   10  O11 UNL     1     -33.518  13.183  -4.006  1.00 20.00    -0.297 OA
ENDROOT
BRANCH   8  11
HETATM   11  O12 UNL     1     -38.404  15.004  -5.509  1.00 20.00    -0.386 OA
HETATM   12  C10 UNL     1     -39.193  15.935  -6.225  1.00 20.00     0.202 C 
ENDBRANCH   8  11
TORSDOF 1
ENDMDL
MODEL 7
REMARK VINA RESULT:      -4.4      2.355      3.820
REMARK  1 active torsions:
REMARK  status: ('A' for Active; 'I' for Inactive)
REMARK    1  A    between atoms: C8_8  and  O12_12 
ROOT
HETATM    1  C1  UNL     1     -36.700  15.619  -5.213  1.00 20.00    -0.049 C 
HETATM    2  C2  UNL     1     -34.186  15.422  -5.677  1.00 20.00     0.135 C 
HETATM    3  C3  UNL     1     -37.212  16.410  -6.159  1.00 20.00     0.017 C 
HETATM    4  C4  UNL     1     -33.222  16.042  -4.681  1.00 20.00     0.079 C 
HETATM    5  C5  UNL     1     -33.379  15.472  -3.275  1.00 20.00     0.008 C 
HETATM    6  C6  UNL     1     -34.812  15.642  -2.784  1.00 20.00     0.009 C 
HETATM    7  C7  UNL     1     -35.465  14.740  -5.140  1.00 20.00     0.092 C 
HETATM    8  C8  UNL     1     -37.177  15.261  -3.819  1.00 20.00     0.155 C 
HETATM    9  C9  UNL     1     -35.730  14.737  -3.610  1.00 20.00     0.034 C 
HETATM   10  O11 UNL     1     -33.937  15.515  -6.886  1.00 20.00    -0.297 OA
ENDROOT
BRANCH   8  11
HETATM   11  O12 UNL     1     -38.216  14.265  -3.792  1.00 20.00    -0.386 OA
HETATM   12  C10 UNL     1     -39.484  14.864  -3.600  1.00 20.00     0.202 C 
ENDBRANCH   8  11
TORSDOF 1
ENDMDL
MODEL 8
REMARK VINA RESULT:      -4.4      1.482      1.636
REMARK  1 active torsions:
REMARK  status: ('A' for Active; 'I' for Inactive)
REMARK    1  A    between atoms: C8_8  and  O12_12 
ROOT
HETATM    1  C1  UNL     1     -35.077  16.739  -3.511  1.00 20.00    -0.049 C 
HETATM    2  C2  UNL     1     -36.010  15.087  -5.234  1.00 20.00     0.135 C 
HETATM    3  C3  UNL     1     -35.146  17.956  -4.058  1.00 20.00     0.017 C 
HETATM    4  C4  UNL     1     -35.055  14.083  -5.856  1.00 20.00     0.079 C 
HETATM    5  C5  UNL     1     -34.382  13.189  -4.821  1.00 20.00     0.008 C 
HETATM    6  C6  UNL     1     -33.648  14.029  -3.782  1.00 20.00     0.009 C 
HETATM    7  C7  UNL     1     -35.835  15.445  -3.741  1.00 20.00     0.092 C 
HETATM    8  C8  UNL     1     -34.214  16.170  -2.402  1.00 20.00     0.155 C 
HETATM    9  C9  UNL     1     -34.676  14.789  -2.941  1.00 20.00     0.034 C 
HETATM   10  O11 UNL     1     -36.873  15.612  -5.950  1.00 20.00    -0.297 OA
ENDROOT
BRANCH   8  11
HETATM   11  O12 UNL     1     -34.660  16.510  -1.077  1.00 20.00    -0.386 OA
HETATM   12  C10 UNL     1     -33.849  17.524  -0.515  1.00 20.00     0.202 C 
ENDBRANCH   8  11
TORSDOF 1
ENDMDL
MODEL 9
REMARK VINA RESULT:      -4.4      2.450      4.376
REMARK  1 active torsions:
REMARK  status: ('A' for Active; 'I' for Inactive)
REMARK    1  A    between atoms: C8_8  and  O12_12 
ROOT
HETATM    1  C1  UNL     1     -35.781  16.209  -5.929  1.00 20.00    -0.049 C 
HETATM    2  C2  UNL     1     -33.492  15.994  -4.795  1.00 20.00     0.135 C 
HETATM    3  C3  UNL     1     -36.229  17.441  -5.676  1.00 20.00     0.017 C 
HETATM    4  C4  UNL     1     -33.358  15.034  -3.626  1.00 20.00     0.079 C 
HETATM    5  C5  UNL     1     -33.717  13.599  -3.996  1.00 20.00     0.008 C 
HETATM    6  C6  UNL     1     -35.130  13.530  -4.565  1.00 20.00     0.009 C 
HETATM    7  C7  UNL     1     -34.397  15.590  -5.982  1.00 20.00     0.092 C 
HETATM    8  C8  UNL     1     -36.494  14.923  -6.299  1.00 20.00     0.155 C 
HETATM    9  C9  UNL     1     -35.154  14.235  -5.923  1.00 20.00     0.034 C 
HETATM   10  O11 UNL     1     -32.904  17.082  -4.745  1.00 20.00    -0.297 OA
ENDROOT
BRANCH   8  11
HETATM   11  O12 UNL     1     -36.877  14.841  -7.684  1.00 20.00    -0.386 OA
HETATM   12  C10 UNL     1     -38.277  14.980  -7.830  1.00 20.00     0.202 C 
ENDBRANCH   8  11
TORSDOF 1
ENDMDL
