MODEL 1
REMARK VINA RESULT:      -5.0      0.000      0.000
REMARK  0 active torsions:
REMARK  status: ('A' for Active; 'I' for Inactive)
ROOT
HETATM    1  C1  UNL     1     -36.489  15.146  -4.728  1.00 20.00    -0.080 C 
HETATM    2  C2  UNL     1     -37.632  14.754  -4.151  1.00 20.00     0.015 C 
HETATM    3  C3  UNL     1     -36.430  16.118  -5.878  1.00 20.00     0.043 C 
HETATM    4  C4  UNL     1     -33.181  15.807  -3.438  1.00 20.00     0.002 C 
HETATM    5  C5  UNL     1     -33.391  16.340  -4.842  1.00 20.00     0.006 C 
HETATM    6  C6  UNL     1     -34.557  15.266  -3.079  1.00 20.00     0.014 C 
HETATM    7  C7  UNL     1     -34.207  15.233  -5.525  1.00 20.00     0.006 C 
HETATM    8  C8  UNL     1     -35.098  14.641  -4.386  1.00 20.00    -0.017 C 
HETATM    9  C9  UNL     1     -35.171  15.691  -6.650  1.00 20.00    -0.040 C 
HETATM   10  C10 UNL     1     -34.997  13.111  -4.326  1.00 20.00     0.020 C 
HETATM   11  C11 UNL     1     -35.498  14.518  -7.602  1.00 20.00     0.015 C 
HETATM   12  C12 UNL     1     -34.622  16.840  -7.507  1.00 20.00     0.015 C 
ENDROOT
TORSDOF 0
ENDMDL
MODEL 2
REMARK VINA RESULT:      -4.9      1.207      1.405
REMARK  0 active torsions:
REMARK  status: ('A' for Active; 'I' for Inactive)
ROOT
HETATM    1  C1  UNL     1     -36.113  15.375  -4.283  1.00 20.00    -0.080 C 
HETATM    2  C2  UNL     1     -37.174  14.576  -4.112  1.00 20.00     0.015 C 
HETATM    3  C3  UNL     1     -36.057  16.472  -5.314  1.00 20.00     0.043 C 
HETATM    4  C4  UNL     1     -33.726  16.822  -1.990  1.00 20.00     0.002 C 
HETATM    5  C5  UNL     1     -33.694  17.459  -3.365  1.00 20.00     0.006 C 
HETATM    6  C6  UNL     1     -34.885  15.843  -2.105  1.00 20.00     0.014 C 
HETATM    7  C7  UNL     1     -33.864  16.265  -4.315  1.00 20.00     0.006 C 
HETATM    8  C8  UNL     1     -34.791  15.275  -3.540  1.00 20.00    -0.017 C 
HETATM    9  C9  UNL     1     -34.563  16.563  -5.667  1.00 20.00    -0.040 C 
HETATM   10  C10 UNL     1     -34.207  13.856  -3.514  1.00 20.00     0.020 C 
HETATM   11  C11 UNL     1     -34.195  15.494  -6.720  1.00 20.00     0.015 C 
HETATM   12  C12 UNL     1     -34.209  17.934  -6.259  1.00 20.00     0.015 C 
ENDROOT
TORSDOF 0
ENDMDL
MODEL 3
REMARK VINA RESULT:      -4.8      1.425      3.484
REMARK  0 active torsions:
REMARK  status: ('A' for Active; 'I' for Inactive)
ROOT
HETATM    1  C1  UNL     1     -36.068  16.469  -4.898  1.00 20.00    -0.080 C 
HETATM    2  C2  UNL     1     -36.945  17.001  -5.759  1.00 20.00     0.015 C 
HETATM    3  C3  UNL     1     -36.100  16.726  -3.413  1.00 20.00     0.043 C 
HETATM    4  C4  UNL     1     -34.411  13.263  -4.739  1.00 20.00     0.002 C 
HETATM    5  C5  UNL     1     -34.317  14.048  -3.445  1.00 20.00     0.006 C 
HETATM    6  C6  UNL     1     -35.302  14.148  -5.599  1.00 20.00     0.014 C 
HETATM    7  C7  UNL     1     -34.084  15.490  -3.920  1.00 20.00     0.006 C 
HETATM    8  C8  UNL     1     -34.879  15.596  -5.260  1.00 20.00    -0.017 C 
HETATM    9  C9  UNL     1     -34.626  16.609  -2.992  1.00 20.00    -0.040 C 
HETATM   10  C10 UNL     1     -34.013  16.175  -6.387  1.00 20.00     0.020 C 
HETATM   11  C11 UNL     1     -33.886  17.940  -3.252  1.00 20.00     0.015 C 
HETATM   12  C12 UNL     1     -34.494  16.293  -1.497  1.00 20.00     0.015 C 
ENDROOT
TORSDOF 0
ENDMDL
MODEL 4
REMARK VINA RESULT:      -4.8      1.697      3.392
REMARK  0 active torsions:
REMARK  status: ('A' for Active; 'I' for Inactive)
ROOT
HETATM    1  C1  UNL     1     -34.417  17.110  -4.338  1.00 20.00    -0.080 C 
HETATM    2  C2  UNL     1     -33.694  18.225  -4.507  1.00 20.00     0.015 C 
HETATM    3  C3  UNL     1     -35.668  16.806  -5.120  1.00 20.00     0.043 C 
HETATM    4  C4  UNL     1     -33.528  13.687  -3.603  1.00 20.00     0.002 C 
HETATM    5  C5  UNL     1     -34.957  13.842  -4.088  1.00 20.00     0.006 C 
HETATM    6  C6  UNL     1     -32.982  15.103  -3.724  1.00 20.00     0.014 C 
HETATM    7  C7  UNL     1     -35.431  15.127  -3.395  1.00 20.00     0.006 C 
HETATM    8  C8  UNL     1     -34.154  16.023  -3.310  1.00 20.00    -0.017 C 
HETATM    9  C9  UNL     1     -36.504  15.953  -4.150  1.00 20.00    -0.040 C 
HETATM   10  C10 UNL     1     -33.933  16.560  -1.890  1.00 20.00     0.020 C 
HETATM   11  C11 UNL     1     -37.283  16.862  -3.173  1.00 20.00     0.015 C 
HETATM   12  C12 UNL     1     -37.532  15.096  -4.901  1.00 20.00     0.015 C 
ENDROOT
TORSDOF 0
ENDMDL
MODEL 5
REMARK VINA RESULT:      -4.8      0.986      3.525
REMARK  0 active torsions:
REMARK  status: ('A' for Active; 'I' for Inactive)
ROOT
HETATM    1  C1  UNL     1     -34.373  15.581  -5.750  1.00 20.00    -0.080 C 
HETATM    2  C2  UNL     1     -34.142  15.578  -7.069  1.00 20.00     0.015 C 
HETATM    3  C3  UNL     1     -33.728  16.553  -4.796  1.00 20.00     0.043 C 
HETATM    4  C4  UNL     1     -37.319  14.926  -3.765  1.00 20.00     0.002 C 
HETATM    5  C5  UNL     1     -36.210  15.604  -2.982  1.00 20.00     0.006 C 
HETATM    6  C6  UNL     1     -36.750  14.884  -5.176  1.00 20.00     0.014 C 
HETATM    7  C7  UNL     1     -34.939  14.913  -3.495  1.00 20.00     0.006 C 
HETATM    8  C8  UNL     1     -35.243  14.591  -4.993  1.00 20.00    -0.017 C 
HETATM    9  C9  UNL     1     -33.644  15.766  -3.477  1.00 20.00    -0.040 C 
HETATM   10  C10 UNL     1     -34.940  13.125  -5.330  1.00 20.00     0.020 C 
HETATM   11  C11 UNL     1     -32.392  14.861  -3.471  1.00 20.00     0.015 C 
HETATM   12  C12 UNL     1     -33.538  16.707  -2.269  1.00 20.00     0.015 C 
ENDROOT
TORSDOF 0
ENDMDL
MODEL 6
REMARK VINA RESULT:      -4.8      1.436      2.869
REMARK  0 active torsions:
REMARK  status: ('A' for Active; 'I' for Inactive)
ROOT
HETATM    1  C1  UNL     1     -34.632  16.203  -2.863  1.00 20.00    -0.080 C 
HETATM    2  C2  UNL     1     -34.632  16.227  -1.524  1.00 20.00     0.015 C 
HETATM    3  C3  UNL     1     -33.860  17.180  -3.711  1.00 20.00     0.043 C 
HETATM    4  C4  UNL     1     -34.719  13.518  -5.277  1.00 20.00     0.002 C 
HETATM    5  C5  UNL     1     -34.327  14.852  -5.882  1.00 20.00     0.006 C 
HETATM    6  C6  UNL     1     -34.826  13.845  -3.795  1.00 20.00     0.014 C 
HETATM    7  C7  UNL     1     -35.253  15.850  -5.174  1.00 20.00     0.006 C 
HETATM    8  C8  UNL     1     -35.442  15.262  -3.739  1.00 20.00    -0.017 C 
HETATM    9  C9  UNL     1     -34.698  17.287  -4.996  1.00 20.00    -0.040 C 
HETATM   10  C10 UNL     1     -36.924  15.184  -3.350  1.00 20.00     0.020 C 
HETATM   11  C11 UNL     1     -35.850  18.298  -4.801  1.00 20.00     0.015 C 
HETATM   12  C12 UNL     1     -33.851  17.776  -6.179  1.00 20.00     0.015 C 
ENDROOT
TORSDOF 0
ENDMDL
MODEL 7
REMARK VINA RESULT:      -4.8      1.456      3.047
REMARK  0 active torsions:
REMARK  status: ('A' for Active; 'I' for Inactive)
ROOT
HETATM    1  C1  UNL     1     -35.439  16.177  -5.061  1.00 20.00    -0.080 C 
HETATM    2  C2  UNL     1     -36.155  16.588  -6.116  1.00 20.00     0.015 C 
HETATM    3  C3  UNL     1     -33.989  15.778  -5.146  1.00 20.00     0.043 C 
HETATM    4  C4  UNL     1     -35.415  17.135  -1.579  1.00 20.00     0.002 C 
HETATM    5  C5  UNL     1     -34.202  16.320  -1.981  1.00 20.00     0.006 C 
HETATM    6  C6  UNL     1     -36.146  17.318  -2.901  1.00 20.00     0.014 C 
HETATM    7  C7  UNL     1     -34.784  15.256  -2.923  1.00 20.00     0.006 C 
HETATM    8  C8  UNL     1     -35.964  15.977  -3.650  1.00 20.00    -0.017 C 
HETATM    9  C9  UNL     1     -33.834  14.732  -4.030  1.00 20.00    -0.040 C 
HETATM   10  C10 UNL     1     -37.257  15.152  -3.586  1.00 20.00     0.020 C 
HETATM   11  C11 UNL     1     -34.291  13.343  -4.530  1.00 20.00     0.015 C 
HETATM   12  C12 UNL     1     -32.372  14.602  -3.582  1.00 20.00     0.015 C 
ENDROOT
TORSDOF 0
ENDMDL
MODEL 8
REMARK VINA RESULT:      -4.7      1.152      2.713
REMARK  0 active torsions:
REMARK  status: ('A' for Active; 'I' for Inactive)
ROOT
HETATM    1  C1  UNL     1     -34.094  16.828  -5.329  1.00 20.00    -0.080 C 
HETATM    2  C2  UNL     1     -33.519  18.005  -5.051  1.00 20.00     0.015 C 
HETATM    3  C3  UNL     1     -34.255  16.292  -6.728  1.00 20.00     0.043 C 
HETATM    4  C4  UNL     1     -34.099  13.633  -3.644  1.00 20.00     0.002 C 
HETATM    5  C5  UNL     1     -34.606  13.555  -5.072  1.00 20.00     0.006 C 
HETATM    6  C6  UNL     1     -33.674  15.089  -3.522  1.00 20.00     0.014 C 
HETATM    7  C7  UNL     1     -35.451  14.828  -5.219  1.00 20.00     0.006 C 
HETATM    8  C8  UNL     1     -34.731  15.885  -4.322  1.00 20.00    -0.017 C 
HETATM    9  C9  UNL     1     -35.529  15.434  -6.644  1.00 20.00    -0.040 C 
HETATM   10  C10 UNL     1     -35.711  16.579  -3.366  1.00 20.00     0.020 C 
HETATM   11  C11 UNL     1     -36.784  16.323  -6.793  1.00 20.00     0.015 C 
HETATM   12  C12 UNL     1     -35.573  14.384  -7.763  1.00 20.00     0.015 C 
ENDROOT
TORSDOF 0
ENDMDL
MODEL 9
REMARK VINA RESULT:      -4.7      1.397      3.043
REMARK  0 active torsions:
REMARK  status: ('A' for Active; 'I' for Inactive)
ROOT
HETATM    1  C1  UNL     1     -34.327  14.291  -3.820  1.00 20.00    -0.080 C 
HETATM    2  C2  UNL     1     -33.274  13.467  -3.745  1.00 20.00     0.015 C 
HETATM    3  C3  UNL     1     -35.732  13.820  -4.093  1.00 20.00     0.043 C 
HETATM    4  C4  UNL     1     -35.224  17.307  -2.047  1.00 20.00     0.002 C 
HETATM    5  C5  UNL     1     -36.380  16.704  -2.821  1.00 20.00     0.006 C 
HETATM    6  C6  UNL     1     -34.115  16.287  -2.259  1.00 20.00     0.014 C 
HETATM    7  C7  UNL     1     -35.728  16.238  -4.130  1.00 20.00     0.006 C 
HETATM    8  C8  UNL     1     -34.284  15.806  -3.719  1.00 20.00    -0.017 C 
HETATM    9  C9  UNL     1     -36.380  15.011  -4.818  1.00 20.00    -0.040 C 
HETATM   10  C10 UNL     1     -33.222  16.452  -4.619  1.00 20.00     0.020 C 
HETATM   11  C11 UNL     1     -36.030  14.977  -6.323  1.00 20.00     0.015 C 
HETATM   12  C12 UNL     1     -37.910  14.974  -4.701  1.00 20.00     0.015 C 
ENDROOT
TORSDOF 0
ENDMDL
