MODEL 1
REMARK VINA RESULT:      -5.3      0.000      0.000
REMARK  1 active torsions:
REMARK  status: ('A' for Active; 'I' for Inactive)
REMARK    1  A    between atoms: C1_1  and  C4_4 
ROOT
HETATM    1  C3  UNL     1     -34.153   6.402   5.602  1.00 20.00     0.018 A 
HETATM    2  C4  UNL     1     -33.327   5.787   4.503  1.00 20.00     0.017 A 
HETATM    3  C5  UNL     1     -34.710   5.240   4.815  1.00 20.00    -0.040 A 
HETATM    4  C8  UNL     1     -34.781   3.898   5.497  1.00 20.00     0.015 C 
HETATM    5  C9  UNL     1     -35.867   5.513   3.889  1.00 20.00     0.015 C 
ENDROOT
BRANCH   2   6
HETATM    6  C1  UNL     1     -33.080   6.554   3.290  1.00 20.00    -0.019 C 
HETATM    7  C2  UNL     1     -32.105   7.455   3.070  1.00 20.00    -0.091 C 
HETATM    8  C6  UNL     1     -31.986   8.167   1.751  1.00 20.00     0.042 C 
HETATM    9  C7  UNL     1     -31.068   7.830   4.090  1.00 20.00     0.042 C 
ENDBRANCH   2   6
TORSDOF 1
ENDMDL
MODEL 2
REMARK VINA RESULT:      -4.4     10.975     12.191
REMARK  1 active torsions:
REMARK  status: ('A' for Active; 'I' for Inactive)
REMARK    1  A    between atoms: C1_1  and  C4_4 
ROOT
HETATM    1  C3  UNL     1     -35.523  16.105  -3.180  1.00 20.00     0.018 A 
HETATM    2  C4  UNL     1     -34.554  15.860  -2.053  1.00 20.00     0.017 A 
HETATM    3  C5  UNL     1     -34.287  15.274  -3.429  1.00 20.00    -0.040 A 
HETATM    4  C8  UNL     1     -34.462  13.786  -3.589  1.00 20.00     0.015 C 
HETATM    5  C9  UNL     1     -33.218  15.859  -4.315  1.00 20.00     0.015 C 
ENDROOT
BRANCH   2   6
HETATM    6  C1  UNL     1     -33.763  16.972  -1.545  1.00 20.00    -0.019 C 
HETATM    7  C2  UNL     1     -33.943  17.656  -0.400  1.00 20.00    -0.091 C 
HETATM    8  C6  UNL     1     -33.031  18.788  -0.018  1.00 20.00     0.042 C 
HETATM    9  C7  UNL     1     -35.041  17.364   0.583  1.00 20.00     0.042 C 
ENDBRANCH   2   6
TORSDOF 1
ENDMDL
MODEL 3
REMARK VINA RESULT:      -4.4     11.402     12.514
REMARK  1 active torsions:
REMARK  status: ('A' for Active; 'I' for Inactive)
REMARK    1  A    between atoms: C1_1  and  C4_4 
ROOT
HETATM    1  C3  UNL     1     -34.653  13.201  -4.869  1.00 20.00     0.018 A 
HETATM    2  C4  UNL     1     -34.030  14.471  -4.351  1.00 20.00     0.017 A 
HETATM    3  C5  UNL     1     -35.046  14.525  -5.478  1.00 20.00    -0.040 A 
HETATM    4  C8  UNL     1     -34.530  14.846  -6.857  1.00 20.00     0.015 C 
HETATM    5  C9  UNL     1     -36.446  15.024  -5.222  1.00 20.00     0.015 C 
ENDROOT
BRANCH   2   6
HETATM    6  C1  UNL     1     -34.369  14.931  -3.012  1.00 20.00    -0.019 C 
HETATM    7  C2  UNL     1     -34.261  16.177  -2.516  1.00 20.00    -0.091 C 
HETATM    8  C6  UNL     1     -34.658  16.489  -1.100  1.00 20.00     0.042 C 
HETATM    9  C7  UNL     1     -33.750  17.349  -3.306  1.00 20.00     0.042 C 
ENDBRANCH   2   6
TORSDOF 1
ENDMDL
MODEL 4
REMARK VINA RESULT:      -4.4     11.549     12.641
REMARK  1 active torsions:
REMARK  status: ('A' for Active; 'I' for Inactive)
REMARK    1  A    between atoms: C1_1  and  C4_4 
ROOT
HETATM    1  C3  UNL     1     -34.161  14.872  -3.361  1.00 20.00     0.018 A 
HETATM    2  C4  UNL     1     -33.806  16.089  -2.549  1.00 20.00     0.017 A 
HETATM    3  C5  UNL     1     -34.428  16.247  -3.926  1.00 20.00    -0.040 A 
HETATM    4  C8  UNL     1     -33.533  16.738  -5.033  1.00 20.00     0.015 C 
HETATM    5  C9  UNL     1     -35.866  16.675  -4.071  1.00 20.00     0.015 C 
ENDROOT
BRANCH   2   6
HETATM    6  C1  UNL     1     -34.568  16.382  -1.343  1.00 20.00    -0.019 C 
HETATM    7  C2  UNL     1     -34.313  17.322  -0.415  1.00 20.00    -0.091 C 
HETATM    8  C6  UNL     1     -35.206  17.497   0.782  1.00 20.00     0.042 C 
HETATM    9  C7  UNL     1     -33.145  18.264  -0.479  1.00 20.00     0.042 C 
ENDBRANCH   2   6
TORSDOF 1
ENDMDL
MODEL 5
REMARK VINA RESULT:      -4.3     11.287     12.260
REMARK  1 active torsions:
REMARK  status: ('A' for Active; 'I' for Inactive)
REMARK    1  A    between atoms: C1_1  and  C4_4 
ROOT
HETATM    1  C3  UNL     1     -33.292  14.109  -3.800  1.00 20.00     0.018 A 
HETATM    2  C4  UNL     1     -33.730  15.514  -3.480  1.00 20.00     0.017 A 
HETATM    3  C5  UNL     1     -34.510  14.682  -4.483  1.00 20.00    -0.040 A 
HETATM    4  C8  UNL     1     -34.388  15.062  -5.936  1.00 20.00     0.015 C 
HETATM    5  C9  UNL     1     -35.854  14.104  -4.117  1.00 20.00     0.015 C 
ENDROOT
BRANCH   2   6
HETATM    6  C1  UNL     1     -34.274  15.802  -2.160  1.00 20.00    -0.019 C 
HETATM    7  C2  UNL     1     -34.249  16.973  -1.496  1.00 20.00    -0.091 C 
HETATM    8  C6  UNL     1     -34.860  17.105  -0.129  1.00 20.00     0.042 C 
HETATM    9  C7  UNL     1     -33.627  18.228  -2.039  1.00 20.00     0.042 C 
ENDBRANCH   2   6
TORSDOF 1
ENDMDL
MODEL 6
REMARK VINA RESULT:      -4.1      0.960      4.185
REMARK  1 active torsions:
REMARK  status: ('A' for Active; 'I' for Inactive)
REMARK    1  A    between atoms: C1_1  and  C4_4 
ROOT
HETATM    1  C3  UNL     1     -31.794   7.261   4.082  1.00 20.00     0.018 A 
HETATM    2  C4  UNL     1     -33.275   7.186   3.821  1.00 20.00     0.017 A 
HETATM    3  C5  UNL     1     -32.292   7.106   2.665  1.00 20.00    -0.040 A 
HETATM    4  C8  UNL     1     -32.203   8.302   1.754  1.00 20.00     0.015 C 
HETATM    5  C9  UNL     1     -32.032   5.793   1.973  1.00 20.00     0.015 C 
ENDROOT
BRANCH   2   6
HETATM    6  C1  UNL     1     -34.012   6.010   4.262  1.00 20.00    -0.019 C 
HETATM    7  C2  UNL     1     -34.361   5.680   5.519  1.00 20.00    -0.091 C 
HETATM    8  C6  UNL     1     -35.128   4.419   5.808  1.00 20.00     0.042 C 
HETATM    9  C7  UNL     1     -34.030   6.514   6.724  1.00 20.00     0.042 C 
ENDBRANCH   2   6
TORSDOF 1
ENDMDL
MODEL 7
REMARK VINA RESULT:      -4.1     10.972     12.042
REMARK  1 active torsions:
REMARK  status: ('A' for Active; 'I' for Inactive)
REMARK    1  A    between atoms: C1_1  and  C4_4 
ROOT
HETATM    1  C3  UNL     1     -33.765  17.236  -2.032  1.00 20.00     0.018 A 
HETATM    2  C4  UNL     1     -34.491  15.930  -1.844  1.00 20.00     0.017 A 
HETATM    3  C5  UNL     1     -35.048  17.206  -1.236  1.00 20.00    -0.040 A 
HETATM    4  C8  UNL     1     -34.950  17.354   0.260  1.00 20.00     0.015 C 
HETATM    5  C9  UNL     1     -36.259  17.874  -1.835  1.00 20.00     0.015 C 
ENDROOT
BRANCH   2   6
HETATM    6  C1  UNL     1     -35.132  15.305  -2.993  1.00 20.00    -0.019 C 
HETATM    7  C2  UNL     1     -34.623  14.364  -3.809  1.00 20.00    -0.091 C 
HETATM    8  C6  UNL     1     -35.420  13.818  -4.961  1.00 20.00     0.042 C 
HETATM    9  C7  UNL     1     -33.247  13.780  -3.655  1.00 20.00     0.042 C 
ENDBRANCH   2   6
TORSDOF 1
ENDMDL
MODEL 8
REMARK VINA RESULT:      -4.0     11.067     12.874
REMARK  1 active torsions:
REMARK  status: ('A' for Active; 'I' for Inactive)
REMARK    1  A    between atoms: C1_1  and  C4_4 
ROOT
HETATM    1  C3  UNL     1     -33.232  13.975  -3.599  1.00 20.00     0.018 A 
HETATM    2  C4  UNL     1     -34.590  14.180  -4.215  1.00 20.00     0.017 A 
HETATM    3  C5  UNL     1     -33.871  15.342  -3.552  1.00 20.00    -0.040 A 
HETATM    4  C8  UNL     1     -34.411  15.821  -2.229  1.00 20.00     0.015 C 
HETATM    5  C9  UNL     1     -33.250  16.433  -4.386  1.00 20.00     0.015 C 
ENDROOT
BRANCH   2   6
HETATM    6  C1  UNL     1     -34.728  14.111  -5.664  1.00 20.00    -0.019 C 
HETATM    7  C2  UNL     1     -35.714  14.622  -6.423  1.00 20.00    -0.091 C 
HETATM    8  C6  UNL     1     -35.708  14.461  -7.918  1.00 20.00     0.042 C 
HETATM    9  C7  UNL     1     -36.886  15.381  -5.870  1.00 20.00     0.042 C 
ENDBRANCH   2   6
TORSDOF 1
ENDMDL
MODEL 9
REMARK VINA RESULT:      -3.9     11.405     12.612
REMARK  1 active torsions:
REMARK  status: ('A' for Active; 'I' for Inactive)
REMARK    1  A    between atoms: C1_1  and  C4_4 
ROOT
HETATM    1  C3  UNL     1     -34.019  16.941  -1.157  1.00 20.00     0.018 A 
HETATM    2  C4  UNL     1     -34.954  16.148  -2.031  1.00 20.00     0.017 A 
HETATM    3  C5  UNL     1     -34.726  17.625  -2.303  1.00 20.00    -0.040 A 
HETATM    4  C8  UNL     1     -35.852  18.568  -1.972  1.00 20.00     0.015 C 
HETATM    5  C9  UNL     1     -33.889  18.065  -3.477  1.00 20.00     0.015 C 
ENDROOT
BRANCH   2   6
HETATM    6  C1  UNL     1     -34.404  15.128  -2.913  1.00 20.00    -0.019 C 
HETATM    7  C2  UNL     1     -35.065  14.359  -3.798  1.00 20.00    -0.091 C 
HETATM    8  C6  UNL     1     -34.343  13.345  -4.640  1.00 20.00     0.042 C 
HETATM    9  C7  UNL     1     -36.548  14.436  -4.026  1.00 20.00     0.042 C 
ENDBRANCH   2   6
TORSDOF 1
ENDMDL
