MODEL 1
REMARK VINA RESULT:      -4.7      0.000      0.000
REMARK  0 active torsions:
REMARK  status: ('A' for Active; 'I' for Inactive)
ROOT
HETATM    1  C1  UNL     1     -35.977  15.063  -6.011  1.00 20.00    -0.021 C 
HETATM    2  C2  UNL     1     -34.407  13.298  -4.800  1.00 20.00    -0.021 C 
HETATM    3  C3  UNL     1     -36.257  16.034  -5.106  1.00 20.00    -0.023 C 
HETATM    4  C4  UNL     1     -33.737  13.648  -3.671  1.00 20.00    -0.023 C 
HETATM    5  C5  UNL     1     -34.600  14.434  -5.793  1.00 20.00     0.035 C 
HETATM    6  C6  UNL     1     -35.337  15.804  -4.001  1.00 20.00     0.033 C 
HETATM    7  C7  UNL     1     -33.345  15.107  -3.677  1.00 20.00     0.033 C 
HETATM    8  C8  UNL     1     -34.027  15.550  -4.959  1.00 20.00     0.015 C 
HETATM    9  C9  UNL     1     -34.250  16.306  -3.077  1.00 20.00     0.098 C 
HETATM   10 CL10 UNL     1     -34.563  16.314  -1.310  1.00 20.00    -0.124 Cl
ENDROOT
TORSDOF 0
ENDMDL
MODEL 2
REMARK VINA RESULT:      -4.6      1.063      2.258
REMARK  0 active torsions:
REMARK  status: ('A' for Active; 'I' for Inactive)
ROOT
HETATM    1  C1  UNL     1     -34.394  13.883  -5.176  1.00 20.00    -0.021 C 
HETATM    2  C2  UNL     1     -33.386  16.335  -5.305  1.00 20.00    -0.021 C 
HETATM    3  C3  UNL     1     -34.727  13.657  -3.881  1.00 20.00    -0.023 C 
HETATM    4  C4  UNL     1     -33.634  17.224  -4.308  1.00 20.00    -0.023 C 
HETATM    5  C5  UNL     1     -34.519  15.356  -5.568  1.00 20.00     0.035 C 
HETATM    6  C6  UNL     1     -34.647  14.958  -3.232  1.00 20.00     0.033 C 
HETATM    7  C7  UNL     1     -34.996  17.014  -3.690  1.00 20.00     0.033 C 
HETATM    8  C8  UNL     1     -35.425  15.762  -4.435  1.00 20.00     0.015 C 
HETATM    9  C9  UNL     1     -35.295  16.057  -2.420  1.00 20.00     0.098 C 
HETATM   10 CL10 UNL     1     -34.560  16.506  -0.845  1.00 20.00    -0.124 Cl
ENDROOT
TORSDOF 0
ENDMDL
MODEL 3
REMARK VINA RESULT:      -4.6      1.081      1.746
REMARK  0 active torsions:
REMARK  status: ('A' for Active; 'I' for Inactive)
ROOT
HETATM    1  C1  UNL     1     -33.979  16.277  -6.298  1.00 20.00    -0.021 C 
HETATM    2  C2  UNL     1     -35.922  14.710  -5.397  1.00 20.00    -0.021 C 
HETATM    3  C3  UNL     1     -33.501  16.971  -5.235  1.00 20.00    -0.023 C 
HETATM    4  C4  UNL     1     -36.004  14.424  -4.072  1.00 20.00    -0.023 C 
HETATM    5  C5  UNL     1     -34.502  14.894  -5.912  1.00 20.00     0.035 C 
HETATM    6  C6  UNL     1     -34.074  16.319  -4.065  1.00 20.00     0.033 C 
HETATM    7  C7  UNL     1     -34.642  14.365  -3.421  1.00 20.00     0.033 C 
HETATM    8  C8  UNL     1     -33.779  14.794  -4.594  1.00 20.00     0.015 C 
HETATM    9  C9  UNL     1     -33.894  15.624  -2.734  1.00 20.00     0.098 C 
HETATM   10 CL10 UNL     1     -34.648  16.351  -1.277  1.00 20.00    -0.124 Cl
ENDROOT
TORSDOF 0
ENDMDL
MODEL 4
REMARK VINA RESULT:      -4.6      1.933      3.128
REMARK  0 active torsions:
REMARK  status: ('A' for Active; 'I' for Inactive)
ROOT
HETATM    1  C1  UNL     1     -33.676  16.367  -2.304  1.00 20.00    -0.021 C 
HETATM    2  C2  UNL     1     -33.421  16.041  -4.925  1.00 20.00    -0.021 C 
HETATM    3  C3  UNL     1     -34.983  16.160  -2.002  1.00 20.00    -0.023 C 
HETATM    4  C4  UNL     1     -34.372  15.366  -5.621  1.00 20.00    -0.023 C 
HETATM    5  C5  UNL     1     -33.211  15.542  -3.504  1.00 20.00     0.035 C 
HETATM    6  C6  UNL     1     -35.564  15.574  -3.202  1.00 20.00     0.033 C 
HETATM    7  C7  UNL     1     -35.004  14.270  -4.797  1.00 20.00     0.033 C 
HETATM    8  C8  UNL     1     -34.325  14.529  -3.463  1.00 20.00     0.015 C 
HETATM    9  C9  UNL     1     -36.322  14.452  -3.876  1.00 20.00     0.098 C 
HETATM   10 CL10 UNL     1     -37.870  14.836  -4.699  1.00 20.00    -0.124 Cl
ENDROOT
TORSDOF 0
ENDMDL
MODEL 5
REMARK VINA RESULT:      -4.5      1.888      2.674
REMARK  0 active torsions:
REMARK  status: ('A' for Active; 'I' for Inactive)
ROOT
HETATM    1  C1  UNL     1     -35.031  13.437  -4.729  1.00 20.00    -0.021 C 
HETATM    2  C2  UNL     1     -35.281  15.168  -2.732  1.00 20.00    -0.021 C 
HETATM    3  C3  UNL     1     -34.630  14.141  -5.818  1.00 20.00    -0.023 C 
HETATM    4  C4  UNL     1     -34.668  16.378  -2.802  1.00 20.00    -0.023 C 
HETATM    5  C5  UNL     1     -34.525  14.041  -3.419  1.00 20.00     0.035 C 
HETATM    6  C6  UNL     1     -34.246  15.450  -5.307  1.00 20.00     0.033 C 
HETATM    7  C7  UNL     1     -33.365  16.308  -3.563  1.00 20.00     0.033 C 
HETATM    8  C8  UNL     1     -33.413  14.861  -4.021  1.00 20.00     0.015 C 
HETATM    9  C9  UNL     1     -33.214  16.545  -5.156  1.00 20.00     0.098 C 
HETATM   10 CL10 UNL     1     -33.595  18.177  -5.798  1.00 20.00    -0.124 Cl
ENDROOT
TORSDOF 0
ENDMDL
MODEL 6
REMARK VINA RESULT:      -4.5     12.033     13.582
REMARK  0 active torsions:
REMARK  status: ('A' for Active; 'I' for Inactive)
ROOT
HETATM    1  C1  UNL     1     -34.413   6.082   7.018  1.00 20.00    -0.021 C 
HETATM    2  C2  UNL     1     -34.791   3.869   5.601  1.00 20.00    -0.021 C 
HETATM    3  C3  UNL     1     -33.554   6.862   6.316  1.00 20.00    -0.023 C 
HETATM    4  C4  UNL     1     -34.493   3.853   4.276  1.00 20.00    -0.023 C 
HETATM    5  C5  UNL     1     -35.288   5.211   6.115  1.00 20.00     0.035 C 
HETATM    6  C6  UNL     1     -33.475   6.254   4.995  1.00 20.00     0.033 C 
HETATM    7  C7  UNL     1     -34.728   5.197   3.627  1.00 20.00     0.033 C 
HETATM    8  C8  UNL     1     -35.094   6.013   4.855  1.00 20.00     0.015 C 
HETATM    9  C9  UNL     1     -33.615   6.363   3.493  1.00 20.00     0.098 C 
HETATM   10 CL10 UNL     1     -32.177   6.032   2.472  1.00 20.00    -0.124 Cl
ENDROOT
TORSDOF 0
ENDMDL
MODEL 7
REMARK VINA RESULT:      -4.5     11.582     12.520
REMARK  0 active torsions:
REMARK  status: ('A' for Active; 'I' for Inactive)
ROOT
HETATM    1  C1  UNL     1     -42.637   7.817  -2.445  1.00 20.00    -0.021 C 
HETATM    2  C2  UNL     1     -40.874   6.942  -0.665  1.00 20.00    -0.021 C 
HETATM    3  C3  UNL     1     -42.884   6.791  -3.298  1.00 20.00    -0.023 C 
HETATM    4  C4  UNL     1     -40.693   5.608  -0.487  1.00 20.00    -0.023 C 
HETATM    5  C5  UNL     1     -42.295   7.339  -1.034  1.00 20.00     0.035 C 
HETATM    6  C6  UNL     1     -42.295   5.618  -2.667  1.00 20.00     0.033 C 
HETATM    7  C7  UNL     1     -41.969   4.831  -0.709  1.00 20.00     0.033 C 
HETATM    8  C8  UNL     1     -42.878   5.957  -1.169  1.00 20.00     0.015 C 
HETATM    9  C9  UNL     1     -42.436   4.212  -2.130  1.00 20.00     0.098 C 
HETATM   10 CL10 UNL     1     -41.426   2.914  -2.848  1.00 20.00    -0.124 Cl
ENDROOT
TORSDOF 0
ENDMDL
MODEL 8
REMARK VINA RESULT:      -4.5      1.852      3.196
REMARK  0 active torsions:
REMARK  status: ('A' for Active; 'I' for Inactive)
ROOT
HETATM    1  C1  UNL     1     -33.412  13.874  -3.760  1.00 20.00    -0.021 C 
HETATM    2  C2  UNL     1     -34.242  15.885  -2.239  1.00 20.00    -0.021 C 
HETATM    3  C3  UNL     1     -34.518  13.286  -4.281  1.00 20.00    -0.023 C 
HETATM    4  C4  UNL     1     -35.493  16.388  -2.403  1.00 20.00    -0.023 C 
HETATM    5  C5  UNL     1     -33.600  15.372  -3.519  1.00 20.00     0.035 C 
HETATM    6  C6  UNL     1     -35.610  14.206  -3.998  1.00 20.00     0.033 C 
HETATM    7  C7  UNL     1     -35.951  16.308  -3.840  1.00 20.00     0.033 C 
HETATM    8  C8  UNL     1     -34.779  15.551  -4.441  1.00 20.00     0.015 C 
HETATM    9  C9  UNL     1     -36.759  15.062  -4.482  1.00 20.00     0.098 C 
HETATM   10 CL10 UNL     1     -38.405  14.722  -3.854  1.00 20.00    -0.124 Cl
ENDROOT
TORSDOF 0
ENDMDL
MODEL 9
REMARK VINA RESULT:      -4.5      2.306      3.285
REMARK  0 active torsions:
REMARK  status: ('A' for Active; 'I' for Inactive)
ROOT
HETATM    1  C1  UNL     1     -33.422  16.230  -3.280  1.00 20.00    -0.021 C 
HETATM    2  C2  UNL     1     -34.142  13.685  -3.508  1.00 20.00    -0.021 C 
HETATM    3  C3  UNL     1     -33.466  16.769  -4.525  1.00 20.00    -0.023 C 
HETATM    4  C4  UNL     1     -34.821  13.267  -4.608  1.00 20.00    -0.023 C 
HETATM    5  C5  UNL     1     -34.449  15.114  -3.086  1.00 20.00     0.035 C 
HETATM    6  C6  UNL     1     -34.162  15.786  -5.344  1.00 20.00     0.033 C 
HETATM    7  C7  UNL     1     -35.726  14.345  -5.156  1.00 20.00     0.033 C 
HETATM    8  C8  UNL     1     -35.342  15.493  -4.240  1.00 20.00     0.015 C 
HETATM    9  C9  UNL     1     -35.295  15.428  -6.278  1.00 20.00     0.098 C 
HETATM   10 CL10 UNL     1     -34.895  14.818  -7.918  1.00 20.00    -0.124 Cl
ENDROOT
TORSDOF 0
ENDMDL
