MODEL 1
REMARK VINA RESULT:      -5.8      0.000      0.000
REMARK  0 active torsions:
REMARK  status: ('A' for Active; 'I' for Inactive)
ROOT
HETATM    1  C1  UNL     1     -34.618  13.622  -4.674  1.00 20.00    -0.019 A 
HETATM    2  C2  UNL     1     -35.832  13.937  -4.188  1.00 20.00    -0.019 A 
HETATM    3  C3  UNL     1     -33.350  15.919  -2.986  1.00 20.00    -0.023 C 
HETATM    4  C4  UNL     1     -34.557  16.230  -2.484  1.00 20.00    -0.086 C 
HETATM    5  C5  UNL     1     -33.100  15.691  -4.445  1.00 20.00     0.042 C 
HETATM    6  C6  UNL     1     -35.765  16.381  -3.372  1.00 20.00     0.048 C 
HETATM    7  C7  UNL     1     -35.368  14.616  -7.438  1.00 20.00     0.001 C 
HETATM    8  C8  UNL     1     -36.747  14.978  -6.884  1.00 20.00     0.001 C 
HETATM    9  C9  UNL     1     -34.192  15.222  -6.673  1.00 20.00     0.015 C 
HETATM   10  C10 UNL     1     -36.727  15.884  -5.654  1.00 20.00     0.015 C 
HETATM   11  C11 UNL     1     -34.311  15.049  -5.147  1.00 20.00    -0.009 A 
HETATM   12  C12 UNL     1     -35.730  15.417  -4.576  1.00 20.00    -0.008 A 
HETATM   13  C13 UNL     1     -34.766  16.482  -1.021  1.00 20.00     0.043 C 
ENDROOT
TORSDOF 0
ENDMDL
MODEL 2
REMARK VINA RESULT:      -5.6      1.226      2.261
REMARK  0 active torsions:
REMARK  status: ('A' for Active; 'I' for Inactive)
ROOT
HETATM    1  C1  UNL     1     -33.021  16.198  -4.678  1.00 20.00    -0.019 A 
HETATM    2  C2  UNL     1     -32.953  15.257  -3.721  1.00 20.00    -0.019 A 
HETATM    3  C3  UNL     1     -34.659  18.030  -2.757  1.00 20.00    -0.023 C 
HETATM    4  C4  UNL     1     -34.582  17.101  -1.789  1.00 20.00    -0.086 C 
HETATM    5  C5  UNL     1     -35.041  17.715  -4.171  1.00 20.00     0.042 C 
HETATM    6  C6  UNL     1     -34.885  15.651  -2.063  1.00 20.00     0.048 C 
HETATM    7  C7  UNL     1     -34.874  14.484  -6.357  1.00 20.00     0.001 C 
HETATM    8  C8  UNL     1     -34.799  13.414  -5.265  1.00 20.00     0.001 C 
HETATM    9  C9  UNL     1     -35.304  15.866  -5.870  1.00 20.00     0.015 C 
HETATM   10  C10 UNL     1     -35.162  13.902  -3.863  1.00 20.00     0.015 C 
HETATM   11  C11 UNL     1     -34.549  16.323  -4.607  1.00 20.00    -0.009 A 
HETATM   12  C12 UNL     1     -34.467  15.224  -3.484  1.00 20.00    -0.008 A 
HETATM   13  C13 UNL     1     -34.227  17.456  -0.376  1.00 20.00     0.043 C 
ENDROOT
TORSDOF 0
ENDMDL
MODEL 3
REMARK VINA RESULT:      -5.5      1.196      4.171
REMARK  0 active torsions:
REMARK  status: ('A' for Active; 'I' for Inactive)
ROOT
HETATM    1  C1  UNL     1     -32.934  15.276  -3.811  1.00 20.00    -0.019 A 
HETATM    2  C2  UNL     1     -33.023  16.282  -4.700  1.00 20.00    -0.019 A 
HETATM    3  C3  UNL     1     -35.203  13.752  -5.315  1.00 20.00    -0.023 C 
HETATM    4  C4  UNL     1     -35.286  14.744  -6.217  1.00 20.00    -0.086 C 
HETATM    5  C5  UNL     1     -35.163  13.984  -3.836  1.00 20.00     0.042 C 
HETATM    6  C6  UNL     1     -35.354  16.189  -5.794  1.00 20.00     0.048 C 
HETATM    7  C7  UNL     1     -34.090  17.005  -1.606  1.00 20.00     0.001 C 
HETATM    8  C8  UNL     1     -34.194  18.148  -2.618  1.00 20.00     0.001 C 
HETATM    9  C9  UNL     1     -34.775  15.708  -2.032  1.00 20.00     0.015 C 
HETATM   10  C10 UNL     1     -34.963  17.806  -3.894  1.00 20.00     0.015 C 
HETATM   11  C11 UNL     1     -34.431  15.290  -3.475  1.00 20.00    -0.009 A 
HETATM   12  C12 UNL     1     -34.534  16.464  -4.517  1.00 20.00    -0.008 A 
HETATM   13  C13 UNL     1     -35.355  14.474  -7.690  1.00 20.00     0.043 C 
ENDROOT
TORSDOF 0
ENDMDL
MODEL 4
REMARK VINA RESULT:      -5.2      1.192      4.288
REMARK  0 active torsions:
REMARK  status: ('A' for Active; 'I' for Inactive)
ROOT
HETATM    1  C1  UNL     1     -34.240  14.199  -3.291  1.00 20.00    -0.019 A 
HETATM    2  C2  UNL     1     -33.225  14.867  -3.867  1.00 20.00    -0.019 A 
HETATM    3  C3  UNL     1     -35.977  14.644  -5.845  1.00 20.00    -0.023 C 
HETATM    4  C4  UNL     1     -34.962  15.299  -6.433  1.00 20.00    -0.086 C 
HETATM    5  C5  UNL     1     -36.430  14.917  -4.443  1.00 20.00     0.042 C 
HETATM    6  C6  UNL     1     -34.198  16.380  -5.712  1.00 20.00     0.048 C 
HETATM    7  C7  UNL     1     -34.693  16.430  -1.290  1.00 20.00     0.001 C 
HETATM    8  C8  UNL     1     -33.541  17.192  -1.947  1.00 20.00     0.001 C 
HETATM    9  C9  UNL     1     -35.800  15.993  -2.248  1.00 20.00     0.015 C 
HETATM   10  C10 UNL     1     -33.681  17.390  -3.456  1.00 20.00     0.015 C 
HETATM   11  C11 UNL     1     -35.262  15.320  -3.525  1.00 20.00    -0.009 A 
HETATM   12  C12 UNL     1     -34.075  16.100  -4.200  1.00 20.00    -0.008 A 
HETATM   13  C13 UNL     1     -34.554  15.022  -7.849  1.00 20.00     0.043 C 
ENDROOT
TORSDOF 0
ENDMDL
MODEL 5
REMARK VINA RESULT:      -5.1      1.322      1.975
REMARK  0 active torsions:
REMARK  status: ('A' for Active; 'I' for Inactive)
ROOT
HETATM    1  C1  UNL     1     -36.422  15.493  -5.143  1.00 20.00    -0.019 A 
HETATM    2  C2  UNL     1     -36.251  16.803  -4.892  1.00 20.00    -0.019 A 
HETATM    3  C3  UNL     1     -34.508  14.794  -2.781  1.00 20.00    -0.023 C 
HETATM    4  C4  UNL     1     -34.344  16.100  -2.513  1.00 20.00    -0.086 C 
HETATM    5  C5  UNL     1     -34.411  14.218  -4.160  1.00 20.00     0.042 C 
HETATM    6  C6  UNL     1     -34.039  17.096  -3.603  1.00 20.00     0.048 C 
HETATM    7  C7  UNL     1     -34.878  15.698  -7.744  1.00 20.00     0.001 C 
HETATM    8  C8  UNL     1     -34.680  17.188  -7.456  1.00 20.00     0.001 C 
HETATM    9  C9  UNL     1     -34.419  14.764  -6.625  1.00 20.00     0.015 C 
HETATM   10  C10 UNL     1     -34.059  17.501  -6.096  1.00 20.00     0.015 C 
HETATM   11  C11 UNL     1     -34.919  15.197  -5.234  1.00 20.00    -0.009 A 
HETATM   12  C12 UNL     1     -34.720  16.729  -4.937  1.00 20.00    -0.008 A 
HETATM   13  C13 UNL     1     -34.418  16.639  -1.116  1.00 20.00     0.043 C 
ENDROOT
TORSDOF 0
ENDMDL
MODEL 6
REMARK VINA RESULT:      -5.1      1.698      4.339
REMARK  0 active torsions:
REMARK  status: ('A' for Active; 'I' for Inactive)
ROOT
HETATM    1  C1  UNL     1     -35.870  17.639  -3.825  1.00 20.00    -0.019 A 
HETATM    2  C2  UNL     1     -36.287  16.631  -3.039  1.00 20.00    -0.019 A 
HETATM    3  C3  UNL     1     -33.914  15.692  -5.279  1.00 20.00    -0.023 C 
HETATM    4  C4  UNL     1     -34.336  14.675  -4.509  1.00 20.00    -0.086 C 
HETATM    5  C5  UNL     1     -33.536  17.035  -4.735  1.00 20.00     0.042 C 
HETATM    6  C6  UNL     1     -34.456  14.818  -3.013  1.00 20.00     0.048 C 
HETATM    7  C7  UNL     1     -34.487  19.001  -1.498  1.00 20.00     0.001 C 
HETATM    8  C8  UNL     1     -34.958  17.852  -0.604  1.00 20.00     0.001 C 
HETATM    9  C9  UNL     1     -33.704  18.569  -2.737  1.00 20.00     0.015 C 
HETATM   10  C10 UNL     1     -34.574  16.458  -1.097  1.00 20.00     0.015 C 
HETATM   11  C11 UNL     1     -34.384  17.423  -3.509  1.00 20.00    -0.009 A 
HETATM   12  C12 UNL     1     -34.872  16.242  -2.592  1.00 20.00    -0.008 A 
HETATM   13  C13 UNL     1     -34.677  13.333  -5.083  1.00 20.00     0.043 C 
ENDROOT
TORSDOF 0
ENDMDL
MODEL 7
REMARK VINA RESULT:      -4.9      1.213      4.023
REMARK  0 active torsions:
REMARK  status: ('A' for Active; 'I' for Inactive)
ROOT
HETATM    1  C1  UNL     1     -35.387  13.599  -4.332  1.00 20.00    -0.019 A 
HETATM    2  C2  UNL     1     -35.008  13.992  -5.561  1.00 20.00    -0.019 A 
HETATM    3  C3  UNL     1     -38.178  14.921  -4.772  1.00 20.00    -0.023 C 
HETATM    4  C4  UNL     1     -37.814  15.303  -6.008  1.00 20.00    -0.086 C 
HETATM    5  C5  UNL     1     -37.318  15.120  -3.562  1.00 20.00     0.042 C 
HETATM    6  C6  UNL     1     -36.491  15.978  -6.266  1.00 20.00     0.048 C 
HETATM    7  C7  UNL     1     -33.475  15.552  -3.021  1.00 20.00     0.001 C 
HETATM    8  C8  UNL     1     -33.047  16.002  -4.420  1.00 20.00     0.001 C 
HETATM    9  C9  UNL     1     -34.978  15.623  -2.758  1.00 20.00     0.015 C 
HETATM   10  C10 UNL     1     -34.192  16.445  -5.329  1.00 20.00     0.015 C 
HETATM   11  C11 UNL     1     -35.818  15.004  -3.891  1.00 20.00    -0.009 A 
HETATM   12  C12 UNL     1     -35.378  15.462  -5.330  1.00 20.00    -0.008 A 
HETATM   13  C13 UNL     1     -38.712  15.116  -7.193  1.00 20.00     0.043 C 
ENDROOT
TORSDOF 0
ENDMDL
MODEL 8
REMARK VINA RESULT:      -4.8      1.407      3.752
REMARK  0 active torsions:
REMARK  status: ('A' for Active; 'I' for Inactive)
ROOT
HETATM    1  C1  UNL     1     -34.685  14.738  -6.380  1.00 20.00    -0.019 A 
HETATM    2  C2  UNL     1     -34.027  15.904  -6.262  1.00 20.00    -0.019 A 
HETATM    3  C3  UNL     1     -37.367  16.185  -5.713  1.00 20.00    -0.023 C 
HETATM    4  C4  UNL     1     -36.720  17.358  -5.609  1.00 20.00    -0.086 C 
HETATM    5  C5  UNL     1     -36.891  14.922  -5.063  1.00 20.00     0.042 C 
HETATM    6  C6  UNL     1     -35.449  17.489  -4.809  1.00 20.00     0.048 C 
HETATM    7  C7  UNL     1     -33.400  13.655  -3.858  1.00 20.00     0.001 C 
HETATM    8  C8  UNL     1     -32.654  14.984  -3.721  1.00 20.00     0.001 C 
HETATM    9  C9  UNL     1     -34.917  13.781  -3.978  1.00 20.00     0.015 C 
HETATM   10  C10 UNL     1     -33.547  16.224  -3.731  1.00 20.00     0.015 C 
HETATM   11  C11 UNL     1     -35.354  14.845  -5.004  1.00 20.00    -0.009 A 
HETATM   12  C12 UNL     1     -34.587  16.211  -4.868  1.00 20.00    -0.008 A 
HETATM   13  C13 UNL     1     -37.240  18.611  -6.248  1.00 20.00     0.043 C 
ENDROOT
TORSDOF 0
ENDMDL
MODEL 9
REMARK VINA RESULT:      -4.8      1.606      3.059
REMARK  0 active torsions:
REMARK  status: ('A' for Active; 'I' for Inactive)
ROOT
HETATM    1  C1  UNL     1     -35.150  15.718  -2.550  1.00 20.00    -0.019 A 
HETATM    2  C2  UNL     1     -36.146  15.367  -3.382  1.00 20.00    -0.019 A 
HETATM    3  C3  UNL     1     -34.847  18.429  -4.063  1.00 20.00    -0.023 C 
HETATM    4  C4  UNL     1     -35.852  18.093  -4.889  1.00 20.00    -0.086 C 
HETATM    5  C5  UNL     1     -33.716  17.507  -3.724  1.00 20.00     0.042 C 
HETATM    6  C6  UNL     1     -35.909  16.740  -5.550  1.00 20.00     0.048 C 
HETATM    7  C7  UNL     1     -33.305  13.624  -3.731  1.00 20.00     0.001 C 
HETATM    8  C8  UNL     1     -34.437  13.226  -4.680  1.00 20.00     0.001 C 
HETATM    9  C9  UNL     1     -32.936  15.106  -3.759  1.00 20.00     0.015 C 
HETATM   10  C10 UNL     1     -35.019  14.377  -5.500  1.00 20.00     0.015 C 
HETATM   11  C11 UNL     1     -34.163  16.034  -3.681  1.00 20.00    -0.009 A 
HETATM   12  C12 UNL     1     -35.330  15.626  -4.654  1.00 20.00    -0.008 A 
HETATM   13  C13 UNL     1     -36.952  19.052  -5.230  1.00 20.00     0.043 C 
ENDROOT
TORSDOF 0
ENDMDL
