MODEL 1
REMARK VINA RESULT:      -4.6      0.000      0.000
REMARK  1 active torsions:
REMARK  status: ('A' for Active; 'I' for Inactive)
REMARK    1  A    between atoms: C7_7  and  C8_8 
ROOT
HETATM    1  C1  UNL     1     -35.148   4.475   4.968  1.00 20.00    -0.026 C 
HETATM    2  C2  UNL     1     -34.170   5.034   5.695  1.00 20.00    -0.025 C 
HETATM    3  C3  UNL     1     -35.095   6.718   4.416  1.00 20.00     0.017 C 
HETATM    4  C4  UNL     1     -34.149   5.226   2.829  1.00 20.00     0.014 C 
HETATM    5  C5  UNL     1     -35.372   5.361   3.764  1.00 20.00     0.009 C 
HETATM    6  C6  UNL     1     -33.731   6.287   4.968  1.00 20.00     0.013 C 
HETATM    7  C7  UNL     1     -32.989   5.830   3.685  1.00 20.00     0.007 C 
ENDROOT
BRANCH   7   8
HETATM    8  C8  UNL     1     -32.276   6.971   2.970  1.00 20.00     0.119 C 
HETATM    9 CL9  UNL     1     -31.199   7.820   4.094  1.00 20.00    -0.130 Cl
ENDBRANCH   7   8
TORSDOF 1
ENDMDL
MODEL 2
REMARK VINA RESULT:      -4.3     11.299     12.443
REMARK  1 active torsions:
REMARK  status: ('A' for Active; 'I' for Inactive)
REMARK    1  A    between atoms: C7_7  and  C8_8 
ROOT
HETATM    1  C1  UNL     1     -34.403  13.892  -5.150  1.00 20.00    -0.026 C 
HETATM    2  C2  UNL     1     -34.732  13.615  -3.879  1.00 20.00    -0.025 C 
HETATM    3  C3  UNL     1     -35.645  15.678  -4.368  1.00 20.00     0.017 C 
HETATM    4  C4  UNL     1     -33.300  16.020  -4.523  1.00 20.00     0.014 C 
HETATM    5  C5  UNL     1     -34.472  15.393  -5.311  1.00 20.00     0.009 C 
HETATM    6  C6  UNL     1     -35.007  14.933  -3.190  1.00 20.00     0.013 C 
HETATM    7  C7  UNL     1     -33.645  15.661  -3.042  1.00 20.00     0.007 C 
ENDROOT
BRANCH   7   8
HETATM    8  C8  UNL     1     -33.721  16.893  -2.150  1.00 20.00     0.119 C 
HETATM    9 CL9  UNL     1     -34.690  16.546  -0.706  1.00 20.00    -0.130 Cl
ENDBRANCH   7   8
TORSDOF 1
ENDMDL
MODEL 3
REMARK VINA RESULT:      -4.2      9.086     10.274
REMARK  1 active torsions:
REMARK  status: ('A' for Active; 'I' for Inactive)
REMARK    1  A    between atoms: C7_7  and  C8_8 
ROOT
HETATM    1  C1  UNL     1     -41.000   7.135  -0.789  1.00 20.00    -0.026 C 
HETATM    2  C2  UNL     1     -42.002   7.153  -1.682  1.00 20.00    -0.025 C 
HETATM    3  C3  UNL     1     -42.604   5.651  -0.035  1.00 20.00     0.017 C 
HETATM    4  C4  UNL     1     -40.673   4.691  -1.030  1.00 20.00     0.014 C 
HETATM    5  C5  UNL     1     -41.082   5.817  -0.054  1.00 20.00     0.009 C 
HETATM    6  C6  UNL     1     -42.743   5.840  -1.550  1.00 20.00     0.013 C 
HETATM    7  C7  UNL     1     -41.807   4.734  -2.104  1.00 20.00     0.007 C 
ENDROOT
BRANCH   7   8
HETATM    8  C8  UNL     1     -42.504   3.388  -2.264  1.00 20.00     0.119 C 
HETATM    9 CL9  UNL     1     -41.536   2.314  -3.288  1.00 20.00    -0.130 Cl
ENDBRANCH   7   8
TORSDOF 1
ENDMDL
MODEL 4
REMARK VINA RESULT:      -4.2     11.914     12.930
REMARK  1 active torsions:
REMARK  status: ('A' for Active; 'I' for Inactive)
REMARK    1  A    between atoms: C7_7  and  C8_8 
ROOT
HETATM    1  C1  UNL     1     -33.672  16.119  -2.668  1.00 20.00    -0.026 C 
HETATM    2  C2  UNL     1     -34.863  15.515  -2.535  1.00 20.00    -0.025 C 
HETATM    3  C3  UNL     1     -33.519  14.083  -3.749  1.00 20.00     0.017 C 
HETATM    4  C4  UNL     1     -33.750  15.993  -5.140  1.00 20.00     0.014 C 
HETATM    5  C5  UNL     1     -32.997  15.516  -3.878  1.00 20.00     0.009 C 
HETATM    6  C6  UNL     1     -34.986  14.518  -3.667  1.00 20.00     0.013 C 
HETATM    7  C7  UNL     1     -35.158  15.336  -4.975  1.00 20.00     0.007 C 
ENDROOT
BRANCH   7   8
HETATM    8  C8  UNL     1     -35.539  14.473  -6.171  1.00 20.00     0.119 C 
HETATM    9 CL9  UNL     1     -34.493  14.845  -7.553  1.00 20.00    -0.130 Cl
ENDBRANCH   7   8
TORSDOF 1
ENDMDL
MODEL 5
REMARK VINA RESULT:      -4.2     11.400     12.430
REMARK  1 active torsions:
REMARK  status: ('A' for Active; 'I' for Inactive)
REMARK    1  A    between atoms: C7_7  and  C8_8 
ROOT
HETATM    1  C1  UNL     1     -35.212  14.046  -5.375  1.00 20.00    -0.026 C 
HETATM    2  C2  UNL     1     -34.264  14.926  -5.731  1.00 20.00    -0.025 C 
HETATM    3  C3  UNL     1     -33.582  13.982  -3.738  1.00 20.00     0.017 C 
HETATM    4  C4  UNL     1     -35.576  15.146  -3.185  1.00 20.00     0.014 C 
HETATM    5  C5  UNL     1     -35.101  13.851  -3.881  1.00 20.00     0.009 C 
HETATM    6  C6  UNL     1     -33.530  15.327  -4.471  1.00 20.00     0.013 C 
HETATM    7  C7  UNL     1     -34.507  16.193  -3.633  1.00 20.00     0.007 C 
ENDROOT
BRANCH   7   8
HETATM    8  C8  UNL     1     -33.833  16.875  -2.448  1.00 20.00     0.119 C 
HETATM    9 CL9  UNL     1     -34.629  16.405  -0.936  1.00 20.00    -0.130 Cl
ENDBRANCH   7   8
TORSDOF 1
ENDMDL
MODEL 6
REMARK VINA RESULT:      -4.0     12.048     12.899
REMARK  1 active torsions:
REMARK  status: ('A' for Active; 'I' for Inactive)
REMARK    1  A    between atoms: C7_7  and  C8_8 
ROOT
HETATM    1  C1  UNL     1     -34.605  16.537  -0.954  1.00 20.00    -0.026 C 
HETATM    2  C2  UNL     1     -33.680  17.415  -1.372  1.00 20.00    -0.025 C 
HETATM    3  C3  UNL     1     -35.363  17.415  -2.953  1.00 20.00     0.017 C 
HETATM    4  C4  UNL     1     -34.470  15.217  -3.045  1.00 20.00     0.014 C 
HETATM    5  C5  UNL     1     -35.388  16.099  -2.170  1.00 20.00     0.009 C 
HETATM    6  C6  UNL     1     -33.838  17.550  -2.871  1.00 20.00     0.013 C 
HETATM    7  C7  UNL     1     -33.358  16.216  -3.500  1.00 20.00     0.007 C 
ENDROOT
BRANCH   7   8
HETATM    8  C8  UNL     1     -33.227  16.285  -5.017  1.00 20.00     0.119 C 
HETATM    9 CL9  UNL     1     -34.293  15.091  -5.779  1.00 20.00    -0.130 Cl
ENDBRANCH   7   8
TORSDOF 1
ENDMDL
MODEL 7
REMARK VINA RESULT:      -3.9     11.676     12.886
REMARK  1 active torsions:
REMARK  status: ('A' for Active; 'I' for Inactive)
REMARK    1  A    between atoms: C7_7  and  C8_8 
ROOT
HETATM    1  C1  UNL     1     -33.312  13.666  -3.688  1.00 20.00    -0.026 C 
HETATM    2  C2  UNL     1     -33.019  14.974  -3.738  1.00 20.00    -0.025 C 
HETATM    3  C3  UNL     1     -35.308  14.813  -3.484  1.00 20.00     0.017 C 
HETATM    4  C4  UNL     1     -34.880  13.823  -5.599  1.00 20.00     0.014 C 
HETATM    5  C5  UNL     1     -34.761  13.517  -4.089  1.00 20.00     0.009 C 
HETATM    6  C6  UNL     1     -34.271  15.696  -4.187  1.00 20.00     0.013 C 
HETATM    7  C7  UNL     1     -34.493  15.334  -5.680  1.00 20.00     0.007 C 
ENDROOT
BRANCH   7   8
HETATM    8  C8  UNL     1     -35.577  16.175  -6.342  1.00 20.00     0.119 C 
HETATM    9 CL9  UNL     1     -36.962  15.158  -6.778  1.00 20.00    -0.130 Cl
ENDBRANCH   7   8
TORSDOF 1
ENDMDL
MODEL 8
REMARK VINA RESULT:      -3.9     11.792     12.954
REMARK  1 active torsions:
REMARK  status: ('A' for Active; 'I' for Inactive)
REMARK    1  A    between atoms: C7_7  and  C8_8 
ROOT
HETATM    1  C1  UNL     1     -34.385  13.238  -4.696  1.00 20.00    -0.026 C 
HETATM    2  C2  UNL     1     -33.485  13.665  -3.796  1.00 20.00    -0.025 C 
HETATM    3  C3  UNL     1     -35.359  14.989  -3.546  1.00 20.00     0.017 C 
HETATM    4  C4  UNL     1     -34.582  15.477  -5.736  1.00 20.00     0.014 C 
HETATM    5  C5  UNL     1     -35.338  14.382  -4.951  1.00 20.00     0.009 C 
HETATM    6  C6  UNL     1     -33.832  15.099  -3.463  1.00 20.00     0.013 C 
HETATM    7  C7  UNL     1     -33.497  15.950  -4.717  1.00 20.00     0.007 C 
ENDROOT
BRANCH   7   8
HETATM    8  C8  UNL     1     -33.563  17.449  -4.454  1.00 20.00     0.119 C 
HETATM    9 CL9  UNL     1     -33.586  18.340  -5.987  1.00 20.00    -0.130 Cl
ENDBRANCH   7   8
TORSDOF 1
ENDMDL
MODEL 9
REMARK VINA RESULT:      -3.9     11.564     12.604
REMARK  1 active torsions:
REMARK  status: ('A' for Active; 'I' for Inactive)
REMARK    1  A    between atoms: C7_7  and  C8_8 
ROOT
HETATM    1  C1  UNL     1     -33.409  13.750  -3.731  1.00 20.00    -0.026 C 
HETATM    2  C2  UNL     1     -34.697  13.509  -4.023  1.00 20.00    -0.025 C 
HETATM    3  C3  UNL     1     -34.172  15.554  -4.957  1.00 20.00     0.017 C 
HETATM    4  C4  UNL     1     -33.940  15.899  -2.619  1.00 20.00     0.014 C 
HETATM    5  C5  UNL     1     -33.205  15.245  -3.811  1.00 20.00     0.009 C 
HETATM    6  C6  UNL     1     -35.354  14.847  -4.284  1.00 20.00     0.013 C 
HETATM    7  C7  UNL     1     -35.440  15.583  -2.920  1.00 20.00     0.007 C 
ENDROOT
BRANCH   7   8
HETATM    8  C8  UNL     1     -36.297  16.842  -2.976  1.00 20.00     0.119 C 
HETATM    9 CL9  UNL     1     -35.286  18.282  -2.762  1.00 20.00    -0.130 Cl
ENDBRANCH   7   8
TORSDOF 1
ENDMDL
