MODEL 1
REMARK VINA RESULT:      -5.5      0.000      0.000
REMARK  0 active torsions:
REMARK  status: ('A' for Active; 'I' for Inactive)
ROOT
HETATM    1  C1  UNL     1     -33.630   6.779   6.709  1.00 20.00    -0.021 C 
HETATM    2  C2  UNL     1     -34.610   4.400   6.232  1.00 20.00    -0.021 C 
HETATM    3  C3  UNL     1     -32.850   7.158   5.673  1.00 20.00    -0.025 C 
HETATM    4  C4  UNL     1     -34.795   3.909   4.987  1.00 20.00    -0.025 C 
HETATM    5  C5  UNL     1     -33.290   6.417   3.012  1.00 20.00     0.009 C 
HETATM    6  C6  UNL     1     -34.210   5.184   2.719  1.00 20.00     0.009 C 
HETATM    7  C7  UNL     1     -34.785   5.893   6.283  1.00 20.00     0.035 C 
HETATM    8  C8  UNL     1     -33.219   6.320   4.512  1.00 20.00     0.013 C 
HETATM    9  C9  UNL     1     -35.114   4.985   3.971  1.00 20.00     0.013 C 
HETATM   10  C10 UNL     1     -34.728   6.184   4.803  1.00 20.00     0.012 C 
ENDROOT
TORSDOF 0
ENDMDL
MODEL 2
REMARK VINA RESULT:      -5.3      0.867      2.816
REMARK  0 active torsions:
REMARK  status: ('A' for Active; 'I' for Inactive)
ROOT
HETATM    1  C1  UNL     1     -32.586   6.638   2.841  1.00 20.00    -0.021 C 
HETATM    2  C2  UNL     1     -34.993   5.612   2.831  1.00 20.00    -0.021 C 
HETATM    3  C3  UNL     1     -32.388   7.304   4.001  1.00 20.00    -0.025 C 
HETATM    4  C4  UNL     1     -35.670   5.295   3.957  1.00 20.00    -0.025 C 
HETATM    5  C5  UNL     1     -33.529   6.583   6.450  1.00 20.00     0.009 C 
HETATM    6  C6  UNL     1     -34.777   5.637   6.446  1.00 20.00     0.009 C 
HETATM    7  C7  UNL     1     -33.507   5.445   2.998  1.00 20.00     0.035 C 
HETATM    8  C8  UNL     1     -33.391   6.813   4.970  1.00 20.00     0.013 C 
HETATM    9  C9  UNL     1     -34.761   4.870   5.090  1.00 20.00     0.013 C 
HETATM   10  C10 UNL     1     -33.453   5.344   4.504  1.00 20.00     0.012 C 
ENDROOT
TORSDOF 0
ENDMDL
MODEL 3
REMARK VINA RESULT:      -4.9      0.644      3.121
REMARK  0 active torsions:
REMARK  status: ('A' for Active; 'I' for Inactive)
ROOT
HETATM    1  C1  UNL     1     -35.436   4.220   4.587  1.00 20.00    -0.021 C 
HETATM    2  C2  UNL     1     -33.597   5.092   2.943  1.00 20.00    -0.021 C 
HETATM    3  C3  UNL     1     -35.076   4.512   5.857  1.00 20.00    -0.025 C 
HETATM    4  C4  UNL     1     -32.774   6.125   3.228  1.00 20.00    -0.025 C 
HETATM    5  C5  UNL     1     -33.597   6.767   6.600  1.00 20.00     0.009 C 
HETATM    6  C6  UNL     1     -32.778   7.522   5.500  1.00 20.00     0.009 C 
HETATM    7  C7  UNL     1     -34.948   5.248   3.586  1.00 20.00     0.035 C 
HETATM    8  C8  UNL     1     -34.059   5.583   5.793  1.00 20.00     0.013 C 
HETATM    9  C9  UNL     1     -33.419   7.158   4.128  1.00 20.00     0.013 C 
HETATM   10  C10 UNL     1     -34.610   6.343   4.569  1.00 20.00     0.012 C 
ENDROOT
TORSDOF 0
ENDMDL
MODEL 4
REMARK VINA RESULT:      -4.8      0.713      2.567
REMARK  0 active torsions:
REMARK  status: ('A' for Active; 'I' for Inactive)
ROOT
HETATM    1  C1  UNL     1     -35.233   4.223   5.971  1.00 20.00    -0.021 C 
HETATM    2  C2  UNL     1     -34.137   6.522   6.572  1.00 20.00    -0.021 C 
HETATM    3  C3  UNL     1     -35.566   4.214   4.661  1.00 20.00    -0.025 C 
HETATM    4  C4  UNL     1     -33.494   7.296   5.671  1.00 20.00    -0.025 C 
HETATM    5  C5  UNL     1     -34.151   5.568   2.664  1.00 20.00     0.009 C 
HETATM    6  C6  UNL     1     -33.185   6.727   3.084  1.00 20.00     0.009 C 
HETATM    7  C7  UNL     1     -34.000   5.057   6.259  1.00 20.00     0.035 C 
HETATM    8  C8  UNL     1     -34.783   5.280   3.999  1.00 20.00     0.013 C 
HETATM    9  C9  UNL     1     -32.819   6.492   4.580  1.00 20.00     0.013 C 
HETATM   10  C10 UNL     1     -33.496   5.168   4.841  1.00 20.00     0.012 C 
ENDROOT
TORSDOF 0
ENDMDL
MODEL 5
REMARK VINA RESULT:      -4.8     11.941     13.571
REMARK  0 active torsions:
REMARK  status: ('A' for Active; 'I' for Inactive)
ROOT
HETATM    1  C1  UNL     1     -33.767  16.181  -3.120  1.00 20.00    -0.021 C 
HETATM    2  C2  UNL     1     -34.140  13.644  -3.640  1.00 20.00    -0.021 C 
HETATM    3  C3  UNL     1     -33.407  16.823  -4.254  1.00 20.00    -0.025 C 
HETATM    4  C4  UNL     1     -34.487  13.179  -4.860  1.00 20.00    -0.025 C 
HETATM    5  C5  UNL     1     -34.276  16.110  -6.815  1.00 20.00     0.009 C 
HETATM    6  C6  UNL     1     -34.863  14.674  -7.035  1.00 20.00     0.009 C 
HETATM    7  C7  UNL     1     -34.701  15.015  -3.375  1.00 20.00     0.035 C 
HETATM    8  C8  UNL     1     -33.808  15.968  -5.392  1.00 20.00     0.013 C 
HETATM    9  C9  UNL     1     -35.334  14.159  -5.643  1.00 20.00     0.013 C 
HETATM   10  C10 UNL     1     -35.098  15.378  -4.786  1.00 20.00     0.012 C 
ENDROOT
TORSDOF 0
ENDMDL
MODEL 6
REMARK VINA RESULT:      -4.6     11.951     13.722
REMARK  0 active torsions:
REMARK  status: ('A' for Active; 'I' for Inactive)
ROOT
HETATM    1  C1  UNL     1     -34.833  13.344  -4.150  1.00 20.00    -0.021 C 
HETATM    2  C2  UNL     1     -34.829  15.474  -2.630  1.00 20.00    -0.021 C 
HETATM    3  C3  UNL     1     -34.993  13.715  -5.440  1.00 20.00    -0.025 C 
HETATM    4  C4  UNL     1     -34.462  16.698  -3.068  1.00 20.00    -0.025 C 
HETATM    5  C5  UNL     1     -34.042  16.112  -6.523  1.00 20.00     0.009 C 
HETATM    6  C6  UNL     1     -33.676  17.282  -5.548  1.00 20.00     0.009 C 
HETATM    7  C7  UNL     1     -34.080  14.373  -3.331  1.00 20.00     0.035 C 
HETATM    8  C8  UNL     1     -34.642  15.148  -5.535  1.00 20.00     0.013 C 
HETATM    9  C9  UNL     1     -33.408  16.643  -4.154  1.00 20.00     0.013 C 
HETATM   10  C10 UNL     1     -33.516  15.173  -4.480  1.00 20.00     0.012 C 
ENDROOT
TORSDOF 0
ENDMDL
MODEL 7
REMARK VINA RESULT:      -4.6     12.001     13.950
REMARK  0 active torsions:
REMARK  status: ('A' for Active; 'I' for Inactive)
ROOT
HETATM    1  C1  UNL     1     -34.746  13.183  -4.829  1.00 20.00    -0.021 C 
HETATM    2  C2  UNL     1     -34.406  14.990  -6.690  1.00 20.00    -0.021 C 
HETATM    3  C3  UNL     1     -34.062  13.546  -3.721  1.00 20.00    -0.025 C 
HETATM    4  C4  UNL     1     -34.119  16.284  -6.425  1.00 20.00    -0.025 C 
HETATM    5  C5  UNL     1     -33.630  16.194  -2.931  1.00 20.00     0.009 C 
HETATM    6  C6  UNL     1     -33.803  17.332  -3.994  1.00 20.00     0.009 C 
HETATM    7  C7  UNL     1     -35.261  14.370  -5.618  1.00 20.00     0.035 C 
HETATM    8  C8  UNL     1     -33.788  14.995  -3.826  1.00 20.00     0.013 C 
HETATM    9  C9  UNL     1     -34.717  16.764  -5.120  1.00 20.00     0.013 C 
HETATM   10  C10 UNL     1     -35.086  15.418  -4.546  1.00 20.00     0.012 C 
ENDROOT
TORSDOF 0
ENDMDL
MODEL 8
REMARK VINA RESULT:      -4.6     12.313     14.299
REMARK  0 active torsions:
REMARK  status: ('A' for Active; 'I' for Inactive)
ROOT
HETATM    1  C1  UNL     1     -34.674  16.176  -7.197  1.00 20.00    -0.021 C 
HETATM    2  C2  UNL     1     -33.348  16.933  -5.072  1.00 20.00    -0.021 C 
HETATM    3  C3  UNL     1     -34.743  14.826  -7.224  1.00 20.00    -0.025 C 
HETATM    4  C4  UNL     1     -33.270  16.195  -3.943  1.00 20.00    -0.025 C 
HETATM    5  C5  UNL     1     -34.854  13.205  -4.948  1.00 20.00     0.009 C 
HETATM    6  C6  UNL     1     -34.399  13.808  -3.575  1.00 20.00     0.009 C 
HETATM    7  C7  UNL     1     -34.656  16.736  -5.788  1.00 20.00     0.035 C 
HETATM    8  C8  UNL     1     -34.467  14.342  -5.855  1.00 20.00     0.013 C 
HETATM    9  C9  UNL     1     -34.507  15.356  -3.702  1.00 20.00     0.013 C 
HETATM   10  C10 UNL     1     -35.128  15.494  -5.071  1.00 20.00     0.012 C 
ENDROOT
TORSDOF 0
ENDMDL
MODEL 9
REMARK VINA RESULT:      -4.5     11.975     13.626
REMARK  0 active torsions:
REMARK  status: ('A' for Active; 'I' for Inactive)
ROOT
HETATM    1  C1  UNL     1     -33.412  17.149  -4.931  1.00 20.00    -0.021 C 
HETATM    2  C2  UNL     1     -32.576  15.100  -3.535  1.00 20.00    -0.021 C 
HETATM    3  C3  UNL     1     -33.958  16.711  -6.087  1.00 20.00    -0.025 C 
HETATM    4  C4  UNL     1     -33.104  13.861  -3.646  1.00 20.00    -0.025 C 
HETATM    5  C5  UNL     1     -35.308  14.277  -6.371  1.00 20.00     0.009 C 
HETATM    6  C6  UNL     1     -35.082  13.164  -5.292  1.00 20.00     0.009 C 
HETATM    7  C7  UNL     1     -33.599  16.175  -3.785  1.00 20.00     0.035 C 
HETATM    8  C8  UNL     1     -34.287  15.280  -5.906  1.00 20.00     0.013 C 
HETATM    9  C9  UNL     1     -34.575  13.878  -4.005  1.00 20.00     0.013 C 
HETATM   10  C10 UNL     1     -34.677  15.327  -4.414  1.00 20.00     0.012 C 
ENDROOT
TORSDOF 0
ENDMDL
