MODEL 1
REMARK VINA RESULT:      -3.7      0.000      0.000
REMARK  1 active torsions:
REMARK  status: ('A' for Active; 'I' for Inactive)
REMARK    1  A    between atoms: C2_2  and  C3_3 
ROOT
HETATM    1  C1  UNL     1     -34.186   5.876   6.379  1.00 20.00     0.105 C 
HETATM    2  C2  UNL     1     -34.451   5.480   5.128  1.00 20.00     0.036 C 
HETATM    3 CL4  UNL     1     -33.487   7.378   6.812  1.00 20.00    -0.096 Cl
HETATM    4 CL5  UNL     1     -35.159   3.909   4.891  1.00 20.00    -0.087 Cl
ENDROOT
BRANCH   2   5
HETATM    5  C3  UNL     1     -34.163   6.235   3.868  1.00 20.00     0.166 C 
HETATM    6 CL6  UNL     1     -32.421   6.194   3.505  1.00 20.00    -0.125 Cl
ENDBRANCH   2   5
TORSDOF 1
ENDMDL
MODEL 2
REMARK VINA RESULT:      -3.7      1.613      2.896
REMARK  1 active torsions:
REMARK  status: ('A' for Active; 'I' for Inactive)
REMARK    1  A    between atoms: C2_2  and  C3_3 
ROOT
HETATM    1  C1  UNL     1     -32.988   6.624   3.248  1.00 20.00     0.105 C 
HETATM    2  C2  UNL     1     -33.882   6.210   4.152  1.00 20.00     0.036 C 
HETATM    3 CL4  UNL     1     -31.532   7.452   3.606  1.00 20.00    -0.096 Cl
HETATM    4 CL5  UNL     1     -35.309   5.389   3.589  1.00 20.00    -0.087 Cl
ENDROOT
BRANCH   2   5
HETATM    5  C3  UNL     1     -33.820   6.412   5.634  1.00 20.00     0.166 C 
HETATM    6 CL6  UNL     1     -34.786   5.173   6.471  1.00 20.00    -0.125 Cl
ENDBRANCH   2   5
TORSDOF 1
ENDMDL
MODEL 3
REMARK VINA RESULT:      -3.6      1.059      3.154
REMARK  1 active torsions:
REMARK  status: ('A' for Active; 'I' for Inactive)
REMARK    1  A    between atoms: C2_2  and  C3_3 
ROOT
HETATM    1  C1  UNL     1     -32.845   6.613   4.139  1.00 20.00     0.105 C 
HETATM    2  C2  UNL     1     -33.869   6.155   4.868  1.00 20.00     0.036 C 
HETATM    3 CL4  UNL     1     -32.517   6.179   2.514  1.00 20.00    -0.096 Cl
HETATM    4 CL5  UNL     1     -34.029   6.710   6.509  1.00 20.00    -0.087 Cl
ENDROOT
BRANCH   2   5
HETATM    5  C3  UNL     1     -34.901   5.159   4.440  1.00 20.00     0.166 C 
HETATM    6 CL6  UNL     1     -35.024   3.843   5.631  1.00 20.00    -0.125 Cl
ENDBRANCH   2   5
TORSDOF 1
ENDMDL
MODEL 4
REMARK VINA RESULT:      -3.6      0.590      2.553
REMARK  1 active torsions:
REMARK  status: ('A' for Active; 'I' for Inactive)
REMARK    1  A    between atoms: C2_2  and  C3_3 
ROOT
HETATM    1  C1  UNL     1     -34.512   4.988   6.044  1.00 20.00     0.105 C 
HETATM    2  C2  UNL     1     -34.011   6.136   5.572  1.00 20.00     0.036 C 
HETATM    3 CL4  UNL     1     -35.157   3.724   5.085  1.00 20.00    -0.096 Cl
HETATM    4 CL5  UNL     1     -33.408   7.304   6.711  1.00 20.00    -0.087 Cl
ENDROOT
BRANCH   2   5
HETATM    5  C3  UNL     1     -33.945   6.565   4.140  1.00 20.00     0.166 C 
HETATM    6 CL6  UNL     1     -32.352   6.176   3.448  1.00 20.00    -0.125 Cl
ENDBRANCH   2   5
TORSDOF 1
ENDMDL
MODEL 5
REMARK VINA RESULT:      -3.4      1.145      2.458
REMARK  1 active torsions:
REMARK  status: ('A' for Active; 'I' for Inactive)
REMARK    1  A    between atoms: C2_2  and  C3_3 
ROOT
HETATM    1  C1  UNL     1     -33.429   6.641   5.018  1.00 20.00     0.105 C 
HETATM    2  C2  UNL     1     -34.066   5.818   4.178  1.00 20.00     0.036 C 
HETATM    3 CL4  UNL     1     -33.870   6.924   6.649  1.00 20.00    -0.096 Cl
HETATM    4 CL5  UNL     1     -33.467   5.671   2.551  1.00 20.00    -0.087 Cl
ENDROOT
BRANCH   2   5
HETATM    5  C3  UNL     1     -35.296   5.015   4.468  1.00 20.00     0.166 C 
HETATM    6 CL6  UNL     1     -34.963   3.803   5.727  1.00 20.00    -0.125 Cl
ENDBRANCH   2   5
TORSDOF 1
ENDMDL
MODEL 6
REMARK VINA RESULT:      -3.4      1.636      1.930
REMARK  1 active torsions:
REMARK  status: ('A' for Active; 'I' for Inactive)
REMARK    1  A    between atoms: C2_2  and  C3_3 
ROOT
HETATM    1  C1  UNL     1     -34.143   6.082   5.071  1.00 20.00     0.105 C 
HETATM    2  C2  UNL     1     -33.471   6.132   3.915  1.00 20.00     0.036 C 
HETATM    3 CL4  UNL     1     -33.654   6.833   6.531  1.00 20.00    -0.096 Cl
HETATM    4 CL5  UNL     1     -34.129   5.296   2.539  1.00 20.00    -0.087 Cl
ENDROOT
BRANCH   2   5
HETATM    5  C3  UNL     1     -32.158   6.807   3.669  1.00 20.00     0.166 C 
HETATM    6 CL6  UNL     1     -32.269   7.883   2.255  1.00 20.00    -0.125 Cl
ENDBRANCH   2   5
TORSDOF 1
ENDMDL
MODEL 7
REMARK VINA RESULT:      -3.3      1.851      2.142
REMARK  1 active torsions:
REMARK  status: ('A' for Active; 'I' for Inactive)
REMARK    1  A    between atoms: C2_2  and  C3_3 
ROOT
HETATM    1  C1  UNL     1     -35.114   4.640   4.728  1.00 20.00     0.105 C 
HETATM    2  C2  UNL     1     -34.358   5.435   3.963  1.00 20.00     0.036 C 
HETATM    3 CL4  UNL     1     -35.184   4.692   6.439  1.00 20.00    -0.096 Cl
HETATM    4 CL5  UNL     1     -34.419   5.224   2.237  1.00 20.00    -0.087 Cl
ENDROOT
BRANCH   2   5
HETATM    5  C3  UNL     1     -33.403   6.488   4.431  1.00 20.00     0.166 C 
HETATM    6 CL6  UNL     1     -32.165   6.799   3.192  1.00 20.00    -0.125 Cl
ENDBRANCH   2   5
TORSDOF 1
ENDMDL
MODEL 8
REMARK VINA RESULT:      -3.2      1.585      2.729
REMARK  1 active torsions:
REMARK  status: ('A' for Active; 'I' for Inactive)
REMARK    1  A    between atoms: C2_2  and  C3_3 
ROOT
HETATM    1  C1  UNL     1     -33.559   6.398   5.440  1.00 20.00     0.105 C 
HETATM    2  C2  UNL     1     -33.475   6.214   4.117  1.00 20.00     0.036 C 
HETATM    3 CL4  UNL     1     -34.659   5.597   6.480  1.00 20.00    -0.096 Cl
HETATM    4 CL5  UNL     1     -32.293   7.131   3.229  1.00 20.00    -0.087 Cl
ENDROOT
BRANCH   2   5
HETATM    5  C3  UNL     1     -34.332   5.318   3.279  1.00 20.00     0.166 C 
HETATM    6 CL6  UNL     1     -36.050   5.733   3.483  1.00 20.00    -0.125 Cl
ENDBRANCH   2   5
TORSDOF 1
ENDMDL
MODEL 9
REMARK VINA RESULT:      -3.0      1.495      3.380
REMARK  1 active torsions:
REMARK  status: ('A' for Active; 'I' for Inactive)
REMARK    1  A    between atoms: C2_2  and  C3_3 
ROOT
HETATM    1  C1  UNL     1     -34.371   5.729   3.407  1.00 20.00     0.105 C 
HETATM    2  C2  UNL     1     -33.496   6.341   4.213  1.00 20.00     0.036 C 
HETATM    3 CL4  UNL     1     -35.928   5.185   3.872  1.00 20.00    -0.096 Cl
HETATM    4 CL5  UNL     1     -31.957   6.813   3.555  1.00 20.00    -0.087 Cl
ENDROOT
BRANCH   2   5
HETATM    5  C3  UNL     1     -33.673   6.639   5.669  1.00 20.00     0.166 C 
HETATM    6 CL6  UNL     1     -34.307   5.213   6.523  1.00 20.00    -0.125 Cl
ENDBRANCH   2   5
TORSDOF 1
ENDMDL
