MODEL 1
REMARK VINA RESULT:      -5.3      0.000      0.000
REMARK  0 active torsions:
REMARK  status: ('A' for Active; 'I' for Inactive)
ROOT
HETATM    1  C1  UNL     1     -33.230   6.855   5.001  1.00 20.00    -0.019 A 
HETATM    2  C2  UNL     1     -33.067   6.507   3.718  1.00 20.00    -0.086 A 
HETATM    3  C3  UNL     1     -34.887   4.258   5.228  1.00 20.00     0.132 C 
HETATM    4  C4  UNL     1     -34.214   5.711   3.159  1.00 20.00     0.046 A 
HETATM    5  C5  UNL     1     -34.449   5.104   6.437  1.00 20.00     0.088 C 
HETATM    6  C6  UNL     1     -34.522   6.349   5.518  1.00 20.00     0.027 A 
HETATM    7  C7  UNL     1     -35.141   5.508   4.357  1.00 20.00     0.067 A 
HETATM    8  C8  UNL     1     -31.896   6.841   2.862  1.00 20.00     0.043 C 
HETATM    9  O9  UNL     1     -34.981   3.065   5.033  1.00 20.00    -0.298 OA
ENDROOT
TORSDOF 0
ENDMDL
MODEL 2
REMARK VINA RESULT:      -5.2      1.864      3.625
REMARK  0 active torsions:
REMARK  status: ('A' for Active; 'I' for Inactive)
ROOT
HETATM    1  C1  UNL     1     -35.340   4.667   4.413  1.00 20.00    -0.019 A 
HETATM    2  C2  UNL     1     -34.877   5.018   5.620  1.00 20.00    -0.086 A 
HETATM    3  C3  UNL     1     -32.890   6.192   3.313  1.00 20.00     0.132 C 
HETATM    4  C4  UNL     1     -34.118   6.316   5.619  1.00 20.00     0.046 A 
HETATM    5  C5  UNL     1     -33.801   5.299   2.452  1.00 20.00     0.088 C 
HETATM    6  C6  UNL     1     -34.968   5.678   3.398  1.00 20.00     0.027 A 
HETATM    7  C7  UNL     1     -34.079   6.721   4.146  1.00 20.00     0.067 A 
HETATM    8  C8  UNL     1     -35.059   4.253   6.884  1.00 20.00     0.043 C 
HETATM    9  O9  UNL     1     -31.694   6.392   3.335  1.00 20.00    -0.298 OA
ENDROOT
TORSDOF 0
ENDMDL
MODEL 3
REMARK VINA RESULT:      -4.8     11.870     12.522
REMARK  0 active torsions:
REMARK  status: ('A' for Active; 'I' for Inactive)
ROOT
HETATM    1  C1  UNL     1     -35.765  15.709  -2.719  1.00 20.00    -0.019 A 
HETATM    2  C2  UNL     1     -34.714  16.186  -2.037  1.00 20.00    -0.086 A 
HETATM    3  C3  UNL     1     -33.743  13.719  -3.940  1.00 20.00     0.132 C 
HETATM    4  C4  UNL     1     -33.406  16.030  -2.761  1.00 20.00     0.046 A 
HETATM    5  C5  UNL     1     -35.267  13.609  -4.116  1.00 20.00     0.088 C 
HETATM    6  C6  UNL     1     -35.332  15.153  -4.020  1.00 20.00     0.027 A 
HETATM    7  C7  UNL     1     -33.774  15.261  -4.029  1.00 20.00     0.067 A 
HETATM    8  C8  UNL     1     -34.759  16.825  -0.693  1.00 20.00     0.043 C 
HETATM    9  O9  UNL     1     -32.859  12.905  -3.777  1.00 20.00    -0.298 OA
ENDROOT
TORSDOF 0
ENDMDL
MODEL 4
REMARK VINA RESULT:      -4.5     12.123     12.763
REMARK  0 active torsions:
REMARK  status: ('A' for Active; 'I' for Inactive)
ROOT
HETATM    1  C1  UNL     1     -36.035  16.443  -2.751  1.00 20.00    -0.019 A 
HETATM    2  C2  UNL     1     -34.870  16.255  -2.116  1.00 20.00    -0.086 A 
HETATM    3  C3  UNL     1     -35.344  13.835  -4.255  1.00 20.00     0.132 C 
HETATM    4  C4  UNL     1     -33.844  15.532  -2.944  1.00 20.00     0.046 A 
HETATM    5  C5  UNL     1     -36.716  14.528  -4.326  1.00 20.00     0.088 C 
HETATM    6  C6  UNL     1     -35.982  15.876  -4.117  1.00 20.00     0.027 A 
HETATM    7  C7  UNL     1     -34.588  15.183  -4.233  1.00 20.00     0.067 A 
HETATM    8  C8  UNL     1     -34.547  16.693  -0.731  1.00 20.00     0.043 C 
HETATM    9  O9  UNL     1     -34.994  12.675  -4.217  1.00 20.00    -0.298 OA
ENDROOT
TORSDOF 0
ENDMDL
MODEL 5
REMARK VINA RESULT:      -4.5     11.927     13.298
REMARK  0 active torsions:
REMARK  status: ('A' for Active; 'I' for Inactive)
ROOT
HETATM    1  C1  UNL     1     -33.143  16.239  -4.677  1.00 20.00    -0.019 A 
HETATM    2  C2  UNL     1     -34.243  16.505  -5.394  1.00 20.00    -0.086 A 
HETATM    3  C3  UNL     1     -34.550  13.579  -3.980  1.00 20.00     0.132 C 
HETATM    4  C4  UNL     1     -35.488  15.863  -4.846  1.00 20.00     0.046 A 
HETATM    5  C5  UNL     1     -33.076  13.879  -3.657  1.00 20.00     0.088 C 
HETATM    6  C6  UNL     1     -33.470  15.372  -3.523  1.00 20.00     0.027 A 
HETATM    7  C7  UNL     1     -34.986  15.028  -3.668  1.00 20.00     0.067 A 
HETATM    8  C8  UNL     1     -34.308  17.347  -6.619  1.00 20.00     0.043 C 
HETATM    9  O9  UNL     1     -35.139  12.586  -4.352  1.00 20.00    -0.298 OA
ENDROOT
TORSDOF 0
ENDMDL
MODEL 6
REMARK VINA RESULT:      -4.3     12.584     13.563
REMARK  0 active torsions:
REMARK  status: ('A' for Active; 'I' for Inactive)
ROOT
HETATM    1  C1  UNL     1     -34.533  16.578  -0.928  1.00 20.00    -0.019 A 
HETATM    2  C2  UNL     1     -33.831  17.719  -0.973  1.00 20.00    -0.086 A 
HETATM    3  C3  UNL     1     -33.619  16.202  -3.855  1.00 20.00     0.132 C 
HETATM    4  C4  UNL     1     -33.766  18.333  -2.344  1.00 20.00     0.046 A 
HETATM    5  C5  UNL     1     -34.319  15.109  -3.028  1.00 20.00     0.088 C 
HETATM    6  C6  UNL     1     -35.059  16.238  -2.269  1.00 20.00     0.027 A 
HETATM    7  C7  UNL     1     -34.485  17.322  -3.236  1.00 20.00     0.067 A 
HETATM    8  C8  UNL     1     -33.156  18.377   0.179  1.00 20.00     0.043 C 
HETATM    9  O9  UNL     1     -32.721  16.187  -4.669  1.00 20.00    -0.298 OA
ENDROOT
TORSDOF 0
ENDMDL
MODEL 7
REMARK VINA RESULT:      -4.2     11.883     13.294
REMARK  0 active torsions:
REMARK  status: ('A' for Active; 'I' for Inactive)
ROOT
HETATM    1  C1  UNL     1     -34.484  15.945  -5.685  1.00 20.00    -0.019 A 
HETATM    2  C2  UNL     1     -34.846  14.893  -6.431  1.00 20.00    -0.086 A 
HETATM    3  C3  UNL     1     -33.344  13.842  -3.730  1.00 20.00     0.132 C 
HETATM    4  C4  UNL     1     -35.138  13.656  -5.626  1.00 20.00     0.046 A 
HETATM    5  C5  UNL     1     -33.081  15.353  -3.612  1.00 20.00     0.088 C 
HETATM    6  C6  UNL     1     -34.474  15.586  -4.248  1.00 20.00     0.027 A 
HETATM    7  C7  UNL     1     -34.803  14.061  -4.191  1.00 20.00     0.067 A 
HETATM    8  C8  UNL     1     -34.974  14.873  -7.913  1.00 20.00     0.043 C 
HETATM    9  O9  UNL     1     -32.661  12.857  -3.546  1.00 20.00    -0.298 OA
ENDROOT
TORSDOF 0
ENDMDL
MODEL 8
REMARK VINA RESULT:      -4.2     12.440     13.145
REMARK  0 active torsions:
REMARK  status: ('A' for Active; 'I' for Inactive)
ROOT
HETATM    1  C1  UNL     1     -34.052  14.457  -3.320  1.00 20.00    -0.019 A 
HETATM    2  C2  UNL     1     -34.759  15.437  -2.740  1.00 20.00    -0.086 A 
HETATM    3  C3  UNL     1     -36.044  14.754  -5.662  1.00 20.00     0.132 C 
HETATM    4  C4  UNL     1     -36.207  15.455  -3.146  1.00 20.00     0.046 A 
HETATM    5  C5  UNL     1     -34.756  13.914  -5.732  1.00 20.00     0.088 C 
HETATM    6  C6  UNL     1     -34.913  13.652  -4.214  1.00 20.00     0.027 A 
HETATM    7  C7  UNL     1     -36.310  14.348  -4.195  1.00 20.00     0.067 A 
HETATM    8  C8  UNL     1     -34.236  16.443  -1.776  1.00 20.00     0.043 C 
HETATM    9  O9  UNL     1     -36.618  15.471  -6.453  1.00 20.00    -0.298 OA
ENDROOT
TORSDOF 0
ENDMDL
MODEL 9
REMARK VINA RESULT:      -4.2      9.362     10.275
REMARK  0 active torsions:
REMARK  status: ('A' for Active; 'I' for Inactive)
ROOT
HETATM    1  C1  UNL     1     -42.140   7.790  -1.629  1.00 20.00    -0.019 A 
HETATM    2  C2  UNL     1     -42.432   7.354  -2.862  1.00 20.00    -0.086 A 
HETATM    3  C3  UNL     1     -41.033   4.945  -1.161  1.00 20.00     0.132 C 
HETATM    4  C4  UNL     1     -42.725   5.880  -2.925  1.00 20.00     0.046 A 
HETATM    5  C5  UNL     1     -40.824   6.117  -0.187  1.00 20.00     0.088 C 
HETATM    6  C6  UNL     1     -42.190   6.676  -0.657  1.00 20.00     0.027 A 
HETATM    7  C7  UNL     1     -42.473   5.392  -1.498  1.00 20.00     0.067 A 
HETATM    8  C8  UNL     1     -42.486   8.184  -4.095  1.00 20.00     0.043 C 
HETATM    9  O9  UNL     1     -40.329   4.029  -1.531  1.00 20.00    -0.298 OA
ENDROOT
TORSDOF 0
ENDMDL
