MODEL 1
REMARK VINA RESULT:      -5.0      0.000      0.000
REMARK  0 active torsions:
REMARK  status: ('A' for Active; 'I' for Inactive)
ROOT
HETATM    1  C1  UNL     1     -34.910  13.740  -5.077  1.00 20.00     0.131 C 
HETATM    2  C2  UNL     1     -35.152  14.252  -6.529  1.00 20.00     0.083 C 
HETATM    3  C3  UNL     1     -33.904  15.315  -3.026  1.00 20.00     0.013 C 
HETATM    4  C4  UNL     1     -33.718  16.870  -3.257  1.00 20.00     0.006 C 
HETATM    5  C5  UNL     1     -34.335  16.887  -7.091  1.00 20.00     0.006 C 
HETATM    6  C6  UNL     1     -33.830  17.856  -5.907  1.00 20.00     0.005 C 
HETATM    7  C7  UNL     1     -34.940  14.888  -4.067  1.00 20.00     0.060 C 
HETATM    8  C8  UNL     1     -34.340  15.512  -6.414  1.00 20.00    -0.002 C 
HETATM    9  C9  UNL     1     -33.614  16.872  -4.757  1.00 20.00    -0.009 C 
HETATM   10  C10 UNL     1     -34.792  15.992  -5.066  1.00 20.00     0.005 C 
HETATM   11  O11 UNL     1     -34.784  12.562  -4.775  1.00 20.00    -0.298 OA
ENDROOT
TORSDOF 0
ENDMDL
MODEL 2
REMARK VINA RESULT:      -4.8      1.796      3.047
REMARK  0 active torsions:
REMARK  status: ('A' for Active; 'I' for Inactive)
ROOT
HETATM    1  C1  UNL     1     -33.655  16.695  -3.586  1.00 20.00     0.131 C 
HETATM    2  C2  UNL     1     -33.606  17.549  -4.888  1.00 20.00     0.083 C 
HETATM    3  C3  UNL     1     -34.403  14.023  -3.512  1.00 20.00     0.013 C 
HETATM    4  C4  UNL     1     -34.631  13.240  -4.868  1.00 20.00     0.006 C 
HETATM    5  C5  UNL     1     -34.512  16.307  -7.247  1.00 20.00     0.006 C 
HETATM    6  C6  UNL     1     -34.869  14.736  -7.258  1.00 20.00     0.005 C 
HETATM    7  C7  UNL     1     -33.505  15.203  -3.889  1.00 20.00     0.060 C 
HETATM    8  C8  UNL     1     -34.408  16.613  -5.749  1.00 20.00    -0.002 C 
HETATM    9  C9  UNL     1     -34.927  14.410  -5.766  1.00 20.00    -0.009 C 
HETATM   10  C10 UNL     1     -33.790  15.302  -5.354  1.00 20.00     0.005 C 
HETATM   11  O11 UNL     1     -33.730  17.162  -2.458  1.00 20.00    -0.298 OA
ENDROOT
TORSDOF 0
ENDMDL
MODEL 3
REMARK VINA RESULT:      -4.8      0.887      2.646
REMARK  0 active torsions:
REMARK  status: ('A' for Active; 'I' for Inactive)
ROOT
HETATM    1  C1  UNL     1     -34.559  13.714  -4.810  1.00 20.00     0.131 C 
HETATM    2  C2  UNL     1     -33.638  14.619  -3.937  1.00 20.00     0.083 C 
HETATM    3  C3  UNL     1     -35.810  14.561  -7.138  1.00 20.00     0.013 C 
HETATM    4  C4  UNL     1     -35.455  15.980  -7.741  1.00 20.00     0.006 C 
HETATM    5  C5  UNL     1     -33.412  17.315  -4.720  1.00 20.00     0.006 C 
HETATM    6  C6  UNL     1     -34.051  17.818  -6.110  1.00 20.00     0.005 C 
HETATM    7  C7  UNL     1     -34.610  14.200  -6.259  1.00 20.00     0.060 C 
HETATM    8  C8  UNL     1     -34.050  15.932  -4.543  1.00 20.00    -0.002 C 
HETATM    9  C9  UNL     1     -34.960  16.649  -6.488  1.00 20.00    -0.009 C 
HETATM   10  C10 UNL     1     -34.047  15.561  -5.998  1.00 20.00     0.005 C 
HETATM   11  O11 UNL     1     -35.112  12.701  -4.405  1.00 20.00    -0.298 OA
ENDROOT
TORSDOF 0
ENDMDL
MODEL 4
REMARK VINA RESULT:      -4.8      1.917      3.133
REMARK  0 active torsions:
REMARK  status: ('A' for Active; 'I' for Inactive)
ROOT
HETATM    1  C1  UNL     1     -34.151  16.679  -6.521  1.00 20.00     0.131 C 
HETATM    2  C2  UNL     1     -34.374  15.220  -7.023  1.00 20.00     0.083 C 
HETATM    3  C3  UNL     1     -33.827  17.365  -3.851  1.00 20.00     0.013 C 
HETATM    4  C4  UNL     1     -33.679  16.223  -2.766  1.00 20.00     0.006 C 
HETATM    5  C5  UNL     1     -34.633  13.230  -5.048  1.00 20.00     0.006 C 
HETATM    6  C6  UNL     1     -34.364  13.578  -3.498  1.00 20.00     0.005 C 
HETATM    7  C7  UNL     1     -33.431  16.701  -5.172  1.00 20.00     0.060 C 
HETATM    8  C8  UNL     1     -34.720  14.620  -5.689  1.00 20.00    -0.002 C 
HETATM    9  C9  UNL     1     -34.358  15.106  -3.508  1.00 20.00    -0.009 C 
HETATM   10  C10 UNL     1     -33.667  15.263  -4.833  1.00 20.00     0.005 C 
HETATM   11  O11 UNL     1     -34.448  17.679  -7.157  1.00 20.00    -0.298 OA
ENDROOT
TORSDOF 0
ENDMDL
MODEL 5
REMARK VINA RESULT:      -4.8      1.374      3.133
REMARK  0 active torsions:
REMARK  status: ('A' for Active; 'I' for Inactive)
ROOT
HETATM    1  C1  UNL     1     -34.175  14.853  -4.851  1.00 20.00     0.131 C 
HETATM    2  C2  UNL     1     -34.421  14.354  -3.395  1.00 20.00     0.083 C 
HETATM    3  C3  UNL     1     -33.710  17.506  -5.521  1.00 20.00     0.013 C 
HETATM    4  C4  UNL     1     -33.501  18.575  -4.372  1.00 20.00     0.006 C 
HETATM    5  C5  UNL     1     -34.571  16.326  -1.392  1.00 20.00     0.006 C 
HETATM    6  C6  UNL     1     -34.220  17.862  -1.730  1.00 20.00     0.005 C 
HETATM    7  C7  UNL     1     -33.383  16.162  -4.866  1.00 20.00     0.060 C 
HETATM    8  C8  UNL     1     -34.694  15.700  -2.786  1.00 20.00    -0.002 C 
HETATM    9  C9  UNL     1     -34.217  17.862  -3.258  1.00 20.00    -0.009 C 
HETATM   10  C10 UNL     1     -33.599  16.503  -3.425  1.00 20.00     0.005 C 
HETATM   11  O11 UNL     1     -34.508  14.240  -5.855  1.00 20.00    -0.298 OA
ENDROOT
TORSDOF 0
ENDMDL
MODEL 6
REMARK VINA RESULT:      -4.7      1.299      2.774
REMARK  0 active torsions:
REMARK  status: ('A' for Active; 'I' for Inactive)
ROOT
HETATM    1  C1  UNL     1     -34.439  13.551  -4.724  1.00 20.00     0.131 C 
HETATM    2  C2  UNL     1     -33.557  13.870  -3.479  1.00 20.00     0.083 C 
HETATM    3  C3  UNL     1     -36.053  15.415  -5.999  1.00 20.00     0.013 C 
HETATM    4  C4  UNL     1     -35.966  16.938  -5.577  1.00 20.00     0.006 C 
HETATM    5  C5  UNL     1     -33.793  16.458  -2.395  1.00 20.00     0.006 C 
HETATM    6  C6  UNL     1     -34.650  17.589  -3.159  1.00 20.00     0.005 C 
HETATM    7  C7  UNL     1     -34.722  14.810  -5.546  1.00 20.00     0.060 C 
HETATM    8  C8  UNL     1     -34.212  15.176  -3.124  1.00 20.00    -0.002 C 
HETATM    9  C9  UNL     1     -35.428  16.764  -4.184  1.00 20.00    -0.009 C 
HETATM   10  C10 UNL     1     -34.324  15.791  -4.489  1.00 20.00     0.005 C 
HETATM   11  O11 UNL     1     -34.798  12.427  -5.044  1.00 20.00    -0.298 OA
ENDROOT
TORSDOF 0
ENDMDL
MODEL 7
REMARK VINA RESULT:      -4.7     11.702     13.360
REMARK  0 active torsions:
REMARK  status: ('A' for Active; 'I' for Inactive)
ROOT
HETATM    1  C1  UNL     1     -43.081   6.884  -3.407  1.00 20.00     0.131 C 
HETATM    2  C2  UNL     1     -42.363   7.761  -2.337  1.00 20.00     0.083 C 
HETATM    3  C3  UNL     1     -43.034   4.109  -3.421  1.00 20.00     0.013 C 
HETATM    4  C4  UNL     1     -42.400   3.334  -2.195  1.00 20.00     0.006 C 
HETATM    5  C5  UNL     1     -40.791   6.401  -0.438  1.00 20.00     0.006 C 
HETATM    6  C6  UNL     1     -40.811   4.792  -0.363  1.00 20.00     0.005 C 
HETATM    7  C7  UNL     1     -43.395   5.489  -2.865  1.00 20.00     0.060 C 
HETATM    8  C8  UNL     1     -41.482   6.679  -1.778  1.00 20.00    -0.002 C 
HETATM    9  C9  UNL     1     -41.494   4.417  -1.678  1.00 20.00    -0.009 C 
HETATM   10  C10 UNL     1     -42.475   5.556  -1.688  1.00 20.00     0.005 C 
HETATM   11  O11 UNL     1     -43.417   7.284  -4.512  1.00 20.00    -0.298 OA
ENDROOT
TORSDOF 0
ENDMDL
MODEL 8
REMARK VINA RESULT:      -4.7      1.096      1.974
REMARK  0 active torsions:
REMARK  status: ('A' for Active; 'I' for Inactive)
ROOT
HETATM    1  C1  UNL     1     -33.903  13.802  -4.282  1.00 20.00     0.131 C 
HETATM    2  C2  UNL     1     -34.943  13.125  -5.226  1.00 20.00     0.083 C 
HETATM    3  C3  UNL     1     -33.013  16.414  -4.577  1.00 20.00     0.013 C 
HETATM    4  C4  UNL     1     -33.704  17.357  -5.644  1.00 20.00     0.006 C 
HETATM    5  C5  UNL     1     -35.795  14.628  -7.449  1.00 20.00     0.006 C 
HETATM    6  C6  UNL     1     -35.368  16.174  -7.603  1.00 20.00     0.005 C 
HETATM    7  C7  UNL     1     -34.049  15.325  -4.291  1.00 20.00     0.060 C 
HETATM    8  C8  UNL     1     -34.863  14.136  -6.336  1.00 20.00    -0.002 C 
HETATM    9  C9  UNL     1     -34.253  16.303  -6.566  1.00 20.00    -0.009 C 
HETATM   10  C10 UNL     1     -34.876  15.405  -5.535  1.00 20.00     0.005 C 
HETATM   11  O11 UNL     1     -33.121  13.191  -3.569  1.00 20.00    -0.298 OA
ENDROOT
TORSDOF 0
ENDMDL
MODEL 9
REMARK VINA RESULT:      -4.7      2.011      4.018
REMARK  0 active torsions:
REMARK  status: ('A' for Active; 'I' for Inactive)
ROOT
HETATM    1  C1  UNL     1     -33.830  17.414  -4.874  1.00 20.00     0.131 C 
HETATM    2  C2  UNL     1     -33.718  16.677  -3.505  1.00 20.00     0.083 C 
HETATM    3  C3  UNL     1     -34.628  16.189  -7.234  1.00 20.00     0.013 C 
HETATM    4  C4  UNL     1     -35.176  14.705  -7.194  1.00 20.00     0.006 C 
HETATM    5  C5  UNL     1     -34.192  13.901  -3.525  1.00 20.00     0.006 C 
HETATM    6  C6  UNL     1     -34.741  13.176  -4.854  1.00 20.00     0.005 C 
HETATM    7  C7  UNL     1     -34.817  16.713  -5.808  1.00 20.00     0.060 C 
HETATM    8  C8  UNL     1     -33.765  15.276  -4.050  1.00 20.00    -0.002 C 
HETATM    9  C9  UNL     1     -34.521  14.248  -5.920  1.00 20.00    -0.009 C 
HETATM   10  C10 UNL     1     -34.874  15.423  -5.052  1.00 20.00     0.005 C 
HETATM   11  O11 UNL     1     -33.257  18.461  -5.141  1.00 20.00    -0.298 OA
ENDROOT
TORSDOF 0
ENDMDL
