MODEL 1
REMARK VINA RESULT:      -5.1      0.000      0.000
REMARK  0 active torsions:
REMARK  status: ('A' for Active; 'I' for Inactive)
ROOT
HETATM    1  C1  UNL     1     -34.910   3.805   4.649  1.00 20.00    -0.021 C 
HETATM    2  C2  UNL     1     -33.741   5.205   2.934  1.00 20.00    -0.021 C 
HETATM    3  C3  UNL     1     -34.793   4.199   5.925  1.00 20.00    -0.023 C 
HETATM    4  C4  UNL     1     -33.064   6.269   3.388  1.00 20.00    -0.023 C 
HETATM    5  C5  UNL     1     -35.020   4.947   3.678  1.00 20.00     0.035 C 
HETATM    6  C6  UNL     1     -34.811   5.677   6.022  1.00 20.00     0.033 A 
HETATM    7  C7  UNL     1     -33.784   6.907   4.515  1.00 20.00     0.033 A 
HETATM    8  C8  UNL     1     -35.139   6.177   4.600  1.00 20.00     0.015 A 
HETATM    9  C9  UNL     1     -33.436   6.391   5.937  1.00 20.00     0.098 A 
HETATM   10 CL10 UNL     1     -33.069   7.632   7.199  1.00 20.00    -0.124 Cl
ENDROOT
TORSDOF 0
ENDMDL
MODEL 2
REMARK VINA RESULT:      -4.6     12.226     13.444
REMARK  0 active torsions:
REMARK  status: ('A' for Active; 'I' for Inactive)
ROOT
HETATM    1  C1  UNL     1     -33.817  15.962  -5.964  1.00 20.00    -0.021 C 
HETATM    2  C2  UNL     1     -35.853  14.579  -5.503  1.00 20.00    -0.021 C 
HETATM    3  C3  UNL     1     -33.315  16.652  -4.931  1.00 20.00    -0.023 C 
HETATM    4  C4  UNL     1     -36.327  14.608  -4.250  1.00 20.00    -0.023 C 
HETATM    5  C5  UNL     1     -34.353  14.612  -5.578  1.00 20.00     0.035 C 
HETATM    6  C6  UNL     1     -33.427  15.874  -3.675  1.00 20.00     0.033 A 
HETATM    7  C7  UNL     1     -35.216  14.660  -3.270  1.00 20.00     0.033 A 
HETATM    8  C8  UNL     1     -33.930  14.480  -4.101  1.00 20.00     0.015 A 
HETATM    9  C9  UNL     1     -34.729  16.074  -2.854  1.00 20.00     0.098 A 
HETATM   10 CL10 UNL     1     -34.547  16.397  -1.084  1.00 20.00    -0.124 Cl
ENDROOT
TORSDOF 0
ENDMDL
MODEL 3
REMARK VINA RESULT:      -4.6     12.284     13.385
REMARK  0 active torsions:
REMARK  status: ('A' for Active; 'I' for Inactive)
ROOT
HETATM    1  C1  UNL     1     -34.439  13.589  -4.996  1.00 20.00    -0.021 C 
HETATM    2  C2  UNL     1     -33.971  15.709  -6.244  1.00 20.00    -0.021 C 
HETATM    3  C3  UNL     1     -34.331  13.644  -3.661  1.00 20.00    -0.023 C 
HETATM    4  C4  UNL     1     -33.638  16.777  -5.508  1.00 20.00    -0.023 C 
HETATM    5  C5  UNL     1     -35.014  14.839  -5.601  1.00 20.00     0.035 C 
HETATM    6  C6  UNL     1     -34.822  14.943  -3.147  1.00 20.00     0.033 A 
HETATM    7  C7  UNL     1     -34.411  16.805  -4.244  1.00 20.00     0.033 A 
HETATM    8  C8  UNL     1     -35.436  15.660  -4.367  1.00 20.00     0.015 A 
HETATM    9  C9  UNL     1     -33.772  16.080  -3.029  1.00 20.00     0.098 A 
HETATM   10 CL10 UNL     1     -33.709  16.987  -1.466  1.00 20.00    -0.124 Cl
ENDROOT
TORSDOF 0
ENDMDL
MODEL 4
REMARK VINA RESULT:      -4.6     12.815     14.053
REMARK  0 active torsions:
REMARK  status: ('A' for Active; 'I' for Inactive)
ROOT
HETATM    1  C1  UNL     1     -34.961  15.589  -2.452  1.00 20.00    -0.021 C 
HETATM    2  C2  UNL     1     -33.825  17.681  -3.230  1.00 20.00    -0.021 C 
HETATM    3  C3  UNL     1     -35.301  14.704  -3.399  1.00 20.00    -0.023 C 
HETATM    4  C4  UNL     1     -33.623  17.798  -4.548  1.00 20.00    -0.023 C 
HETATM    5  C5  UNL     1     -33.652  16.278  -2.720  1.00 20.00     0.035 C 
HETATM    6  C6  UNL     1     -34.270  14.650  -4.462  1.00 20.00     0.033 A 
HETATM    7  C7  UNL     1     -33.273  16.488  -5.145  1.00 20.00     0.033 A 
HETATM    8  C8  UNL     1     -33.109  15.526  -3.951  1.00 20.00     0.015 A 
HETATM    9  C9  UNL     1     -34.457  15.624  -5.656  1.00 20.00     0.098 A 
HETATM   10 CL10 UNL     1     -34.316  14.929  -7.319  1.00 20.00    -0.124 Cl
ENDROOT
TORSDOF 0
ENDMDL
MODEL 5
REMARK VINA RESULT:      -4.5     12.408     13.602
REMARK  0 active torsions:
REMARK  status: ('A' for Active; 'I' for Inactive)
ROOT
HETATM    1  C1  UNL     1     -33.237  13.601  -3.635  1.00 20.00    -0.021 C 
HETATM    2  C2  UNL     1     -34.972  13.409  -5.431  1.00 20.00    -0.021 C 
HETATM    3  C3  UNL     1     -32.594  14.773  -3.546  1.00 20.00    -0.023 C 
HETATM    4  C4  UNL     1     -35.157  14.488  -6.203  1.00 20.00    -0.023 C 
HETATM    5  C5  UNL     1     -34.690  13.742  -3.993  1.00 20.00     0.035 C 
HETATM    6  C6  UNL     1     -33.513  15.900  -3.828  1.00 20.00     0.033 A 
HETATM    7  C7  UNL     1     -35.036  15.731  -5.406  1.00 20.00     0.033 A 
HETATM    8  C8  UNL     1     -34.915  15.266  -3.940  1.00 20.00     0.015 A 
HETATM    9  C9  UNL     1     -33.617  16.353  -5.309  1.00 20.00     0.098 A 
HETATM   10 CL10 UNL     1     -33.466  18.123  -5.644  1.00 20.00    -0.124 Cl
ENDROOT
TORSDOF 0
ENDMDL
MODEL 6
REMARK VINA RESULT:      -4.5      1.756      2.814
REMARK  0 active torsions:
REMARK  status: ('A' for Active; 'I' for Inactive)
ROOT
HETATM    1  C1  UNL     1     -35.667   4.957   4.481  1.00 20.00    -0.021 C 
HETATM    2  C2  UNL     1     -34.493   5.962   6.451  1.00 20.00    -0.021 C 
HETATM    3  C3  UNL     1     -35.310   5.415   3.273  1.00 20.00    -0.023 C 
HETATM    4  C4  UNL     1     -33.574   6.900   6.187  1.00 20.00    -0.023 C 
HETATM    5  C5  UNL     1     -34.518   4.848   5.442  1.00 20.00     0.035 C 
HETATM    6  C6  UNL     1     -33.854   5.685   3.223  1.00 20.00     0.033 A 
HETATM    7  C7  UNL     1     -32.822   6.568   4.954  1.00 20.00     0.033 A 
HETATM    8  C8  UNL     1     -33.293   5.153   4.558  1.00 20.00     0.015 A 
HETATM    9  C9  UNL     1     -33.403   7.115   3.623  1.00 20.00     0.098 A 
HETATM   10 CL10 UNL     1     -32.259   7.962   2.509  1.00 20.00    -0.124 Cl
ENDROOT
TORSDOF 0
ENDMDL
MODEL 7
REMARK VINA RESULT:      -4.5     12.202     13.066
REMARK  0 active torsions:
REMARK  status: ('A' for Active; 'I' for Inactive)
ROOT
HETATM    1  C1  UNL     1     -33.602  13.874  -3.832  1.00 20.00    -0.021 C 
HETATM    2  C2  UNL     1     -33.920  15.948  -2.465  1.00 20.00    -0.021 C 
HETATM    3  C3  UNL     1     -34.713  13.287  -4.296  1.00 20.00    -0.023 C 
HETATM    4  C4  UNL     1     -35.183  16.353  -2.274  1.00 20.00    -0.023 C 
HETATM    5  C5  UNL     1     -33.675  15.375  -3.832  1.00 20.00     0.035 C 
HETATM    6  C6  UNL     1     -35.718  14.301  -4.691  1.00 20.00     0.033 A 
HETATM    7  C7  UNL     1     -35.998  16.122  -3.491  1.00 20.00     0.033 A 
HETATM    8  C8  UNL     1     -34.998  15.659  -4.570  1.00 20.00     0.015 A 
HETATM    9  C9  UNL     1     -36.716  14.750  -3.590  1.00 20.00     0.098 A 
HETATM   10 CL10 UNL     1     -38.471  14.765  -4.022  1.00 20.00    -0.124 Cl
ENDROOT
TORSDOF 0
ENDMDL
MODEL 8
REMARK VINA RESULT:      -4.5     12.016     13.208
REMARK  0 active torsions:
REMARK  status: ('A' for Active; 'I' for Inactive)
ROOT
HETATM    1  C1  UNL     1     -36.115  15.226  -5.618  1.00 20.00    -0.021 C 
HETATM    2  C2  UNL     1     -34.471  13.447  -4.981  1.00 20.00    -0.021 C 
HETATM    3  C3  UNL     1     -36.394  16.145  -4.684  1.00 20.00    -0.023 C 
HETATM    4  C4  UNL     1     -33.964  13.515  -3.743  1.00 20.00    -0.023 C 
HETATM    5  C5  UNL     1     -34.676  14.793  -5.619  1.00 20.00     0.035 C 
HETATM    6  C6  UNL     1     -35.182  16.486  -3.903  1.00 20.00     0.033 A 
HETATM    7  C7  UNL     1     -33.738  14.924  -3.344  1.00 20.00     0.033 A 
HETATM    8  C8  UNL     1     -34.022  15.757  -4.610  1.00 20.00     0.015 A 
HETATM    9  C9  UNL     1     -34.919  15.637  -2.631  1.00 20.00     0.098 A 
HETATM   10 CL10 UNL     1     -34.544  16.529  -1.104  1.00 20.00    -0.124 Cl
ENDROOT
TORSDOF 0
ENDMDL
MODEL 9
REMARK VINA RESULT:      -4.4     12.705     13.996
REMARK  0 active torsions:
REMARK  status: ('A' for Active; 'I' for Inactive)
ROOT
HETATM    1  C1  UNL     1     -34.444  14.711  -5.830  1.00 20.00    -0.021 C 
HETATM    2  C2  UNL     1     -35.051  14.420  -3.418  1.00 20.00    -0.021 C 
HETATM    3  C3  UNL     1     -34.082  15.943  -6.212  1.00 20.00    -0.023 C 
HETATM    4  C4  UNL     1     -34.981  15.513  -2.646  1.00 20.00    -0.023 C 
HETATM    5  C5  UNL     1     -33.964  14.347  -4.453  1.00 20.00     0.035 C 
HETATM    6  C6  UNL     1     -33.292  16.612  -5.152  1.00 20.00     0.033 A 
HETATM    7  C7  UNL     1     -33.826  16.357  -3.034  1.00 20.00     0.033 A 
HETATM    8  C8  UNL     1     -33.050  15.531  -4.080  1.00 20.00     0.015 A 
HETATM    9  C9  UNL     1     -34.094  17.440  -4.112  1.00 20.00     0.098 A 
HETATM   10 CL10 UNL     1     -33.511  19.115  -3.763  1.00 20.00    -0.124 Cl
ENDROOT
TORSDOF 0
ENDMDL
