MODEL 1
REMARK VINA RESULT:      -5.8      0.000      0.000
REMARK  0 active torsions:
REMARK  status: ('A' for Active; 'I' for Inactive)
ROOT
HETATM    1  C1  UNL     1     -34.401   5.753   6.604  1.00 20.00     0.003 C 
HETATM    2  C2  UNL     1     -33.670   6.692   5.991  1.00 20.00     0.050 C 
HETATM    3  C3  UNL     1     -34.898   4.515   6.052  1.00 20.00    -0.004 C 
HETATM    4  C4  UNL     1     -35.298   4.305   4.791  1.00 20.00    -0.021 C 
HETATM    5  C5  UNL     1     -33.298   6.676   4.560  1.00 20.00     0.154 C 
HETATM    6  C6  UNL     1     -34.236   5.211   2.663  1.00 20.00     0.022 A 
HETATM    7  C7  UNL     1     -35.340   5.259   3.685  1.00 20.00     0.020 A 
HETATM    8  C8  UNL     1     -34.368   6.401   3.576  1.00 20.00     0.068 A 
HETATM    9  O9  UNL     1     -32.175   6.996   4.191  1.00 20.00    -0.293 OA
ENDROOT
TORSDOF 0
ENDMDL
MODEL 2
REMARK VINA RESULT:      -5.2      1.223      2.714
REMARK  0 active torsions:
REMARK  status: ('A' for Active; 'I' for Inactive)
ROOT
HETATM    1  C1  UNL     1     -33.631   6.218   3.562  1.00 20.00     0.003 C 
HETATM    2  C2  UNL     1     -33.140   6.714   4.705  1.00 20.00     0.050 C 
HETATM    3  C3  UNL     1     -34.823   5.426   3.379  1.00 20.00    -0.004 C 
HETATM    4  C4  UNL     1     -35.321   4.521   4.232  1.00 20.00    -0.021 C 
HETATM    5  C5  UNL     1     -33.700   6.455   6.050  1.00 20.00     0.154 C 
HETATM    6  C6  UNL     1     -35.422   4.683   6.770  1.00 20.00     0.022 A 
HETATM    7  C7  UNL     1     -34.788   4.112   5.529  1.00 20.00     0.020 A 
HETATM    8  C8  UNL     1     -34.008   5.053   6.406  1.00 20.00     0.068 A 
HETATM    9  O9  UNL     1     -33.793   7.349   6.882  1.00 20.00    -0.293 OA
ENDROOT
TORSDOF 0
ENDMDL
MODEL 3
REMARK VINA RESULT:      -4.7     12.180     13.505
REMARK  0 active torsions:
REMARK  status: ('A' for Active; 'I' for Inactive)
ROOT
HETATM    1  C1  UNL     1     -32.885  14.983  -3.726  1.00 20.00     0.003 C 
HETATM    2  C2  UNL     1     -33.502  13.802  -3.855  1.00 20.00     0.050 C 
HETATM    3  C3  UNL     1     -33.277  16.254  -4.286  1.00 20.00    -0.004 C 
HETATM    4  C4  UNL     1     -33.876  16.458  -5.466  1.00 20.00    -0.021 C 
HETATM    5  C5  UNL     1     -34.692  13.556  -4.699  1.00 20.00     0.154 C 
HETATM    6  C6  UNL     1     -35.713  15.052  -6.527  1.00 20.00     0.022 A 
HETATM    7  C7  UNL     1     -34.267  15.465  -6.465  1.00 20.00     0.020 A 
HETATM    8  C8  UNL     1     -34.664  14.064  -6.088  1.00 20.00     0.068 A 
HETATM    9  O9  UNL     1     -35.616  12.854  -4.307  1.00 20.00    -0.293 OA
ENDROOT
TORSDOF 0
ENDMDL
MODEL 4
REMARK VINA RESULT:      -4.6      1.582      2.640
REMARK  0 active torsions:
REMARK  status: ('A' for Active; 'I' for Inactive)
ROOT
HETATM    1  C1  UNL     1     -34.814   5.088   6.173  1.00 20.00     0.003 C 
HETATM    2  C2  UNL     1     -35.297   4.725   4.979  1.00 20.00     0.050 C 
HETATM    3  C3  UNL     1     -34.056   6.271   6.501  1.00 20.00    -0.004 C 
HETATM    4  C4  UNL     1     -33.167   6.895   5.717  1.00 20.00    -0.021 C 
HETATM    5  C5  UNL     1     -35.057   5.451   3.712  1.00 20.00     0.154 C 
HETATM    6  C6  UNL     1     -33.337   7.298   3.209  1.00 20.00     0.022 A 
HETATM    7  C7  UNL     1     -32.746   6.535   4.365  1.00 20.00     0.020 A 
HETATM    8  C8  UNL     1     -33.665   5.840   3.398  1.00 20.00     0.068 A 
HETATM    9  O9  UNL     1     -35.955   5.619   2.896  1.00 20.00    -0.293 OA
ENDROOT
TORSDOF 0
ENDMDL
MODEL 5
REMARK VINA RESULT:      -4.5     12.094     13.571
REMARK  0 active torsions:
REMARK  status: ('A' for Active; 'I' for Inactive)
ROOT
HETATM    1  C1  UNL     1     -35.387  15.776  -6.033  1.00 20.00     0.003 C 
HETATM    2  C2  UNL     1     -35.754  14.629  -5.448  1.00 20.00     0.050 C 
HETATM    3  C3  UNL     1     -34.084  16.395  -6.030  1.00 20.00    -0.004 C 
HETATM    4  C4  UNL     1     -33.188  16.371  -5.033  1.00 20.00    -0.021 C 
HETATM    5  C5  UNL     1     -34.883  13.802  -4.585  1.00 20.00     0.154 C 
HETATM    6  C6  UNL     1     -32.623  14.409  -3.514  1.00 20.00     0.022 A 
HETATM    7  C7  UNL     1     -33.310  15.733  -3.725  1.00 20.00     0.020 A 
HETATM    8  C8  UNL     1     -34.127  14.488  -3.515  1.00 20.00     0.068 A 
HETATM    9  O9  UNL     1     -34.877  12.580  -4.672  1.00 20.00    -0.293 OA
ENDROOT
TORSDOF 0
ENDMDL
MODEL 6
REMARK VINA RESULT:      -4.5     12.148     12.684
REMARK  0 active torsions:
REMARK  status: ('A' for Active; 'I' for Inactive)
ROOT
HETATM    1  C1  UNL     1     -33.400  15.392  -3.116  1.00 20.00     0.003 C 
HETATM    2  C2  UNL     1     -33.578  14.369  -3.960  1.00 20.00     0.050 C 
HETATM    3  C3  UNL     1     -34.394  16.067  -2.317  1.00 20.00    -0.004 C 
HETATM    4  C4  UNL     1     -35.672  16.291  -2.651  1.00 20.00    -0.021 C 
HETATM    5  C5  UNL     1     -34.889  13.780  -4.310  1.00 20.00     0.154 C 
HETATM    6  C6  UNL     1     -37.249  14.708  -3.869  1.00 20.00     0.022 A 
HETATM    7  C7  UNL     1     -36.361  15.924  -3.886  1.00 20.00     0.020 A 
HETATM    8  C8  UNL     1     -35.981  14.706  -4.682  1.00 20.00     0.068 A 
HETATM    9  O9  UNL     1     -35.035  12.567  -4.407  1.00 20.00    -0.293 OA
ENDROOT
TORSDOF 0
ENDMDL
MODEL 7
REMARK VINA RESULT:      -4.4      1.743      3.570
REMARK  0 active torsions:
REMARK  status: ('A' for Active; 'I' for Inactive)
ROOT
HETATM    1  C1  UNL     1     -33.937   5.816   2.716  1.00 20.00     0.003 C 
HETATM    2  C2  UNL     1     -34.872   4.998   3.216  1.00 20.00     0.050 C 
HETATM    3  C3  UNL     1     -32.811   6.402   3.403  1.00 20.00    -0.004 C 
HETATM    4  C4  UNL     1     -32.771   6.795   4.682  1.00 20.00    -0.021 C 
HETATM    5  C5  UNL     1     -34.977   4.603   4.638  1.00 20.00     0.154 C 
HETATM    6  C6  UNL     1     -33.808   5.624   6.690  1.00 20.00     0.022 A 
HETATM    7  C7  UNL     1     -33.838   6.739   5.679  1.00 20.00     0.020 A 
HETATM    8  C8  UNL     1     -34.900   5.674   5.655  1.00 20.00     0.068 A 
HETATM    9  O9  UNL     1     -35.239   3.451   4.960  1.00 20.00    -0.293 OA
ENDROOT
TORSDOF 0
ENDMDL
MODEL 8
REMARK VINA RESULT:      -4.4     11.967     13.315
REMARK  0 active torsions:
REMARK  status: ('A' for Active; 'I' for Inactive)
ROOT
HETATM    1  C1  UNL     1     -33.304  16.550  -5.235  1.00 20.00     0.003 C 
HETATM    2  C2  UNL     1     -33.354  16.403  -3.906  1.00 20.00     0.050 C 
HETATM    3  C3  UNL     1     -34.112  15.889  -6.232  1.00 20.00    -0.004 C 
HETATM    4  C4  UNL     1     -34.587  14.638  -6.177  1.00 20.00    -0.021 C 
HETATM    5  C5  UNL     1     -34.217  15.435  -3.193  1.00 20.00     0.154 C 
HETATM    6  C6  UNL     1     -35.525  13.432  -4.141  1.00 20.00     0.022 A 
HETATM    7  C7  UNL     1     -34.401  13.647  -5.119  1.00 20.00     0.020 A 
HETATM    8  C8  UNL     1     -34.226  14.038  -3.678  1.00 20.00     0.068 A 
HETATM    9  O9  UNL     1     -34.809  15.747  -2.167  1.00 20.00    -0.293 OA
ENDROOT
TORSDOF 0
ENDMDL
MODEL 9
REMARK VINA RESULT:      -4.3     12.325     13.666
REMARK  0 active torsions:
REMARK  status: ('A' for Active; 'I' for Inactive)
ROOT
HETATM    1  C1  UNL     1     -34.786  14.062  -6.167  1.00 20.00     0.003 C 
HETATM    2  C2  UNL     1     -34.526  15.349  -6.421  1.00 20.00     0.050 C 
HETATM    3  C3  UNL     1     -34.897  13.416  -4.881  1.00 20.00    -0.004 C 
HETATM    4  C4  UNL     1     -34.202  13.713  -3.774  1.00 20.00    -0.021 C 
HETATM    5  C5  UNL     1     -34.203  16.367  -5.397  1.00 20.00     0.154 C 
HETATM    6  C6  UNL     1     -33.564  16.027  -2.927  1.00 20.00     0.022 A 
HETATM    7  C7  UNL     1     -33.175  14.737  -3.600  1.00 20.00     0.020 A 
HETATM    8  C8  UNL     1     -33.182  16.020  -4.384  1.00 20.00     0.068 A 
HETATM    9  O9  UNL     1     -34.672  17.497  -5.453  1.00 20.00    -0.293 OA
ENDROOT
TORSDOF 0
ENDMDL
