MODEL 1
REMARK VINA RESULT:      -3.6      0.000      0.000
REMARK  0 active torsions:
REMARK  status: ('A' for Active; 'I' for Inactive)
ROOT
HETATM    1  C1  UNL     1     -33.716  17.397  -3.854  1.00 20.00     0.123 C 
HETATM    2  C2  UNL     1     -34.030  14.034  -3.480  1.00 20.00     0.123 C 
HETATM    3  C3  UNL     1     -34.302  15.435  -6.567  1.00 20.00     0.123 C 
HETATM    4  C4  UNL     1     -34.958  17.122  -4.704  1.00 20.00     0.296 C 
HETATM    5  C5  UNL     1     -34.957  15.216  -3.186  1.00 20.00     0.296 C 
HETATM    6  C6  UNL     1     -35.321  14.875  -5.572  1.00 20.00     0.296 C 
HETATM    7  N7  UNL     1     -35.495  15.783  -4.430  1.00 20.00     0.133 N 
HETATM    8  S8  UNL     1     -34.054  16.523  -2.314  1.00 20.00    -0.130 SA
HETATM    9  S9  UNL     1     -34.765  13.270  -4.937  1.00 20.00    -0.130 SA
HETATM   10  S10 UNL     1     -34.549  17.217  -6.466  1.00 20.00    -0.130 SA
ENDROOT
TORSDOF 0
ENDMDL
MODEL 2
REMARK VINA RESULT:      -3.6      0.029      3.265
REMARK  0 active torsions:
REMARK  status: ('A' for Active; 'I' for Inactive)
ROOT
HETATM    1  C1  UNL     1     -34.320  15.433  -6.576  1.00 20.00     0.123 C 
HETATM    2  C2  UNL     1     -33.702  17.405  -3.877  1.00 20.00     0.123 C 
HETATM    3  C3  UNL     1     -33.991  14.038  -3.493  1.00 20.00     0.123 C 
HETATM    4  C4  UNL     1     -35.320  14.869  -5.564  1.00 20.00     0.296 C 
HETATM    5  C5  UNL     1     -34.956  17.121  -4.707  1.00 20.00     0.296 C 
HETATM    6  C6  UNL     1     -34.919  15.216  -3.187  1.00 20.00     0.296 C 
HETATM    7  N7  UNL     1     -35.481  15.778  -4.422  1.00 20.00     0.133 N 
HETATM    8  S8  UNL     1     -34.576  17.214  -6.476  1.00 20.00    -0.130 SA
HETATM    9  S9  UNL     1     -34.008  16.530  -2.333  1.00 20.00    -0.130 SA
HETATM   10  S10 UNL     1     -34.747  13.269  -4.936  1.00 20.00    -0.130 SA
ENDROOT
TORSDOF 0
ENDMDL
MODEL 3
REMARK VINA RESULT:      -3.5      0.054      3.278
REMARK  0 active torsions:
REMARK  status: ('A' for Active; 'I' for Inactive)
ROOT
HETATM    1  C1  UNL     1     -34.043  14.036  -3.472  1.00 20.00     0.123 C 
HETATM    2  C2  UNL     1     -34.268  15.488  -6.537  1.00 20.00     0.123 C 
HETATM    3  C3  UNL     1     -33.743  17.408  -3.780  1.00 20.00     0.123 C 
HETATM    4  C4  UNL     1     -34.982  15.207  -3.175  1.00 20.00     0.296 C 
HETATM    5  C5  UNL     1     -35.302  14.905  -5.571  1.00 20.00     0.296 C 
HETATM    6  C6  UNL     1     -34.968  17.140  -4.658  1.00 20.00     0.296 C 
HETATM    7  N7  UNL     1     -35.502  15.793  -4.417  1.00 20.00     0.133 N 
HETATM    8  S8  UNL     1     -34.750  13.293  -4.954  1.00 20.00    -0.130 SA
HETATM    9  S9  UNL     1     -34.526  17.266  -6.411  1.00 20.00    -0.130 SA
HETATM   10  S10 UNL     1     -34.104  16.504  -2.264  1.00 20.00    -0.130 SA
ENDROOT
TORSDOF 0
ENDMDL
MODEL 4
REMARK VINA RESULT:      -3.5      0.950      2.885
REMARK  0 active torsions:
REMARK  status: ('A' for Active; 'I' for Inactive)
ROOT
HETATM    1  C1  UNL     1     -34.522  15.513  -2.696  1.00 20.00     0.123 C 
HETATM    2  C2  UNL     1     -34.952  17.785  -5.187  1.00 20.00     0.123 C 
HETATM    3  C3  UNL     1     -35.106  14.458  -5.874  1.00 20.00     0.123 C 
HETATM    4  C4  UNL     1     -33.629  14.923  -3.789  1.00 20.00     0.296 C 
HETATM    5  C5  UNL     1     -33.723  17.271  -4.433  1.00 20.00     0.296 C 
HETATM    6  C6  UNL     1     -34.042  15.533  -6.111  1.00 20.00     0.296 C 
HETATM    7  N7  UNL     1     -33.382  15.905  -4.853  1.00 20.00     0.133 N 
HETATM    8  S8  UNL     1     -34.042  17.250  -2.649  1.00 20.00    -0.130 SA
HETATM    9  S9  UNL     1     -34.799  17.024  -6.813  1.00 20.00    -0.130 SA
HETATM   10  S10 UNL     1     -34.417  13.472  -4.533  1.00 20.00    -0.130 SA
ENDROOT
TORSDOF 0
ENDMDL
MODEL 5
REMARK VINA RESULT:      -3.5      0.953      2.890
REMARK  0 active torsions:
REMARK  status: ('A' for Active; 'I' for Inactive)
ROOT
HETATM    1  C1  UNL     1     -35.106  14.449  -5.876  1.00 20.00     0.123 C 
HETATM    2  C2  UNL     1     -34.520  15.513  -2.702  1.00 20.00     0.123 C 
HETATM    3  C3  UNL     1     -34.950  17.777  -5.203  1.00 20.00     0.123 C 
HETATM    4  C4  UNL     1     -34.043  15.522  -6.117  1.00 20.00     0.296 C 
HETATM    5  C5  UNL     1     -33.627  14.919  -3.793  1.00 20.00     0.296 C 
HETATM    6  C6  UNL     1     -33.722  17.265  -4.446  1.00 20.00     0.296 C 
HETATM    7  N7  UNL     1     -33.381  15.898  -4.861  1.00 20.00     0.133 N 
HETATM    8  S8  UNL     1     -34.417  13.465  -4.532  1.00 20.00    -0.130 SA
HETATM    9  S9  UNL     1     -34.042  17.250  -2.662  1.00 20.00    -0.130 SA
HETATM   10  S10 UNL     1     -34.796  17.009  -6.825  1.00 20.00    -0.130 SA
ENDROOT
TORSDOF 0
ENDMDL
MODEL 6
REMARK VINA RESULT:      -3.5      0.951      2.892
REMARK  0 active torsions:
REMARK  status: ('A' for Active; 'I' for Inactive)
ROOT
HETATM    1  C1  UNL     1     -34.953  17.786  -5.187  1.00 20.00     0.123 C 
HETATM    2  C2  UNL     1     -35.105  14.461  -5.878  1.00 20.00     0.123 C 
HETATM    3  C3  UNL     1     -34.520  15.513  -2.697  1.00 20.00     0.123 C 
HETATM    4  C4  UNL     1     -33.725  17.272  -4.434  1.00 20.00     0.296 C 
HETATM    5  C5  UNL     1     -34.042  15.537  -6.114  1.00 20.00     0.296 C 
HETATM    6  C6  UNL     1     -33.627  14.925  -3.792  1.00 20.00     0.296 C 
HETATM    7  N7  UNL     1     -33.382  15.908  -4.855  1.00 20.00     0.133 N 
HETATM    8  S8  UNL     1     -34.799  17.027  -6.815  1.00 20.00    -0.130 SA
HETATM    9  S9  UNL     1     -34.418  13.474  -4.537  1.00 20.00    -0.130 SA
HETATM   10  S10 UNL     1     -34.042  17.250  -2.651  1.00 20.00    -0.130 SA
ENDROOT
TORSDOF 0
ENDMDL
MODEL 7
REMARK VINA RESULT:      -3.4      1.516      3.420
REMARK  0 active torsions:
REMARK  status: ('A' for Active; 'I' for Inactive)
ROOT
HETATM    1  C1  UNL     1     -36.342  15.206  -5.663  1.00 20.00     0.123 C 
HETATM    2  C2  UNL     1     -35.152  17.596  -3.560  1.00 20.00     0.123 C 
HETATM    3  C3  UNL     1     -33.532  14.619  -3.844  1.00 20.00     0.123 C 
HETATM    4  C4  UNL     1     -36.055  14.377  -4.409  1.00 20.00     0.296 C 
HETATM    5  C5  UNL     1     -36.324  16.614  -3.481  1.00 20.00     0.296 C 
HETATM    6  C6  UNL     1     -34.453  15.219  -2.778  1.00 20.00     0.296 C 
HETATM    7  N7  UNL     1     -35.846  15.245  -3.243  1.00 20.00     0.133 N 
HETATM    8  S8  UNL     1     -37.260  16.623  -5.032  1.00 20.00    -0.130 SA
HETATM    9  S9  UNL     1     -33.953  16.919  -2.398  1.00 20.00    -0.130 SA
HETATM   10  S10 UNL     1     -34.563  13.377  -4.643  1.00 20.00    -0.130 SA
ENDROOT
TORSDOF 0
ENDMDL
MODEL 8
REMARK VINA RESULT:      -3.4      1.661      2.837
REMARK  0 active torsions:
REMARK  status: ('A' for Active; 'I' for Inactive)
ROOT
HETATM    1  C1  UNL     1     -36.873  15.282  -5.792  1.00 20.00     0.123 C 
HETATM    2  C2  UNL     1     -35.618  16.249  -2.785  1.00 20.00     0.123 C 
HETATM    3  C3  UNL     1     -33.649  16.330  -5.556  1.00 20.00     0.123 C 
HETATM    4  C4  UNL     1     -35.528  14.553  -5.787  1.00 20.00     0.296 C 
HETATM    5  C5  UNL     1     -35.927  14.885  -3.406  1.00 20.00     0.296 C 
HETATM    6  C6  UNL     1     -33.739  15.384  -4.357  1.00 20.00     0.296 C 
HETATM    7  N7  UNL     1     -34.941  14.543  -4.441  1.00 20.00     0.133 N 
HETATM    8  S8  UNL     1     -37.568  14.899  -4.173  1.00 20.00    -0.130 SA
HETATM    9  S9  UNL     1     -33.818  16.329  -2.813  1.00 20.00    -0.130 SA
HETATM   10  S10 UNL     1     -34.363  15.373  -6.905  1.00 20.00    -0.130 SA
ENDROOT
TORSDOF 0
ENDMDL
MODEL 9
REMARK VINA RESULT:      -3.4      1.627      2.962
REMARK  0 active torsions:
REMARK  status: ('A' for Active; 'I' for Inactive)
ROOT
HETATM    1  C1  UNL     1     -35.094  13.771  -4.806  1.00 20.00     0.123 C 
HETATM    2  C2  UNL     1     -33.799  16.364  -3.030  1.00 20.00     0.123 C 
HETATM    3  C3  UNL     1     -36.004  16.961  -5.549  1.00 20.00     0.123 C 
HETATM    4  C4  UNL     1     -34.716  14.738  -5.930  1.00 20.00     0.296 C 
HETATM    5  C5  UNL     1     -33.239  15.460  -4.132  1.00 20.00     0.296 C 
HETATM    6  C6  UNL     1     -34.486  17.109  -5.422  1.00 20.00     0.296 C 
HETATM    7  N7  UNL     1     -33.826  15.797  -5.436  1.00 20.00     0.133 N 
HETATM    8  S8  UNL     1     -33.617  13.724  -3.774  1.00 20.00    -0.130 SA
HETATM    9  S9  UNL     1     -34.062  17.937  -3.867  1.00 20.00    -0.130 SA
HETATM   10  S10 UNL     1     -36.200  15.520  -6.614  1.00 20.00    -0.130 SA
ENDROOT
TORSDOF 0
ENDMDL
