MODEL 1
REMARK VINA RESULT:      -5.5      0.000      0.000
REMARK  0 active torsions:
REMARK  status: ('A' for Active; 'I' for Inactive)
ROOT
HETATM    1  C1  UNL     1     -35.262   4.136   5.848  1.00 20.00    -0.021 C 
HETATM    2  C2  UNL     1     -35.488   4.219   4.514  1.00 20.00    -0.021 C 
HETATM    3  C3  UNL     1     -34.263   6.451   6.672  1.00 20.00    -0.021 C 
HETATM    4  C4  UNL     1     -33.555   7.272   5.858  1.00 20.00    -0.021 C 
HETATM    5  C5  UNL     1     -34.055   5.884   2.861  1.00 20.00    -0.015 C 
HETATM    6  C6  UNL     1     -33.059   6.690   3.311  1.00 20.00    -0.079 C 
HETATM    7  C7  UNL     1     -34.089   4.993   6.310  1.00 20.00     0.036 C 
HETATM    8  C8  UNL     1     -34.754   5.408   4.063  1.00 20.00     0.036 C 
HETATM    9  C9  UNL     1     -32.780   6.514   4.806  1.00 20.00     0.042 C 
HETATM   10  C10 UNL     1     -33.502   5.203   4.943  1.00 20.00     0.020 C 
HETATM   11  C11 UNL     1     -32.203   7.583   2.487  1.00 20.00     0.044 C 
ENDROOT
TORSDOF 0
ENDMDL
MODEL 2
REMARK VINA RESULT:      -5.1     11.490     13.650
REMARK  0 active torsions:
REMARK  status: ('A' for Active; 'I' for Inactive)
ROOT
HETATM    1  C1  UNL     1     -33.671  16.273  -2.869  1.00 20.00    -0.021 C 
HETATM    2  C2  UNL     1     -33.397  16.934  -4.021  1.00 20.00    -0.021 C 
HETATM    3  C3  UNL     1     -34.032  13.709  -3.443  1.00 20.00    -0.021 C 
HETATM    4  C4  UNL     1     -34.471  13.285  -4.654  1.00 20.00    -0.021 C 
HETATM    5  C5  UNL     1     -34.286  16.078  -6.478  1.00 20.00    -0.015 C 
HETATM    6  C6  UNL     1     -35.040  14.960  -6.639  1.00 20.00    -0.079 C 
HETATM    7  C7  UNL     1     -34.582  15.067  -3.074  1.00 20.00     0.036 C 
HETATM    8  C8  UNL     1     -33.772  16.014  -5.102  1.00 20.00     0.036 C 
HETATM    9  C9  UNL     1     -35.395  14.284  -5.313  1.00 20.00     0.042 C 
HETATM   10  C10 UNL     1     -35.055  15.462  -4.445  1.00 20.00     0.020 C 
HETATM   11  C11 UNL     1     -35.602  14.451  -7.917  1.00 20.00     0.044 C 
ENDROOT
TORSDOF 0
ENDMDL
MODEL 3
REMARK VINA RESULT:      -5.0     11.538     13.258
REMARK  0 active torsions:
REMARK  status: ('A' for Active; 'I' for Inactive)
ROOT
HETATM    1  C1  UNL     1     -35.851  14.766  -6.459  1.00 20.00    -0.021 C 
HETATM    2  C2  UNL     1     -36.704  15.529  -5.732  1.00 20.00    -0.021 C 
HETATM    3  C3  UNL     1     -34.400  13.308  -4.784  1.00 20.00    -0.021 C 
HETATM    4  C4  UNL     1     -34.132  13.703  -3.515  1.00 20.00    -0.021 C 
HETATM    5  C5  UNL     1     -36.163  16.331  -3.159  1.00 20.00    -0.015 C 
HETATM    6  C6  UNL     1     -35.017  16.000  -2.510  1.00 20.00    -0.079 C 
HETATM    7  C7  UNL     1     -34.542  14.476  -5.732  1.00 20.00     0.036 C 
HETATM    8  C8  UNL     1     -36.204  15.474  -4.352  1.00 20.00     0.036 C 
HETATM    9  C9  UNL     1     -34.044  15.206  -3.385  1.00 20.00     0.042 C 
HETATM   10  C10 UNL     1     -34.700  15.550  -4.693  1.00 20.00     0.020 C 
HETATM   11  C11 UNL     1     -34.620  16.427  -1.142  1.00 20.00     0.044 C 
ENDROOT
TORSDOF 0
ENDMDL
MODEL 4
REMARK VINA RESULT:      -4.9     12.131     13.705
REMARK  0 active torsions:
REMARK  status: ('A' for Active; 'I' for Inactive)
ROOT
HETATM    1  C1  UNL     1     -34.094  15.597  -6.503  1.00 20.00    -0.021 C 
HETATM    2  C2  UNL     1     -33.762  16.796  -5.964  1.00 20.00    -0.021 C 
HETATM    3  C3  UNL     1     -35.937  14.470  -4.964  1.00 20.00    -0.021 C 
HETATM    4  C4  UNL     1     -36.041  14.733  -3.638  1.00 20.00    -0.021 C 
HETATM    5  C5  UNL     1     -33.972  17.331  -3.275  1.00 20.00    -0.015 C 
HETATM    6  C6  UNL     1     -34.414  16.415  -2.375  1.00 20.00    -0.079 C 
HETATM    7  C7  UNL     1     -34.512  14.568  -5.459  1.00 20.00     0.036 C 
HETATM    8  C8  UNL     1     -34.298  16.776  -4.597  1.00 20.00     0.036 C 
HETATM    9  C9  UNL     1     -34.705  15.051  -3.006  1.00 20.00     0.042 C 
HETATM   10  C10 UNL     1     -33.948  15.306  -4.279  1.00 20.00     0.020 C 
HETATM   11  C11 UNL     1     -34.514  16.599  -0.904  1.00 20.00     0.044 C 
ENDROOT
TORSDOF 0
ENDMDL
MODEL 5
REMARK VINA RESULT:      -4.9     11.813     12.743
REMARK  0 active torsions:
REMARK  status: ('A' for Active; 'I' for Inactive)
ROOT
HETATM    1  C1  UNL     1     -32.527  14.826  -3.572  1.00 20.00    -0.021 C 
HETATM    2  C2  UNL     1     -33.262  13.740  -3.916  1.00 20.00    -0.021 C 
HETATM    3  C3  UNL     1     -34.008  16.376  -2.010  1.00 20.00    -0.021 C 
HETATM    4  C4  UNL     1     -35.362  16.396  -2.074  1.00 20.00    -0.021 C 
HETATM    5  C5  UNL     1     -36.007  13.778  -4.046  1.00 20.00    -0.015 C 
HETATM    6  C6  UNL     1     -36.742  14.887  -3.774  1.00 20.00    -0.079 C 
HETATM    7  C7  UNL     1     -33.374  16.074  -3.349  1.00 20.00     0.036 C 
HETATM    8  C8  UNL     1     -34.648  14.077  -3.571  1.00 20.00     0.036 C 
HETATM    9  C9  UNL     1     -35.879  16.113  -3.466  1.00 20.00     0.042 C 
HETATM   10  C10 UNL     1     -34.606  15.550  -4.032  1.00 20.00     0.020 C 
HETATM   11  C11 UNL     1     -38.220  15.013  -3.865  1.00 20.00     0.044 C 
ENDROOT
TORSDOF 0
ENDMDL
MODEL 6
REMARK VINA RESULT:      -4.8     11.708     13.967
REMARK  0 active torsions:
REMARK  status: ('A' for Active; 'I' for Inactive)
ROOT
HETATM    1  C1  UNL     1     -34.735  13.187  -4.827  1.00 20.00    -0.021 C 
HETATM    2  C2  UNL     1     -33.983  13.653  -3.799  1.00 20.00    -0.021 C 
HETATM    3  C3  UNL     1     -34.504  14.871  -6.863  1.00 20.00    -0.021 C 
HETATM    4  C4  UNL     1     -34.228  16.188  -6.694  1.00 20.00    -0.021 C 
HETATM    5  C5  UNL     1     -33.423  16.323  -3.455  1.00 20.00    -0.015 C 
HETATM    6  C6  UNL     1     -33.879  17.285  -4.297  1.00 20.00    -0.079 C 
HETATM    7  C7  UNL     1     -35.295  14.297  -5.710  1.00 20.00     0.036 C 
HETATM    8  C8  UNL     1     -33.669  15.046  -4.141  1.00 20.00     0.036 C 
HETATM    9  C9  UNL     1     -34.786  16.733  -5.399  1.00 20.00     0.042 C 
HETATM   10  C10 UNL     1     -35.048  15.411  -4.733  1.00 20.00     0.020 C 
HETATM   11  C11 UNL     1     -33.667  18.750  -4.163  1.00 20.00     0.044 C 
ENDROOT
TORSDOF 0
ENDMDL
MODEL 7
REMARK VINA RESULT:      -4.8     11.893     13.897
REMARK  0 active torsions:
REMARK  status: ('A' for Active; 'I' for Inactive)
ROOT
HETATM    1  C1  UNL     1     -34.817  14.766  -6.691  1.00 20.00    -0.021 C 
HETATM    2  C2  UNL     1     -34.748  13.875  -5.671  1.00 20.00    -0.021 C 
HETATM    3  C3  UNL     1     -33.651  17.018  -5.914  1.00 20.00    -0.021 C 
HETATM    4  C4  UNL     1     -33.584  17.395  -4.613  1.00 20.00    -0.021 C 
HETATM    5  C5  UNL     1     -34.613  14.638  -3.033  1.00 20.00    -0.015 C 
HETATM    6  C6  UNL     1     -34.614  15.938  -2.642  1.00 20.00    -0.079 C 
HETATM    7  C7  UNL     1     -34.894  16.213  -6.216  1.00 20.00     0.036 C 
HETATM    8  C8  UNL     1     -34.385  14.661  -4.485  1.00 20.00     0.036 C 
HETATM    9  C9  UNL     1     -34.771  16.913  -3.811  1.00 20.00     0.042 C 
HETATM   10  C10 UNL     1     -35.265  15.891  -4.796  1.00 20.00     0.020 C 
HETATM   11  C11 UNL     1     -34.592  16.440  -1.243  1.00 20.00     0.044 C 
ENDROOT
TORSDOF 0
ENDMDL
MODEL 8
REMARK VINA RESULT:      -4.8     11.809     13.670
REMARK  0 active torsions:
REMARK  status: ('A' for Active; 'I' for Inactive)
ROOT
HETATM    1  C1  UNL     1     -34.578  13.384  -4.157  1.00 20.00    -0.021 C 
HETATM    2  C2  UNL     1     -34.836  13.733  -5.442  1.00 20.00    -0.021 C 
HETATM    3  C3  UNL     1     -34.798  15.550  -2.642  1.00 20.00    -0.021 C 
HETATM    4  C4  UNL     1     -34.584  16.801  -3.120  1.00 20.00    -0.021 C 
HETATM    5  C5  UNL     1     -34.403  16.268  -6.413  1.00 20.00    -0.015 C 
HETATM    6  C6  UNL     1     -33.909  17.275  -5.648  1.00 20.00    -0.079 C 
HETATM    7  C7  UNL     1     -33.953  14.513  -3.345  1.00 20.00     0.036 C 
HETATM    8  C8  UNL     1     -34.770  15.199  -5.473  1.00 20.00     0.036 C 
HETATM    9  C9  UNL     1     -33.556  16.827  -4.228  1.00 20.00     0.042 C 
HETATM   10  C10 UNL     1     -33.559  15.354  -4.527  1.00 20.00     0.020 C 
HETATM   11  C11 UNL     1     -33.599  18.657  -6.098  1.00 20.00     0.044 C 
ENDROOT
TORSDOF 0
ENDMDL
MODEL 9
REMARK VINA RESULT:      -4.6     11.851     13.037
REMARK  0 active torsions:
REMARK  status: ('A' for Active; 'I' for Inactive)
ROOT
HETATM    1  C1  UNL     1     -34.230  13.329  -4.563  1.00 20.00    -0.021 C 
HETATM    2  C2  UNL     1     -33.343  13.924  -3.727  1.00 20.00    -0.021 C 
HETATM    3  C3  UNL     1     -35.945  15.169  -5.406  1.00 20.00    -0.021 C 
HETATM    4  C4  UNL     1     -36.247  16.274  -4.680  1.00 20.00    -0.021 C 
HETATM    5  C5  UNL     1     -33.953  16.163  -2.254  1.00 20.00    -0.015 C 
HETATM    6  C6  UNL     1     -35.169  16.765  -2.299  1.00 20.00    -0.079 C 
HETATM    7  C7  UNL     1     -35.608  13.982  -4.533  1.00 20.00     0.036 C 
HETATM    8  C8  UNL     1     -33.934  15.223  -3.384  1.00 20.00     0.036 C 
HETATM    9  C9  UNL     1     -36.169  16.025  -3.191  1.00 20.00     0.042 C 
HETATM   10  C10 UNL     1     -35.394  14.738  -3.253  1.00 20.00     0.020 C 
HETATM   11  C11 UNL     1     -35.601  17.945  -1.505  1.00 20.00     0.044 C 
ENDROOT
TORSDOF 0
ENDMDL
