MODEL 1
REMARK VINA RESULT:      -4.3      0.000      0.000
REMARK  0 active torsions:
REMARK  status: ('A' for Active; 'I' for Inactive)
ROOT
HETATM    1  C1  UNL     1     -33.267  16.492  -4.716  1.00 20.00    -0.020 C 
HETATM    2  C2  UNL     1     -34.501  16.855  -5.200  1.00 20.00    -0.020 C 
HETATM    3  C3  UNL     1     -35.157  13.304  -4.230  1.00 20.00     0.002 C 
HETATM    4  C4  UNL     1     -33.697  13.822  -4.052  1.00 20.00     0.014 C 
HETATM    5  C5  UNL     1     -35.962  14.520  -4.781  1.00 20.00     0.014 C 
HETATM    6  C6  UNL     1     -33.930  15.318  -4.006  1.00 20.00    -0.016 C 
HETATM    7  C7  UNL     1     -34.841  15.374  -5.336  1.00 20.00    -0.016 C 
HETATM    8  C8  UNL     1     -34.358  15.738  -2.574  1.00 20.00     0.020 C 
HETATM    9  C9  UNL     1     -34.447  14.867  -6.749  1.00 20.00     0.020 C 
ENDROOT
TORSDOF 0
ENDMDL
MODEL 2
REMARK VINA RESULT:      -4.3      0.025      2.531
REMARK  0 active torsions:
REMARK  status: ('A' for Active; 'I' for Inactive)
ROOT
HETATM    1  C1  UNL     1     -34.470  16.862  -5.214  1.00 20.00    -0.020 C 
HETATM    2  C2  UNL     1     -33.238  16.486  -4.734  1.00 20.00    -0.020 C 
HETATM    3  C3  UNL     1     -35.167  13.323  -4.233  1.00 20.00     0.002 C 
HETATM    4  C4  UNL     1     -35.958  14.548  -4.786  1.00 20.00     0.014 C 
HETATM    5  C5  UNL     1     -33.700  13.822  -4.064  1.00 20.00     0.014 C 
HETATM    6  C6  UNL     1     -34.829  15.386  -5.346  1.00 20.00    -0.016 C 
HETATM    7  C7  UNL     1     -33.914  15.321  -4.019  1.00 20.00    -0.016 C 
HETATM    8  C8  UNL     1     -34.446  14.873  -6.760  1.00 20.00     0.020 C 
HETATM    9  C9  UNL     1     -34.330  15.748  -2.586  1.00 20.00     0.020 C 
ENDROOT
TORSDOF 0
ENDMDL
MODEL 3
REMARK VINA RESULT:      -4.2      0.860      2.712
REMARK  0 active torsions:
REMARK  status: ('A' for Active; 'I' for Inactive)
ROOT
HETATM    1  C1  UNL     1     -36.033  16.112  -4.700  1.00 20.00    -0.020 C 
HETATM    2  C2  UNL     1     -34.989  16.964  -4.433  1.00 20.00    -0.020 C 
HETATM    3  C3  UNL     1     -33.390  13.664  -3.706  1.00 20.00     0.002 C 
HETATM    4  C4  UNL     1     -34.899  13.642  -4.096  1.00 20.00     0.014 C 
HETATM    5  C5  UNL     1     -32.971  15.165  -3.761  1.00 20.00     0.014 C 
HETATM    6  C6  UNL     1     -35.028  14.971  -4.809  1.00 20.00    -0.016 C 
HETATM    7  C7  UNL     1     -34.323  15.840  -3.647  1.00 20.00    -0.016 C 
HETATM    8  C8  UNL     1     -34.547  14.827  -6.277  1.00 20.00     0.020 C 
HETATM    9  C9  UNL     1     -34.748  15.910  -2.156  1.00 20.00     0.020 C 
ENDROOT
TORSDOF 0
ENDMDL
MODEL 4
REMARK VINA RESULT:      -4.2      0.861      1.357
REMARK  0 active torsions:
REMARK  status: ('A' for Active; 'I' for Inactive)
ROOT
HETATM    1  C1  UNL     1     -34.943  16.933  -4.427  1.00 20.00    -0.020 C 
HETATM    2  C2  UNL     1     -35.995  16.081  -4.665  1.00 20.00    -0.020 C 
HETATM    3  C3  UNL     1     -33.338  13.642  -3.679  1.00 20.00     0.002 C 
HETATM    4  C4  UNL     1     -32.919  15.141  -3.762  1.00 20.00     0.014 C 
HETATM    5  C5  UNL     1     -34.854  13.617  -4.041  1.00 20.00     0.014 C 
HETATM    6  C6  UNL     1     -34.266  15.821  -3.636  1.00 20.00    -0.016 C 
HETATM    7  C7  UNL     1     -34.992  14.936  -4.773  1.00 20.00    -0.016 C 
HETATM    8  C8  UNL     1     -34.668  15.915  -2.140  1.00 20.00     0.020 C 
HETATM    9  C9  UNL     1     -34.536  14.767  -6.246  1.00 20.00     0.020 C 
ENDROOT
TORSDOF 0
ENDMDL
MODEL 5
REMARK VINA RESULT:      -4.2      0.956      2.704
REMARK  0 active torsions:
REMARK  status: ('A' for Active; 'I' for Inactive)
ROOT
HETATM    1  C1  UNL     1     -35.213  13.388  -4.285  1.00 20.00    -0.020 C 
HETATM    2  C2  UNL     1     -34.839  13.814  -5.537  1.00 20.00    -0.020 C 
HETATM    3  C3  UNL     1     -33.695  16.701  -3.455  1.00 20.00     0.002 C 
HETATM    4  C4  UNL     1     -34.443  15.553  -2.712  1.00 20.00     0.014 C 
HETATM    5  C5  UNL     1     -33.630  16.253  -4.947  1.00 20.00     0.014 C 
HETATM    6  C6  UNL     1     -34.254  14.411  -3.689  1.00 20.00    -0.016 C 
HETATM    7  C7  UNL     1     -34.749  15.234  -4.985  1.00 20.00    -0.016 C 
HETATM    8  C8  UNL     1     -32.857  13.768  -3.479  1.00 20.00     0.020 C 
HETATM    9  C9  UNL     1     -36.111  15.957  -5.158  1.00 20.00     0.020 C 
ENDROOT
TORSDOF 0
ENDMDL
MODEL 6
REMARK VINA RESULT:      -4.2      0.970      3.002
REMARK  0 active torsions:
REMARK  status: ('A' for Active; 'I' for Inactive)
ROOT
HETATM    1  C1  UNL     1     -34.885  13.888  -5.582  1.00 20.00    -0.020 C 
HETATM    2  C2  UNL     1     -35.280  13.427  -4.350  1.00 20.00    -0.020 C 
HETATM    3  C3  UNL     1     -33.694  16.674  -3.395  1.00 20.00     0.002 C 
HETATM    4  C4  UNL     1     -33.628  16.277  -4.901  1.00 20.00     0.014 C 
HETATM    5  C5  UNL     1     -34.476  15.520  -2.698  1.00 20.00     0.014 C 
HETATM    6  C6  UNL     1     -34.768  15.284  -4.983  1.00 20.00    -0.016 C 
HETATM    7  C7  UNL     1     -34.303  14.408  -3.711  1.00 20.00    -0.016 C 
HETATM    8  C8  UNL     1     -36.113  16.043  -5.142  1.00 20.00     0.020 C 
HETATM    9  C9  UNL     1     -32.922  13.727  -3.511  1.00 20.00     0.020 C 
ENDROOT
TORSDOF 0
ENDMDL
MODEL 7
REMARK VINA RESULT:      -4.1      1.130      2.275
REMARK  0 active torsions:
REMARK  status: ('A' for Active; 'I' for Inactive)
ROOT
HETATM    1  C1  UNL     1     -34.052  16.655  -2.959  1.00 20.00    -0.020 C 
HETATM    2  C2  UNL     1     -34.701  15.743  -2.161  1.00 20.00    -0.020 C 
HETATM    3  C3  UNL     1     -34.747  13.946  -5.438  1.00 20.00     0.002 C 
HETATM    4  C4  UNL     1     -34.135  15.379  -5.433  1.00 20.00     0.014 C 
HETATM    5  C5  UNL     1     -35.167  13.671  -3.962  1.00 20.00     0.014 C 
HETATM    6  C6  UNL     1     -33.798  15.539  -3.965  1.00 20.00    -0.016 C 
HETATM    7  C7  UNL     1     -35.247  15.084  -3.423  1.00 20.00    -0.016 C 
HETATM    8  C8  UNL     1     -32.439  14.853  -3.663  1.00 20.00     0.020 C 
HETATM    9  C9  UNL     1     -36.615  15.711  -3.799  1.00 20.00     0.020 C 
ENDROOT
TORSDOF 0
ENDMDL
MODEL 8
REMARK VINA RESULT:      -4.1     11.718     13.366
REMARK  0 active torsions:
REMARK  status: ('A' for Active; 'I' for Inactive)
ROOT
HETATM    1  C1  UNL     1     -33.630   7.106   3.500  1.00 20.00    -0.020 C 
HETATM    2  C2  UNL     1     -32.606   6.552   4.230  1.00 20.00    -0.020 C 
HETATM    3  C3  UNL     1     -35.404   4.226   5.089  1.00 20.00     0.002 C 
HETATM    4  C4  UNL     1     -35.756   5.440   4.177  1.00 20.00     0.014 C 
HETATM    5  C5  UNL     1     -33.876   4.350   5.370  1.00 20.00     0.014 C 
HETATM    6  C6  UNL     1     -34.388   5.790   3.630  1.00 20.00    -0.016 C 
HETATM    7  C7  UNL     1     -33.650   5.816   5.064  1.00 20.00    -0.016 C 
HETATM    8  C8  UNL     1     -34.050   4.864   2.432  1.00 20.00     0.020 C 
HETATM    9  C9  UNL     1     -34.047   6.674   6.294  1.00 20.00     0.020 C 
ENDROOT
TORSDOF 0
ENDMDL
MODEL 9
REMARK VINA RESULT:      -4.1     11.717     13.130
REMARK  0 active torsions:
REMARK  status: ('A' for Active; 'I' for Inactive)
ROOT
HETATM    1  C1  UNL     1     -32.619   6.562   4.224  1.00 20.00    -0.020 C 
HETATM    2  C2  UNL     1     -33.649   7.113   3.500  1.00 20.00    -0.020 C 
HETATM    3  C3  UNL     1     -35.399   4.220   5.095  1.00 20.00     0.002 C 
HETATM    4  C4  UNL     1     -33.870   4.354   5.370  1.00 20.00     0.014 C 
HETATM    5  C5  UNL     1     -35.763   5.434   4.188  1.00 20.00     0.014 C 
HETATM    6  C6  UNL     1     -33.654   5.820   5.063  1.00 20.00    -0.016 C 
HETATM    7  C7  UNL     1     -34.399   5.792   3.633  1.00 20.00    -0.016 C 
HETATM    8  C8  UNL     1     -34.048   6.677   6.296  1.00 20.00     0.020 C 
HETATM    9  C9  UNL     1     -34.064   4.868   2.432  1.00 20.00     0.020 C 
ENDROOT
TORSDOF 0
ENDMDL
