MODEL 1
REMARK VINA RESULT:      -3.5      0.000      0.000
REMARK  1 active torsions:
REMARK  status: ('A' for Active; 'I' for Inactive)
REMARK    1  A    between atoms: C2_2  and  C6_6 
ROOT
HETATM    1  C1  UNL     1     -33.772  17.237  -4.958  1.00 20.00     0.071 C 
HETATM    2  C2  UNL     1     -34.036  15.921  -5.053  1.00 20.00     0.003 C 
HETATM    3 BR7  UNL     1     -33.822  18.519  -6.303  1.00 20.00    -0.062 Br
HETATM    4 BR8  UNL     1     -34.535  15.150  -6.713  1.00 20.00    -0.054 Br
ENDROOT
BRANCH   2   5
HETATM    5  C6  UNL     1     -33.965  14.931  -3.867  1.00 20.00    -0.017 C 
HETATM    6  C3  UNL     1     -34.702  13.596  -4.148  1.00 20.00     0.020 C 
HETATM    7  C4  UNL     1     -32.497  14.562  -3.552  1.00 20.00     0.020 C 
HETATM    8  C5  UNL     1     -34.620  15.538  -2.608  1.00 20.00     0.020 C 
ENDBRANCH   2   5
TORSDOF 1
ENDMDL
MODEL 2
REMARK VINA RESULT:      -3.5      2.365      3.252
REMARK  1 active torsions:
REMARK  status: ('A' for Active; 'I' for Inactive)
REMARK    1  A    between atoms: C2_2  and  C6_6 
ROOT
HETATM    1  C1  UNL     1     -36.307  15.593  -3.602  1.00 20.00     0.071 C 
HETATM    2  C2  UNL     1     -35.092  15.079  -3.870  1.00 20.00     0.003 C 
HETATM    3 BR7  UNL     1     -37.973  14.836  -3.930  1.00 20.00    -0.062 Br
HETATM    4 BR8  UNL     1     -34.920  13.373  -4.682  1.00 20.00    -0.054 Br
ENDROOT
BRANCH   2   5
HETATM    5  C6  UNL     1     -33.756  15.792  -3.558  1.00 20.00    -0.017 C 
HETATM    6  C3  UNL     1     -33.391  16.878  -4.603  1.00 20.00     0.020 C 
HETATM    7  C4  UNL     1     -33.826  16.508  -2.190  1.00 20.00     0.020 C 
HETATM    8  C5  UNL     1     -32.588  14.782  -3.547  1.00 20.00     0.020 C 
ENDBRANCH   2   5
TORSDOF 1
ENDMDL
MODEL 3
REMARK VINA RESULT:      -3.5      2.364      3.138
REMARK  1 active torsions:
REMARK  status: ('A' for Active; 'I' for Inactive)
REMARK    1  A    between atoms: C2_2  and  C6_6 
ROOT
HETATM    1  C1  UNL     1     -36.324  15.610  -3.680  1.00 20.00     0.071 C 
HETATM    2  C2  UNL     1     -35.103  15.092  -3.909  1.00 20.00     0.003 C 
HETATM    3 BR7  UNL     1     -37.981  14.841  -4.027  1.00 20.00    -0.062 Br
HETATM    4 BR8  UNL     1     -34.910  13.369  -4.680  1.00 20.00    -0.054 Br
ENDROOT
BRANCH   2   5
HETATM    5  C6  UNL     1     -33.775  15.815  -3.584  1.00 20.00    -0.017 C 
HETATM    6  C3  UNL     1     -33.792  16.519  -2.203  1.00 20.00     0.020 C 
HETATM    7  C4  UNL     1     -32.602  14.809  -3.548  1.00 20.00     0.020 C 
HETATM    8  C5  UNL     1     -33.478  16.909  -4.632  1.00 20.00     0.020 C 
ENDBRANCH   2   5
TORSDOF 1
ENDMDL
MODEL 4
REMARK VINA RESULT:      -3.5      2.459      3.186
REMARK  1 active torsions:
REMARK  status: ('A' for Active; 'I' for Inactive)
REMARK    1  A    between atoms: C2_2  and  C6_6 
ROOT
HETATM    1  C1  UNL     1     -34.995  15.583  -2.744  1.00 20.00     0.071 C 
HETATM    2  C2  UNL     1     -34.687  15.748  -4.044  1.00 20.00     0.003 C 
HETATM    3 BR7  UNL     1     -34.510  16.655  -1.305  1.00 20.00    -0.062 Br
HETATM    4 BR8  UNL     1     -33.632  17.219  -4.611  1.00 20.00    -0.054 Br
ENDROOT
BRANCH   2   5
HETATM    5  C6  UNL     1     -35.141  14.795  -5.174  1.00 20.00    -0.017 C 
HETATM    6  C3  UNL     1     -34.399  15.045  -6.512  1.00 20.00     0.020 C 
HETATM    7  C4  UNL     1     -34.866  13.323  -4.790  1.00 20.00     0.020 C 
HETATM    8  C5  UNL     1     -36.647  14.973  -5.467  1.00 20.00     0.020 C 
ENDBRANCH   2   5
TORSDOF 1
ENDMDL
MODEL 5
REMARK VINA RESULT:      -3.5      2.208      2.912
REMARK  1 active torsions:
REMARK  status: ('A' for Active; 'I' for Inactive)
REMARK    1  A    between atoms: C2_2  and  C6_6 
ROOT
HETATM    1  C1  UNL     1     -34.160  16.161  -2.162  1.00 20.00     0.071 C 
HETATM    2  C2  UNL     1     -34.151  16.058  -3.504  1.00 20.00     0.003 C 
HETATM    3 BR7  UNL     1     -33.768  17.652  -1.122  1.00 20.00    -0.062 Br
HETATM    4 BR8  UNL     1     -33.700  17.549  -4.588  1.00 20.00    -0.054 Br
ENDROOT
BRANCH   2   5
HETATM    5  C6  UNL     1     -34.493  14.766  -4.281  1.00 20.00    -0.017 C 
HETATM    6  C3  UNL     1     -35.936  14.263  -4.015  1.00 20.00     0.020 C 
HETATM    7  C4  UNL     1     -34.385  15.000  -5.805  1.00 20.00     0.020 C 
HETATM    8  C5  UNL     1     -33.546  13.617  -3.873  1.00 20.00     0.020 C 
ENDBRANCH   2   5
TORSDOF 1
ENDMDL
MODEL 6
REMARK VINA RESULT:      -3.4      2.442      3.145
REMARK  1 active torsions:
REMARK  status: ('A' for Active; 'I' for Inactive)
REMARK    1  A    between atoms: C2_2  and  C6_6 
ROOT
HETATM    1  C1  UNL     1     -36.470  15.724  -3.556  1.00 20.00     0.071 C 
HETATM    2  C2  UNL     1     -35.249  15.188  -3.734  1.00 20.00     0.003 C 
HETATM    3 BR7  UNL     1     -38.126  14.942  -3.877  1.00 20.00    -0.062 Br
HETATM    4 BR8  UNL     1     -35.053  13.418  -4.388  1.00 20.00    -0.054 Br
ENDROOT
BRANCH   2   5
HETATM    5  C6  UNL     1     -33.922  15.925  -3.437  1.00 20.00    -0.017 C 
HETATM    6  C3  UNL     1     -32.680  15.003  -3.543  1.00 20.00     0.020 C 
HETATM    7  C4  UNL     1     -33.700  17.076  -4.444  1.00 20.00     0.020 C 
HETATM    8  C5  UNL     1     -33.925  16.496  -2.002  1.00 20.00     0.020 C 
ENDBRANCH   2   5
TORSDOF 1
ENDMDL
MODEL 7
REMARK VINA RESULT:      -3.4      2.435      3.322
REMARK  1 active torsions:
REMARK  status: ('A' for Active; 'I' for Inactive)
REMARK    1  A    between atoms: C2_2  and  C6_6 
ROOT
HETATM    1  C1  UNL     1     -34.946  15.611  -2.709  1.00 20.00     0.071 C 
HETATM    2  C2  UNL     1     -34.661  15.777  -4.013  1.00 20.00     0.003 C 
HETATM    3 BR7  UNL     1     -34.461  16.697  -1.280  1.00 20.00    -0.062 Br
HETATM    4 BR8  UNL     1     -33.644  17.266  -4.601  1.00 20.00    -0.054 Br
ENDROOT
BRANCH   2   5
HETATM    5  C6  UNL     1     -35.113  14.811  -5.133  1.00 20.00    -0.017 C 
HETATM    6  C3  UNL     1     -34.834  13.323  -4.799  1.00 20.00     0.020 C 
HETATM    7  C4  UNL     1     -36.635  14.927  -5.372  1.00 20.00     0.020 C 
HETATM    8  C5  UNL     1     -34.365  15.114  -6.450  1.00 20.00     0.020 C 
ENDBRANCH   2   5
TORSDOF 1
ENDMDL
MODEL 8
REMARK VINA RESULT:      -3.4      1.014      2.367
REMARK  1 active torsions:
REMARK  status: ('A' for Active; 'I' for Inactive)
REMARK    1  A    between atoms: C2_2  and  C6_6 
ROOT
HETATM    1  C1  UNL     1     -34.862  15.171  -6.277  1.00 20.00     0.071 C 
HETATM    2  C2  UNL     1     -34.252  15.650  -5.177  1.00 20.00     0.003 C 
HETATM    3 BR7  UNL     1     -35.178  16.044  -7.888  1.00 20.00    -0.062 Br
HETATM    4 BR8  UNL     1     -33.585  17.426  -5.135  1.00 20.00    -0.054 Br
ENDROOT
BRANCH   2   5
HETATM    5  C6  UNL     1     -34.037  14.840  -3.878  1.00 20.00    -0.017 C 
HETATM    6  C3  UNL     1     -32.541  14.564  -3.577  1.00 20.00     0.020 C 
HETATM    7  C4  UNL     1     -34.594  15.608  -2.658  1.00 20.00     0.020 C 
HETATM    8  C5  UNL     1     -34.727  13.462  -3.973  1.00 20.00     0.020 C 
ENDBRANCH   2   5
TORSDOF 1
ENDMDL
MODEL 9
REMARK VINA RESULT:      -3.4      2.127      2.454
REMARK  1 active torsions:
REMARK  status: ('A' for Active; 'I' for Inactive)
REMARK    1  A    between atoms: C2_2  and  C6_6 
ROOT
HETATM    1  C1  UNL     1     -34.009  17.156  -4.698  1.00 20.00     0.071 C 
HETATM    2  C2  UNL     1     -34.329  16.102  -3.925  1.00 20.00     0.003 C 
HETATM    3 BR7  UNL     1     -33.689  18.911  -4.172  1.00 20.00    -0.062 Br
HETATM    4 BR8  UNL     1     -34.505  16.296  -2.046  1.00 20.00    -0.054 Br
ENDROOT
BRANCH   2   5
HETATM    5  C6  UNL     1     -34.577  14.673  -4.461  1.00 20.00    -0.017 C 
HETATM    6  C3  UNL     1     -35.981  14.125  -4.095  1.00 20.00     0.020 C 
HETATM    7  C4  UNL     1     -34.484  14.645  -6.003  1.00 20.00     0.020 C 
HETATM    8  C5  UNL     1     -33.551  13.682  -3.869  1.00 20.00     0.020 C 
ENDBRANCH   2   5
TORSDOF 1
ENDMDL
