MODEL 1
REMARK VINA RESULT:      -4.3      0.000      0.000
REMARK  0 active torsions:
REMARK  status: ('A' for Active; 'I' for Inactive)
ROOT
HETATM    1  C1  UNL     1     -34.560  13.149  -4.913  1.00 20.00     0.147 A 
HETATM    2  C2  UNL     1     -33.930  14.549  -3.427  1.00 20.00     0.214 A 
HETATM    3  C3  UNL     1     -34.470  14.358  -5.561  1.00 20.00     0.057 A 
HETATM    4  C4  UNL     1     -34.683  14.849  -6.875  1.00 20.00     0.033 A 
HETATM    5  C5  UNL     1     -34.482  16.157  -7.132  1.00 20.00     0.023 A 
HETATM    6  C6  UNL     1     -33.850  16.613  -4.843  1.00 20.00     0.117 A 
HETATM    7  C7  UNL     1     -34.051  17.085  -6.088  1.00 20.00     0.027 A 
HETATM    8  N8  UNL     1     -34.223  13.276  -3.588  1.00 20.00    -0.253 NA
HETATM    9  N9  UNL     1     -34.061  15.260  -4.592  1.00 20.00    -0.314 N 
HETATM   10 BR10 UNL     1     -33.799  18.874  -6.538  1.00 20.00    -0.050 Br
ENDROOT
TORSDOF 0
ENDMDL
MODEL 2
REMARK VINA RESULT:      -4.2      0.948      2.046
REMARK  0 active torsions:
REMARK  status: ('A' for Active; 'I' for Inactive)
ROOT
HETATM    1  C1  UNL     1     -34.286  13.632  -3.589  1.00 20.00     0.147 A 
HETATM    2  C2  UNL     1     -34.864  13.678  -5.645  1.00 20.00     0.214 A 
HETATM    3  C3  UNL     1     -34.076  14.926  -4.000  1.00 20.00     0.057 A 
HETATM    4  C4  UNL     1     -33.604  16.134  -3.424  1.00 20.00     0.033 A 
HETATM    5  C5  UNL     1     -33.540  17.247  -4.183  1.00 20.00     0.023 A 
HETATM    6  C6  UNL     1     -34.392  16.091  -6.129  1.00 20.00     0.117 A 
HETATM    7  C7  UNL     1     -33.944  17.239  -5.588  1.00 20.00     0.027 A 
HETATM    8  N8  UNL     1     -34.775  12.863  -4.616  1.00 20.00    -0.253 NA
HETATM    9  N9  UNL     1     -34.453  14.949  -5.333  1.00 20.00    -0.314 N 
HETATM   10 BR10 UNL     1     -33.819  18.824  -6.556  1.00 20.00    -0.050 Br
ENDROOT
TORSDOF 0
ENDMDL
MODEL 3
REMARK VINA RESULT:      -4.2      2.888      3.412
REMARK  0 active torsions:
REMARK  status: ('A' for Active; 'I' for Inactive)
ROOT
HETATM    1  C1  UNL     1     -33.618  13.667  -3.897  1.00 20.00     0.147 A 
HETATM    2  C2  UNL     1     -35.707  13.588  -4.338  1.00 20.00     0.214 A 
HETATM    3  C3  UNL     1     -34.148  14.822  -3.374  1.00 20.00     0.057 A 
HETATM    4  C4  UNL     1     -33.669  15.958  -2.670  1.00 20.00     0.033 A 
HETATM    5  C5  UNL     1     -34.535  16.927  -2.312  1.00 20.00     0.023 A 
HETATM    6  C6  UNL     1     -36.407  15.758  -3.299  1.00 20.00     0.117 A 
HETATM    7  C7  UNL     1     -35.958  16.837  -2.632  1.00 20.00     0.027 A 
HETATM    8  N8  UNL     1     -34.592  12.906  -4.494  1.00 20.00    -0.253 NA
HETATM    9  N9  UNL     1     -35.502  14.764  -3.662  1.00 20.00    -0.314 N 
HETATM   10 BR10 UNL     1     -37.077  18.225  -2.096  1.00 20.00    -0.050 Br
ENDROOT
TORSDOF 0
ENDMDL
MODEL 4
REMARK VINA RESULT:      -4.1      2.822      3.141
REMARK  0 active torsions:
REMARK  status: ('A' for Active; 'I' for Inactive)
ROOT
HETATM    1  C1  UNL     1     -35.760  13.570  -4.385  1.00 20.00     0.147 A 
HETATM    2  C2  UNL     1     -33.667  13.643  -3.963  1.00 20.00     0.214 A 
HETATM    3  C3  UNL     1     -35.566  14.738  -3.686  1.00 20.00     0.057 A 
HETATM    4  C4  UNL     1     -36.367  15.812  -3.219  1.00 20.00     0.033 A 
HETATM    5  C5  UNL     1     -35.787  16.821  -2.539  1.00 20.00     0.023 A 
HETATM    6  C6  UNL     1     -33.596  15.815  -2.715  1.00 20.00     0.117 A 
HETATM    7  C7  UNL     1     -34.351  16.836  -2.270  1.00 20.00     0.027 A 
HETATM    8  N8  UNL     1     -34.576  12.897  -4.553  1.00 20.00    -0.253 NA
HETATM    9  N9  UNL     1     -34.208  14.779  -3.416  1.00 20.00    -0.314 N 
HETATM   10 BR10 UNL     1     -33.639  18.273  -1.323  1.00 20.00    -0.050 Br
ENDROOT
TORSDOF 0
ENDMDL
MODEL 5
REMARK VINA RESULT:      -4.0      1.588      1.948
REMARK  0 active torsions:
REMARK  status: ('A' for Active; 'I' for Inactive)
ROOT
HETATM    1  C1  UNL     1     -34.771  13.769  -5.579  1.00 20.00     0.147 A 
HETATM    2  C2  UNL     1     -34.376  13.682  -3.482  1.00 20.00     0.214 A 
HETATM    3  C3  UNL     1     -34.536  15.067  -5.196  1.00 20.00     0.057 A 
HETATM    4  C4  UNL     1     -34.501  16.343  -5.818  1.00 20.00     0.033 A 
HETATM    5  C5  UNL     1     -34.223  17.432  -5.075  1.00 20.00     0.023 A 
HETATM    6  C6  UNL     1     -33.993  16.121  -3.056  1.00 20.00     0.117 A 
HETATM    7  C7  UNL     1     -33.958  17.333  -3.641  1.00 20.00     0.027 A 
HETATM    8  N8  UNL     1     -34.669  12.915  -4.510  1.00 20.00    -0.253 NA
HETATM    9  N9  UNL     1     -34.281  15.004  -3.836  1.00 20.00    -0.314 N 
HETATM   10 BR10 UNL     1     -33.584  18.894  -2.697  1.00 20.00    -0.050 Br
ENDROOT
TORSDOF 0
ENDMDL
MODEL 6
REMARK VINA RESULT:      -3.9      2.331      3.105
REMARK  0 active torsions:
REMARK  status: ('A' for Active; 'I' for Inactive)
ROOT
HETATM    1  C1  UNL     1     -34.436  14.755  -6.102  1.00 20.00     0.147 A 
HETATM    2  C2  UNL     1     -35.132  13.666  -4.401  1.00 20.00     0.214 A 
HETATM    3  C3  UNL     1     -34.250  15.592  -5.028  1.00 20.00     0.057 A 
HETATM    4  C4  UNL     1     -33.747  16.901  -4.808  1.00 20.00     0.033 A 
HETATM    5  C5  UNL     1     -33.727  17.399  -3.555  1.00 20.00     0.023 A 
HETATM    6  C6  UNL     1     -34.687  15.382  -2.630  1.00 20.00     0.117 A 
HETATM    7  C7  UNL     1     -34.212  16.623  -2.416  1.00 20.00     0.027 A 
HETATM    8  N8  UNL     1     -34.984  13.561  -5.704  1.00 20.00    -0.253 NA
HETATM    9  N9  UNL     1     -34.702  14.880  -3.929  1.00 20.00    -0.314 N 
HETATM   10 BR10 UNL     1     -34.145  17.395  -0.723  1.00 20.00    -0.050 Br
ENDROOT
TORSDOF 0
ENDMDL
MODEL 7
REMARK VINA RESULT:      -3.9      2.246      3.412
REMARK  0 active torsions:
REMARK  status: ('A' for Active; 'I' for Inactive)
ROOT
HETATM    1  C1  UNL     1     -34.789  14.505  -7.160  1.00 20.00     0.147 A 
HETATM    2  C2  UNL     1     -34.944  16.603  -6.788  1.00 20.00     0.214 A 
HETATM    3  C3  UNL     1     -34.705  14.643  -5.795  1.00 20.00     0.057 A 
HETATM    4  C4  UNL     1     -34.551  13.788  -4.673  1.00 20.00     0.033 A 
HETATM    5  C5  UNL     1     -34.510  14.322  -3.436  1.00 20.00     0.023 A 
HETATM    6  C6  UNL     1     -34.765  16.570  -4.289  1.00 20.00     0.117 A 
HETATM    7  C7  UNL     1     -34.618  15.764  -3.221  1.00 20.00     0.027 A 
HETATM    8  N8  UNL     1     -34.938  15.726  -7.769  1.00 20.00    -0.253 NA
HETATM    9  N9  UNL     1     -34.806  16.005  -5.561  1.00 20.00    -0.314 N 
HETATM   10 BR10 UNL     1     -34.550  16.409  -1.477  1.00 20.00    -0.050 Br
ENDROOT
TORSDOF 0
ENDMDL
MODEL 8
REMARK VINA RESULT:      -3.9     12.362     13.540
REMARK  0 active torsions:
REMARK  status: ('A' for Active; 'I' for Inactive)
ROOT
HETATM    1  C1  UNL     1     -35.200   4.546   5.510  1.00 20.00     0.147 A 
HETATM    2  C2  UNL     1     -34.139   6.157   6.427  1.00 20.00     0.214 A 
HETATM    3  C3  UNL     1     -34.533   5.176   4.487  1.00 20.00     0.057 A 
HETATM    4  C4  UNL     1     -34.400   5.018   3.083  1.00 20.00     0.033 A 
HETATM    5  C5  UNL     1     -33.622   5.876   2.393  1.00 20.00     0.023 A 
HETATM    6  C6  UNL     1     -33.041   7.112   4.388  1.00 20.00     0.117 A 
HETATM    7  C7  UNL     1     -32.911   6.968   3.056  1.00 20.00     0.027 A 
HETATM    8  N8  UNL     1     -34.949   5.161   6.712  1.00 20.00    -0.253 NA
HETATM    9  N9  UNL     1     -33.847   6.219   5.088  1.00 20.00    -0.314 N 
HETATM   10 BR10 UNL     1     -31.861   8.102   2.019  1.00 20.00    -0.050 Br
ENDROOT
TORSDOF 0
ENDMDL
MODEL 9
REMARK VINA RESULT:      -3.8     12.623     13.688
REMARK  0 active torsions:
REMARK  status: ('A' for Active; 'I' for Inactive)
ROOT
HETATM    1  C1  UNL     1     -41.918   7.573  -1.011  1.00 20.00     0.147 A 
HETATM    2  C2  UNL     1     -43.401   7.107  -2.476  1.00 20.00     0.214 A 
HETATM    3  C3  UNL     1     -41.691   6.263  -1.361  1.00 20.00     0.057 A 
HETATM    4  C4  UNL     1     -40.778   5.237  -1.003  1.00 20.00     0.033 A 
HETATM    5  C5  UNL     1     -40.879   4.028  -1.591  1.00 20.00     0.023 A 
HETATM    6  C6  UNL     1     -42.771   4.725  -2.926  1.00 20.00     0.117 A 
HETATM    7  C7  UNL     1     -41.909   3.747  -2.590  1.00 20.00     0.027 A 
HETATM    8  N8  UNL     1     -42.981   8.090  -1.708  1.00 20.00    -0.253 NA
HETATM    9  N9  UNL     1     -42.655   5.968  -2.310  1.00 20.00    -0.314 N 
HETATM   10 BR10 UNL     1     -41.971   2.048  -3.347  1.00 20.00    -0.050 Br
ENDROOT
TORSDOF 0
ENDMDL
