MODEL 1
REMARK VINA RESULT:      -5.1      0.000      0.000
REMARK  0 active torsions:
REMARK  status: ('A' for Active; 'I' for Inactive)
ROOT
HETATM    1  C1  UNL     1     -34.587  16.747  -6.047  1.00 20.00    -0.023 C 
HETATM    2  C2  UNL     1     -34.221  17.267  -4.866  1.00 20.00    -0.080 C 
HETATM    3  C3  UNL     1     -34.964  13.653  -4.904  1.00 20.00     0.127 C 
HETATM    4  C4  UNL     1     -34.225  15.400  -6.594  1.00 20.00     0.035 C 
HETATM    5  C5  UNL     1     -34.703  18.633  -4.434  1.00 20.00     0.034 C 
HETATM    6  C6  UNL     1     -35.260  14.342  -6.223  1.00 20.00     0.082 C 
HETATM    7  C7  UNL     1     -34.874  14.497  -3.647  1.00 20.00     0.079 C 
HETATM    8  C8  UNL     1     -34.056  18.844  -3.073  1.00 20.00     0.005 C 
HETATM    9  C9  UNL     1     -33.487  15.121  -3.503  1.00 20.00     0.016 C 
HETATM   10  C10 UNL     1     -33.881  17.434  -2.529  1.00 20.00     0.009 C 
HETATM   11  C11 UNL     1     -33.411  16.635  -3.753  1.00 20.00     0.014 C 
HETATM   12  O12 UNL     1     -34.816  12.431  -4.852  1.00 20.00    -0.298 OA
ENDROOT
TORSDOF 0
ENDMDL
MODEL 2
REMARK VINA RESULT:      -5.0      1.246      1.819
REMARK  0 active torsions:
REMARK  status: ('A' for Active; 'I' for Inactive)
ROOT
HETATM    1  C1  UNL     1     -33.648  17.705  -4.454  1.00 20.00    -0.023 C 
HETATM    2  C2  UNL     1     -33.818  17.443  -3.149  1.00 20.00    -0.080 C 
HETATM    3  C3  UNL     1     -35.134  14.931  -5.509  1.00 20.00     0.127 C 
HETATM    4  C4  UNL     1     -33.334  16.724  -5.542  1.00 20.00     0.035 C 
HETATM    5  C5  UNL     1     -34.173  18.542  -2.174  1.00 20.00     0.034 C 
HETATM    6  C6  UNL     1     -34.601  16.177  -6.192  1.00 20.00     0.082 C 
HETATM    7  C7  UNL     1     -35.512  15.010  -4.043  1.00 20.00     0.079 C 
HETATM    8  C8  UNL     1     -34.252  17.835  -0.828  1.00 20.00     0.005 C 
HETATM    9  C9  UNL     1     -34.284  14.839  -3.150  1.00 20.00     0.016 C 
HETATM   10  C10 UNL     1     -34.646  16.411  -1.187  1.00 20.00     0.009 C 
HETATM   11  C11 UNL     1     -33.801  16.109  -2.433  1.00 20.00     0.014 C 
HETATM   12  O12 UNL     1     -35.272  13.879  -6.137  1.00 20.00    -0.298 OA
ENDROOT
TORSDOF 0
ENDMDL
MODEL 3
REMARK VINA RESULT:      -5.0      1.211      2.804
REMARK  0 active torsions:
REMARK  status: ('A' for Active; 'I' for Inactive)
ROOT
HETATM    1  C1  UNL     1     -33.549  16.690  -4.066  1.00 20.00    -0.023 C 
HETATM    2  C2  UNL     1     -34.173  17.232  -5.123  1.00 20.00    -0.080 C 
HETATM    3  C3  UNL     1     -34.455  13.572  -4.754  1.00 20.00     0.127 C 
HETATM    4  C4  UNL     1     -34.026  15.550  -3.219  1.00 20.00     0.035 C 
HETATM    5  C5  UNL     1     -33.541  18.359  -5.907  1.00 20.00     0.034 C 
HETATM    6  C6  UNL     1     -33.523  14.208  -3.741  1.00 20.00     0.082 C 
HETATM    7  C7  UNL     1     -34.777  14.332  -6.026  1.00 20.00     0.079 C 
HETATM    8  C8  UNL     1     -34.565  18.683  -6.986  1.00 20.00     0.005 C 
HETATM    9  C9  UNL     1     -35.899  15.342  -5.793  1.00 20.00     0.016 C 
HETATM   10  C10 UNL     1     -35.295  17.367  -7.203  1.00 20.00     0.009 C 
HETATM   11  C11 UNL     1     -35.473  16.818  -5.780  1.00 20.00     0.014 C 
HETATM   12  O12 UNL     1     -34.932  12.452  -4.554  1.00 20.00    -0.298 OA
ENDROOT
TORSDOF 0
ENDMDL
MODEL 4
REMARK VINA RESULT:      -4.8      2.080      4.221
REMARK  0 active torsions:
REMARK  status: ('A' for Active; 'I' for Inactive)
ROOT
HETATM    1  C1  UNL     1     -34.692  14.265  -4.345  1.00 20.00    -0.023 C 
HETATM    2  C2  UNL     1     -34.603  14.772  -5.585  1.00 20.00    -0.080 C 
HETATM    3  C3  UNL     1     -34.258  17.173  -2.805  1.00 20.00     0.127 C 
HETATM    4  C4  UNL     1     -33.906  14.679  -3.139  1.00 20.00     0.035 C 
HETATM    5  C5  UNL     1     -35.499  14.273  -6.696  1.00 20.00     0.034 C 
HETATM    6  C6  UNL     1     -34.618  15.772  -2.348  1.00 20.00     0.082 C 
HETATM    7  C7  UNL     1     -34.532  17.562  -4.245  1.00 20.00     0.079 C 
HETATM    8  C8  UNL     1     -35.068  15.080  -7.912  1.00 20.00     0.005 C 
HETATM    9  C9  UNL     1     -33.405  17.093  -5.165  1.00 20.00     0.016 C 
HETATM   10  C10 UNL     1     -34.542  16.378  -7.322  1.00 20.00     0.009 C 
HETATM   11  C11 UNL     1     -33.750  15.916  -6.090  1.00 20.00     0.014 C 
HETATM   12  O12 UNL     1     -33.766  17.984  -2.018  1.00 20.00    -0.298 OA
ENDROOT
TORSDOF 0
ENDMDL
MODEL 5
REMARK VINA RESULT:      -4.8      1.259      1.880
REMARK  0 active torsions:
REMARK  status: ('A' for Active; 'I' for Inactive)
ROOT
HETATM    1  C1  UNL     1     -35.941  15.329  -5.751  1.00 20.00    -0.023 C 
HETATM    2  C2  UNL     1     -35.541  16.562  -5.406  1.00 20.00    -0.080 C 
HETATM    3  C3  UNL     1     -33.684  13.756  -3.893  1.00 20.00     0.127 C 
HETATM    4  C4  UNL     1     -35.075  14.129  -5.986  1.00 20.00     0.035 C 
HETATM    5  C5  UNL     1     -36.544  17.666  -5.164  1.00 20.00     0.034 C 
HETATM    6  C6  UNL     1     -34.882  13.313  -4.712  1.00 20.00     0.082 C 
HETATM    7  C7  UNL     1     -33.635  15.186  -3.392  1.00 20.00     0.079 C 
HETATM    8  C8  UNL     1     -35.689  18.878  -4.821  1.00 20.00     0.005 C 
HETATM    9  C9  UNL     1     -33.104  16.128  -4.471  1.00 20.00     0.016 C 
HETATM   10  C10 UNL     1     -34.433  18.278  -4.210  1.00 20.00     0.009 C 
HETATM   11  C11 UNL     1     -34.144  17.064  -5.105  1.00 20.00     0.014 C 
HETATM   12  O12 UNL     1     -32.776  12.965  -3.627  1.00 20.00    -0.298 OA
ENDROOT
TORSDOF 0
ENDMDL
MODEL 6
REMARK VINA RESULT:      -4.8      1.363      2.586
REMARK  0 active torsions:
REMARK  status: ('A' for Active; 'I' for Inactive)
ROOT
HETATM    1  C1  UNL     1     -34.824  14.768  -3.085  1.00 20.00    -0.023 C 
HETATM    2  C2  UNL     1     -34.617  16.090  -2.984  1.00 20.00    -0.080 C 
HETATM    3  C3  UNL     1     -34.617  14.687  -6.397  1.00 20.00     0.127 C 
HETATM    4  C4  UNL     1     -35.605  14.052  -4.144  1.00 20.00     0.035 C 
HETATM    5  C5  UNL     1     -33.767  16.662  -1.873  1.00 20.00     0.034 C 
HETATM    6  C6  UNL     1     -34.719  13.631  -5.312  1.00 20.00     0.082 C 
HETATM    7  C7  UNL     1     -34.072  16.055  -6.032  1.00 20.00     0.079 C 
HETATM    8  C8  UNL     1     -33.804  18.165  -2.112  1.00 20.00     0.005 C 
HETATM    9  C9  UNL     1     -35.164  16.938  -5.430  1.00 20.00     0.016 C 
HETATM   10  C10 UNL     1     -34.017  18.292  -3.612  1.00 20.00     0.009 C 
HETATM   11  C11 UNL     1     -35.050  17.199  -3.920  1.00 20.00     0.014 C 
HETATM   12  O12 UNL     1     -34.956  14.435  -7.555  1.00 20.00    -0.298 OA
ENDROOT
TORSDOF 0
ENDMDL
MODEL 7
REMARK VINA RESULT:      -4.8      1.902      3.917
REMARK  0 active torsions:
REMARK  status: ('A' for Active; 'I' for Inactive)
ROOT
HETATM    1  C1  UNL     1     -34.286  17.550  -5.018  1.00 20.00    -0.023 C 
HETATM    2  C2  UNL     1     -34.711  16.400  -5.564  1.00 20.00    -0.080 C 
HETATM    3  C3  UNL     1     -34.366  16.440  -1.891  1.00 20.00     0.127 C 
HETATM    4  C4  UNL     1     -34.735  18.159  -3.725  1.00 20.00     0.035 C 
HETATM    5  C5  UNL     1     -34.129  15.894  -6.864  1.00 20.00     0.034 C 
HETATM    6  C6  UNL     1     -33.865  17.708  -2.555  1.00 20.00     0.082 C 
HETATM    7  C7  UNL     1     -34.491  15.181  -2.726  1.00 20.00     0.079 C 
HETATM    8  C8  UNL     1     -34.884  14.600  -7.131  1.00 20.00     0.005 C 
HETATM    9  C9  UNL     1     -35.809  15.163  -3.499  1.00 20.00     0.016 C 
HETATM   10  C10 UNL     1     -35.266  14.107  -5.745  1.00 20.00     0.009 C 
HETATM   11  C11 UNL     1     -35.694  15.388  -5.015  1.00 20.00     0.014 C 
HETATM   12  O12 UNL     1     -34.652  16.429  -0.691  1.00 20.00    -0.298 OA
ENDROOT
TORSDOF 0
ENDMDL
MODEL 8
REMARK VINA RESULT:      -4.7      2.115      2.912
REMARK  0 active torsions:
REMARK  status: ('A' for Active; 'I' for Inactive)
ROOT
HETATM    1  C1  UNL     1     -34.057  14.337  -4.228  1.00 20.00    -0.023 C 
HETATM    2  C2  UNL     1     -34.596  15.161  -3.316  1.00 20.00    -0.080 C 
HETATM    3  C3  UNL     1     -36.263  15.044  -6.606  1.00 20.00     0.127 C 
HETATM    4  C4  UNL     1     -34.785  13.498  -5.233  1.00 20.00     0.035 C 
HETATM    5  C5  UNL     1     -33.723  15.977  -2.391  1.00 20.00     0.034 C 
HETATM    6  C6  UNL     1     -34.978  14.238  -6.553  1.00 20.00     0.082 C 
HETATM    7  C7  UNL     1     -36.483  16.130  -5.571  1.00 20.00     0.079 C 
HETATM    8  C8  UNL     1     -34.711  16.743  -1.524  1.00 20.00     0.005 C 
HETATM    9  C9  UNL     1     -37.033  15.547  -4.270  1.00 20.00     0.016 C 
HETATM   10  C10 UNL     1     -35.939  16.886  -2.409  1.00 20.00     0.009 C 
HETATM   11  C11 UNL     1     -36.051  15.514  -3.090  1.00 20.00     0.014 C 
HETATM   12  O12 UNL     1     -37.105  14.830  -7.480  1.00 20.00    -0.298 OA
ENDROOT
TORSDOF 0
ENDMDL
MODEL 9
REMARK VINA RESULT:      -4.7      2.358      4.220
REMARK  0 active torsions:
REMARK  status: ('A' for Active; 'I' for Inactive)
ROOT
HETATM    1  C1  UNL     1     -35.124  16.901  -5.207  1.00 20.00    -0.023 C 
HETATM    2  C2  UNL     1     -35.028  15.618  -4.825  1.00 20.00    -0.080 C 
HETATM    3  C3  UNL     1     -33.959  18.145  -2.358  1.00 20.00     0.127 C 
HETATM    4  C4  UNL     1     -35.523  18.070  -4.359  1.00 20.00     0.035 C 
HETATM    5  C5  UNL     1     -34.570  14.551  -5.792  1.00 20.00     0.034 C 
HETATM    6  C6  UNL     1     -34.314  18.736  -3.709  1.00 20.00     0.082 C 
HETATM    7  C7  UNL     1     -33.619  16.670  -2.276  1.00 20.00     0.079 C 
HETATM    8  C8  UNL     1     -34.619  13.265  -4.979  1.00 20.00     0.005 C 
HETATM    9  C9  UNL     1     -34.886  15.819  -2.191  1.00 20.00     0.016 C 
HETATM   10  C10 UNL     1     -34.392  13.729  -3.549  1.00 20.00     0.009 C 
HETATM   11  C11 UNL     1     -35.230  15.012  -3.452  1.00 20.00     0.014 C 
HETATM   12  O12 UNL     1     -33.933  18.853  -1.349  1.00 20.00    -0.298 OA
ENDROOT
TORSDOF 0
ENDMDL
