MODEL 1
REMARK VINA RESULT:      -4.9      0.000      0.000
REMARK  2 active torsions:
REMARK  status: ('A' for Active; 'I' for Inactive)
REMARK    1  A    between atoms: C1_1  and  C2_2 
REMARK    2  A    between atoms: C1_1  and  C3_3 
ROOT
HETATM    1  C1  UNL     1     -33.783   6.265   3.723  1.00 20.00     0.386 C 
HETATM    2  F4  UNL     1     -34.149   5.493   2.657  1.00 20.00    -0.191 F 
HETATM    3  F5  UNL     1     -34.598   7.358   3.684  1.00 20.00    -0.191 F 
ENDROOT
BRANCH   1   4
HETATM    4  C2  UNL     1     -32.357   6.739   3.474  1.00 20.00     0.390 C 
HETATM    5  F6  UNL     1     -31.588   5.652   3.194  1.00 20.00    -0.181 F 
HETATM    6  F7  UNL     1     -31.834   7.289   4.598  1.00 20.00    -0.181 F 
HETATM    7 CL9  UNL     1     -32.218   7.887   2.134  1.00 20.00    -0.042 Cl
ENDBRANCH   1   4
BRANCH   1   8
HETATM    8  C3  UNL     1     -34.071   5.491   5.012  1.00 20.00     0.328 C 
HETATM    9  F8  UNL     1     -33.058   4.619   5.257  1.00 20.00    -0.200 F 
HETATM   10 CL10 UNL     1     -35.598   4.576   4.927  1.00 20.00    -0.059 Cl
HETATM   11 CL11 UNL     1     -34.162   6.620   6.398  1.00 20.00    -0.059 Cl
ENDBRANCH   1   8
TORSDOF 2
ENDMDL
MODEL 2
REMARK VINA RESULT:      -4.9      0.765      1.504
REMARK  2 active torsions:
REMARK  status: ('A' for Active; 'I' for Inactive)
REMARK    1  A    between atoms: C1_1  and  C2_2 
REMARK    2  A    between atoms: C1_1  and  C3_3 
ROOT
HETATM    1  C1  UNL     1     -33.536   6.550   4.314  1.00 20.00     0.386 C 
HETATM    2  F4  UNL     1     -34.385   7.564   3.974  1.00 20.00    -0.191 F 
HETATM    3  F5  UNL     1     -32.728   7.057   5.290  1.00 20.00    -0.191 F 
ENDROOT
BRANCH   1   4
HETATM    4  C2  UNL     1     -32.666   6.256   3.098  1.00 20.00     0.390 C 
HETATM    5  F6  UNL     1     -33.375   5.467   2.246  1.00 20.00    -0.181 F 
HETATM    6  F7  UNL     1     -31.574   5.537   3.455  1.00 20.00    -0.181 F 
HETATM    7 CL9  UNL     1     -32.157   7.711   2.226  1.00 20.00    -0.042 Cl
ENDBRANCH   1   4
BRANCH   1   8
HETATM    8  C3  UNL     1     -34.354   5.402   4.909  1.00 20.00     0.328 C 
HETATM    9  F8  UNL     1     -33.637   4.250   4.847  1.00 20.00    -0.200 F 
HETATM   10 CL10 UNL     1     -35.898   5.155   4.054  1.00 20.00    -0.059 Cl
HETATM   11 CL11 UNL     1     -34.707   5.730   6.633  1.00 20.00    -0.059 Cl
ENDBRANCH   1   8
TORSDOF 2
ENDMDL
MODEL 3
REMARK VINA RESULT:      -4.7      2.090      3.581
REMARK  2 active torsions:
REMARK  status: ('A' for Active; 'I' for Inactive)
REMARK    1  A    between atoms: C1_1  and  C2_2 
REMARK    2  A    between atoms: C1_1  and  C3_3 
ROOT
HETATM    1  C1  UNL     1     -34.954   4.931   4.535  1.00 20.00     0.386 C 
HETATM    2  F4  UNL     1     -36.282   5.207   4.375  1.00 20.00    -0.191 F 
HETATM    3  F5  UNL     1     -34.805   3.619   4.190  1.00 20.00    -0.191 F 
ENDROOT
BRANCH   1   4
HETATM    4  C2  UNL     1     -34.638   5.059   6.020  1.00 20.00     0.390 C 
HETATM    5  F6  UNL     1     -33.701   4.125   6.340  1.00 20.00    -0.181 F 
HETATM    6  F7  UNL     1     -35.730   4.767   6.767  1.00 20.00    -0.181 F 
HETATM    7 CL9  UNL     1     -34.019   6.655   6.476  1.00 20.00    -0.042 Cl
ENDBRANCH   1   4
BRANCH   1   8
HETATM    8  C3  UNL     1     -34.152   5.785   3.551  1.00 20.00     0.328 C 
HETATM    9  F8  UNL     1     -34.546   7.082   3.645  1.00 20.00    -0.200 F 
HETATM   10 CL10 UNL     1     -34.359   5.252   1.864  1.00 20.00    -0.059 Cl
HETATM   11 CL11 UNL     1     -32.410   5.718   3.957  1.00 20.00    -0.059 Cl
ENDBRANCH   1   8
TORSDOF 2
ENDMDL
MODEL 4
REMARK VINA RESULT:      -4.6      1.997      2.761
REMARK  2 active torsions:
REMARK  status: ('A' for Active; 'I' for Inactive)
REMARK    1  A    between atoms: C1_1  and  C2_2 
REMARK    2  A    between atoms: C1_1  and  C3_3 
ROOT
HETATM    1  C1  UNL     1     -34.956   4.969   4.478  1.00 20.00     0.386 C 
HETATM    2  F4  UNL     1     -34.808   3.657   4.128  1.00 20.00    -0.191 F 
HETATM    3  F5  UNL     1     -36.276   5.255   4.286  1.00 20.00    -0.191 F 
ENDROOT
BRANCH   1   4
HETATM    4  C2  UNL     1     -34.152   5.799   3.485  1.00 20.00     0.390 C 
HETATM    5  F6  UNL     1     -34.566   7.093   3.576  1.00 20.00    -0.181 F 
HETATM    6  F7  UNL     1     -34.417   5.410   2.214  1.00 20.00    -0.181 F 
HETATM    7 CL9  UNL     1     -32.406   5.745   3.769  1.00 20.00    -0.042 Cl
ENDBRANCH   1   4
BRANCH   1   8
HETATM    8  C3  UNL     1     -34.638   5.120   5.967  1.00 20.00     0.328 C 
HETATM    9  F8  UNL     1     -35.769   4.935   6.697  1.00 20.00    -0.200 F 
HETATM   10 CL10 UNL     1     -33.967   6.723   6.359  1.00 20.00    -0.059 Cl
HETATM   11 CL11 UNL     1     -33.458   3.873   6.472  1.00 20.00    -0.059 Cl
ENDBRANCH   1   8
TORSDOF 2
ENDMDL
MODEL 5
REMARK VINA RESULT:      -4.6      1.515      2.145
REMARK  2 active torsions:
REMARK  status: ('A' for Active; 'I' for Inactive)
REMARK    1  A    between atoms: C1_1  and  C2_2 
REMARK    2  A    between atoms: C1_1  and  C3_3 
ROOT
HETATM    1  C1  UNL     1     -33.746   6.535   4.073  1.00 20.00     0.386 C 
HETATM    2  F4  UNL     1     -34.405   7.717   3.892  1.00 20.00    -0.191 F 
HETATM    3  F5  UNL     1     -33.506   6.448   5.413  1.00 20.00    -0.191 F 
ENDROOT
BRANCH   1   4
HETATM    4  C2  UNL     1     -32.400   6.651   3.368  1.00 20.00     0.390 C 
HETATM    5  F6  UNL     1     -32.619   7.098   2.101  1.00 20.00    -0.181 F 
HETATM    6  F7  UNL     1     -31.821   5.433   3.241  1.00 20.00    -0.181 F 
HETATM    7 CL9  UNL     1     -31.276   7.760   4.168  1.00 20.00    -0.042 Cl
ENDBRANCH   1   4
BRANCH   1   8
HETATM    8  C3  UNL     1     -34.674   5.388   3.670  1.00 20.00     0.328 C 
HETATM    9  F8  UNL     1     -34.195   4.783   2.551  1.00 20.00    -0.200 F 
HETATM   10 CL10 UNL     1     -36.337   5.942   3.346  1.00 20.00    -0.059 Cl
HETATM   11 CL11 UNL     1     -34.730   4.158   4.969  1.00 20.00    -0.059 Cl
ENDBRANCH   1   8
TORSDOF 2
ENDMDL
MODEL 6
REMARK VINA RESULT:      -4.6      1.413      3.539
REMARK  2 active torsions:
REMARK  status: ('A' for Active; 'I' for Inactive)
REMARK    1  A    between atoms: C1_1  and  C2_2 
REMARK    2  A    between atoms: C1_1  and  C3_3 
ROOT
HETATM    1  C1  UNL     1     -33.787   6.604   4.061  1.00 20.00     0.386 C 
HETATM    2  F4  UNL     1     -33.656   6.524   5.418  1.00 20.00    -0.191 F 
HETATM    3  F5  UNL     1     -34.505   7.741   3.826  1.00 20.00    -0.191 F 
ENDROOT
BRANCH   1   4
HETATM    4  C2  UNL     1     -34.634   5.419   3.614  1.00 20.00     0.390 C 
HETATM    5  F6  UNL     1     -34.092   4.912   2.473  1.00 20.00    -0.181 F 
HETATM    6  F7  UNL     1     -35.885   5.824   3.287  1.00 20.00    -0.181 F 
HETATM    7 CL9  UNL     1     -34.726   4.123   4.817  1.00 20.00    -0.042 Cl
ENDBRANCH   1   4
BRANCH   1   8
HETATM    8  C3  UNL     1     -32.397   6.771   3.442  1.00 20.00     0.328 C 
HETATM    9  F8  UNL     1     -31.836   5.550   3.243  1.00 20.00    -0.200 F 
HETATM   10 CL10 UNL     1     -31.307   7.735   4.471  1.00 20.00    -0.059 Cl
HETATM   11 CL11 UNL     1     -32.528   7.574   1.848  1.00 20.00    -0.059 Cl
ENDBRANCH   1   8
TORSDOF 2
ENDMDL
MODEL 7
REMARK VINA RESULT:      -4.5      1.452      3.625
REMARK  2 active torsions:
REMARK  status: ('A' for Active; 'I' for Inactive)
REMARK    1  A    between atoms: C1_1  and  C2_2 
REMARK    2  A    between atoms: C1_1  and  C3_3 
ROOT
HETATM    1  C1  UNL     1     -33.794   6.418   4.372  1.00 20.00     0.386 C 
HETATM    2  F4  UNL     1     -33.017   6.867   5.401  1.00 20.00    -0.191 F 
HETATM    3  F5  UNL     1     -34.636   7.447   4.068  1.00 20.00    -0.191 F 
ENDROOT
BRANCH   1   4
HETATM    4  C2  UNL     1     -34.639   5.269   4.908  1.00 20.00     0.390 C 
HETATM    5  F6  UNL     1     -33.983   4.103   4.656  1.00 20.00    -0.181 F 
HETATM    6  F7  UNL     1     -35.815   5.190   4.239  1.00 20.00    -0.181 F 
HETATM    7 CL9  UNL     1     -34.953   5.374   6.647  1.00 20.00    -0.042 Cl
ENDBRANCH   1   4
BRANCH   1   8
HETATM    8  C3  UNL     1     -32.898   6.150   3.161  1.00 20.00     0.328 C 
HETATM    9  F8  UNL     1     -31.813   5.428   3.545  1.00 20.00    -0.200 F 
HETATM   10 CL10 UNL     1     -32.333   7.653   2.389  1.00 20.00    -0.059 Cl
HETATM   11 CL11 UNL     1     -33.786   5.186   1.942  1.00 20.00    -0.059 Cl
ENDBRANCH   1   8
TORSDOF 2
ENDMDL
MODEL 8
REMARK VINA RESULT:      -4.5      1.798      3.211
REMARK  2 active torsions:
REMARK  status: ('A' for Active; 'I' for Inactive)
REMARK    1  A    between atoms: C1_1  and  C2_2 
REMARK    2  A    between atoms: C1_1  and  C3_3 
ROOT
HETATM    1  C1  UNL     1     -34.046   6.125   4.726  1.00 20.00     0.386 C 
HETATM    2  F4  UNL     1     -32.747   5.994   4.328  1.00 20.00    -0.191 F 
HETATM    3  F5  UNL     1     -34.415   7.390   4.372  1.00 20.00    -0.191 F 
ENDROOT
BRANCH   1   4
HETATM    4  C2  UNL     1     -34.067   6.045   6.248  1.00 20.00     0.390 C 
HETATM    5  F6  UNL     1     -33.296   4.991   6.631  1.00 20.00    -0.181 F 
HETATM    6  F7  UNL     1     -35.318   5.776   6.694  1.00 20.00    -0.181 F 
HETATM    7 CL9  UNL     1     -33.458   7.506   7.041  1.00 20.00    -0.042 Cl
ENDBRANCH   1   4
BRANCH   1   8
HETATM    8  C3  UNL     1     -34.904   5.131   3.940  1.00 20.00     0.328 C 
HETATM    9  F8  UNL     1     -36.169   5.612   3.824  1.00 20.00    -0.200 F 
HETATM   10 CL10 UNL     1     -34.975   3.531   4.720  1.00 20.00    -0.059 Cl
HETATM   11 CL11 UNL     1     -34.248   4.928   2.288  1.00 20.00    -0.059 Cl
ENDBRANCH   1   8
TORSDOF 2
ENDMDL
MODEL 9
REMARK VINA RESULT:      -4.4      9.298     10.437
REMARK  2 active torsions:
REMARK  status: ('A' for Active; 'I' for Inactive)
REMARK    1  A    between atoms: C1_1  and  C2_2 
REMARK    2  A    between atoms: C1_1  and  C3_3 
ROOT
HETATM    1  C1  UNL     1     -41.325   4.791  -1.339  1.00 20.00     0.386 C 
HETATM    2  F4  UNL     1     -40.110   4.168  -1.315  1.00 20.00    -0.191 F 
HETATM    3  F5  UNL     1     -41.146   5.919  -2.085  1.00 20.00    -0.191 F 
ENDROOT
BRANCH   1   4
HETATM    4  C2  UNL     1     -41.644   5.222   0.087  1.00 20.00     0.390 C 
HETATM    5  F6  UNL     1     -40.658   6.059   0.511  1.00 20.00    -0.181 F 
HETATM    6  F7  UNL     1     -41.618   4.157   0.925  1.00 20.00    -0.181 F 
HETATM    7 CL9  UNL     1     -43.197   6.059   0.241  1.00 20.00    -0.042 Cl
ENDBRANCH   1   4
BRANCH   1   8
HETATM    8  C3  UNL     1     -42.327   3.886  -2.060  1.00 20.00     0.328 C 
HETATM    9  F8  UNL     1     -43.107   3.251  -1.147  1.00 20.00    -0.200 F 
HETATM   10 CL10 UNL     1     -41.526   2.658  -3.073  1.00 20.00    -0.059 Cl
HETATM   11 CL11 UNL     1     -43.401   4.868  -3.102  1.00 20.00    -0.059 Cl
ENDBRANCH   1   8
TORSDOF 2
ENDMDL
