MODEL 1
REMARK VINA RESULT:      -4.8      0.000      0.000
REMARK  1 active torsions:
REMARK  status: ('A' for Active; 'I' for Inactive)
REMARK    1  A    between atoms: C1_1  and  C4_4 
ROOT
HETATM    1  C1  UNL     1     -33.716   6.170   4.983  1.00 20.00     0.102 C 
HETATM    2  C2  UNL     1     -33.461   6.162   3.662  1.00 20.00    -0.015 C 
HETATM    3  C3  UNL     1     -34.072   5.218   2.667  1.00 20.00     0.055 C 
HETATM    4  I8  UNL     1     -32.111   7.555   2.875  1.00 20.00    -0.050 I 
ENDROOT
BRANCH   1   5
HETATM    5  C4  UNL     1     -34.647   5.249   5.693  1.00 20.00     0.408 C 
HETATM    6  F5  UNL     1     -34.084   4.040   5.938  1.00 20.00    -0.167 F 
HETATM    7  F6  UNL     1     -35.785   5.027   4.991  1.00 20.00    -0.167 F 
HETATM    8  F7  UNL     1     -35.023   5.753   6.896  1.00 20.00    -0.167 F 
ENDBRANCH   1   5
TORSDOF 1
ENDMDL
MODEL 2
REMARK VINA RESULT:      -4.8      0.016      1.340
REMARK  1 active torsions:
REMARK  status: ('A' for Active; 'I' for Inactive)
REMARK    1  A    between atoms: C1_1  and  C4_4 
ROOT
HETATM    1  C1  UNL     1     -33.717   6.178   4.982  1.00 20.00     0.102 C 
HETATM    2  C2  UNL     1     -33.455   6.160   3.662  1.00 20.00    -0.015 C 
HETATM    3  C3  UNL     1     -34.060   5.208   2.671  1.00 20.00     0.055 C 
HETATM    4  I8  UNL     1     -32.102   7.548   2.871  1.00 20.00    -0.050 I 
ENDROOT
BRANCH   1   5
HETATM    5  C4  UNL     1     -34.651   5.262   5.694  1.00 20.00     0.408 C 
HETATM    6  F5  UNL     1     -35.790   5.042   4.991  1.00 20.00    -0.167 F 
HETATM    7  F6  UNL     1     -35.016   5.743   6.908  1.00 20.00    -0.167 F 
HETATM    8  F7  UNL     1     -34.086   4.047   5.910  1.00 20.00    -0.167 F 
ENDBRANCH   1   5
TORSDOF 1
ENDMDL
MODEL 3
REMARK VINA RESULT:      -4.5      3.595      3.952
REMARK  1 active torsions:
REMARK  status: ('A' for Active; 'I' for Inactive)
REMARK    1  A    between atoms: C1_1  and  C4_4 
ROOT
HETATM    1  C1  UNL     1     -32.919   6.437   4.377  1.00 20.00     0.102 C 
HETATM    2  C2  UNL     1     -34.001   5.650   4.229  1.00 20.00    -0.015 C 
HETATM    3  C3  UNL     1     -34.679   5.345   2.925  1.00 20.00     0.055 C 
HETATM    4  I8  UNL     1     -34.849   4.754   5.920  1.00 20.00    -0.050 I 
ENDROOT
BRANCH   1   5
HETATM    5  C4  UNL     1     -32.202   7.143   3.278  1.00 20.00     0.408 C 
HETATM    6  F5  UNL     1     -32.986   8.062   2.662  1.00 20.00    -0.167 F 
HETATM    7  F6  UNL     1     -31.759   6.289   2.322  1.00 20.00    -0.167 F 
HETATM    8  F7  UNL     1     -31.113   7.808   3.742  1.00 20.00    -0.167 F 
ENDBRANCH   1   5
TORSDOF 1
ENDMDL
MODEL 4
REMARK VINA RESULT:      -4.2      3.560      4.151
REMARK  1 active torsions:
REMARK  status: ('A' for Active; 'I' for Inactive)
REMARK    1  A    between atoms: C1_1  and  C4_4 
ROOT
HETATM    1  C1  UNL     1     -33.263   6.021   3.751  1.00 20.00     0.102 C 
HETATM    2  C2  UNL     1     -33.780   5.983   4.993  1.00 20.00    -0.015 C 
HETATM    3  C3  UNL     1     -33.582   7.034   6.046  1.00 20.00     0.055 C 
HETATM    4  I8  UNL     1     -34.962   4.350   5.556  1.00 20.00    -0.050 I 
ENDROOT
BRANCH   1   5
HETATM    5  C4  UNL     1     -32.406   7.109   3.200  1.00 20.00     0.408 C 
HETATM    6  F5  UNL     1     -31.445   7.497   4.074  1.00 20.00    -0.167 F 
HETATM    7  F6  UNL     1     -33.123   8.213   2.875  1.00 20.00    -0.167 F 
HETATM    8  F7  UNL     1     -31.767   6.713   2.070  1.00 20.00    -0.167 F 
ENDBRANCH   1   5
TORSDOF 1
ENDMDL
MODEL 5
REMARK VINA RESULT:      -4.0      8.917      9.746
REMARK  1 active torsions:
REMARK  status: ('A' for Active; 'I' for Inactive)
REMARK    1  A    between atoms: C1_1  and  C4_4 
ROOT
HETATM    1  C1  UNL     1     -41.409   6.752  -1.365  1.00 20.00     0.102 C 
HETATM    2  C2  UNL     1     -42.190   6.441  -2.415  1.00 20.00    -0.015 C 
HETATM    3  C3  UNL     1     -42.690   5.065  -2.746  1.00 20.00     0.055 C 
HETATM    4  I8  UNL     1     -42.786   7.958  -3.729  1.00 20.00    -0.050 I 
ENDROOT
BRANCH   1   5
HETATM    5  C4  UNL     1     -40.903   5.792  -0.344  1.00 20.00     0.408 C 
HETATM    6  F5  UNL     1     -40.180   4.789  -0.899  1.00 20.00    -0.167 F 
HETATM    7  F6  UNL     1     -41.907   5.219   0.364  1.00 20.00    -0.167 F 
HETATM    8  F7  UNL     1     -40.092   6.405   0.555  1.00 20.00    -0.167 F 
ENDBRANCH   1   5
TORSDOF 1
ENDMDL
MODEL 6
REMARK VINA RESULT:      -4.0      1.082      1.881
REMARK  1 active torsions:
REMARK  status: ('A' for Active; 'I' for Inactive)
REMARK    1  A    between atoms: C1_1  and  C4_4 
ROOT
HETATM    1  C1  UNL     1     -33.988   5.194   4.521  1.00 20.00     0.102 C 
HETATM    2  C2  UNL     1     -33.374   6.369   4.750  1.00 20.00    -0.015 C 
HETATM    3  C3  UNL     1     -33.340   7.088   6.067  1.00 20.00     0.055 C 
HETATM    4  I8  UNL     1     -32.370   7.318   3.177  1.00 20.00    -0.050 I 
ENDROOT
BRANCH   1   5
HETATM    5  C4  UNL     1     -34.740   4.397   5.531  1.00 20.00     0.408 C 
HETATM    6  F5  UNL     1     -35.366   3.328   4.977  1.00 20.00    -0.167 F 
HETATM    7  F6  UNL     1     -35.687   5.133   6.165  1.00 20.00    -0.167 F 
HETATM    8  F7  UNL     1     -33.916   3.909   6.493  1.00 20.00    -0.167 F 
ENDBRANCH   1   5
TORSDOF 1
ENDMDL
MODEL 7
REMARK VINA RESULT:      -3.9     12.075     12.640
REMARK  1 active torsions:
REMARK  status: ('A' for Active; 'I' for Inactive)
REMARK    1  A    between atoms: C1_1  and  C4_4 
ROOT
HETATM    1  C1  UNL     1     -34.169  14.710  -3.247  1.00 20.00     0.102 C 
HETATM    2  C2  UNL     1     -35.080  15.611  -2.835  1.00 20.00    -0.015 C 
HETATM    3  C3  UNL     1     -36.458  15.773  -3.408  1.00 20.00     0.055 C 
HETATM    4  I8  UNL     1     -34.590  16.918  -1.276  1.00 20.00    -0.050 I 
ENDROOT
BRANCH   1   5
HETATM    5  C4  UNL     1     -34.363  13.714  -4.338  1.00 20.00     0.408 C 
HETATM    6  F5  UNL     1     -34.506  14.305  -5.551  1.00 20.00    -0.167 F 
HETATM    7  F6  UNL     1     -35.457  12.939  -4.138  1.00 20.00    -0.167 F 
HETATM    8  F7  UNL     1     -33.302  12.873  -4.438  1.00 20.00    -0.167 F 
ENDBRANCH   1   5
TORSDOF 1
ENDMDL
MODEL 8
REMARK VINA RESULT:      -3.8     12.284     13.009
REMARK  1 active torsions:
REMARK  status: ('A' for Active; 'I' for Inactive)
REMARK    1  A    between atoms: C1_1  and  C4_4 
ROOT
HETATM    1  C1  UNL     1     -33.894  15.082  -4.743  1.00 20.00     0.102 C 
HETATM    2  C2  UNL     1     -33.827  16.233  -4.049  1.00 20.00    -0.015 C 
HETATM    3  C3  UNL     1     -33.733  16.339  -2.554  1.00 20.00     0.055 C 
HETATM    4  I8  UNL     1     -33.855  18.052  -5.084  1.00 20.00    -0.050 I 
ENDROOT
BRANCH   1   5
HETATM    5  C4  UNL     1     -33.884  13.712  -4.156  1.00 20.00     0.408 C 
HETATM    6  F5  UNL     1     -34.811  13.568  -3.177  1.00 20.00    -0.167 F 
HETATM    7  F6  UNL     1     -32.680  13.391  -3.621  1.00 20.00    -0.167 F 
HETATM    8  F7  UNL     1     -34.158  12.769  -5.094  1.00 20.00    -0.167 F 
ENDBRANCH   1   5
TORSDOF 1
ENDMDL
MODEL 9
REMARK VINA RESULT:      -3.8     12.386     12.922
REMARK  1 active torsions:
REMARK  status: ('A' for Active; 'I' for Inactive)
REMARK    1  A    between atoms: C1_1  and  C4_4 
ROOT
HETATM    1  C1  UNL     1     -34.719  15.587  -2.186  1.00 20.00     0.102 C 
HETATM    2  C2  UNL     1     -34.256  15.435  -3.441  1.00 20.00    -0.015 C 
HETATM    3  C3  UNL     1     -33.419  16.435  -4.183  1.00 20.00     0.055 C 
HETATM    4  I8  UNL     1     -34.712  13.682  -4.490  1.00 20.00    -0.050 I 
ENDROOT
BRANCH   1   5
HETATM    5  C4  UNL     1     -34.483  16.770  -1.312  1.00 20.00     0.408 C 
HETATM    6  F5  UNL     1     -33.168  17.091  -1.227  1.00 20.00    -0.167 F 
HETATM    7  F6  UNL     1     -34.930  16.572  -0.047  1.00 20.00    -0.167 F 
HETATM    8  F7  UNL     1     -35.122  17.871  -1.783  1.00 20.00    -0.167 F 
ENDBRANCH   1   5
TORSDOF 1
ENDMDL
