MODEL 1
REMARK VINA RESULT:      -4.5      0.000      0.000
REMARK  0 active torsions:
REMARK  status: ('A' for Active; 'I' for Inactive)
ROOT
HETATM    1  C1  UNL     1     -34.431  15.298  -6.125  1.00 20.00     0.006 C 
HETATM    2  C2  UNL     1     -34.012  16.176  -4.927  1.00 20.00     0.009 C 
HETATM    3  C3  UNL     1     -35.643  14.952  -3.454  1.00 20.00     0.014 C 
HETATM    4  C4  UNL     1     -33.380  14.114  -3.634  1.00 20.00     0.014 C 
HETATM    5  C5  UNL     1     -34.904  13.933  -5.712  1.00 20.00    -0.006 A 
HETATM    6  C6  UNL     1     -35.653  13.793  -4.413  1.00 20.00    -0.005 A 
HETATM    7  C7  UNL     1     -34.255  13.275  -4.524  1.00 20.00    -0.005 A 
HETATM    8  C8  UNL     1     -34.174  15.447  -3.568  1.00 20.00    -0.043 C 
HETATM    9  C9  UNL     1     -33.756  16.328  -2.402  1.00 20.00     0.015 C 
ENDROOT
TORSDOF 0
ENDMDL
MODEL 2
REMARK VINA RESULT:      -4.5      1.052      2.883
REMARK  0 active torsions:
REMARK  status: ('A' for Active; 'I' for Inactive)
ROOT
HETATM    1  C1  UNL     1     -33.306  13.685  -3.793  1.00 20.00     0.006 C 
HETATM    2  C2  UNL     1     -34.844  13.581  -3.867  1.00 20.00     0.009 C 
HETATM    3  C3  UNL     1     -35.057  15.652  -2.456  1.00 20.00     0.014 C 
HETATM    4  C4  UNL     1     -34.953  15.888  -4.862  1.00 20.00     0.014 C 
HETATM    5  C5  UNL     1     -32.823  15.099  -3.633  1.00 20.00    -0.006 A 
HETATM    6  C6  UNL     1     -33.655  16.057  -2.822  1.00 20.00    -0.005 A 
HETATM    7  C7  UNL     1     -33.591  16.202  -4.308  1.00 20.00    -0.005 A 
HETATM    8  C8  UNL     1     -35.540  14.962  -3.762  1.00 20.00    -0.043 C 
HETATM    9  C9  UNL     1     -37.054  14.838  -3.838  1.00 20.00     0.015 C 
ENDROOT
TORSDOF 0
ENDMDL
MODEL 3
REMARK VINA RESULT:      -4.4     10.859     12.232
REMARK  0 active torsions:
REMARK  status: ('A' for Active; 'I' for Inactive)
ROOT
HETATM    1  C1  UNL     1     -41.917   4.708  -2.293  1.00 20.00     0.006 C 
HETATM    2  C2  UNL     1     -42.789   5.979  -2.206  1.00 20.00     0.009 C 
HETATM    3  C3  UNL     1     -42.778   5.823   0.304  1.00 20.00     0.014 C 
HETATM    4  C4  UNL     1     -41.033   7.091  -0.792  1.00 20.00     0.014 C 
HETATM    5  C5  UNL     1     -41.032   4.525  -1.092  1.00 20.00    -0.006 A 
HETATM    6  C6  UNL     1     -41.543   4.965   0.254  1.00 20.00    -0.005 A 
HETATM    7  C7  UNL     1     -40.465   5.749  -0.423  1.00 20.00    -0.005 A 
HETATM    8  C8  UNL     1     -42.550   6.779  -0.900  1.00 20.00    -0.043 C 
HETATM    9  C9  UNL     1     -43.417   8.026  -0.835  1.00 20.00     0.015 C 
ENDROOT
TORSDOF 0
ENDMDL
MODEL 4
REMARK VINA RESULT:      -4.4     10.840     12.352
REMARK  0 active torsions:
REMARK  status: ('A' for Active; 'I' for Inactive)
ROOT
HETATM    1  C1  UNL     1     -43.010   5.393   0.555  1.00 20.00     0.006 C 
HETATM    2  C2  UNL     1     -43.414   6.446  -0.498  1.00 20.00     0.009 C 
HETATM    3  C3  UNL     1     -41.000   7.086  -0.793  1.00 20.00     0.014 C 
HETATM    4  C4  UNL     1     -41.920   5.336  -2.188  1.00 20.00     0.014 C 
HETATM    5  C5  UNL     1     -41.628   4.845   0.332  1.00 20.00    -0.006 A 
HETATM    6  C6  UNL     1     -40.570   5.763  -0.220  1.00 20.00    -0.005 A 
HETATM    7  C7  UNL     1     -41.138   4.682  -1.082  1.00 20.00    -0.005 A 
HETATM    8  C8  UNL     1     -42.302   6.699  -1.548  1.00 20.00    -0.043 C 
HETATM    9  C9  UNL     1     -42.720   7.739  -2.575  1.00 20.00     0.015 C 
ENDROOT
TORSDOF 0
ENDMDL
MODEL 5
REMARK VINA RESULT:      -4.3      0.912      2.958
REMARK  0 active torsions:
REMARK  status: ('A' for Active; 'I' for Inactive)
ROOT
HETATM    1  C1  UNL     1     -35.911  15.354  -3.270  1.00 20.00     0.006 C 
HETATM    2  C2  UNL     1     -36.260  15.108  -4.754  1.00 20.00     0.009 C 
HETATM    3  C3  UNL     1     -33.888  15.632  -5.405  1.00 20.00     0.014 C 
HETATM    4  C4  UNL     1     -34.474  13.343  -4.885  1.00 20.00     0.014 C 
HETATM    5  C5  UNL     1     -34.472  15.058  -2.953  1.00 20.00    -0.006 A 
HETATM    6  C6  UNL     1     -33.429  15.344  -4.001  1.00 20.00    -0.005 A 
HETATM    7  C7  UNL     1     -33.792  13.929  -3.680  1.00 20.00    -0.005 A 
HETATM    8  C8  UNL     1     -35.045  14.610  -5.578  1.00 20.00    -0.043 C 
HETATM    9  C9  UNL     1     -35.411  14.374  -7.035  1.00 20.00     0.015 C 
ENDROOT
TORSDOF 0
ENDMDL
MODEL 6
REMARK VINA RESULT:      -4.3     12.131     13.231
REMARK  0 active torsions:
REMARK  status: ('A' for Active; 'I' for Inactive)
ROOT
HETATM    1  C1  UNL     1     -34.399   6.081   6.553  1.00 20.00     0.006 C 
HETATM    2  C2  UNL     1     -33.552   6.775   5.465  1.00 20.00     0.009 C 
HETATM    3  C3  UNL     1     -33.190   4.563   4.326  1.00 20.00     0.014 C 
HETATM    4  C4  UNL     1     -35.105   5.899   3.692  1.00 20.00     0.014 C 
HETATM    5  C5  UNL     1     -35.093   4.847   6.052  1.00 20.00    -0.006 A 
HETATM    6  C6  UNL     1     -34.399   3.998   5.020  1.00 20.00    -0.005 A 
HETATM    7  C7  UNL     1     -35.582   4.823   4.628  1.00 20.00    -0.005 A 
HETATM    8  C8  UNL     1     -33.613   6.040   4.101  1.00 20.00    -0.043 C 
HETATM    9  C9  UNL     1     -32.774   6.741   3.044  1.00 20.00     0.015 C 
ENDROOT
TORSDOF 0
ENDMDL
MODEL 7
REMARK VINA RESULT:      -4.3     11.556     13.121
REMARK  0 active torsions:
REMARK  status: ('A' for Active; 'I' for Inactive)
ROOT
HETATM    1  C1  UNL     1     -43.051   5.049   0.323  1.00 20.00     0.006 C 
HETATM    2  C2  UNL     1     -43.023   3.923  -0.732  1.00 20.00     0.009 C 
HETATM    3  C3  UNL     1     -42.203   5.554  -2.461  1.00 20.00     0.014 C 
HETATM    4  C4  UNL     1     -40.578   4.352  -1.130  1.00 20.00     0.014 C 
HETATM    5  C5  UNL     1     -42.037   6.125   0.055  1.00 20.00    -0.006 A 
HETATM    6  C6  UNL     1     -41.720   6.476  -1.375  1.00 20.00    -0.005 A 
HETATM    7  C7  UNL     1     -40.717   5.734  -0.553  1.00 20.00    -0.005 A 
HETATM    8  C8  UNL     1     -41.952   4.157  -1.828  1.00 20.00    -0.043 C 
HETATM    9  C9  UNL     1     -41.941   3.037  -2.855  1.00 20.00     0.015 C 
ENDROOT
TORSDOF 0
ENDMDL
MODEL 8
REMARK VINA RESULT:      -4.3      0.946      2.846
REMARK  0 active torsions:
REMARK  status: ('A' for Active; 'I' for Inactive)
ROOT
HETATM    1  C1  UNL     1     -33.301  16.147  -4.304  1.00 20.00     0.006 C 
HETATM    2  C2  UNL     1     -33.837  15.814  -5.712  1.00 20.00     0.009 C 
HETATM    3  C3  UNL     1     -34.369  13.473  -4.962  1.00 20.00     0.014 C 
HETATM    4  C4  UNL     1     -36.061  15.187  -4.721  1.00 20.00     0.014 C 
HETATM    5  C5  UNL     1     -33.962  15.341  -3.222  1.00 20.00    -0.006 A 
HETATM    6  C6  UNL     1     -34.371  13.924  -3.527  1.00 20.00    -0.005 A 
HETATM    7  C7  UNL     1     -35.416  14.982  -3.378  1.00 20.00    -0.005 A 
HETATM    8  C8  UNL     1     -34.938  14.723  -5.689  1.00 20.00    -0.043 C 
HETATM    9  C9  UNL     1     -35.453  14.411  -7.086  1.00 20.00     0.015 C 
ENDROOT
TORSDOF 0
ENDMDL
MODEL 9
REMARK VINA RESULT:      -4.3     11.031     12.661
REMARK  0 active torsions:
REMARK  status: ('A' for Active; 'I' for Inactive)
ROOT
HETATM    1  C1  UNL     1     -41.130   7.118  -1.246  1.00 20.00     0.006 C 
HETATM    2  C2  UNL     1     -42.030   6.524  -2.350  1.00 20.00     0.009 C 
HETATM    3  C3  UNL     1     -41.136   4.227  -1.852  1.00 20.00     0.014 C 
HETATM    4  C4  UNL     1     -43.097   4.996  -0.662  1.00 20.00     0.014 C 
HETATM    5  C5  UNL     1     -40.841   6.142  -0.140  1.00 20.00    -0.006 A 
HETATM    6  C6  UNL     1     -40.700   4.683  -0.486  1.00 20.00    -0.005 A 
HETATM    7  C7  UNL     1     -41.912   5.158   0.249  1.00 20.00    -0.005 A 
HETATM    8  C8  UNL     1     -42.433   5.055  -2.065  1.00 20.00    -0.043 C 
HETATM    9  C9  UNL     1     -43.320   4.490  -3.164  1.00 20.00     0.015 C 
ENDROOT
TORSDOF 0
ENDMDL
