MODEL 1
REMARK VINA RESULT:      -5.8      0.000      0.000
REMARK  1 active torsions:
REMARK  status: ('A' for Active; 'I' for Inactive)
REMARK    1  A    between atoms: C7_7  and  O9_9 
ROOT
HETATM    1  C1  UNL     1     -33.869   5.247   3.020  1.00 20.00    -0.019 A 
HETATM    2  C2  UNL     1     -33.329   6.337   3.600  1.00 20.00    -0.080 A 
HETATM    3  C3  UNL     1     -35.259   4.237   4.977  1.00 20.00     0.012 C 
HETATM    4  C4  UNL     1     -34.273   4.678   6.053  1.00 20.00     0.033 C 
HETATM    5  C5  UNL     1     -35.124   5.285   3.868  1.00 20.00     0.019 A 
HETATM    6  C6  UNL     1     -34.519   6.548   4.529  1.00 20.00     0.050 A 
HETATM    7  C7  UNL     1     -34.368   6.199   6.011  1.00 20.00     0.127 C 
HETATM    8  C8  UNL     1     -32.005   7.100   3.399  1.00 20.00     0.043 C 
ENDROOT
BRANCH   7   9
HETATM    9  O9  UNL     1     -33.213   6.814   6.555  1.00 20.00    -0.395 OA
HETATM   10  H21 UNL     1     -32.696   7.161   5.807  1.00 20.00     0.210 HD
ENDBRANCH   7   9
TORSDOF 1
ENDMDL
MODEL 2
REMARK VINA RESULT:      -4.6      1.440      2.732
REMARK  1 active torsions:
REMARK  status: ('A' for Active; 'I' for Inactive)
REMARK    1  A    between atoms: C7_7  and  O9_9 
ROOT
HETATM    1  C1  UNL     1     -34.939   5.366   6.660  1.00 20.00    -0.019 A 
HETATM    2  C2  UNL     1     -33.942   6.210   6.330  1.00 20.00    -0.080 A 
HETATM    3  C3  UNL     1     -35.552   4.336   4.348  1.00 20.00     0.012 C 
HETATM    4  C4  UNL     1     -35.247   5.613   3.573  1.00 20.00     0.033 C 
HETATM    5  C5  UNL     1     -34.614   4.379   5.558  1.00 20.00     0.019 A 
HETATM    6  C6  UNL     1     -33.454   5.333   5.182  1.00 20.00     0.050 A 
HETATM    7  C7  UNL     1     -33.741   5.775   3.745  1.00 20.00     0.127 C 
HETATM    8  C8  UNL     1     -33.458   7.557   6.901  1.00 20.00     0.043 C 
ENDROOT
BRANCH   7   9
HETATM    9  O9  UNL     1     -33.328   7.115   3.541  1.00 20.00    -0.395 OA
HETATM   10  H21 UNL     1     -33.882   7.478   2.828  1.00 20.00     0.210 HD
ENDBRANCH   7   9
TORSDOF 1
ENDMDL
MODEL 3
REMARK VINA RESULT:      -4.4     12.057     12.756
REMARK  1 active torsions:
REMARK  status: ('A' for Active; 'I' for Inactive)
REMARK    1  A    between atoms: C7_7  and  O9_9 
ROOT
HETATM    1  C1  UNL     1     -33.279  15.459  -3.226  1.00 20.00    -0.019 A 
HETATM    2  C2  UNL     1     -34.351  16.010  -2.623  1.00 20.00    -0.080 A 
HETATM    3  C3  UNL     1     -34.398  13.966  -5.043  1.00 20.00     0.012 C 
HETATM    4  C4  UNL     1     -35.612  13.634  -4.182  1.00 20.00     0.033 C 
HETATM    5  C5  UNL     1     -33.956  15.356  -4.577  1.00 20.00     0.019 A 
HETATM    6  C6  UNL     1     -35.188  16.005  -3.898  1.00 20.00     0.050 A 
HETATM    7  C7  UNL     1     -36.315  14.979  -4.036  1.00 20.00     0.127 C 
HETATM    8  C8  UNL     1     -34.634  16.483  -1.184  1.00 20.00     0.043 C 
ENDROOT
BRANCH   7   9
HETATM    9  O9  UNL     1     -37.162  15.011  -2.900  1.00 20.00    -0.395 OA
HETATM   10  H21 UNL     1     -36.699  15.522  -2.214  1.00 20.00     0.210 HD
ENDBRANCH   7   9
TORSDOF 1
ENDMDL
MODEL 4
REMARK VINA RESULT:      -4.3      9.605     10.776
REMARK  1 active torsions:
REMARK  status: ('A' for Active; 'I' for Inactive)
REMARK    1  A    between atoms: C7_7  and  O9_9 
ROOT
HETATM    1  C1  UNL     1     -40.655   4.535  -1.071  1.00 20.00    -0.019 A 
HETATM    2  C2  UNL     1     -41.616   4.076  -1.896  1.00 20.00    -0.080 A 
HETATM    3  C3  UNL     1     -41.223   7.073  -0.950  1.00 20.00     0.012 C 
HETATM    4  C4  UNL     1     -41.725   7.144  -2.388  1.00 20.00     0.033 C 
HETATM    5  C5  UNL     1     -41.520   5.640  -0.501  1.00 20.00     0.019 A 
HETATM    6  C6  UNL     1     -42.637   5.110  -1.433  1.00 20.00     0.050 A 
HETATM    7  C7  UNL     1     -42.978   6.276  -2.363  1.00 20.00     0.127 C 
HETATM    8  C8  UNL     1     -41.676   2.928  -2.922  1.00 20.00     0.043 C 
ENDROOT
BRANCH   7   9
HETATM    9  O9  UNL     1     -43.318   5.804  -3.655  1.00 20.00    -0.395 OA
HETATM   10  H21 UNL     1     -43.834   4.989  -3.533  1.00 20.00     0.210 HD
ENDBRANCH   7   9
TORSDOF 1
ENDMDL
MODEL 5
REMARK VINA RESULT:      -4.3     11.772     13.161
REMARK  1 active torsions:
REMARK  status: ('A' for Active; 'I' for Inactive)
REMARK    1  A    between atoms: C7_7  and  O9_9 
ROOT
HETATM    1  C1  UNL     1     -34.197  16.220  -5.586  1.00 20.00    -0.019 A 
HETATM    2  C2  UNL     1     -34.492  14.959  -5.956  1.00 20.00    -0.080 A 
HETATM    3  C3  UNL     1     -34.018  15.988  -2.999  1.00 20.00     0.012 C 
HETATM    4  C4  UNL     1     -35.098  14.917  -2.908  1.00 20.00     0.033 C 
HETATM    5  C5  UNL     1     -33.387  15.792  -4.380  1.00 20.00     0.019 A 
HETATM    6  C6  UNL     1     -33.706  14.338  -4.807  1.00 20.00     0.050 A 
HETATM    7  C7  UNL     1     -34.475  13.729  -3.633  1.00 20.00     0.127 C 
HETATM    8  C8  UNL     1     -35.310  14.356  -7.115  1.00 20.00     0.043 C 
ENDROOT
BRANCH   7   9
HETATM    9  O9  UNL     1     -35.457  12.819  -4.095  1.00 20.00    -0.395 OA
HETATM   10  H21 UNL     1     -35.877  12.429  -3.309  1.00 20.00     0.210 HD
ENDBRANCH   7   9
TORSDOF 1
ENDMDL
MODEL 6
REMARK VINA RESULT:      -4.3     12.331     13.534
REMARK  1 active torsions:
REMARK  status: ('A' for Active; 'I' for Inactive)
REMARK    1  A    between atoms: C7_7  and  O9_9 
ROOT
HETATM    1  C1  UNL     1     -35.019  14.331  -3.480  1.00 20.00    -0.019 A 
HETATM    2  C2  UNL     1     -34.372  15.381  -2.938  1.00 20.00    -0.080 A 
HETATM    3  C3  UNL     1     -34.487  14.628  -6.012  1.00 20.00     0.012 C 
HETATM    4  C4  UNL     1     -34.484  16.151  -5.948  1.00 20.00     0.033 C 
HETATM    5  C5  UNL     1     -34.034  14.175  -4.621  1.00 20.00     0.019 A 
HETATM    6  C6  UNL     1     -33.274  15.371  -3.996  1.00 20.00     0.050 A 
HETATM    7  C7  UNL     1     -33.276  16.461  -5.070  1.00 20.00     0.127 C 
HETATM    8  C8  UNL     1     -34.630  16.265  -1.702  1.00 20.00     0.043 C 
ENDROOT
BRANCH   7   9
HETATM    9  O9  UNL     1     -33.369  17.745  -4.481  1.00 20.00    -0.395 OA
HETATM   10  H21 UNL     1     -33.653  18.360  -5.180  1.00 20.00     0.210 HD
ENDBRANCH   7   9
TORSDOF 1
ENDMDL
MODEL 7
REMARK VINA RESULT:      -4.3     11.841     13.119
REMARK  1 active torsions:
REMARK  status: ('A' for Active; 'I' for Inactive)
REMARK    1  A    between atoms: C7_7  and  O9_9 
ROOT
HETATM    1  C1  UNL     1     -35.640  16.415  -4.063  1.00 20.00    -0.019 A 
HETATM    2  C2  UNL     1     -36.367  15.313  -4.328  1.00 20.00    -0.080 A 
HETATM    3  C3  UNL     1     -33.209  15.486  -4.162  1.00 20.00     0.012 C 
HETATM    4  C4  UNL     1     -33.589  14.119  -3.605  1.00 20.00     0.033 C 
HETATM    5  C5  UNL     1     -34.459  15.970  -4.902  1.00 20.00     0.019 A 
HETATM    6  C6  UNL     1     -35.294  14.706  -5.226  1.00 20.00     0.050 A 
HETATM    7  C7  UNL     1     -34.472  13.529  -4.699  1.00 20.00     0.127 C 
HETATM    8  C8  UNL     1     -37.768  14.836  -3.896  1.00 20.00     0.043 C 
ENDROOT
BRANCH   7   9
HETATM    9  O9  UNL     1     -35.319  12.509  -4.200  1.00 20.00    -0.395 OA
HETATM   10  H21 UNL     1     -34.838  12.066  -3.479  1.00 20.00     0.210 HD
ENDBRANCH   7   9
TORSDOF 1
ENDMDL
MODEL 8
REMARK VINA RESULT:      -4.2     11.903     12.830
REMARK  1 active torsions:
REMARK  status: ('A' for Active; 'I' for Inactive)
REMARK    1  A    between atoms: C7_7  and  O9_9 
ROOT
HETATM    1  C1  UNL     1     -36.273  15.657  -3.266  1.00 20.00    -0.019 A 
HETATM    2  C2  UNL     1     -35.091  15.571  -2.625  1.00 20.00    -0.080 A 
HETATM    3  C3  UNL     1     -35.717  14.556  -5.560  1.00 20.00     0.012 C 
HETATM    4  C4  UNL     1     -34.281  15.068  -5.584  1.00 20.00     0.033 C 
HETATM    5  C5  UNL     1     -36.051  14.395  -4.074  1.00 20.00     0.019 A 
HETATM    6  C6  UNL     1     -34.697  14.277  -3.330  1.00 20.00     0.050 A 
HETATM    7  C7  UNL     1     -33.627  14.330  -4.422  1.00 20.00     0.127 C 
HETATM    8  C8  UNL     1     -34.392  16.443  -1.565  1.00 20.00     0.043 C 
ENDROOT
BRANCH   7   9
HETATM    9  O9  UNL     1     -32.469  15.000  -3.957  1.00 20.00    -0.395 OA
HETATM   10  H21 UNL     1     -32.666  15.953  -3.972  1.00 20.00     0.210 HD
ENDBRANCH   7   9
TORSDOF 1
ENDMDL
MODEL 9
REMARK VINA RESULT:      -4.1      9.136     10.227
REMARK  1 active torsions:
REMARK  status: ('A' for Active; 'I' for Inactive)
REMARK    1  A    between atoms: C7_7  and  O9_9 
ROOT
HETATM    1  C1  UNL     1     -42.581   5.792  -2.804  1.00 20.00    -0.019 A 
HETATM    2  C2  UNL     1     -41.898   4.751  -2.289  1.00 20.00    -0.080 A 
HETATM    3  C3  UNL     1     -42.891   7.314  -0.713  1.00 20.00     0.012 C 
HETATM    4  C4  UNL     1     -43.009   6.145   0.258  1.00 20.00     0.033 C 
HETATM    5  C5  UNL     1     -41.989   6.798  -1.839  1.00 20.00     0.019 A 
HETATM    6  C6  UNL     1     -41.187   5.612  -1.250  1.00 20.00     0.050 A 
HETATM    7  C7  UNL     1     -41.623   5.511   0.213  1.00 20.00     0.127 C 
HETATM    8  C8  UNL     1     -41.842   3.248  -2.623  1.00 20.00     0.043 C 
ENDROOT
BRANCH   7   9
HETATM    9  O9  UNL     1     -41.647   4.160   0.637  1.00 20.00    -0.395 OA
HETATM   10  H21 UNL     1     -41.621   4.166   1.610  1.00 20.00     0.210 HD
ENDBRANCH   7   9
TORSDOF 1
ENDMDL
