MODEL 1
REMARK VINA RESULT:      -4.8      0.000      0.000
REMARK  0 active torsions:
REMARK  status: ('A' for Active; 'I' for Inactive)
ROOT
HETATM    1  C1  UNL     1     -34.594  14.693  -6.881  1.00 20.00     0.006 C 
HETATM    2  C2  UNL     1     -34.040  15.969  -6.237  1.00 20.00     0.011 C 
HETATM    3  C3  UNL     1     -34.807  13.306  -4.645  1.00 20.00     0.010 C 
HETATM    4  C4  UNL     1     -33.725  14.023  -3.845  1.00 20.00     0.069 C 
HETATM    5  C5  UNL     1     -34.730  16.253  -1.606  1.00 20.00     0.197 C 
HETATM    6  C6  UNL     1     -33.826  17.198  -2.351  1.00 20.00     0.197 C 
HETATM    7  C7  UNL     1     -35.368  14.370  -5.590  1.00 20.00    -0.005 C 
HETATM    8  C8  UNL     1     -34.954  15.743  -5.008  1.00 20.00     0.052 C 
HETATM    9  C9  UNL     1     -34.291  15.428  -3.668  1.00 20.00     0.168 C 
HETATM   10  O10 UNL     1     -35.289  15.441  -2.637  1.00 20.00    -0.353 OA
HETATM   11  O11 UNL     1     -33.263  16.374  -3.369  1.00 20.00    -0.353 OA
ENDROOT
TORSDOF 0
ENDMDL
MODEL 2
REMARK VINA RESULT:      -4.7      1.757      3.756
REMARK  0 active torsions:
REMARK  status: ('A' for Active; 'I' for Inactive)
ROOT
HETATM    1  C1  UNL     1     -34.134  15.919  -2.320  1.00 20.00     0.006 C 
HETATM    2  C2  UNL     1     -35.344  16.328  -3.167  1.00 20.00     0.011 C 
HETATM    3  C3  UNL     1     -33.482  13.798  -3.750  1.00 20.00     0.010 C 
HETATM    4  C4  UNL     1     -34.862  13.492  -4.321  1.00 20.00     0.069 C 
HETATM    5  C5  UNL     1     -35.441  14.422  -7.451  1.00 20.00     0.197 C 
HETATM    6  C6  UNL     1     -36.614  15.160  -6.865  1.00 20.00     0.197 C 
HETATM    7  C7  UNL     1     -33.459  15.316  -3.566  1.00 20.00    -0.005 C 
HETATM    8  C8  UNL     1     -34.596  15.887  -4.448  1.00 20.00     0.052 C 
HETATM    9  C9  UNL     1     -35.142  14.690  -5.223  1.00 20.00     0.168 C 
HETATM   10  O10 UNL     1     -34.425  14.566  -6.460  1.00 20.00    -0.353 OA
HETATM   11  O11 UNL     1     -36.541  14.838  -5.478  1.00 20.00    -0.353 OA
ENDROOT
TORSDOF 0
ENDMDL
MODEL 3
REMARK VINA RESULT:      -4.6      1.356      3.591
REMARK  0 active torsions:
REMARK  status: ('A' for Active; 'I' for Inactive)
ROOT
HETATM    1  C1  UNL     1     -33.692  18.302  -2.674  1.00 20.00     0.006 C 
HETATM    2  C2  UNL     1     -33.815  17.826  -4.125  1.00 20.00     0.011 C 
HETATM    3  C3  UNL     1     -34.854  16.200  -1.578  1.00 20.00     0.010 C 
HETATM    4  C4  UNL     1     -35.713  15.786  -2.768  1.00 20.00     0.069 C 
HETATM    5  C5  UNL     1     -34.640  13.232  -4.590  1.00 20.00     0.197 C 
HETATM    6  C6  UNL     1     -34.741  14.195  -5.742  1.00 20.00     0.197 C 
HETATM    7  C7  UNL     1     -33.610  16.841  -2.195  1.00 20.00    -0.005 C 
HETATM    8  C8  UNL     1     -33.552  16.370  -3.668  1.00 20.00     0.052 C 
HETATM    9  C9  UNL     1     -34.686  15.357  -3.811  1.00 20.00     0.168 C 
HETATM   10  O10 UNL     1     -34.184  14.047  -3.511  1.00 20.00    -0.353 OA
HETATM   11  O11 UNL     1     -35.236  15.384  -5.129  1.00 20.00    -0.353 OA
ENDROOT
TORSDOF 0
ENDMDL
MODEL 4
REMARK VINA RESULT:      -4.6      0.894      1.106
REMARK  0 active torsions:
REMARK  status: ('A' for Active; 'I' for Inactive)
ROOT
HETATM    1  C1  UNL     1     -34.943  14.188  -5.986  1.00 20.00     0.006 C 
HETATM    2  C2  UNL     1     -34.972  15.705  -5.771  1.00 20.00     0.011 C 
HETATM    3  C3  UNL     1     -33.572  13.610  -3.805  1.00 20.00     0.010 C 
HETATM    4  C4  UNL     1     -32.842  14.940  -3.653  1.00 20.00     0.069 C 
HETATM    5  C5  UNL     1     -34.012  17.054  -1.382  1.00 20.00     0.197 C 
HETATM    6  C6  UNL     1     -34.088  18.023  -2.530  1.00 20.00     0.197 C 
HETATM    7  C7  UNL     1     -34.906  13.967  -4.463  1.00 20.00    -0.005 C 
HETATM    8  C8  UNL     1     -35.116  15.484  -4.245  1.00 20.00     0.052 C 
HETATM    9  C9  UNL     1     -33.965  15.924  -3.343  1.00 20.00     0.168 C 
HETATM   10  O10 UNL     1     -34.372  15.806  -1.973  1.00 20.00    -0.353 OA
HETATM   11  O11 UNL     1     -33.576  17.269  -3.627  1.00 20.00    -0.353 OA
ENDROOT
TORSDOF 0
ENDMDL
MODEL 5
REMARK VINA RESULT:      -4.5      1.549      2.001
REMARK  0 active torsions:
REMARK  status: ('A' for Active; 'I' for Inactive)
ROOT
HETATM    1  C1  UNL     1     -34.864  13.518  -5.188  1.00 20.00     0.006 C 
HETATM    2  C2  UNL     1     -35.878  14.637  -4.927  1.00 20.00     0.011 C 
HETATM    3  C3  UNL     1     -32.953  14.495  -3.649  1.00 20.00     0.010 C 
HETATM    4  C4  UNL     1     -33.351  15.965  -3.721  1.00 20.00     0.069 C 
HETATM    5  C5  UNL     1     -34.976  17.220  -1.118  1.00 20.00     0.197 C 
HETATM    6  C6  UNL     1     -36.015  17.609  -2.134  1.00 20.00     0.197 C 
HETATM    7  C7  UNL     1     -34.268  13.725  -3.783  1.00 20.00    -0.005 C 
HETATM    8  C8  UNL     1     -35.403  14.724  -3.457  1.00 20.00     0.052 C 
HETATM    9  C9  UNL     1     -34.696  16.001  -3.005  1.00 20.00     0.168 C 
HETATM   10  O10 UNL     1     -34.509  15.955  -1.583  1.00 20.00    -0.353 OA
HETATM   11  O11 UNL     1     -35.451  17.160  -3.364  1.00 20.00    -0.353 OA
ENDROOT
TORSDOF 0
ENDMDL
MODEL 6
REMARK VINA RESULT:      -4.4     11.837     13.406
REMARK  0 active torsions:
REMARK  status: ('A' for Active; 'I' for Inactive)
ROOT
HETATM    1  C1  UNL     1     -42.102   7.868  -0.971  1.00 20.00     0.006 C 
HETATM    2  C2  UNL     1     -42.995   7.166  -2.001  1.00 20.00     0.011 C 
HETATM    3  C3  UNL     1     -41.034   5.673   0.034  1.00 20.00     0.010 C 
HETATM    4  C4  UNL     1     -42.170   4.712  -0.297  1.00 20.00     0.069 C 
HETATM    5  C5  UNL     1     -41.760   2.737  -2.929  1.00 20.00     0.197 C 
HETATM    6  C6  UNL     1     -43.059   3.332  -3.400  1.00 20.00     0.197 C 
HETATM    7  C7  UNL     1     -41.075   6.726  -1.075  1.00 20.00    -0.005 C 
HETATM    8  C8  UNL     1     -41.886   6.112  -2.240  1.00 20.00     0.052 C 
HETATM    9  C9  UNL     1     -42.163   4.670  -1.821  1.00 20.00     0.168 C 
HETATM   10  O10 UNL     1     -41.100   3.831  -2.295  1.00 20.00    -0.353 OA
HETATM   11  O11 UNL     1     -43.416   4.216  -2.338  1.00 20.00    -0.353 OA
ENDROOT
TORSDOF 0
ENDMDL
MODEL 7
REMARK VINA RESULT:      -4.4      1.426      3.824
REMARK  0 active torsions:
REMARK  status: ('A' for Active; 'I' for Inactive)
ROOT
HETATM    1  C1  UNL     1     -34.291  17.714  -1.714  1.00 20.00     0.006 C 
HETATM    2  C2  UNL     1     -34.555  16.212  -1.571  1.00 20.00     0.011 C 
HETATM    3  C3  UNL     1     -33.643  17.653  -4.274  1.00 20.00     0.010 C 
HETATM    4  C4  UNL     1     -33.153  16.211  -4.335  1.00 20.00     0.069 C 
HETATM    5  C5  UNL     1     -35.220  13.968  -5.636  1.00 20.00     0.197 C 
HETATM    6  C6  UNL     1     -35.027  13.243  -4.331  1.00 20.00     0.197 C 
HETATM    7  C7  UNL     1     -34.724  17.655  -3.191  1.00 20.00    -0.005 C 
HETATM    8  C8  UNL     1     -35.159  16.183  -2.996  1.00 20.00     0.052 C 
HETATM    9  C9  UNL     1     -34.417  15.398  -4.076  1.00 20.00     0.168 C 
HETATM   10  O10 UNL     1     -35.230  15.343  -5.257  1.00 20.00    -0.353 OA
HETATM   11  O11 UNL     1     -34.108  14.076  -3.629  1.00 20.00    -0.353 OA
ENDROOT
TORSDOF 0
ENDMDL
MODEL 8
REMARK VINA RESULT:      -4.3      1.205      2.137
REMARK  0 active torsions:
REMARK  status: ('A' for Active; 'I' for Inactive)
ROOT
HETATM    1  C1  UNL     1     -34.459  13.254  -4.919  1.00 20.00     0.006 C 
HETATM    2  C2  UNL     1     -33.740  13.683  -3.636  1.00 20.00     0.011 C 
HETATM    3  C3  UNL     1     -36.300  15.146  -4.867  1.00 20.00     0.010 C 
HETATM    4  C4  UNL     1     -36.310  15.393  -3.363  1.00 20.00     0.069 C 
HETATM    5  C5  UNL     1     -34.687  18.066  -2.261  1.00 20.00     0.197 C 
HETATM    6  C6  UNL     1     -33.950  17.085  -1.390  1.00 20.00     0.197 C 
HETATM    7  C7  UNL     1     -34.868  14.715  -5.185  1.00 20.00    -0.005 C 
HETATM    8  C8  UNL     1     -33.992  15.168  -3.993  1.00 20.00     0.052 C 
HETATM    9  C9  UNL     1     -34.927  15.975  -3.092  1.00 20.00     0.168 C 
HETATM   10  O10 UNL     1     -34.877  17.355  -3.483  1.00 20.00    -0.353 OA
HETATM   11  O11 UNL     1     -34.560  15.838  -1.718  1.00 20.00    -0.353 OA
ENDROOT
TORSDOF 0
ENDMDL
MODEL 9
REMARK VINA RESULT:      -4.3      1.967      3.575
REMARK  0 active torsions:
REMARK  status: ('A' for Active; 'I' for Inactive)
ROOT
HETATM    1  C1  UNL     1     -33.343  13.681  -3.719  1.00 20.00     0.006 C 
HETATM    2  C2  UNL     1     -34.634  13.291  -4.447  1.00 20.00     0.011 C 
HETATM    3  C3  UNL     1     -33.239  16.161  -4.621  1.00 20.00     0.010 C 
HETATM    4  C4  UNL     1     -34.018  15.951  -5.914  1.00 20.00     0.069 C 
HETATM    5  C5  UNL     1     -37.186  16.930  -5.945  1.00 20.00     0.197 C 
HETATM    6  C6  UNL     1     -37.472  15.513  -6.361  1.00 20.00     0.197 C 
HETATM    7  C7  UNL     1     -33.823  15.142  -3.640  1.00 20.00    -0.005 C 
HETATM    8  C8  UNL     1     -35.196  14.714  -4.210  1.00 20.00     0.052 C 
HETATM    9  C9  UNL     1     -35.422  15.609  -5.428  1.00 20.00     0.168 C 
HETATM   10  O10 UNL     1     -36.113  16.796  -5.014  1.00 20.00    -0.353 OA
HETATM   11  O11 UNL     1     -36.174  14.926  -6.433  1.00 20.00    -0.353 OA
ENDROOT
TORSDOF 0
ENDMDL
