MODEL 1
REMARK VINA RESULT:      -3.7      0.000      0.000
REMARK  0 active torsions:
REMARK  status: ('A' for Active; 'I' for Inactive)
ROOT
HETATM    1  C1  UNL     1     -34.438  13.612  -4.621  1.00 20.00     0.196 C 
HETATM    2  C2  UNL     1     -33.253  14.087  -3.807  1.00 20.00     0.092 C 
HETATM    3  C3  UNL     1     -33.444  15.488  -3.227  1.00 20.00     0.019 C 
HETATM    4  C4  UNL     1     -33.591  16.590  -4.279  1.00 20.00     0.087 C 
HETATM    5  O5  UNL     1     -35.132  12.650  -4.319  1.00 20.00    -0.285 OA
HETATM    6  S6  UNL     1     -34.703  14.522  -6.102  1.00 20.00    -0.020 SA
HETATM    7  S7  UNL     1     -35.098  16.352  -5.266  1.00 20.00    -0.090 SA
ENDROOT
TORSDOF 0
ENDMDL
MODEL 2
REMARK VINA RESULT:      -3.5      1.957      2.343
REMARK  0 active torsions:
REMARK  status: ('A' for Active; 'I' for Inactive)
ROOT
HETATM    1  C1  UNL     1     -35.017  13.762  -4.867  1.00 20.00     0.196 C 
HETATM    2  C2  UNL     1     -35.380  14.327  -6.224  1.00 20.00     0.092 C 
HETATM    3  C3  UNL     1     -34.285  15.211  -6.819  1.00 20.00     0.019 C 
HETATM    4  C4  UNL     1     -33.980  16.470  -6.003  1.00 20.00     0.087 C 
HETATM    5  O5  UNL     1     -34.879  12.567  -4.640  1.00 20.00    -0.285 OA
HETATM    6  S6  UNL     1     -34.879  14.972  -3.598  1.00 20.00    -0.020 SA
HETATM    7  S7  UNL     1     -33.309  16.041  -4.370  1.00 20.00    -0.090 SA
ENDROOT
TORSDOF 0
ENDMDL
MODEL 3
REMARK VINA RESULT:      -3.5      1.872      2.391
REMARK  0 active torsions:
REMARK  status: ('A' for Active; 'I' for Inactive)
ROOT
HETATM    1  C1  UNL     1     -33.760  13.852  -4.094  1.00 20.00     0.196 C 
HETATM    2  C2  UNL     1     -34.843  13.641  -5.130  1.00 20.00     0.092 C 
HETATM    3  C3  UNL     1     -34.665  14.512  -6.372  1.00 20.00     0.019 C 
HETATM    4  C4  UNL     1     -34.748  16.017  -6.103  1.00 20.00     0.087 C 
HETATM    5  O5  UNL     1     -32.967  12.985  -3.750  1.00 20.00    -0.285 OA
HETATM    6  S6  UNL     1     -33.776  15.447  -3.352  1.00 20.00    -0.020 SA
HETATM    7  S7  UNL     1     -33.389  16.563  -5.028  1.00 20.00    -0.090 SA
ENDROOT
TORSDOF 0
ENDMDL
MODEL 4
REMARK VINA RESULT:      -3.4      1.706      2.258
REMARK  0 active torsions:
REMARK  status: ('A' for Active; 'I' for Inactive)
ROOT
HETATM    1  C1  UNL     1     -36.137  14.439  -4.134  1.00 20.00     0.196 C 
HETATM    2  C2  UNL     1     -35.030  13.538  -4.639  1.00 20.00     0.092 C 
HETATM    3  C3  UNL     1     -33.778  13.575  -3.764  1.00 20.00     0.019 C 
HETATM    4  C4  UNL     1     -33.094  14.943  -3.701  1.00 20.00     0.087 C 
HETATM    5  O5  UNL     1     -37.225  14.032  -3.749  1.00 20.00    -0.285 OA
HETATM    6  S6  UNL     1     -35.759  16.155  -4.213  1.00 20.00    -0.020 SA
HETATM    7  S7  UNL     1     -34.173  16.176  -2.915  1.00 20.00    -0.090 SA
ENDROOT
TORSDOF 0
ENDMDL
MODEL 5
REMARK VINA RESULT:      -3.3      1.920      2.876
REMARK  0 active torsions:
REMARK  status: ('A' for Active; 'I' for Inactive)
ROOT
HETATM    1  C1  UNL     1     -33.766  16.207  -4.589  1.00 20.00     0.196 C 
HETATM    2  C2  UNL     1     -33.590  15.248  -3.431  1.00 20.00     0.092 C 
HETATM    3  C3  UNL     1     -33.564  13.782  -3.864  1.00 20.00     0.019 C 
HETATM    4  C4  UNL     1     -34.862  13.293  -4.510  1.00 20.00     0.087 C 
HETATM    5  O5  UNL     1     -32.927  17.032  -4.925  1.00 20.00    -0.285 OA
HETATM    6  S6  UNL     1     -35.332  16.095  -5.384  1.00 20.00    -0.020 SA
HETATM    7  S7  UNL     1     -35.185  14.168  -6.069  1.00 20.00    -0.090 SA
ENDROOT
TORSDOF 0
ENDMDL
MODEL 6
REMARK VINA RESULT:      -3.2      1.840      2.660
REMARK  0 active torsions:
REMARK  status: ('A' for Active; 'I' for Inactive)
ROOT
HETATM    1  C1  UNL     1     -33.179  14.866  -3.844  1.00 20.00     0.196 C 
HETATM    2  C2  UNL     1     -34.312  13.880  -3.656  1.00 20.00     0.092 C 
HETATM    3  C3  UNL     1     -34.850  13.324  -4.973  1.00 20.00     0.019 C 
HETATM    4  C4  UNL     1     -35.473  14.376  -5.893  1.00 20.00     0.087 C 
HETATM    5  O5  UNL     1     -32.038  14.680  -3.442  1.00 20.00    -0.285 OA
HETATM    6  S6  UNL     1     -33.654  16.363  -4.637  1.00 20.00    -0.020 SA
HETATM    7  S7  UNL     1     -34.228  15.580  -6.442  1.00 20.00    -0.090 SA
ENDROOT
TORSDOF 0
ENDMDL
MODEL 7
REMARK VINA RESULT:      -3.2     11.957     12.366
REMARK  0 active torsions:
REMARK  status: ('A' for Active; 'I' for Inactive)
ROOT
HETATM    1  C1  UNL     1     -41.573   4.906  -0.358  1.00 20.00     0.196 C 
HETATM    2  C2  UNL     1     -40.839   6.229  -0.352  1.00 20.00     0.092 C 
HETATM    3  C3  UNL     1     -41.607   7.346  -1.057  1.00 20.00     0.019 C 
HETATM    4  C4  UNL     1     -41.845   7.103  -2.549  1.00 20.00     0.087 C 
HETATM    5  O5  UNL     1     -41.968   4.340   0.653  1.00 20.00    -0.285 OA
HETATM    6  S6  UNL     1     -41.753   4.191  -1.956  1.00 20.00    -0.020 SA
HETATM    7  S7  UNL     1     -42.908   5.653  -2.811  1.00 20.00    -0.090 SA
ENDROOT
TORSDOF 0
ENDMDL
MODEL 8
REMARK VINA RESULT:      -3.2     12.655     13.221
REMARK  0 active torsions:
REMARK  status: ('A' for Active; 'I' for Inactive)
ROOT
HETATM    1  C1  UNL     1     -33.314   6.226   3.946  1.00 20.00     0.196 C 
HETATM    2  C2  UNL     1     -33.519   7.019   5.219  1.00 20.00     0.092 C 
HETATM    3  C3  UNL     1     -33.758   6.138   6.444  1.00 20.00     0.019 C 
HETATM    4  C4  UNL     1     -35.029   5.289   6.371  1.00 20.00     0.087 C 
HETATM    5  O5  UNL     1     -32.274   6.228   3.301  1.00 20.00    -0.285 OA
HETATM    6  S6  UNL     1     -34.739   5.342   3.413  1.00 20.00    -0.020 SA
HETATM    7  S7  UNL     1     -34.928   4.080   5.018  1.00 20.00    -0.090 SA
ENDROOT
TORSDOF 0
ENDMDL
MODEL 9
REMARK VINA RESULT:      -3.1     13.024     13.538
REMARK  0 active torsions:
REMARK  status: ('A' for Active; 'I' for Inactive)
ROOT
HETATM    1  C1  UNL     1     -35.050   5.448   3.810  1.00 20.00     0.196 C 
HETATM    2  C2  UNL     1     -35.107   4.107   4.510  1.00 20.00     0.092 C 
HETATM    3  C3  UNL     1     -35.179   4.226   6.032  1.00 20.00     0.019 C 
HETATM    4  C4  UNL     1     -33.954   4.886   6.671  1.00 20.00     0.087 C 
HETATM    5  O5  UNL     1     -35.919   5.860   3.053  1.00 20.00    -0.285 OA
HETATM    6  S6  UNL     1     -33.575   6.356   4.115  1.00 20.00    -0.020 SA
HETATM    7  S7  UNL     1     -33.793   6.615   6.137  1.00 20.00    -0.090 SA
ENDROOT
TORSDOF 0
ENDMDL
