MODEL 1
REMARK VINA RESULT:      -3.8      0.000      0.000
REMARK  1 active torsions:
REMARK  status: ('A' for Active; 'I' for Inactive)
REMARK    1  A    between atoms: C1_1  and  C2_2 
ROOT
HETATM    1  C1  UNL     1     -34.648   4.193   5.467  1.00 20.00     0.432 C 
HETATM    2  F3  UNL     1     -35.019   3.271   4.549  1.00 20.00    -0.167 F 
HETATM    3  F4  UNL     1     -35.586   4.188   6.441  1.00 20.00    -0.167 F 
HETATM    4  F5  UNL     1     -33.491   3.766   6.022  1.00 20.00    -0.167 F 
ENDROOT
BRANCH   1   5
HETATM    5  C2  UNL     1     -34.500   5.572   4.850  1.00 20.00     0.267 C 
HETATM    6 CL6  UNL     1     -35.940   5.984   3.889  1.00 20.00    -0.079 Cl
HETATM    7 CL7  UNL     1     -34.253   6.797   6.117  1.00 20.00    -0.079 Cl
HETATM    8 BR8  UNL     1     -32.945   5.590   3.666  1.00 20.00    -0.040 Br
ENDBRANCH   1   5
TORSDOF 1
ENDMDL
MODEL 2
REMARK VINA RESULT:      -3.7      1.521      1.813
REMARK  1 active torsions:
REMARK  status: ('A' for Active; 'I' for Inactive)
REMARK    1  A    between atoms: C1_1  and  C2_2 
ROOT
HETATM    1  C1  UNL     1     -34.656   4.186   5.505  1.00 20.00     0.432 C 
HETATM    2  F3  UNL     1     -35.116   3.296   4.596  1.00 20.00    -0.167 F 
HETATM    3  F4  UNL     1     -35.597   4.294   6.471  1.00 20.00    -0.167 F 
HETATM    4  F5  UNL     1     -33.555   3.647   6.076  1.00 20.00    -0.167 F 
ENDROOT
BRANCH   1   5
HETATM    5  C2  UNL     1     -34.359   5.533   4.872  1.00 20.00     0.267 C 
HETATM    6 CL6  UNL     1     -32.939   5.423   3.804  1.00 20.00    -0.079 Cl
HETATM    7 CL7  UNL     1     -35.765   6.109   3.944  1.00 20.00    -0.079 Cl
HETATM    8 BR8  UNL     1     -33.973   6.839   6.275  1.00 20.00    -0.040 Br
ENDBRANCH   1   5
TORSDOF 1
ENDMDL
MODEL 3
REMARK VINA RESULT:      -3.7     13.200     13.636
REMARK  1 active torsions:
REMARK  status: ('A' for Active; 'I' for Inactive)
REMARK    1  A    between atoms: C1_1  and  C2_2 
ROOT
HETATM    1  C1  UNL     1     -33.748  14.084  -3.975  1.00 20.00     0.432 C 
HETATM    2  F3  UNL     1     -33.940  13.440  -5.149  1.00 20.00    -0.167 F 
HETATM    3  F4  UNL     1     -34.430  13.400  -3.028  1.00 20.00    -0.167 F 
HETATM    4  F5  UNL     1     -32.434  13.987  -3.671  1.00 20.00    -0.167 F 
ENDROOT
BRANCH   1   5
HETATM    5  C2  UNL     1     -34.204  15.530  -4.046  1.00 20.00     0.267 C 
HETATM    6 CL6  UNL     1     -33.106  16.483  -5.072  1.00 20.00    -0.079 Cl
HETATM    7 CL7  UNL     1     -35.862  15.629  -4.687  1.00 20.00    -0.079 Cl
HETATM    8 BR8  UNL     1     -34.193  16.302  -2.250  1.00 20.00    -0.040 Br
ENDBRANCH   1   5
TORSDOF 1
ENDMDL
MODEL 4
REMARK VINA RESULT:      -3.6     13.478     13.934
REMARK  1 active torsions:
REMARK  status: ('A' for Active; 'I' for Inactive)
REMARK    1  A    between atoms: C1_1  and  C2_2 
ROOT
HETATM    1  C1  UNL     1     -33.238  15.050  -3.787  1.00 20.00     0.432 C 
HETATM    2  F3  UNL     1     -33.496  15.569  -2.564  1.00 20.00    -0.167 F 
HETATM    3  F4  UNL     1     -32.485  15.955  -4.454  1.00 20.00    -0.167 F 
HETATM    4  F5  UNL     1     -32.474  13.949  -3.605  1.00 20.00    -0.167 F 
ENDROOT
BRANCH   1   5
HETATM    5  C2  UNL     1     -34.514  14.731  -4.543  1.00 20.00     0.267 C 
HETATM    6 CL6  UNL     1     -34.553  15.595  -6.098  1.00 20.00    -0.079 Cl
HETATM    7 CL7  UNL     1     -34.649  12.979  -4.826  1.00 20.00    -0.079 Cl
HETATM    8 BR8  UNL     1     -36.056  15.302  -3.484  1.00 20.00    -0.040 Br
ENDBRANCH   1   5
TORSDOF 1
ENDMDL
MODEL 5
REMARK VINA RESULT:      -3.6     13.532     13.959
REMARK  1 active torsions:
REMARK  status: ('A' for Active; 'I' for Inactive)
REMARK    1  A    between atoms: C1_1  and  C2_2 
ROOT
HETATM    1  C1  UNL     1     -33.871  13.942  -4.181  1.00 20.00     0.432 C 
HETATM    2  F3  UNL     1     -32.581  14.031  -3.784  1.00 20.00    -0.167 F 
HETATM    3  F4  UNL     1     -34.000  12.782  -4.865  1.00 20.00    -0.167 F 
HETATM    4  F5  UNL     1     -34.629  13.836  -3.066  1.00 20.00    -0.167 F 
ENDROOT
BRANCH   1   5
HETATM    5  C2  UNL     1     -34.281  15.131  -5.030  1.00 20.00     0.267 C 
HETATM    6 CL6  UNL     1     -33.062  16.423  -4.927  1.00 20.00    -0.079 Cl
HETATM    7 CL7  UNL     1     -34.494  14.639  -6.727  1.00 20.00    -0.079 Cl
HETATM    8 BR8  UNL     1     -35.983  15.837  -4.377  1.00 20.00    -0.040 Br
ENDBRANCH   1   5
TORSDOF 1
ENDMDL
MODEL 6
REMARK VINA RESULT:      -3.6     13.481     13.915
REMARK  1 active torsions:
REMARK  status: ('A' for Active; 'I' for Inactive)
REMARK    1  A    between atoms: C1_1  and  C2_2 
ROOT
HETATM    1  C1  UNL     1     -33.282  15.042  -3.812  1.00 20.00     0.432 C 
HETATM    2  F3  UNL     1     -32.491  15.938  -4.447  1.00 20.00    -0.167 F 
HETATM    3  F4  UNL     1     -32.538  13.931  -3.602  1.00 20.00    -0.167 F 
HETATM    4  F5  UNL     1     -33.583  15.559  -2.599  1.00 20.00    -0.167 F 
ENDROOT
BRANCH   1   5
HETATM    5  C2  UNL     1     -34.530  14.725  -4.615  1.00 20.00     0.267 C 
HETATM    6 CL6  UNL     1     -34.697  12.968  -4.844  1.00 20.00    -0.079 Cl
HETATM    7 CL7  UNL     1     -35.976  15.364  -3.797  1.00 20.00    -0.079 Cl
HETATM    8 BR8  UNL     1     -34.399  15.565  -6.376  1.00 20.00    -0.040 Br
ENDBRANCH   1   5
TORSDOF 1
ENDMDL
MODEL 7
REMARK VINA RESULT:      -3.6     13.484     13.922
REMARK  1 active torsions:
REMARK  status: ('A' for Active; 'I' for Inactive)
REMARK    1  A    between atoms: C1_1  and  C2_2 
ROOT
HETATM    1  C1  UNL     1     -33.269  15.044  -3.810  1.00 20.00     0.432 C 
HETATM    2  F3  UNL     1     -33.563  15.566  -2.597  1.00 20.00    -0.167 F 
HETATM    3  F4  UNL     1     -32.489  15.943  -4.454  1.00 20.00    -0.167 F 
HETATM    4  F5  UNL     1     -32.519  13.938  -3.603  1.00 20.00    -0.167 F 
ENDROOT
BRANCH   1   5
HETATM    5  C2  UNL     1     -34.523  14.733  -4.607  1.00 20.00     0.267 C 
HETATM    6 CL6  UNL     1     -34.696  12.977  -4.838  1.00 20.00    -0.079 Cl
HETATM    7 CL7  UNL     1     -35.962  15.375  -3.779  1.00 20.00    -0.079 Cl
HETATM    8 BR8  UNL     1     -34.399  15.576  -6.366  1.00 20.00    -0.040 Br
ENDBRANCH   1   5
TORSDOF 1
ENDMDL
MODEL 8
REMARK VINA RESULT:      -3.6     13.356     13.741
REMARK  1 active torsions:
REMARK  status: ('A' for Active; 'I' for Inactive)
REMARK    1  A    between atoms: C1_1  and  C2_2 
ROOT
HETATM    1  C1  UNL     1     -33.865  13.921  -4.152  1.00 20.00     0.432 C 
HETATM    2  F3  UNL     1     -33.990  12.808  -4.910  1.00 20.00    -0.167 F 
HETATM    3  F4  UNL     1     -34.590  13.721  -3.027  1.00 20.00    -0.167 F 
HETATM    4  F5  UNL     1     -32.568  14.013  -3.781  1.00 20.00    -0.167 F 
ENDROOT
BRANCH   1   5
HETATM    5  C2  UNL     1     -34.329  15.161  -4.893  1.00 20.00     0.267 C 
HETATM    6 CL6  UNL     1     -35.793  15.831  -4.135  1.00 20.00    -0.079 Cl
HETATM    7 CL7  UNL     1     -33.044  16.393  -4.909  1.00 20.00    -0.079 Cl
HETATM    8 BR8  UNL     1     -34.753  14.691  -6.742  1.00 20.00    -0.040 Br
ENDBRANCH   1   5
TORSDOF 1
ENDMDL
MODEL 9
REMARK VINA RESULT:      -3.6     13.261     13.664
REMARK  1 active torsions:
REMARK  status: ('A' for Active; 'I' for Inactive)
REMARK    1  A    between atoms: C1_1  and  C2_2 
ROOT
HETATM    1  C1  UNL     1     -33.940  14.033  -4.128  1.00 20.00     0.432 C 
HETATM    2  F3  UNL     1     -34.071  13.620  -5.410  1.00 20.00    -0.167 F 
HETATM    3  F4  UNL     1     -34.805  13.308  -3.384  1.00 20.00    -0.167 F 
HETATM    4  F5  UNL     1     -32.691  13.707  -3.725  1.00 20.00    -0.167 F 
ENDROOT
BRANCH   1   5
HETATM    5  C2  UNL     1     -34.205  15.521  -3.988  1.00 20.00     0.267 C 
HETATM    6 CL6  UNL     1     -33.996  16.036  -2.297  1.00 20.00    -0.079 Cl
HETATM    7 CL7  UNL     1     -33.111  16.451  -5.039  1.00 20.00    -0.079 Cl
HETATM    8 BR8  UNL     1     -36.046  15.905  -4.524  1.00 20.00    -0.040 Br
ENDBRANCH   1   5
TORSDOF 1
ENDMDL
