MODEL 1
REMARK VINA RESULT:      -5.6      0.000      0.000
REMARK  0 active torsions:
REMARK  status: ('A' for Active; 'I' for Inactive)
ROOT
HETATM    1  C1  UNL     1     -33.396   6.689   6.231  1.00 20.00    -0.018 C 
HETATM    2  C2  UNL     1     -34.136   4.855   2.909  1.00 20.00    -0.018 C 
HETATM    3  C3  UNL     1     -34.567   6.021   6.060  1.00 20.00    -0.078 C 
HETATM    4  C4  UNL     1     -33.567   6.075   2.897  1.00 20.00    -0.078 C 
HETATM    5  C5  UNL     1     -34.892   4.654   6.569  1.00 20.00     0.035 C 
HETATM    6  C6  UNL     1     -32.201   6.618   2.543  1.00 20.00     0.035 C 
HETATM    7  C7  UNL     1     -34.772   3.813   5.262  1.00 20.00     0.013 C 
HETATM    8  C8  UNL     1     -31.816   7.380   3.893  1.00 20.00     0.013 C 
HETATM    9  C9  UNL     1     -32.805   6.729   4.857  1.00 20.00     0.017 C 
HETATM   10  C10 UNL     1     -35.148   4.723   4.061  1.00 20.00     0.017 C 
HETATM   11  C11 UNL     1     -35.154   6.121   4.683  1.00 20.00     0.030 C 
HETATM   12  C12 UNL     1     -34.069   6.883   4.014  1.00 20.00     0.030 C 
ENDROOT
TORSDOF 0
ENDMDL
MODEL 2
REMARK VINA RESULT:      -5.2     12.011     13.660
REMARK  0 active torsions:
REMARK  status: ('A' for Active; 'I' for Inactive)
ROOT
HETATM    1  C1  UNL     1     -36.213  14.468  -4.031  1.00 20.00    -0.018 C 
HETATM    2  C2  UNL     1     -33.391  16.550  -5.656  1.00 20.00    -0.018 C 
HETATM    3  C3  UNL     1     -35.044  14.676  -3.369  1.00 20.00    -0.078 C 
HETATM    4  C4  UNL     1     -34.083  15.658  -6.389  1.00 20.00    -0.078 C 
HETATM    5  C5  UNL     1     -34.798  15.688  -2.298  1.00 20.00     0.035 C 
HETATM    6  C6  UNL     1     -35.089  15.745  -7.515  1.00 20.00     0.035 C 
HETATM    7  C7  UNL     1     -33.994  16.766  -3.085  1.00 20.00     0.013 C 
HETATM    8  C8  UNL     1     -36.307  14.915  -6.899  1.00 20.00     0.013 C 
HETATM    9  C9  UNL     1     -35.925  14.937  -5.421  1.00 20.00     0.017 C 
HETATM   10  C10 UNL     1     -33.198  16.055  -4.212  1.00 20.00     0.017 C 
HETATM   11  C11 UNL     1     -33.819  14.657  -4.236  1.00 20.00     0.030 C 
HETATM   12  C12 UNL     1     -34.467  14.508  -5.564  1.00 20.00     0.030 C 
ENDROOT
TORSDOF 0
ENDMDL
MODEL 3
REMARK VINA RESULT:      -5.1     12.021     13.525
REMARK  0 active torsions:
REMARK  status: ('A' for Active; 'I' for Inactive)
ROOT
HETATM    1  C1  UNL     1     -33.293  16.973  -5.105  1.00 20.00    -0.018 C 
HETATM    2  C2  UNL     1     -35.978  14.763  -3.418  1.00 20.00    -0.018 C 
HETATM    3  C3  UNL     1     -33.775  15.872  -5.740  1.00 20.00    -0.078 C 
HETATM    4  C4  UNL     1     -34.944  15.239  -2.700  1.00 20.00    -0.078 C 
HETATM    5  C5  UNL     1     -34.821  15.849  -6.807  1.00 20.00     0.035 C 
HETATM    6  C6  UNL     1     -34.784  16.263  -1.598  1.00 20.00     0.035 C 
HETATM    7  C7  UNL     1     -36.056  15.342  -6.003  1.00 20.00     0.013 C 
HETATM    8  C8  UNL     1     -33.691  17.235  -2.240  1.00 20.00     0.013 C 
HETATM    9  C9  UNL     1     -33.810  16.835  -3.709  1.00 20.00     0.017 C 
HETATM   10  C10 UNL     1     -35.549  14.426  -4.857  1.00 20.00     0.017 C 
HETATM   11  C11 UNL     1     -34.044  14.697  -4.846  1.00 20.00     0.030 C 
HETATM   12  C12 UNL     1     -33.739  15.320  -3.532  1.00 20.00     0.030 C 
ENDROOT
TORSDOF 0
ENDMDL
MODEL 4
REMARK VINA RESULT:      -5.1     11.870     13.591
REMARK  0 active torsions:
REMARK  status: ('A' for Active; 'I' for Inactive)
ROOT
HETATM    1  C1  UNL     1     -33.331  16.726  -5.313  1.00 20.00    -0.018 C 
HETATM    2  C2  UNL     1     -35.081  13.279  -5.344  1.00 20.00    -0.018 C 
HETATM    3  C3  UNL     1     -33.596  16.079  -4.147  1.00 20.00    -0.078 C 
HETATM    4  C4  UNL     1     -35.503  14.261  -6.163  1.00 20.00    -0.078 C 
HETATM    5  C5  UNL     1     -32.630  15.274  -3.339  1.00 20.00     0.035 C 
HETATM    6  C6  UNL     1     -35.470  14.498  -7.657  1.00 20.00     0.035 C 
HETATM    7  C7  UNL     1     -33.080  13.825  -3.694  1.00 20.00     0.013 C 
HETATM    8  C8  UNL     1     -34.731  15.913  -7.724  1.00 20.00     0.013 C 
HETATM    9  C9  UNL     1     -34.101  15.951  -6.334  1.00 20.00     0.017 C 
HETATM   10  C10 UNL     1     -34.603  13.847  -3.995  1.00 20.00     0.017 C 
HETATM   11  C11 UNL     1     -34.903  15.342  -4.120  1.00 20.00     0.030 C 
HETATM   12  C12 UNL     1     -35.336  15.569  -5.522  1.00 20.00     0.030 C 
ENDROOT
TORSDOF 0
ENDMDL
MODEL 5
REMARK VINA RESULT:      -5.1     11.834     13.554
REMARK  0 active torsions:
REMARK  status: ('A' for Active; 'I' for Inactive)
ROOT
HETATM    1  C1  UNL     1     -34.754  15.617  -2.364  1.00 20.00    -0.018 C 
HETATM    2  C2  UNL     1     -34.061  16.040  -6.143  1.00 20.00    -0.018 C 
HETATM    3  C3  UNL     1     -33.828  16.513  -2.797  1.00 20.00    -0.078 C 
HETATM    4  C4  UNL     1     -34.224  14.811  -5.617  1.00 20.00    -0.078 C 
HETATM    5  C5  UNL     1     -34.021  17.987  -2.948  1.00 20.00     0.035 C 
HETATM    6  C6  UNL     1     -35.284  13.736  -5.712  1.00 20.00     0.035 C 
HETATM    7  C7  UNL     1     -34.170  18.112  -4.494  1.00 20.00     0.013 C 
HETATM    8  C8  UNL     1     -35.640  13.522  -4.169  1.00 20.00     0.013 C 
HETATM    9  C9  UNL     1     -35.068  14.810  -3.583  1.00 20.00     0.017 C 
HETATM   10  C10 UNL     1     -33.342  16.977  -5.156  1.00 20.00     0.017 C 
HETATM   11  C11 UNL     1     -33.018  16.059  -3.976  1.00 20.00     0.030 C 
HETATM   12  C12 UNL     1     -33.695  14.767  -4.250  1.00 20.00     0.030 C 
ENDROOT
TORSDOF 0
ENDMDL
MODEL 6
REMARK VINA RESULT:      -5.0     12.002     13.744
REMARK  0 active torsions:
REMARK  status: ('A' for Active; 'I' for Inactive)
ROOT
HETATM    1  C1  UNL     1     -35.009  14.095  -3.794  1.00 20.00    -0.018 C 
HETATM    2  C2  UNL     1     -34.098  17.482  -5.419  1.00 20.00    -0.018 C 
HETATM    3  C3  UNL     1     -34.273  15.010  -3.109  1.00 20.00    -0.078 C 
HETATM    4  C4  UNL     1     -34.027  16.345  -6.137  1.00 20.00    -0.078 C 
HETATM    5  C5  UNL     1     -34.777  15.958  -2.070  1.00 20.00     0.035 C 
HETATM    6  C6  UNL     1     -34.806  15.755  -7.291  1.00 20.00     0.035 C 
HETATM    7  C7  UNL     1     -34.813  17.292  -2.875  1.00 20.00     0.013 C 
HETATM    8  C8  UNL     1     -35.239  14.345  -6.678  1.00 20.00     0.013 C 
HETATM    9  C9  UNL     1     -35.025  14.624  -5.193  1.00 20.00     0.017 C 
HETATM   10  C10 UNL     1     -33.697  17.241  -3.953  1.00 20.00     0.017 C 
HETATM   11  C11 UNL     1     -33.281  15.769  -3.942  1.00 20.00     0.030 C 
HETATM   12  C12 UNL     1     -33.624  15.225  -5.280  1.00 20.00     0.030 C 
ENDROOT
TORSDOF 0
ENDMDL
MODEL 7
REMARK VINA RESULT:      -4.9     11.490     13.067
REMARK  0 active torsions:
REMARK  status: ('A' for Active; 'I' for Inactive)
ROOT
HETATM    1  C1  UNL     1     -33.973  13.976  -3.402  1.00 20.00    -0.018 C 
HETATM    2  C2  UNL     1     -36.282  16.785  -4.715  1.00 20.00    -0.018 C 
HETATM    3  C3  UNL     1     -34.985  13.688  -4.263  1.00 20.00    -0.078 C 
HETATM    4  C4  UNL     1     -35.915  16.760  -3.420  1.00 20.00    -0.078 C 
HETATM    5  C5  UNL     1     -34.864  13.476  -5.737  1.00 20.00     0.035 C 
HETATM    6  C6  UNL     1     -35.022  17.608  -2.542  1.00 20.00     0.035 C 
HETATM    7  C7  UNL     1     -35.422  14.826  -6.279  1.00 20.00     0.013 C 
HETATM    8  C8  UNL     1     -34.015  16.505  -1.975  1.00 20.00     0.013 C 
HETATM    9  C9  UNL     1     -34.248  15.386  -2.986  1.00 20.00     0.017 C 
HETATM   10  C10 UNL     1     -36.471  15.361  -5.268  1.00 20.00     0.017 C 
HETATM   11  C11 UNL     1     -36.243  14.476  -4.041  1.00 20.00     0.030 C 
HETATM   12  C12 UNL     1     -35.775  15.376  -2.956  1.00 20.00     0.030 C 
ENDROOT
TORSDOF 0
ENDMDL
MODEL 8
REMARK VINA RESULT:      -4.9     12.193     13.917
REMARK  0 active torsions:
REMARK  status: ('A' for Active; 'I' for Inactive)
ROOT
HETATM    1  C1  UNL     1     -34.412  15.152  -6.365  1.00 20.00    -0.018 C 
HETATM    2  C2  UNL     1     -34.375  17.001  -2.970  1.00 20.00    -0.018 C 
HETATM    3  C3  UNL     1     -34.345  14.452  -5.201  1.00 20.00    -0.078 C 
HETATM    4  C4  UNL     1     -33.648  17.466  -4.003  1.00 20.00    -0.078 C 
HETATM    5  C5  UNL     1     -35.481  13.773  -4.507  1.00 20.00     0.035 C 
HETATM    6  C6  UNL     1     -33.721  18.677  -4.906  1.00 20.00     0.035 C 
HETATM    7  C7  UNL     1     -35.755  14.769  -3.340  1.00 20.00     0.013 C 
HETATM    8  C8  UNL     1     -33.762  17.983  -6.344  1.00 20.00     0.013 C 
HETATM    9  C9  UNL     1     -34.168  16.566  -5.945  1.00 20.00     0.017 C 
HETATM   10  C10 UNL     1     -34.417  15.462  -2.967  1.00 20.00     0.017 C 
HETATM   11  C11 UNL     1     -33.502  15.085  -4.133  1.00 20.00     0.030 C 
HETATM   12  C12 UNL     1     -33.155  16.354  -4.822  1.00 20.00     0.030 C 
ENDROOT
TORSDOF 0
ENDMDL
MODEL 9
REMARK VINA RESULT:      -4.9     12.125     13.162
REMARK  0 active torsions:
REMARK  status: ('A' for Active; 'I' for Inactive)
ROOT
HETATM    1  C1  UNL     1     -35.357  17.501   2.042  1.00 20.00    -0.018 C 
HETATM    2  C2  UNL     1     -31.976  18.840   0.730  1.00 20.00    -0.018 C 
HETATM    3  C3  UNL     1     -35.255  17.992   0.779  1.00 20.00    -0.078 C 
HETATM    4  C4  UNL     1     -32.380  19.130   1.981  1.00 20.00    -0.078 C 
HETATM    5  C5  UNL     1     -35.112  17.193  -0.475  1.00 20.00     0.035 C 
HETATM    6  C6  UNL     1     -31.931  18.738   3.371  1.00 20.00     0.035 C 
HETATM    7  C7  UNL     1     -33.598  17.393  -0.785  1.00 20.00     0.013 C 
HETATM    8  C8  UNL     1     -33.288  18.149   3.975  1.00 20.00     0.013 C 
HETATM    9  C9  UNL     1     -34.069  17.904   2.686  1.00 20.00     0.017 C 
HETATM   10  C10 UNL     1     -33.169  18.782  -0.241  1.00 20.00     0.017 C 
HETATM   11  C11 UNL     1     -34.355  19.184   0.638  1.00 20.00     0.030 C 
HETATM   12  C12 UNL     1     -33.840  19.263   2.028  1.00 20.00     0.030 C 
ENDROOT
TORSDOF 0
ENDMDL
