MODEL 1
REMARK VINA RESULT:      -3.5      0.000      0.000
REMARK  1 active torsions:
REMARK  status: ('A' for Active; 'I' for Inactive)
REMARK    1  A    between atoms: C4_4  and  C5_5 
ROOT
HETATM    1  C1  UNL     1     -34.616  13.761  -4.162  1.00 20.00     0.069 C 
HETATM    2  C2  UNL     1     -34.710  15.609  -2.553  1.00 20.00     0.032 C 
HETATM    3  C3  UNL     1     -32.545  14.993  -3.640  1.00 20.00     0.032 C 
HETATM    4  C5  UNL     1     -34.064  15.102  -3.856  1.00 20.00     0.054 C 
HETATM    5  N6  UNL     1     -35.049  12.712  -4.401  1.00 20.00    -0.196 NA
ENDROOT
BRANCH   4   6
HETATM    6  C4  UNL     1     -34.408  16.096  -4.986  1.00 20.00     0.138 C 
HETATM    7 CL7  UNL     1     -34.152  15.439  -6.626  1.00 20.00    -0.129 Cl
ENDBRANCH   4   6
TORSDOF 1
ENDMDL
MODEL 2
REMARK VINA RESULT:      -3.4     12.393     13.004
REMARK  1 active torsions:
REMARK  status: ('A' for Active; 'I' for Inactive)
REMARK    1  A    between atoms: C4_4  and  C5_5 
ROOT
HETATM    1  C1  UNL     1     -34.209   6.158   5.628  1.00 20.00     0.069 C 
HETATM    2  C2  UNL     1     -34.789   3.883   4.921  1.00 20.00     0.032 C 
HETATM    3  C3  UNL     1     -35.861   5.855   3.822  1.00 20.00     0.032 C 
HETATM    4  C5  UNL     1     -34.558   5.330   4.448  1.00 20.00     0.054 C 
HETATM    5  N6  UNL     1     -33.935   6.805   6.550  1.00 20.00    -0.196 NA
ENDROOT
BRANCH   4   6
HETATM    6  C4  UNL     1     -33.398   5.327   3.430  1.00 20.00     0.138 C 
HETATM    7 CL7  UNL     1     -32.446   6.838   3.418  1.00 20.00    -0.129 Cl
ENDBRANCH   4   6
TORSDOF 1
ENDMDL
MODEL 3
REMARK VINA RESULT:      -3.4      1.989      2.467
REMARK  1 active torsions:
REMARK  status: ('A' for Active; 'I' for Inactive)
REMARK    1  A    between atoms: C4_4  and  C5_5 
ROOT
HETATM    1  C1  UNL     1     -34.537  13.632  -4.332  1.00 20.00     0.069 C 
HETATM    2  C2  UNL     1     -32.803  15.110  -3.426  1.00 20.00     0.032 C 
HETATM    3  C3  UNL     1     -34.201  15.847  -5.362  1.00 20.00     0.032 C 
HETATM    4  C5  UNL     1     -34.212  15.050  -4.047  1.00 20.00     0.054 C 
HETATM    5  N6  UNL     1     -34.792  12.523  -4.554  1.00 20.00    -0.196 NA
ENDROOT
BRANCH   4   6
HETATM    6  C4  UNL     1     -35.214  15.639  -3.032  1.00 20.00     0.138 C 
HETATM    7 CL7  UNL     1     -34.449  16.263  -1.544  1.00 20.00    -0.129 Cl
ENDBRANCH   4   6
TORSDOF 1
ENDMDL
MODEL 4
REMARK VINA RESULT:      -3.4      1.641      1.988
REMARK  1 active torsions:
REMARK  status: ('A' for Active; 'I' for Inactive)
REMARK    1  A    between atoms: C4_4  and  C5_5 
ROOT
HETATM    1  C1  UNL     1     -36.685  14.440  -4.024  1.00 20.00     0.069 C 
HETATM    2  C2  UNL     1     -34.532  15.113  -3.062  1.00 20.00     0.032 C 
HETATM    3  C3  UNL     1     -34.646  13.227  -4.698  1.00 20.00     0.032 C 
HETATM    4  C5  UNL     1     -35.242  14.595  -4.327  1.00 20.00     0.054 C 
HETATM    5  N6  UNL     1     -37.813  14.319  -3.786  1.00 20.00    -0.196 NA
ENDROOT
BRANCH   4   6
HETATM    6  C4  UNL     1     -35.037  15.630  -5.454  1.00 20.00     0.138 C 
HETATM    7 CL7  UNL     1     -34.380  14.932  -6.961  1.00 20.00    -0.129 Cl
ENDBRANCH   4   6
TORSDOF 1
ENDMDL
MODEL 5
REMARK VINA RESULT:      -3.4      1.965      2.796
REMARK  1 active torsions:
REMARK  status: ('A' for Active; 'I' for Inactive)
REMARK    1  A    between atoms: C4_4  and  C5_5 
ROOT
HETATM    1  C1  UNL     1     -34.766  13.796  -5.012  1.00 20.00     0.069 C 
HETATM    2  C2  UNL     1     -34.373  15.045  -7.085  1.00 20.00     0.032 C 
HETATM    3  C3  UNL     1     -36.033  15.874  -5.410  1.00 20.00     0.032 C 
HETATM    4  C5  UNL     1     -34.680  15.162  -5.580  1.00 20.00     0.054 C 
HETATM    5  N6  UNL     1     -34.833  12.727  -4.568  1.00 20.00    -0.196 NA
ENDROOT
BRANCH   4   6
HETATM    6  C4  UNL     1     -33.534  15.952  -4.913  1.00 20.00     0.138 C 
HETATM    7 CL7  UNL     1     -33.438  15.724  -3.144  1.00 20.00    -0.129 Cl
ENDBRANCH   4   6
TORSDOF 1
ENDMDL
MODEL 6
REMARK VINA RESULT:      -3.4     12.726     13.332
REMARK  1 active torsions:
REMARK  status: ('A' for Active; 'I' for Inactive)
REMARK    1  A    between atoms: C4_4  and  C5_5 
ROOT
HETATM    1  C1  UNL     1     -33.410   5.764   4.108  1.00 20.00     0.069 C 
HETATM    2  C2  UNL     1     -35.857   5.623   4.035  1.00 20.00     0.032 C 
HETATM    3  C3  UNL     1     -34.506   3.684   4.850  1.00 20.00     0.032 C 
HETATM    4  C5  UNL     1     -34.592   5.219   4.816  1.00 20.00     0.054 C 
HETATM    5  N6  UNL     1     -32.485   6.192   3.554  1.00 20.00    -0.196 NA
ENDROOT
BRANCH   4   6
HETATM    6  C4  UNL     1     -34.691   5.815   6.237  1.00 20.00     0.138 C 
HETATM    7 CL7  UNL     1     -33.464   7.067   6.579  1.00 20.00    -0.129 Cl
ENDBRANCH   4   6
TORSDOF 1
ENDMDL
MODEL 7
REMARK VINA RESULT:      -3.4      2.462      2.792
REMARK  1 active torsions:
REMARK  status: ('A' for Active; 'I' for Inactive)
REMARK    1  A    between atoms: C4_4  and  C5_5 
ROOT
HETATM    1  C1  UNL     1     -36.395  14.496  -3.991  1.00 20.00     0.069 C 
HETATM    2  C2  UNL     1     -34.126  13.638  -3.632  1.00 20.00     0.032 C 
HETATM    3  C3  UNL     1     -34.702  14.830  -5.752  1.00 20.00     0.032 C 
HETATM    4  C5  UNL     1     -34.962  14.782  -4.237  1.00 20.00     0.054 C 
HETATM    5  N6  UNL     1     -37.516  14.273  -3.797  1.00 20.00    -0.196 NA
ENDROOT
BRANCH   4   6
HETATM    6  C4  UNL     1     -34.549  16.099  -3.547  1.00 20.00     0.138 C 
HETATM    7 CL7  UNL     1     -34.693  16.056  -1.767  1.00 20.00    -0.129 Cl
ENDBRANCH   4   6
TORSDOF 1
ENDMDL
MODEL 8
REMARK VINA RESULT:      -3.3      1.885      2.458
REMARK  1 active torsions:
REMARK  status: ('A' for Active; 'I' for Inactive)
REMARK    1  A    between atoms: C4_4  and  C5_5 
ROOT
HETATM    1  C1  UNL     1     -36.375  14.782  -3.598  1.00 20.00     0.069 C 
HETATM    2  C2  UNL     1     -34.754  16.383  -4.504  1.00 20.00     0.032 C 
HETATM    3  C3  UNL     1     -34.865  15.958  -2.043  1.00 20.00     0.032 C 
HETATM    4  C5  UNL     1     -34.999  15.307  -3.430  1.00 20.00     0.054 C 
HETATM    5  N6  UNL     1     -37.451  14.371  -3.730  1.00 20.00    -0.196 NA
ENDROOT
BRANCH   4   6
HETATM    6  C4  UNL     1     -33.964  14.179  -3.631  1.00 20.00     0.138 C 
HETATM    7 CL7  UNL     1     -34.398  13.025  -4.922  1.00 20.00    -0.129 Cl
ENDBRANCH   4   6
TORSDOF 1
ENDMDL
MODEL 9
REMARK VINA RESULT:      -3.3      1.192      1.568
REMARK  1 active torsions:
REMARK  status: ('A' for Active; 'I' for Inactive)
REMARK    1  A    between atoms: C4_4  and  C5_5 
ROOT
HETATM    1  C1  UNL     1     -34.039  14.113  -3.614  1.00 20.00     0.069 C 
HETATM    2  C2  UNL     1     -36.347  14.940  -3.563  1.00 20.00     0.032 C 
HETATM    3  C3  UNL     1     -34.611  15.958  -2.081  1.00 20.00     0.032 C 
HETATM    4  C5  UNL     1     -34.862  15.337  -3.466  1.00 20.00     0.054 C 
HETATM    5  N6  UNL     1     -33.395  13.156  -3.731  1.00 20.00    -0.196 NA
ENDROOT
BRANCH   4   6
HETATM    6  C4  UNL     1     -34.553  16.336  -4.602  1.00 20.00     0.138 C 
HETATM    7 CL7  UNL     1     -34.180  15.555  -6.164  1.00 20.00    -0.129 Cl
ENDBRANCH   4   6
TORSDOF 1
ENDMDL
