MODEL 1
REMARK VINA RESULT:      -4.7      0.000      0.000
REMARK  3 active torsions:
REMARK  status: ('A' for Active; 'I' for Inactive)
REMARK    1  A    between atoms: C2_2  and  C8_8 
REMARK    2  A    between atoms: C6_6  and  C7_7 
REMARK    3  A    between atoms: C7_7  and  C8_8 
ROOT
HETATM    1  C5  UNL     1     -35.803   5.747   3.242  1.00 20.00     0.014 C 
HETATM    2  C8  UNL     1     -34.510   6.040   4.007  1.00 20.00     0.004 C 
ENDROOT
BRANCH   2   3
HETATM    3  C2  UNL     1     -34.454   5.175   5.243  1.00 20.00    -0.027 C 
HETATM    4  C1  UNL     1     -34.126   5.634   6.459  1.00 20.00    -0.035 C 
HETATM    5  C3  UNL     1     -33.775   7.057   6.743  1.00 20.00     0.036 C 
ENDBRANCH   2   3
BRANCH   2   6
HETATM    6  C7  UNL     1     -33.291   5.810   3.091  1.00 20.00     0.008 C 
BRANCH   6   7
HETATM    7  C6  UNL     1     -32.138   6.779   3.370  1.00 20.00    -0.004 C 
HETATM    8  C4  UNL     1     -32.103   7.908   2.351  1.00 20.00     0.005 C 
ENDBRANCH   6   7
ENDBRANCH   2   6
TORSDOF 3
ENDMDL
MODEL 2
REMARK VINA RESULT:      -4.6      1.223      2.120
REMARK  3 active torsions:
REMARK  status: ('A' for Active; 'I' for Inactive)
REMARK    1  A    between atoms: C2_2  and  C8_8 
REMARK    2  A    between atoms: C6_6  and  C7_7 
REMARK    3  A    between atoms: C7_7  and  C8_8 
ROOT
HETATM    1  C5  UNL     1     -33.239   7.073   5.113  1.00 20.00     0.014 C 
HETATM    2  C8  UNL     1     -33.269   5.927   4.099  1.00 20.00     0.004 C 
ENDROOT
BRANCH   2   3
HETATM    3  C2  UNL     1     -34.703   5.566   3.796  1.00 20.00    -0.027 C 
HETATM    4  C1  UNL     1     -35.441   4.744   4.555  1.00 20.00    -0.035 C 
HETATM    5  C3  UNL     1     -34.937   4.082   5.794  1.00 20.00     0.036 C 
ENDBRANCH   2   3
BRANCH   2   6
HETATM    6  C7  UNL     1     -32.498   6.327   2.826  1.00 20.00     0.008 C 
BRANCH   6   7
HETATM    7  C6  UNL     1     -31.858   7.716   2.921  1.00 20.00    -0.004 C 
HETATM    8  C4  UNL     1     -32.070   8.515   1.644  1.00 20.00     0.005 C 
ENDBRANCH   6   7
ENDBRANCH   2   6
TORSDOF 3
ENDMDL
MODEL 3
REMARK VINA RESULT:      -4.4      1.158      3.954
REMARK  3 active torsions:
REMARK  status: ('A' for Active; 'I' for Inactive)
REMARK    1  A    between atoms: C2_2  and  C8_8 
REMARK    2  A    between atoms: C6_6  and  C7_7 
REMARK    3  A    between atoms: C7_7  and  C8_8 
ROOT
HETATM    1  C5  UNL     1     -33.619   6.820   5.376  1.00 20.00     0.014 C 
HETATM    2  C8  UNL     1     -33.659   6.616   3.859  1.00 20.00     0.004 C 
ENDROOT
BRANCH   2   3
HETATM    3  C2  UNL     1     -32.249   6.517   3.331  1.00 20.00    -0.027 C 
HETATM    4  C1  UNL     1     -31.694   7.425   2.515  1.00 20.00    -0.035 C 
HETATM    5  C3  UNL     1     -32.401   8.645   2.027  1.00 20.00     0.036 C 
ENDBRANCH   2   3
BRANCH   2   6
HETATM    6  C7  UNL     1     -34.488   5.361   3.517  1.00 20.00     0.008 C 
BRANCH   6   7
HETATM    7  C6  UNL     1     -35.443   4.946   4.641  1.00 20.00    -0.004 C 
HETATM    8  C4  UNL     1     -34.866   3.806   5.467  1.00 20.00     0.005 C 
ENDBRANCH   6   7
ENDBRANCH   2   6
TORSDOF 3
ENDMDL
MODEL 4
REMARK VINA RESULT:      -4.2      1.156      2.509
REMARK  3 active torsions:
REMARK  status: ('A' for Active; 'I' for Inactive)
REMARK    1  A    between atoms: C2_2  and  C8_8 
REMARK    2  A    between atoms: C6_6  and  C7_7 
REMARK    3  A    between atoms: C7_7  and  C8_8 
ROOT
HETATM    1  C5  UNL     1     -33.284   7.384   6.694  1.00 20.00     0.014 C 
HETATM    2  C8  UNL     1     -33.635   6.180   5.816  1.00 20.00     0.004 C 
ENDROOT
BRANCH   2   3
HETATM    3  C2  UNL     1     -34.847   5.483   6.387  1.00 20.00    -0.027 C 
HETATM    4  C1  UNL     1     -35.284   4.286   5.968  1.00 20.00    -0.035 C 
HETATM    5  C3  UNL     1     -34.628   3.495   4.886  1.00 20.00     0.036 C 
ENDBRANCH   2   3
BRANCH   2   6
HETATM    6  C7  UNL     1     -33.869   6.636   4.362  1.00 20.00     0.008 C 
BRANCH   6   7
HETATM    7  C6  UNL     1     -32.716   6.266   3.423  1.00 20.00    -0.004 C 
HETATM    8  C4  UNL     1     -32.155   7.493   2.722  1.00 20.00     0.005 C 
ENDBRANCH   6   7
ENDBRANCH   2   6
TORSDOF 3
ENDMDL
MODEL 5
REMARK VINA RESULT:      -4.1      1.217      2.479
REMARK  3 active torsions:
REMARK  status: ('A' for Active; 'I' for Inactive)
REMARK    1  A    between atoms: C2_2  and  C8_8 
REMARK    2  A    between atoms: C6_6  and  C7_7 
REMARK    3  A    between atoms: C7_7  and  C8_8 
ROOT
HETATM    1  C5  UNL     1     -32.166   5.382   2.896  1.00 20.00     0.014 C 
HETATM    2  C8  UNL     1     -32.927   6.631   3.348  1.00 20.00     0.004 C 
ENDROOT
BRANCH   2   3
HETATM    3  C2  UNL     1     -33.301   6.488   4.804  1.00 20.00    -0.027 C 
HETATM    4  C1  UNL     1     -34.350   5.773   5.236  1.00 20.00    -0.035 C 
HETATM    5  C3  UNL     1     -35.278   5.031   4.334  1.00 20.00     0.036 C 
ENDBRANCH   2   3
BRANCH   2   6
HETATM    6  C7  UNL     1     -32.073   7.890   3.097  1.00 20.00     0.008 C 
BRANCH   6   7
HETATM    7  C6  UNL     1     -31.976   8.266   1.615  1.00 20.00    -0.004 C 
HETATM    8  C4  UNL     1     -32.398   9.708   1.379  1.00 20.00     0.005 C 
ENDBRANCH   6   7
ENDBRANCH   2   6
TORSDOF 3
ENDMDL
MODEL 6
REMARK VINA RESULT:      -4.0      1.401      4.527
REMARK  3 active torsions:
REMARK  status: ('A' for Active; 'I' for Inactive)
REMARK    1  A    between atoms: C2_2  and  C8_8 
REMARK    2  A    between atoms: C6_6  and  C7_7 
REMARK    3  A    between atoms: C7_7  and  C8_8 
ROOT
HETATM    1  C5  UNL     1     -31.364   7.568   4.065  1.00 20.00     0.014 C 
HETATM    2  C8  UNL     1     -32.499   7.446   3.045  1.00 20.00     0.004 C 
ENDROOT
BRANCH   2   3
HETATM    3  C2  UNL     1     -31.955   7.690   1.659  1.00 20.00    -0.027 C 
HETATM    4  C1  UNL     1     -32.015   8.875   1.033  1.00 20.00    -0.035 C 
HETATM    5  C3  UNL     1     -32.629  10.098   1.627  1.00 20.00     0.036 C 
ENDBRANCH   2   3
BRANCH   2   6
HETATM    6  C7  UNL     1     -33.167   6.061   3.162  1.00 20.00     0.008 C 
BRANCH   6   7
HETATM    7  C6  UNL     1     -33.931   5.870   4.476  1.00 20.00    -0.004 C 
HETATM    8  C4  UNL     1     -35.204   5.064   4.268  1.00 20.00     0.005 C 
ENDBRANCH   6   7
ENDBRANCH   2   6
TORSDOF 3
ENDMDL
MODEL 7
REMARK VINA RESULT:      -3.9     11.137     12.484
REMARK  3 active torsions:
REMARK  status: ('A' for Active; 'I' for Inactive)
REMARK    1  A    between atoms: C2_2  and  C8_8 
REMARK    2  A    between atoms: C6_6  and  C7_7 
REMARK    3  A    between atoms: C7_7  and  C8_8 
ROOT
HETATM    1  C5  UNL     1     -33.314  16.891  -5.056  1.00 20.00     0.014 C 
HETATM    2  C8  UNL     1     -33.876  16.094  -3.877  1.00 20.00     0.004 C 
ENDROOT
BRANCH   2   3
HETATM    3  C2  UNL     1     -33.045  14.851  -3.673  1.00 20.00    -0.027 C 
HETATM    4  C1  UNL     1     -33.514  13.606  -3.843  1.00 20.00    -0.035 C 
HETATM    5  C3  UNL     1     -34.914  13.294  -4.255  1.00 20.00     0.036 C 
ENDBRANCH   2   3
BRANCH   2   6
HETATM    6  C7  UNL     1     -33.909  16.975  -2.611  1.00 20.00     0.008 C 
BRANCH   6   7
HETATM    7  C6  UNL     1     -34.675  16.333  -1.451  1.00 20.00    -0.004 C 
HETATM    8  C4  UNL     1     -34.613  17.195  -0.199  1.00 20.00     0.005 C 
ENDBRANCH   6   7
ENDBRANCH   2   6
TORSDOF 3
ENDMDL
MODEL 8
REMARK VINA RESULT:      -3.9     11.042     12.089
REMARK  3 active torsions:
REMARK  status: ('A' for Active; 'I' for Inactive)
REMARK    1  A    between atoms: C2_2  and  C8_8 
REMARK    2  A    between atoms: C6_6  and  C7_7 
REMARK    3  A    between atoms: C7_7  and  C8_8 
ROOT
HETATM    1  C5  UNL     1     -33.755  16.971  -4.272  1.00 20.00     0.014 C 
HETATM    2  C8  UNL     1     -33.441  16.022  -3.113  1.00 20.00     0.004 C 
ENDROOT
BRANCH   2   3
HETATM    3  C2  UNL     1     -34.624  15.966  -2.177  1.00 20.00    -0.027 C 
HETATM    4  C1  UNL     1     -34.718  16.690  -1.053  1.00 20.00    -0.035 C 
HETATM    5  C3  UNL     1     -33.666  17.640  -0.586  1.00 20.00     0.036 C 
ENDBRANCH   2   3
BRANCH   2   6
HETATM    6  C7  UNL     1     -33.075  14.626  -3.658  1.00 20.00     0.008 C 
BRANCH   6   7
HETATM    7  C6  UNL     1     -34.247  13.640  -3.620  1.00 20.00    -0.004 C 
HETATM    8  C4  UNL     1     -34.778  13.355  -5.017  1.00 20.00     0.005 C 
ENDBRANCH   6   7
ENDBRANCH   2   6
TORSDOF 3
ENDMDL
MODEL 9
REMARK VINA RESULT:      -3.9      0.977      3.464
REMARK  3 active torsions:
REMARK  status: ('A' for Active; 'I' for Inactive)
REMARK    1  A    between atoms: C2_2  and  C8_8 
REMARK    2  A    between atoms: C6_6  and  C7_7 
REMARK    3  A    between atoms: C7_7  and  C8_8 
ROOT
HETATM    1  C5  UNL     1     -35.140   3.761   5.241  1.00 20.00     0.014 C 
HETATM    2  C8  UNL     1     -34.266   5.013   5.131  1.00 20.00     0.004 C 
ENDROOT
BRANCH   2   3
HETATM    3  C2  UNL     1     -34.593   5.740   3.849  1.00 20.00    -0.027 C 
HETATM    4  C1  UNL     1     -33.667   6.182   2.986  1.00 20.00    -0.035 C 
HETATM    5  C3  UNL     1     -32.198   6.012   3.186  1.00 20.00     0.036 C 
ENDBRANCH   2   3
BRANCH   2   6
HETATM    6  C7  UNL     1     -34.472   5.911   6.367  1.00 20.00     0.008 C 
BRANCH   6   7
HETATM    7  C6  UNL     1     -33.438   7.037   6.471  1.00 20.00    -0.004 C 
HETATM    8  C4  UNL     1     -33.744   7.966   7.636  1.00 20.00     0.005 C 
ENDBRANCH   6   7
ENDBRANCH   2   6
TORSDOF 3
ENDMDL
