MODEL 1
REMARK VINA RESULT:      -5.2      0.000      0.000
REMARK  0 active torsions:
REMARK  status: ('A' for Active; 'I' for Inactive)
ROOT
HETATM    1  C1  UNL     1     -36.726  14.917  -4.210  1.00 20.00     0.135 C 
HETATM    2  C2  UNL     1     -36.741  16.400  -3.940  1.00 20.00     0.080 C 
HETATM    3  C3  UNL     1     -35.955  16.765  -2.685  1.00 20.00     0.016 C 
HETATM    4  C4  UNL     1     -34.824  13.191  -4.440  1.00 20.00     0.023 A 
HETATM    5  C5  UNL     1     -34.006  15.107  -2.914  1.00 20.00     0.014 C 
HETATM    6  C6  UNL     1     -34.187  14.545  -4.294  1.00 20.00     0.003 A 
HETATM    7  C7  UNL     1     -35.542  14.416  -4.968  1.00 20.00     0.021 A 
HETATM    8  C8  UNL     1     -34.411  16.593  -2.747  1.00 20.00    -0.047 C 
HETATM    9  C9  UNL     1     -35.593  14.558  -6.470  1.00 20.00     0.024 C 
HETATM   10  C10 UNL     1     -33.790  17.477  -3.842  1.00 20.00     0.015 C 
HETATM   11  C11 UNL     1     -33.850  17.074  -1.387  1.00 20.00     0.015 C 
HETATM   12  O12 UNL     1     -37.619  14.157  -3.854  1.00 20.00    -0.297 OA
ENDROOT
TORSDOF 0
ENDMDL
MODEL 2
REMARK VINA RESULT:      -4.8      2.109      4.077
REMARK  0 active torsions:
REMARK  status: ('A' for Active; 'I' for Inactive)
ROOT
HETATM    1  C1  UNL     1     -33.396  15.938  -4.446  1.00 20.00     0.135 C 
HETATM    2  C2  UNL     1     -34.136  16.865  -5.378  1.00 20.00     0.080 C 
HETATM    3  C3  UNL     1     -34.594  16.158  -6.648  1.00 20.00     0.016 C 
HETATM    4  C4  UNL     1     -33.979  13.647  -3.416  1.00 20.00     0.023 A 
HETATM    5  C5  UNL     1     -35.252  13.884  -5.651  1.00 20.00     0.014 C 
HETATM    6  C6  UNL     1     -35.190  14.122  -4.169  1.00 20.00     0.003 A 
HETATM    7  C7  UNL     1     -34.254  15.132  -3.529  1.00 20.00     0.021 A 
HETATM    8  C8  UNL     1     -35.718  15.095  -6.497  1.00 20.00    -0.047 C 
HETATM    9  C9  UNL     1     -34.723  15.818  -2.267  1.00 20.00     0.024 C 
HETATM   10  C10 UNL     1     -37.008  15.717  -5.934  1.00 20.00     0.015 C 
HETATM   11  C11 UNL     1     -36.036  14.570  -7.917  1.00 20.00     0.015 C 
HETATM   12  O12 UNL     1     -32.175  15.845  -4.417  1.00 20.00    -0.297 OA
ENDROOT
TORSDOF 0
ENDMDL
MODEL 3
REMARK VINA RESULT:      -4.8      1.735      3.542
REMARK  0 active torsions:
REMARK  status: ('A' for Active; 'I' for Inactive)
ROOT
HETATM    1  C1  UNL     1     -34.684  13.789  -4.719  1.00 20.00     0.135 C 
HETATM    2  C2  UNL     1     -34.678  14.081  -6.198  1.00 20.00     0.080 C 
HETATM    3  C3  UNL     1     -35.883  14.911  -6.625  1.00 20.00     0.016 C 
HETATM    4  C4  UNL     1     -34.869  15.291  -2.631  1.00 20.00     0.023 A 
HETATM    5  C5  UNL     1     -36.059  16.474  -4.594  1.00 20.00     0.014 C 
HETATM    6  C6  UNL     1     -34.796  16.195  -3.830  1.00 20.00     0.003 A 
HETATM    7  C7  UNL     1     -34.090  14.851  -3.854  1.00 20.00     0.021 A 
HETATM    8  C8  UNL     1     -35.931  16.386  -6.135  1.00 20.00    -0.047 C 
HETATM    9  C9  UNL     1     -32.586  14.848  -3.718  1.00 20.00     0.024 C 
HETATM   10  C10 UNL     1     -34.726  17.190  -6.653  1.00 20.00     0.015 C 
HETATM   11  C11 UNL     1     -37.207  17.020  -6.740  1.00 20.00     0.015 C 
HETATM   12  O12 UNL     1     -35.127  12.753  -4.237  1.00 20.00    -0.297 OA
ENDROOT
TORSDOF 0
ENDMDL
MODEL 4
REMARK VINA RESULT:      -4.7      1.494      2.092
REMARK  0 active torsions:
REMARK  status: ('A' for Active; 'I' for Inactive)
ROOT
HETATM    1  C1  UNL     1     -35.386  13.975  -5.023  1.00 20.00     0.135 C 
HETATM    2  C2  UNL     1     -36.038  14.484  -3.763  1.00 20.00     0.080 C 
HETATM    3  C3  UNL     1     -35.079  15.307  -2.910  1.00 20.00     0.016 C 
HETATM    4  C4  UNL     1     -34.091  15.140  -6.926  1.00 20.00     0.023 A 
HETATM    5  C5  UNL     1     -33.811  16.540  -4.774  1.00 20.00     0.014 C 
HETATM    6  C6  UNL     1     -34.603  16.215  -6.008  1.00 20.00     0.003 A 
HETATM    7  C7  UNL     1     -35.389  14.926  -6.174  1.00 20.00     0.021 A 
HETATM    8  C8  UNL     1     -34.642  16.688  -3.475  1.00 20.00    -0.047 C 
HETATM    9  C9  UNL     1     -36.652  14.978  -7.002  1.00 20.00     0.024 C 
HETATM   10  C10 UNL     1     -35.850  17.620  -3.677  1.00 20.00     0.015 C 
HETATM   11  C11 UNL     1     -33.724  17.340  -2.413  1.00 20.00     0.015 C 
HETATM   12  O12 UNL     1     -34.892  12.859  -5.124  1.00 20.00    -0.297 OA
ENDROOT
TORSDOF 0
ENDMDL
MODEL 5
REMARK VINA RESULT:      -4.7      1.419      3.741
REMARK  0 active torsions:
REMARK  status: ('A' for Active; 'I' for Inactive)
ROOT
HETATM    1  C1  UNL     1     -36.205  16.703  -2.966  1.00 20.00     0.135 C 
HETATM    2  C2  UNL     1     -36.621  15.322  -3.405  1.00 20.00     0.080 C 
HETATM    3  C3  UNL     1     -36.208  15.027  -4.843  1.00 20.00     0.016 C 
HETATM    4  C4  UNL     1     -33.944  17.943  -2.974  1.00 20.00     0.023 A 
HETATM    5  C5  UNL     1     -33.919  16.191  -4.871  1.00 20.00     0.014 C 
HETATM    6  C6  UNL     1     -33.684  16.533  -3.427  1.00 20.00     0.003 A 
HETATM    7  C7  UNL     1     -34.810  16.817  -2.448  1.00 20.00     0.021 A 
HETATM    8  C8  UNL     1     -34.687  14.869  -5.120  1.00 20.00    -0.047 C 
HETATM    9  C9  UNL     1     -34.594  16.433  -1.003  1.00 20.00     0.024 C 
HETATM   10  C10 UNL     1     -34.086  13.703  -4.316  1.00 20.00     0.015 C 
HETATM   11  C11 UNL     1     -34.536  14.525  -6.621  1.00 20.00     0.015 C 
HETATM   12  O12 UNL     1     -36.946  17.678  -3.010  1.00 20.00    -0.297 OA
ENDROOT
TORSDOF 0
ENDMDL
MODEL 6
REMARK VINA RESULT:      -4.7      1.993      4.006
REMARK  0 active torsions:
REMARK  status: ('A' for Active; 'I' for Inactive)
ROOT
HETATM    1  C1  UNL     1     -34.450  17.694  -4.031  1.00 20.00     0.135 C 
HETATM    2  C2  UNL     1     -35.299  17.069  -5.109  1.00 20.00     0.080 C 
HETATM    3  C3  UNL     1     -34.878  15.637  -5.416  1.00 20.00     0.016 C 
HETATM    4  C4  UNL     1     -33.829  16.960  -1.637  1.00 20.00     0.023 A 
HETATM    5  C5  UNL     1     -34.314  14.845  -3.038  1.00 20.00     0.014 C 
HETATM    6  C6  UNL     1     -34.819  15.962  -2.170  1.00 20.00     0.003 A 
HETATM    7  C7  UNL     1     -34.882  17.408  -2.630  1.00 20.00     0.021 A 
HETATM    8  C8  UNL     1     -35.147  14.572  -4.315  1.00 20.00    -0.047 C 
HETATM    9  C9  UNL     1     -35.991  18.271  -2.077  1.00 20.00     0.024 C 
HETATM   10  C10 UNL     1     -36.649  14.456  -4.000  1.00 20.00     0.015 C 
HETATM   11  C11 UNL     1     -34.685  13.209  -4.884  1.00 20.00     0.015 C 
HETATM   12  O12 UNL     1     -33.476  18.400  -4.262  1.00 20.00    -0.297 OA
ENDROOT
TORSDOF 0
ENDMDL
MODEL 7
REMARK VINA RESULT:      -4.6      2.110      3.033
REMARK  0 active torsions:
REMARK  status: ('A' for Active; 'I' for Inactive)
ROOT
HETATM    1  C1  UNL     1     -34.471  16.803  -6.266  1.00 20.00     0.135 C 
HETATM    2  C2  UNL     1     -33.290  16.500  -5.379  1.00 20.00     0.080 C 
HETATM    3  C3  UNL     1     -33.610  16.710  -3.904  1.00 20.00     0.016 C 
HETATM    4  C4  UNL     1     -36.913  15.973  -6.286  1.00 20.00     0.023 A 
HETATM    5  C5  UNL     1     -36.023  15.827  -3.867  1.00 20.00     0.014 C 
HETATM    6  C6  UNL     1     -36.185  15.200  -5.222  1.00 20.00     0.003 A 
HETATM    7  C7  UNL     1     -35.436  15.679  -6.453  1.00 20.00     0.021 A 
HETATM    8  C8  UNL     1     -34.606  15.711  -3.250  1.00 20.00    -0.047 C 
HETATM    9  C9  UNL     1     -35.078  14.650  -7.499  1.00 20.00     0.024 C 
HETATM   10  C10 UNL     1     -34.077  14.268  -3.311  1.00 20.00     0.015 C 
HETATM   11  C11 UNL     1     -34.720  16.101  -1.757  1.00 20.00     0.015 C 
HETATM   12  O12 UNL     1     -34.642  17.884  -6.817  1.00 20.00    -0.297 OA
ENDROOT
TORSDOF 0
ENDMDL
MODEL 8
REMARK VINA RESULT:      -4.5      1.947      2.865
REMARK  0 active torsions:
REMARK  status: ('A' for Active; 'I' for Inactive)
ROOT
HETATM    1  C1  UNL     1     -35.603  17.676  -3.636  1.00 20.00     0.135 C 
HETATM    2  C2  UNL     1     -35.352  18.911  -2.810  1.00 20.00     0.080 C 
HETATM    3  C3  UNL     1     -35.602  18.671  -1.325  1.00 20.00     0.016 C 
HETATM    4  C4  UNL     1     -34.726  15.255  -3.491  1.00 20.00     0.023 A 
HETATM    5  C5  UNL     1     -34.674  16.284  -1.123  1.00 20.00     0.014 C 
HETATM    6  C6  UNL     1     -34.002  16.059  -2.447  1.00 20.00     0.003 A 
HETATM    7  C7  UNL     1     -34.456  16.726  -3.733  1.00 20.00     0.021 A 
HETATM    8  C8  UNL     1     -34.605  17.736  -0.585  1.00 20.00    -0.047 C 
HETATM    9  C9  UNL     1     -33.401  17.045  -4.766  1.00 20.00     0.024 C 
HETATM   10  C10 UNL     1     -33.171  18.291  -0.633  1.00 20.00     0.015 C 
HETATM   11  C11 UNL     1     -35.040  17.698   0.900  1.00 20.00     0.015 C 
HETATM   12  O12 UNL     1     -36.663  17.451  -4.209  1.00 20.00    -0.297 OA
ENDROOT
TORSDOF 0
ENDMDL
MODEL 9
REMARK VINA RESULT:      -4.5      1.648      2.698
REMARK  0 active torsions:
REMARK  status: ('A' for Active; 'I' for Inactive)
ROOT
HETATM    1  C1  UNL     1     -34.278  15.579  -5.073  1.00 20.00     0.135 C 
HETATM    2  C2  UNL     1     -33.281  16.170  -4.108  1.00 20.00     0.080 C 
HETATM    3  C3  UNL     1     -33.799  17.447  -3.456  1.00 20.00     0.016 C 
HETATM    4  C4  UNL     1     -36.759  14.911  -4.848  1.00 20.00     0.023 A 
HETATM    5  C5  UNL     1     -36.264  16.794  -3.151  1.00 20.00     0.014 C 
HETATM    6  C6  UNL     1     -36.281  15.329  -3.485  1.00 20.00     0.003 A 
HETATM    7  C7  UNL     1     -35.310  14.690  -4.462  1.00 20.00     0.021 A 
HETATM    8  C8  UNL     1     -34.977  17.298  -2.453  1.00 20.00    -0.047 C 
HETATM    9  C9  UNL     1     -34.902  13.258  -4.208  1.00 20.00     0.024 C 
HETATM   10  C10 UNL     1     -34.590  16.405  -1.261  1.00 20.00     0.015 C 
HETATM   11  C11 UNL     1     -35.276  18.711  -1.897  1.00 20.00     0.015 C 
HETATM   12  O12 UNL     1     -34.255  15.788  -6.280  1.00 20.00    -0.297 OA
ENDROOT
TORSDOF 0
ENDMDL
