MODEL 1
REMARK VINA RESULT:      -4.1      0.000      0.000
REMARK  1 active torsions:
REMARK  status: ('A' for Active; 'I' for Inactive)
REMARK    1  A    between atoms: C1_1  and  C3_3 
ROOT
HETATM    1  C1  UNL     1     -34.325   5.571   3.616  1.00 20.00     0.043 C 
HETATM    2  C2  UNL     1     -33.378   6.364   4.132  1.00 20.00     0.183 C 
HETATM    3  F4  UNL     1     -33.428   6.714   5.437  1.00 20.00    -0.193 F 
HETATM    4 CL5  UNL     1     -32.082   6.956   3.163  1.00 20.00    -0.052 Cl
ENDROOT
BRANCH   1   5
HETATM    5  C3  UNL     1     -35.468   5.015   4.401  1.00 20.00     0.145 C 
HETATM    6 CL6  UNL     1     -34.860   3.941   5.678  1.00 20.00    -0.126 Cl
ENDBRANCH   1   5
TORSDOF 1
ENDMDL
MODEL 2
REMARK VINA RESULT:      -4.0      1.575      1.575
REMARK  1 active torsions:
REMARK  status: ('A' for Active; 'I' for Inactive)
REMARK    1  A    between atoms: C1_1  and  C3_3 
ROOT
HETATM    1  C1  UNL     1     -34.123   5.927   4.424  1.00 20.00     0.043 C 
HETATM    2  C2  UNL     1     -33.467   6.034   3.263  1.00 20.00     0.183 C 
HETATM    3  F4  UNL     1     -33.834   5.275   2.207  1.00 20.00    -0.193 F 
HETATM    4 CL5  UNL     1     -32.149   7.129   3.080  1.00 20.00    -0.052 Cl
ENDROOT
BRANCH   1   5
HETATM    5  C3  UNL     1     -35.278   5.006   4.649  1.00 20.00     0.145 C 
HETATM    6 CL6  UNL     1     -35.095   4.175   6.208  1.00 20.00    -0.126 Cl
ENDBRANCH   1   5
TORSDOF 1
ENDMDL
MODEL 3
REMARK VINA RESULT:      -4.0      1.758      1.828
REMARK  1 active torsions:
REMARK  status: ('A' for Active; 'I' for Inactive)
REMARK    1  A    between atoms: C1_1  and  C3_3 
ROOT
HETATM    1  C1  UNL     1     -33.772   6.589   3.826  1.00 20.00     0.043 C 
HETATM    2  C2  UNL     1     -32.588   6.631   3.203  1.00 20.00     0.183 C 
HETATM    3  F4  UNL     1     -31.722   5.601   3.329  1.00 20.00    -0.193 F 
HETATM    4 CL5  UNL     1     -32.136   7.982   2.234  1.00 20.00    -0.052 Cl
ENDROOT
BRANCH   1   5
HETATM    5  C3  UNL     1     -34.231   5.446   4.672  1.00 20.00     0.145 C 
HETATM    6 CL6  UNL     1     -34.311   5.948   6.374  1.00 20.00    -0.126 Cl
ENDBRANCH   1   5
TORSDOF 1
ENDMDL
MODEL 4
REMARK VINA RESULT:      -4.0      1.325      3.529
REMARK  1 active torsions:
REMARK  status: ('A' for Active; 'I' for Inactive)
REMARK    1  A    between atoms: C1_1  and  C3_3 
ROOT
HETATM    1  C1  UNL     1     -33.223   6.159   3.412  1.00 20.00     0.043 C 
HETATM    2  C2  UNL     1     -33.990   5.986   4.494  1.00 20.00     0.183 C 
HETATM    3  F4  UNL     1     -33.671   6.602   5.654  1.00 20.00    -0.193 F 
HETATM    4 CL5  UNL     1     -35.393   4.986   4.444  1.00 20.00    -0.052 Cl
ENDROOT
BRANCH   1   5
HETATM    5  C3  UNL     1     -32.001   7.018   3.383  1.00 20.00     0.145 C 
HETATM    6 CL6  UNL     1     -32.089   8.149   2.015  1.00 20.00    -0.126 Cl
ENDBRANCH   1   5
TORSDOF 1
ENDMDL
MODEL 5
REMARK VINA RESULT:      -3.9      1.493      3.542
REMARK  1 active torsions:
REMARK  status: ('A' for Active; 'I' for Inactive)
REMARK    1  A    between atoms: C1_1  and  C3_3 
ROOT
HETATM    1  C1  UNL     1     -33.637   5.773   4.415  1.00 20.00     0.043 C 
HETATM    2  C2  UNL     1     -34.847   5.253   4.654  1.00 20.00     0.183 C 
HETATM    3  F4  UNL     1     -35.837   5.401   3.746  1.00 20.00    -0.193 F 
HETATM    4 CL5  UNL     1     -35.177   4.391   6.109  1.00 20.00    -0.052 Cl
ENDROOT
BRANCH   1   5
HETATM    5  C3  UNL     1     -33.281   6.523   3.173  1.00 20.00     0.145 C 
HETATM    6 CL6  UNL     1     -31.733   7.364   3.397  1.00 20.00    -0.126 Cl
ENDBRANCH   1   5
TORSDOF 1
ENDMDL
MODEL 6
REMARK VINA RESULT:      -3.8      1.920      3.797
REMARK  1 active torsions:
REMARK  status: ('A' for Active; 'I' for Inactive)
REMARK    1  A    between atoms: C1_1  and  C3_3 
ROOT
HETATM    1  C1  UNL     1     -33.200   6.361   4.006  1.00 20.00     0.043 C 
HETATM    2  C2  UNL     1     -34.157   5.580   3.492  1.00 20.00     0.183 C 
HETATM    3  F4  UNL     1     -34.047   5.121   2.226  1.00 20.00    -0.193 F 
HETATM    4 CL5  UNL     1     -35.544   5.142   4.416  1.00 20.00    -0.052 Cl
ENDROOT
BRANCH   1   5
HETATM    5  C3  UNL     1     -31.969   6.771   3.266  1.00 20.00     0.145 C 
HETATM    6 CL6  UNL     1     -32.333   8.146   2.202  1.00 20.00    -0.126 Cl
ENDBRANCH   1   5
TORSDOF 1
ENDMDL
MODEL 7
REMARK VINA RESULT:      -3.7      2.369      2.480
REMARK  1 active torsions:
REMARK  status: ('A' for Active; 'I' for Inactive)
REMARK    1  A    between atoms: C1_1  and  C3_3 
ROOT
HETATM    1  C1  UNL     1     -34.625   5.455   6.252  1.00 20.00     0.043 C 
HETATM    2  C2  UNL     1     -33.772   6.456   6.004  1.00 20.00     0.183 C 
HETATM    3  F4  UNL     1     -33.214   6.580   4.780  1.00 20.00    -0.193 F 
HETATM    4 CL5  UNL     1     -33.363   7.603   7.223  1.00 20.00    -0.052 Cl
ENDROOT
BRANCH   1   5
HETATM    5  C3  UNL     1     -35.030   4.433   5.240  1.00 20.00     0.145 C 
HETATM    6 CL6  UNL     1     -35.664   5.237   3.788  1.00 20.00    -0.126 Cl
ENDBRANCH   1   5
TORSDOF 1
ENDMDL
MODEL 8
REMARK VINA RESULT:      -3.5      2.612      2.705
REMARK  1 active torsions:
REMARK  status: ('A' for Active; 'I' for Inactive)
REMARK    1  A    between atoms: C1_1  and  C3_3 
ROOT
HETATM    1  C1  UNL     1     -33.982   5.571   4.883  1.00 20.00     0.043 C 
HETATM    2  C2  UNL     1     -34.806   5.360   3.850  1.00 20.00     0.183 C 
HETATM    3  F4  UNL     1     -36.142   5.321   4.050  1.00 20.00    -0.193 F 
HETATM    4 CL5  UNL     1     -34.199   5.133   2.254  1.00 20.00    -0.052 Cl
ENDROOT
BRANCH   1   5
HETATM    5  C3  UNL     1     -34.441   5.786   6.288  1.00 20.00     0.145 C 
HETATM    6 CL6  UNL     1     -33.720   7.272   6.940  1.00 20.00    -0.126 Cl
ENDBRANCH   1   5
TORSDOF 1
ENDMDL
MODEL 9
REMARK VINA RESULT:      -3.2     11.968     12.212
REMARK  1 active torsions:
REMARK  status: ('A' for Active; 'I' for Inactive)
REMARK    1  A    between atoms: C1_1  and  C3_3 
ROOT
HETATM    1  C1  UNL     1     -34.298  15.401  -3.078  1.00 20.00     0.043 C 
HETATM    2  C2  UNL     1     -33.523  14.487  -3.673  1.00 20.00     0.183 C 
HETATM    3  F4  UNL     1     -32.180  14.543  -3.530  1.00 20.00    -0.193 F 
HETATM    4 CL5  UNL     1     -34.203  13.224  -4.628  1.00 20.00    -0.052 Cl
ENDROOT
BRANCH   1   5
HETATM    5  C3  UNL     1     -33.775  16.514  -2.229  1.00 20.00     0.145 C 
HETATM    6 CL6  UNL     1     -34.649  16.557  -0.683  1.00 20.00    -0.126 Cl
ENDBRANCH   1   5
TORSDOF 1
ENDMDL
