MODEL 1
REMARK VINA RESULT:      -5.5      0.000      0.000
REMARK  0 active torsions:
REMARK  status: ('A' for Active; 'I' for Inactive)
ROOT
HETATM    1  C1  UNL     1     -34.180   6.290   5.934  1.00 20.00     0.129 C 
HETATM    2  C2  UNL     1     -33.906   6.339   4.418  1.00 20.00     0.254 C 
HETATM    3  C3  UNL     1     -34.630   4.827   5.750  1.00 20.00     0.313 C 
HETATM    4  C4  UNL     1     -34.917   5.177   4.268  1.00 20.00     0.338 C 
HETATM    5  F5  UNL     1     -32.635   6.049   4.049  1.00 20.00    -0.243 F 
HETATM    6  F6  UNL     1     -33.668   3.896   5.946  1.00 20.00    -0.199 F 
HETATM    7  F7  UNL     1     -35.701   4.444   6.479  1.00 20.00    -0.199 F 
HETATM    8  F8  UNL     1     -34.587   4.225   3.366  1.00 20.00    -0.196 F 
HETATM    9  F9  UNL     1     -36.190   5.548   3.998  1.00 20.00    -0.196 F 
ENDROOT
TORSDOF 0
ENDMDL
MODEL 2
REMARK VINA RESULT:      -5.0      1.010      2.752
REMARK  0 active torsions:
REMARK  status: ('A' for Active; 'I' for Inactive)
ROOT
HETATM    1  C1  UNL     1     -33.553   6.188   4.476  1.00 20.00     0.129 C 
HETATM    2  C2  UNL     1     -33.783   6.081   5.996  1.00 20.00     0.254 C 
HETATM    3  C3  UNL     1     -34.799   5.302   4.280  1.00 20.00     0.313 C 
HETATM    4  C4  UNL     1     -34.560   4.772   5.717  1.00 20.00     0.338 C 
HETATM    5  F5  UNL     1     -34.516   7.081   6.543  1.00 20.00    -0.243 F 
HETATM    6  F6  UNL     1     -35.961   5.970   4.098  1.00 20.00    -0.199 F 
HETATM    7  F7  UNL     1     -34.717   4.381   3.296  1.00 20.00    -0.199 F 
HETATM    8  F8  UNL     1     -35.671   4.579   6.462  1.00 20.00    -0.196 F 
HETATM    9  F9  UNL     1     -33.829   3.636   5.800  1.00 20.00    -0.196 F 
ENDROOT
TORSDOF 0
ENDMDL
MODEL 3
REMARK VINA RESULT:      -4.9      1.060      2.574
REMARK  0 active torsions:
REMARK  status: ('A' for Active; 'I' for Inactive)
ROOT
HETATM    1  C1  UNL     1     -35.030   3.892   4.866  1.00 20.00     0.129 C 
HETATM    2  C2  UNL     1     -35.095   5.054   3.856  1.00 20.00     0.254 C 
HETATM    3  C3  UNL     1     -34.510   4.901   5.910  1.00 20.00     0.313 C 
HETATM    4  C4  UNL     1     -34.035   5.776   4.722  1.00 20.00     0.338 C 
HETATM    5  F5  UNL     1     -36.293   5.680   3.769  1.00 20.00    -0.243 F 
HETATM    6  F6  UNL     1     -35.459   5.462   6.695  1.00 20.00    -0.199 F 
HETATM    7  F7  UNL     1     -33.537   4.450   6.731  1.00 20.00    -0.199 F 
HETATM    8  F8  UNL     1     -34.206   7.108   4.870  1.00 20.00    -0.196 F 
HETATM    9  F9  UNL     1     -32.750   5.586   4.343  1.00 20.00    -0.196 F 
ENDROOT
TORSDOF 0
ENDMDL
MODEL 4
REMARK VINA RESULT:      -4.9      1.274      1.653
REMARK  0 active torsions:
REMARK  status: ('A' for Active; 'I' for Inactive)
ROOT
HETATM    1  C1  UNL     1     -35.141   5.271   6.529  1.00 20.00     0.129 C 
HETATM    2  C2  UNL     1     -34.293   6.445   6.003  1.00 20.00     0.254 C 
HETATM    3  C3  UNL     1     -34.445   4.372   5.487  1.00 20.00     0.313 C 
HETATM    4  C4  UNL     1     -34.154   5.660   4.676  1.00 20.00     0.338 C 
HETATM    5  F5  UNL     1     -33.132   6.664   6.666  1.00 20.00    -0.243 F 
HETATM    6  F6  UNL     1     -33.351   3.712   5.931  1.00 20.00    -0.199 F 
HETATM    7  F7  UNL     1     -35.233   3.461   4.876  1.00 20.00    -0.199 F 
HETATM    8  F8  UNL     1     -32.941   5.718   4.083  1.00 20.00    -0.196 F 
HETATM    9  F9  UNL     1     -35.070   5.963   3.726  1.00 20.00    -0.196 F 
ENDROOT
TORSDOF 0
ENDMDL
MODEL 5
REMARK VINA RESULT:      -4.7      1.307      2.861
REMARK  0 active torsions:
REMARK  status: ('A' for Active; 'I' for Inactive)
ROOT
HETATM    1  C1  UNL     1     -35.090   5.764   3.869  1.00 20.00     0.129 C 
HETATM    2  C2  UNL     1     -35.431   4.649   4.876  1.00 20.00     0.254 C 
HETATM    3  C3  UNL     1     -33.717   5.893   4.558  1.00 20.00     0.313 C 
HETATM    4  C4  UNL     1     -34.372   5.271   5.818  1.00 20.00     0.338 C 
HETATM    5  F5  UNL     1     -35.161   3.389   4.458  1.00 20.00    -0.243 F 
HETATM    6  F6  UNL     1     -32.721   5.162   4.006  1.00 20.00    -0.199 F 
HETATM    7  F7  UNL     1     -33.247   7.151   4.703  1.00 20.00    -0.199 F 
HETATM    8  F8  UNL     1     -33.606   4.392   6.503  1.00 20.00    -0.196 F 
HETATM    9  F9  UNL     1     -34.850   6.160   6.719  1.00 20.00    -0.196 F 
ENDROOT
TORSDOF 0
ENDMDL
MODEL 6
REMARK VINA RESULT:      -4.4      1.105      2.730
REMARK  0 active torsions:
REMARK  status: ('A' for Active; 'I' for Inactive)
ROOT
HETATM    1  C1  UNL     1     -33.526   4.636   5.956  1.00 20.00     0.129 C 
HETATM    2  C2  UNL     1     -34.868   4.005   5.539  1.00 20.00     0.254 C 
HETATM    3  C3  UNL     1     -33.996   5.944   5.288  1.00 20.00     0.313 C 
HETATM    4  C4  UNL     1     -34.948   5.077   4.426  1.00 20.00     0.338 C 
HETATM    5  F5  UNL     1     -35.851   4.066   6.470  1.00 20.00    -0.243 F 
HETATM    6  F6  UNL     1     -34.607   6.827   6.110  1.00 20.00    -0.199 F 
HETATM    7  F7  UNL     1     -33.051   6.629   4.608  1.00 20.00    -0.199 F 
HETATM    8  F8  UNL     1     -36.174   5.600   4.201  1.00 20.00    -0.196 F 
HETATM    9  F9  UNL     1     -34.456   4.700   3.223  1.00 20.00    -0.196 F 
ENDROOT
TORSDOF 0
ENDMDL
MODEL 7
REMARK VINA RESULT:      -4.2      8.207      9.589
REMARK  0 active torsions:
REMARK  status: ('A' for Active; 'I' for Inactive)
ROOT
HETATM    1  C1  UNL     1     -42.224   4.870   0.007  1.00 20.00     0.129 C 
HETATM    2  C2  UNL     1     -42.897   5.995  -0.804  1.00 20.00     0.254 C 
HETATM    3  C3  UNL     1     -40.903   5.219  -0.707  1.00 20.00     0.313 C 
HETATM    4  C4  UNL     1     -41.762   5.829  -1.844  1.00 20.00     0.338 C 
HETATM    5  F5  UNL     1     -42.944   7.202  -0.192  1.00 20.00    -0.243 F 
HETATM    6  F6  UNL     1     -40.106   6.095  -0.055  1.00 20.00    -0.199 F 
HETATM    7  F7  UNL     1     -40.129   4.169  -1.058  1.00 20.00    -0.199 F 
HETATM    8  F8  UNL     1     -41.290   6.973  -2.386  1.00 20.00    -0.196 F 
HETATM    9  F9  UNL     1     -42.037   4.992  -2.872  1.00 20.00    -0.196 F 
ENDROOT
TORSDOF 0
ENDMDL
MODEL 8
REMARK VINA RESULT:      -4.1      7.889      9.166
REMARK  0 active torsions:
REMARK  status: ('A' for Active; 'I' for Inactive)
ROOT
HETATM    1  C1  UNL     1     -42.718   5.830  -1.391  1.00 20.00     0.129 C 
HETATM    2  C2  UNL     1     -41.453   6.708  -1.395  1.00 20.00     0.254 C 
HETATM    3  C3  UNL     1     -42.300   5.329   0.006  1.00 20.00     0.313 C 
HETATM    4  C4  UNL     1     -40.848   5.723  -0.366  1.00 20.00     0.338 C 
HETATM    5  F5  UNL     1     -41.625   7.975  -0.947  1.00 20.00    -0.243 F 
HETATM    6  F6  UNL     1     -42.832   6.009   1.048  1.00 20.00    -0.199 F 
HETATM    7  F7  UNL     1     -42.507   4.016   0.247  1.00 20.00    -0.199 F 
HETATM    8  F8  UNL     1     -40.120   6.282   0.625  1.00 20.00    -0.196 F 
HETATM    9  F9  UNL     1     -40.097   4.727  -0.891  1.00 20.00    -0.196 F 
ENDROOT
TORSDOF 0
ENDMDL
MODEL 9
REMARK VINA RESULT:      -4.1     12.315     13.360
REMARK  0 active torsions:
REMARK  status: ('A' for Active; 'I' for Inactive)
ROOT
HETATM    1  C1  UNL     1     -35.320  15.490  -3.818  1.00 20.00     0.129 C 
HETATM    2  C2  UNL     1     -34.190  16.150  -3.003  1.00 20.00     0.254 C 
HETATM    3  C3  UNL     1     -34.321  14.379  -4.200  1.00 20.00     0.313 C 
HETATM    4  C4  UNL     1     -33.188  15.397  -3.911  1.00 20.00     0.338 C 
HETATM    5  F5  UNL     1     -34.147  15.810  -1.692  1.00 20.00    -0.243 F 
HETATM    6  F6  UNL     1     -34.333  13.289  -3.399  1.00 20.00    -0.199 F 
HETATM    7  F7  UNL     1     -34.396  13.933  -5.472  1.00 20.00    -0.199 F 
HETATM    8  F8  UNL     1     -32.096  14.898  -3.293  1.00 20.00    -0.196 F 
HETATM    9  F9  UNL     1     -32.748  16.091  -4.987  1.00 20.00    -0.196 F 
ENDROOT
TORSDOF 0
ENDMDL
