MODEL 1
REMARK VINA RESULT:      -6.6      0.000      0.000
REMARK  1 active torsions:
REMARK  status: ('A' for Active; 'I' for Inactive)
REMARK    1  A    between atoms: C2_2  and  C10_10 
ROOT
HETATM    1  C1  UNL     1     -33.885   5.350   2.816  1.00 20.00    -0.018 A 
HETATM    2  C2  UNL     1     -33.229   6.397   3.355  1.00 20.00    -0.075 A 
HETATM    3  C3  UNL     1     -34.905   5.091   6.205  1.00 20.00     0.001 C 
HETATM    4  C4  UNL     1     -35.040   4.309   4.903  1.00 20.00     0.009 C 
HETATM    5  C5  UNL     1     -33.880   6.168   5.869  1.00 20.00     0.010 C 
HETATM    6  C6  UNL     1     -35.010   5.394   3.827  1.00 20.00     0.016 A 
HETATM    7  C7  UNL     1     -34.261   6.597   4.452  1.00 20.00     0.022 A 
ENDROOT
BRANCH   2   8
HETATM    8  C10 UNL     1     -31.919   7.125   3.001  1.00 20.00     0.006 C 
HETATM    9  C8  UNL     1     -32.206   8.151   1.930  1.00 20.00     0.014 C 
HETATM   10  C9  UNL     1     -31.336   7.743   4.252  1.00 20.00     0.014 C 
ENDBRANCH   2   8
TORSDOF 1
ENDMDL
MODEL 2
REMARK VINA RESULT:      -4.7     11.590     12.835
REMARK  1 active torsions:
REMARK  status: ('A' for Active; 'I' for Inactive)
REMARK    1  A    between atoms: C2_2  and  C10_10 
ROOT
HETATM    1  C1  UNL     1     -35.028  15.206  -2.841  1.00 20.00    -0.018 A 
HETATM    2  C2  UNL     1     -34.010  16.063  -2.629  1.00 20.00    -0.075 A 
HETATM    3  C3  UNL     1     -33.952  15.786  -6.172  1.00 20.00     0.001 C 
HETATM    4  C4  UNL     1     -35.077  15.066  -5.439  1.00 20.00     0.009 C 
HETATM    5  C5  UNL     1     -33.265  16.587  -5.071  1.00 20.00     0.010 C 
HETATM    6  C6  UNL     1     -34.437  14.647  -4.117  1.00 20.00     0.016 A 
HETATM    7  C7  UNL     1     -33.263  15.631  -3.880  1.00 20.00     0.022 A 
ENDROOT
BRANCH   2   8
HETATM    8  C10 UNL     1     -33.707  17.101  -1.532  1.00 20.00     0.006 C 
HETATM    9  C8  UNL     1     -33.765  18.483  -2.141  1.00 20.00     0.014 C 
HETATM   10  C9  UNL     1     -34.690  16.929  -0.395  1.00 20.00     0.014 C 
ENDBRANCH   2   8
TORSDOF 1
ENDMDL
MODEL 3
REMARK VINA RESULT:      -4.6     11.356     12.184
REMARK  1 active torsions:
REMARK  status: ('A' for Active; 'I' for Inactive)
REMARK    1  A    between atoms: C2_2  and  C10_10 
ROOT
HETATM    1  C1  UNL     1     -32.963  15.226  -3.385  1.00 20.00    -0.018 A 
HETATM    2  C2  UNL     1     -33.770  16.155  -2.836  1.00 20.00    -0.075 A 
HETATM    3  C3  UNL     1     -36.147  13.935  -4.269  1.00 20.00     0.001 C 
HETATM    4  C4  UNL     1     -34.681  13.528  -4.353  1.00 20.00     0.009 C 
HETATM    5  C5  UNL     1     -36.123  15.175  -3.384  1.00 20.00     0.010 C 
HETATM    6  C6  UNL     1     -33.943  14.860  -4.477  1.00 20.00     0.016 A 
HETATM    7  C7  UNL     1     -34.877  15.926  -3.852  1.00 20.00     0.022 A 
ENDROOT
BRANCH   2   8
HETATM    8  C10 UNL     1     -33.634  17.100  -1.628  1.00 20.00     0.006 C 
HETATM    9  C8  UNL     1     -33.771  18.527  -2.108  1.00 20.00     0.014 C 
HETATM   10  C9  UNL     1     -34.671  16.738  -0.589  1.00 20.00     0.014 C 
ENDBRANCH   2   8
TORSDOF 1
ENDMDL
MODEL 4
REMARK VINA RESULT:      -4.6     11.236     12.247
REMARK  1 active torsions:
REMARK  status: ('A' for Active; 'I' for Inactive)
REMARK    1  A    between atoms: C2_2  and  C10_10 
ROOT
HETATM    1  C1  UNL     1     -36.120  16.073  -3.035  1.00 20.00    -0.018 A 
HETATM    2  C2  UNL     1     -34.902  15.921  -2.480  1.00 20.00    -0.075 A 
HETATM    3  C3  UNL     1     -34.577  13.939  -5.413  1.00 20.00     0.001 C 
HETATM    4  C4  UNL     1     -35.877  14.716  -5.242  1.00 20.00     0.009 C 
HETATM    5  C5  UNL     1     -33.710  14.437  -4.262  1.00 20.00     0.010 C 
HETATM    6  C6  UNL     1     -36.093  14.729  -3.730  1.00 20.00     0.016 A 
HETATM    7  C7  UNL     1     -34.691  14.548  -3.096  1.00 20.00     0.022 A 
ENDROOT
BRANCH   2   8
HETATM    8  C10 UNL     1     -34.034  16.804  -1.564  1.00 20.00     0.006 C 
HETATM    9  C8  UNL     1     -33.749  18.108  -2.274  1.00 20.00     0.014 C 
HETATM   10  C9  UNL     1     -34.745  17.008  -0.245  1.00 20.00     0.014 C 
ENDBRANCH   2   8
TORSDOF 1
ENDMDL
MODEL 5
REMARK VINA RESULT:      -4.6      0.881      3.841
REMARK  1 active torsions:
REMARK  status: ('A' for Active; 'I' for Inactive)
REMARK    1  A    between atoms: C2_2  and  C10_10 
ROOT
HETATM    1  C1  UNL     1     -34.209   5.673   2.817  1.00 20.00    -0.018 A 
HETATM    2  C2  UNL     1     -33.958   5.700   4.141  1.00 20.00    -0.075 A 
HETATM    3  C3  UNL     1     -31.550   8.019   2.934  1.00 20.00     0.001 C 
HETATM    4  C4  UNL     1     -32.528   7.444   1.917  1.00 20.00     0.009 C 
HETATM    5  C5  UNL     1     -32.074   7.497   4.267  1.00 20.00     0.010 C 
HETATM    6  C6  UNL     1     -32.791   6.029   2.429  1.00 20.00     0.016 A 
HETATM    7  C7  UNL     1     -32.495   6.063   3.950  1.00 20.00     0.022 A 
ENDROOT
BRANCH   2   8
HETATM    8  C10 UNL     1     -34.825   5.460   5.391  1.00 20.00     0.006 C 
HETATM    9  C8  UNL     1     -34.902   3.973   5.651  1.00 20.00     0.014 C 
HETATM   10  C9  UNL     1     -34.240   6.221   6.559  1.00 20.00     0.014 C 
ENDBRANCH   2   8
TORSDOF 1
ENDMDL
MODEL 6
REMARK VINA RESULT:      -4.4     11.332     12.476
REMARK  1 active torsions:
REMARK  status: ('A' for Active; 'I' for Inactive)
REMARK    1  A    between atoms: C2_2  and  C10_10 
ROOT
HETATM    1  C1  UNL     1     -34.885  15.923  -1.702  1.00 20.00    -0.018 A 
HETATM    2  C2  UNL     1     -33.909  16.384  -2.509  1.00 20.00    -0.075 A 
HETATM    3  C3  UNL     1     -33.579  18.555   0.286  1.00 20.00     0.001 C 
HETATM    4  C4  UNL     1     -34.599  17.429   0.401  1.00 20.00     0.009 C 
HETATM    5  C5  UNL     1     -32.864  18.256  -1.027  1.00 20.00     0.010 C 
HETATM    6  C6  UNL     1     -35.111  17.258  -1.028  1.00 20.00     0.016 A 
HETATM    7  C7  UNL     1     -33.989  17.795  -1.952  1.00 20.00     0.022 A 
ENDROOT
BRANCH   2   8
HETATM    8  C10 UNL     1     -33.030  15.731  -3.592  1.00 20.00     0.006 C 
HETATM    9  C8  UNL     1     -33.388  14.266  -3.692  1.00 20.00     0.014 C 
HETATM   10  C9  UNL     1     -33.223  16.463  -4.901  1.00 20.00     0.014 C 
ENDBRANCH   2   8
TORSDOF 1
ENDMDL
MODEL 7
REMARK VINA RESULT:      -4.4     11.849     12.790
REMARK  1 active torsions:
REMARK  status: ('A' for Active; 'I' for Inactive)
REMARK    1  A    between atoms: C2_2  and  C10_10 
ROOT
HETATM    1  C1  UNL     1     -32.175  18.833   0.293  1.00 20.00    -0.018 A 
HETATM    2  C2  UNL     1     -32.977  18.899   1.374  1.00 20.00    -0.075 A 
HETATM    3  C3  UNL     1     -34.923  16.879  -0.811  1.00 20.00     0.001 C 
HETATM    4  C4  UNL     1     -33.529  17.270  -1.287  1.00 20.00     0.009 C 
HETATM    5  C5  UNL     1     -34.963  17.384   0.627  1.00 20.00     0.010 C 
HETATM    6  C6  UNL     1     -33.318  18.657  -0.682  1.00 20.00     0.016 A 
HETATM    7  C7  UNL     1     -34.247  18.731   0.555  1.00 20.00     0.022 A 
ENDROOT
BRANCH   2   8
HETATM    8  C10 UNL     1     -32.716  19.074   2.881  1.00 20.00     0.006 C 
HETATM    9  C8  UNL     1     -33.658  18.172   3.646  1.00 20.00     0.014 C 
HETATM   10  C9  UNL     1     -31.264  18.776   3.176  1.00 20.00     0.014 C 
ENDBRANCH   2   8
TORSDOF 1
ENDMDL
MODEL 8
REMARK VINA RESULT:      -4.4     11.623     12.920
REMARK  1 active torsions:
REMARK  status: ('A' for Active; 'I' for Inactive)
REMARK    1  A    between atoms: C2_2  and  C10_10 
ROOT
HETATM    1  C1  UNL     1     -33.405  15.987  -4.956  1.00 20.00    -0.018 A 
HETATM    2  C2  UNL     1     -34.428  15.114  -5.044  1.00 20.00    -0.075 A 
HETATM    3  C3  UNL     1     -34.770  16.241  -1.690  1.00 20.00     0.001 C 
HETATM    4  C4  UNL     1     -33.695  16.909  -2.539  1.00 20.00     0.009 C 
HETATM    5  C5  UNL     1     -35.512  15.357  -2.686  1.00 20.00     0.010 C 
HETATM    6  C6  UNL     1     -33.222  15.790  -3.467  1.00 20.00     0.016 A 
HETATM    7  C7  UNL     1     -34.397  14.786  -3.560  1.00 20.00     0.022 A 
ENDROOT
BRANCH   2   8
HETATM    8  C10 UNL     1     -35.310  14.625  -6.208  1.00 20.00     0.006 C 
HETATM    9  C8  UNL     1     -36.661  15.295  -6.110  1.00 20.00     0.014 C 
HETATM   10  C9  UNL     1     -34.614  14.917  -7.519  1.00 20.00     0.014 C 
ENDBRANCH   2   8
TORSDOF 1
ENDMDL
MODEL 9
REMARK VINA RESULT:      -4.3      9.230     10.951
REMARK  1 active torsions:
REMARK  status: ('A' for Active; 'I' for Inactive)
REMARK    1  A    between atoms: C2_2  and  C10_10 
ROOT
HETATM    1  C1  UNL     1     -40.809   4.441  -1.241  1.00 20.00    -0.018 A 
HETATM    2  C2  UNL     1     -41.979   4.181  -1.856  1.00 20.00    -0.075 A 
HETATM    3  C3  UNL     1     -42.217   7.695  -1.378  1.00 20.00     0.001 C 
HETATM    4  C4  UNL     1     -40.909   7.028  -0.972  1.00 20.00     0.009 C 
HETATM    5  C5  UNL     1     -42.992   6.574  -2.062  1.00 20.00     0.010 C 
HETATM    6  C6  UNL     1     -41.343   5.643  -0.493  1.00 20.00     0.016 A 
HETATM    7  C7  UNL     1     -42.691   5.351  -1.197  1.00 20.00     0.022 A 
ENDROOT
BRANCH   2   8
HETATM    8  C10 UNL     1     -42.436   3.104  -2.858  1.00 20.00     0.006 C 
HETATM    9  C8  UNL     1     -41.216   2.394  -3.399  1.00 20.00     0.014 C 
HETATM   10  C9  UNL     1     -43.398   2.159  -2.173  1.00 20.00     0.014 C 
ENDBRANCH   2   8
TORSDOF 1
ENDMDL
