MODEL 1
REMARK VINA RESULT:      -4.2      0.000      0.000
REMARK  0 active torsions:
REMARK  status: ('A' for Active; 'I' for Inactive)
ROOT
HETATM    1  C1  UNL     1     -34.792  13.353  -5.087  1.00 20.00     0.004 C 
HETATM    2  C2  UNL     1     -35.053  14.282  -6.270  1.00 20.00     0.005 C 
HETATM    3  C3  UNL     1     -34.856  14.108  -3.758  1.00 20.00     0.042 C 
HETATM    4  C4  UNL     1     -34.888  16.737  -5.486  1.00 20.00     0.013 A 
HETATM    5  C5  UNL     1     -34.270  15.559  -6.197  1.00 20.00    -0.007 A 
HETATM    6  C6  UNL     1     -33.684  16.055  -4.894  1.00 20.00     0.029 A 
HETATM    7  C7  UNL     1     -33.772  15.193  -3.665  1.00 20.00     0.117 C 
HETATM    8 CL8  UNL     1     -34.087  16.243  -2.249  1.00 20.00    -0.101 Cl
HETATM    9 CL9  UNL     1     -32.163  14.418  -3.427  1.00 20.00    -0.101 Cl
ENDROOT
TORSDOF 0
ENDMDL
MODEL 2
REMARK VINA RESULT:      -4.2     12.341     13.492
REMARK  0 active torsions:
REMARK  status: ('A' for Active; 'I' for Inactive)
ROOT
HETATM    1  C1  UNL     1     -35.203   4.611   5.979  1.00 20.00     0.004 C 
HETATM    2  C2  UNL     1     -34.142   5.575   6.506  1.00 20.00     0.005 C 
HETATM    3  C3  UNL     1     -34.910   4.192   4.537  1.00 20.00     0.042 C 
HETATM    4  C4  UNL     1     -32.733   6.464   4.532  1.00 20.00     0.013 A 
HETATM    5  C5  UNL     1     -33.829   6.684   5.545  1.00 20.00    -0.007 A 
HETATM    6  C6  UNL     1     -34.163   6.575   4.074  1.00 20.00     0.029 A 
HETATM    7  C7  UNL     1     -34.943   5.391   3.576  1.00 20.00     0.117 C 
HETATM    8 CL8  UNL     1     -34.291   4.906   1.980  1.00 20.00    -0.101 Cl
HETATM    9 CL9  UNL     1     -36.647   5.924   3.334  1.00 20.00    -0.101 Cl
ENDROOT
TORSDOF 0
ENDMDL
MODEL 3
REMARK VINA RESULT:      -4.2     12.218     13.188
REMARK  0 active torsions:
REMARK  status: ('A' for Active; 'I' for Inactive)
ROOT
HETATM    1  C1  UNL     1     -40.699   6.051  -0.135  1.00 20.00     0.004 C 
HETATM    2  C2  UNL     1     -41.214   7.277  -0.886  1.00 20.00     0.005 C 
HETATM    3  C3  UNL     1     -40.768   4.794  -1.004  1.00 20.00     0.042 C 
HETATM    4  C4  UNL     1     -42.476   6.516  -3.008  1.00 20.00     0.013 A 
HETATM    5  C5  UNL     1     -42.515   7.029  -1.590  1.00 20.00    -0.007 A 
HETATM    6  C6  UNL     1     -42.991   5.629  -1.906  1.00 20.00     0.029 A 
HETATM    7  C7  UNL     1     -42.213   4.448  -1.395  1.00 20.00     0.117 C 
HETATM    8 CL8  UNL     1     -42.212   3.174  -2.653  1.00 20.00    -0.101 Cl
HETATM    9 CL9  UNL     1     -43.088   3.801   0.041  1.00 20.00    -0.101 Cl
ENDROOT
TORSDOF 0
ENDMDL
MODEL 4
REMARK VINA RESULT:      -4.1      2.269      2.973
REMARK  0 active torsions:
REMARK  status: ('A' for Active; 'I' for Inactive)
ROOT
HETATM    1  C1  UNL     1     -33.626  13.654  -3.673  1.00 20.00     0.004 C 
HETATM    2  C2  UNL     1     -32.744  14.900  -3.651  1.00 20.00     0.005 C 
HETATM    3  C3  UNL     1     -34.451  13.576  -4.960  1.00 20.00     0.042 C 
HETATM    4  C4  UNL     1     -33.515  16.531  -5.500  1.00 20.00     0.013 A 
HETATM    5  C5  UNL     1     -33.481  16.147  -4.042  1.00 20.00    -0.007 A 
HETATM    6  C6  UNL     1     -34.780  16.091  -4.813  1.00 20.00     0.029 A 
HETATM    7  C7  UNL     1     -35.423  14.759  -5.087  1.00 20.00     0.117 C 
HETATM    8 CL8  UNL     1     -36.125  14.791  -6.735  1.00 20.00    -0.101 Cl
HETATM    9 CL9  UNL     1     -36.777  14.557  -3.917  1.00 20.00    -0.101 Cl
ENDROOT
TORSDOF 0
ENDMDL
MODEL 5
REMARK VINA RESULT:      -4.1     11.938     13.105
REMARK  0 active torsions:
REMARK  status: ('A' for Active; 'I' for Inactive)
ROOT
HETATM    1  C1  UNL     1     -33.773   5.575   6.240  1.00 20.00     0.004 C 
HETATM    2  C2  UNL     1     -35.068   4.834   5.914  1.00 20.00     0.005 C 
HETATM    3  C3  UNL     1     -33.587   6.798   5.340  1.00 20.00     0.042 C 
HETATM    4  C4  UNL     1     -35.983   5.665   3.646  1.00 20.00     0.013 A 
HETATM    5  C5  UNL     1     -35.259   4.609   4.443  1.00 20.00    -0.007 A 
HETATM    6  C6  UNL     1     -34.515   5.429   3.413  1.00 20.00     0.029 A 
HETATM    7  C7  UNL     1     -33.462   6.404   3.860  1.00 20.00     0.117 C 
HETATM    8 CL8  UNL     1     -33.564   7.868   2.834  1.00 20.00    -0.101 Cl
HETATM    9 CL9  UNL     1     -31.856   5.642   3.572  1.00 20.00    -0.101 Cl
ENDROOT
TORSDOF 0
ENDMDL
MODEL 6
REMARK VINA RESULT:      -4.1      1.797      2.865
REMARK  0 active torsions:
REMARK  status: ('A' for Active; 'I' for Inactive)
ROOT
HETATM    1  C1  UNL     1     -35.117  14.009  -5.932  1.00 20.00     0.004 C 
HETATM    2  C2  UNL     1     -34.431  13.238  -4.807  1.00 20.00     0.005 C 
HETATM    3  C3  UNL     1     -34.413  15.340  -6.207  1.00 20.00     0.042 C 
HETATM    4  C4  UNL     1     -32.810  14.810  -3.553  1.00 20.00     0.013 A 
HETATM    5  C5  UNL     1     -34.134  14.090  -3.608  1.00 20.00    -0.007 A 
HETATM    6  C6  UNL     1     -34.083  15.598  -3.702  1.00 20.00     0.029 A 
HETATM    7  C7  UNL     1     -34.464  16.275  -4.989  1.00 20.00     0.117 C 
HETATM    8 CL8  UNL     1     -33.369  17.668  -5.250  1.00 20.00    -0.101 Cl
HETATM    9 CL9  UNL     1     -36.135  16.919  -4.792  1.00 20.00    -0.101 Cl
ENDROOT
TORSDOF 0
ENDMDL
MODEL 7
REMARK VINA RESULT:      -4.1      2.389      3.501
REMARK  0 active torsions:
REMARK  status: ('A' for Active; 'I' for Inactive)
ROOT
HETATM    1  C1  UNL     1     -33.207  16.235  -4.733  1.00 20.00     0.004 C 
HETATM    2  C2  UNL     1     -33.060  15.098  -3.725  1.00 20.00     0.005 C 
HETATM    3  C3  UNL     1     -34.646  16.350  -5.241  1.00 20.00     0.042 C 
HETATM    4  C4  UNL     1     -35.151  13.584  -3.829  1.00 20.00     0.013 A 
HETATM    5  C5  UNL     1     -33.704  13.823  -4.183  1.00 20.00    -0.007 A 
HETATM    6  C6  UNL     1     -34.761  13.813  -5.264  1.00 20.00     0.029 A 
HETATM    7  C7  UNL     1     -35.088  15.085  -5.994  1.00 20.00     0.117 C 
HETATM    8 CL8  UNL     1     -36.854  15.141  -6.287  1.00 20.00    -0.101 Cl
HETATM    9 CL9  UNL     1     -34.268  15.020  -7.597  1.00 20.00    -0.101 Cl
ENDROOT
TORSDOF 0
ENDMDL
MODEL 8
REMARK VINA RESULT:      -4.1      1.469      2.791
REMARK  0 active torsions:
REMARK  status: ('A' for Active; 'I' for Inactive)
ROOT
HETATM    1  C1  UNL     1     -35.168  15.927  -5.928  1.00 20.00     0.004 C 
HETATM    2  C2  UNL     1     -34.422  14.621  -6.185  1.00 20.00     0.005 C 
HETATM    3  C3  UNL     1     -34.900  16.456  -4.518  1.00 20.00     0.042 C 
HETATM    4  C4  UNL     1     -33.567  13.666  -3.942  1.00 20.00     0.013 A 
HETATM    5  C5  UNL     1     -34.571  13.631  -5.067  1.00 20.00    -0.007 A 
HETATM    6  C6  UNL     1     -34.996  14.060  -3.681  1.00 20.00     0.029 A 
HETATM    7  C7  UNL     1     -35.406  15.486  -3.439  1.00 20.00     0.117 C 
HETATM    8 CL8  UNL     1     -34.793  15.994  -1.834  1.00 20.00    -0.101 Cl
HETATM    9 CL9  UNL     1     -37.206  15.534  -3.379  1.00 20.00    -0.101 Cl
ENDROOT
TORSDOF 0
ENDMDL
MODEL 9
REMARK VINA RESULT:      -4.0      0.919      2.711
REMARK  0 active torsions:
REMARK  status: ('A' for Active; 'I' for Inactive)
ROOT
HETATM    1  C1  UNL     1     -35.472  16.588  -4.990  1.00 20.00     0.004 C 
HETATM    2  C2  UNL     1     -36.317  15.342  -5.242  1.00 20.00     0.005 C 
HETATM    3  C3  UNL     1     -33.998  16.232  -4.783  1.00 20.00     0.042 C 
HETATM    4  C4  UNL     1     -34.954  13.239  -4.614  1.00 20.00     0.013 A 
HETATM    5  C5  UNL     1     -36.034  14.236  -4.270  1.00 20.00    -0.007 A 
HETATM    6  C6  UNL     1     -34.752  14.194  -3.468  1.00 20.00     0.029 A 
HETATM    7  C7  UNL     1     -33.793  15.349  -3.543  1.00 20.00     0.117 C 
HETATM    8 CL8  UNL     1     -32.121  14.707  -3.527  1.00 20.00    -0.101 Cl
HETATM    9 CL9  UNL     1     -34.015  16.339  -2.054  1.00 20.00    -0.101 Cl
ENDROOT
TORSDOF 0
ENDMDL
