MODEL 1
REMARK VINA RESULT:      -5.1      0.000      0.000
REMARK  0 active torsions:
REMARK  status: ('A' for Active; 'I' for Inactive)
ROOT
HETATM    1  C1  UNL     1     -34.451  14.286  -4.159  1.00 20.00     0.131 C 
HETATM    2  C2  UNL     1     -35.071  13.715  -5.421  1.00 20.00     0.079 C 
HETATM    3  C3  UNL     1     -34.780  14.597  -6.640  1.00 20.00     0.016 C 
HETATM    4  C4  UNL     1     -34.457  17.979  -4.654  1.00 20.00     0.006 C 
HETATM    5  C5  UNL     1     -33.930  17.925  -3.213  1.00 20.00     0.005 C 
HETATM    6  C6  UNL     1     -34.745  15.748  -3.903  1.00 20.00     0.064 C 
HETATM    7  C7  UNL     1     -34.328  16.541  -5.144  1.00 20.00     0.005 C 
HETATM    8  C8  UNL     1     -33.947  16.440  -2.795  1.00 20.00    -0.007 C 
HETATM    9  C9  UNL     1     -35.081  16.109  -6.424  1.00 20.00    -0.043 C 
HETATM   10  C10 UNL     1     -34.545  16.234  -1.411  1.00 20.00     0.011 C 
HETATM   11  C11 UNL     1     -34.542  16.896  -7.634  1.00 20.00     0.015 C 
HETATM   12  C12 UNL     1     -36.602  16.340  -6.352  1.00 20.00     0.015 C 
HETATM   13  O13 UNL     1     -33.840  13.577  -3.362  1.00 20.00    -0.298 OA
ENDROOT
TORSDOF 0
ENDMDL
MODEL 2
REMARK VINA RESULT:      -5.0      1.809      4.283
REMARK  0 active torsions:
REMARK  status: ('A' for Active; 'I' for Inactive)
ROOT
HETATM    1  C1  UNL     1     -33.880  17.607  -4.843  1.00 20.00     0.131 C 
HETATM    2  C2  UNL     1     -33.960  17.353  -3.348  1.00 20.00     0.079 C 
HETATM    3  C3  UNL     1     -33.683  15.884  -3.011  1.00 20.00     0.016 C 
HETATM    4  C4  UNL     1     -34.956  14.413  -6.432  1.00 20.00     0.006 C 
HETATM    5  C5  UNL     1     -34.804  15.276  -7.693  1.00 20.00     0.005 C 
HETATM    6  C6  UNL     1     -34.682  16.652  -5.700  1.00 20.00     0.064 C 
HETATM    7  C7  UNL     1     -34.257  15.224  -5.347  1.00 20.00     0.005 C 
HETATM    8  C8  UNL     1     -34.442  16.696  -7.211  1.00 20.00    -0.007 C 
HETATM    9  C9  UNL     1     -34.498  14.866  -3.862  1.00 20.00    -0.043 C 
HETATM   10  C10 UNL     1     -35.257  17.772  -7.914  1.00 20.00     0.011 C 
HETATM   11  C11 UNL     1     -33.966  13.449  -3.577  1.00 20.00     0.015 C 
HETATM   12  C12 UNL     1     -35.982  14.904  -3.452  1.00 20.00     0.015 C 
HETATM   13  O13 UNL     1     -33.285  18.579  -5.302  1.00 20.00    -0.298 OA
ENDROOT
TORSDOF 0
ENDMDL
MODEL 3
REMARK VINA RESULT:      -5.0      2.074      3.502
REMARK  0 active torsions:
REMARK  status: ('A' for Active; 'I' for Inactive)
ROOT
HETATM    1  C1  UNL     1     -33.602  17.810  -4.614  1.00 20.00     0.131 C 
HETATM    2  C2  UNL     1     -33.311  16.740  -5.651  1.00 20.00     0.079 C 
HETATM    3  C3  UNL     1     -34.213  15.515  -5.465  1.00 20.00     0.016 C 
HETATM    4  C4  UNL     1     -34.735  15.951  -1.590  1.00 20.00     0.006 C 
HETATM    5  C5  UNL     1     -34.717  17.374  -1.012  1.00 20.00     0.005 C 
HETATM    6  C6  UNL     1     -33.636  17.323  -3.181  1.00 20.00     0.064 C 
HETATM    7  C7  UNL     1     -34.636  16.167  -3.095  1.00 20.00     0.005 C 
HETATM    8  C8  UNL     1     -34.171  18.292  -2.124  1.00 20.00    -0.007 C 
HETATM    9  C9  UNL     1     -34.268  14.974  -4.007  1.00 20.00    -0.043 C 
HETATM   10  C10 UNL     1     -33.113  19.259  -1.611  1.00 20.00     0.011 C 
HETATM   11  C11 UNL     1     -35.367  13.897  -3.923  1.00 20.00     0.015 C 
HETATM   12  C12 UNL     1     -32.928  14.309  -3.641  1.00 20.00     0.015 C 
HETATM   13  O13 UNL     1     -33.702  18.995  -4.920  1.00 20.00    -0.298 OA
ENDROOT
TORSDOF 0
ENDMDL
MODEL 4
REMARK VINA RESULT:      -4.9      1.407      3.768
REMARK  0 active torsions:
REMARK  status: ('A' for Active; 'I' for Inactive)
ROOT
HETATM    1  C1  UNL     1     -34.591  13.900  -4.721  1.00 20.00     0.131 C 
HETATM    2  C2  UNL     1     -33.731  14.260  -3.522  1.00 20.00     0.079 C 
HETATM    3  C3  UNL     1     -34.391  15.341  -2.659  1.00 20.00     0.016 C 
HETATM    4  C4  UNL     1     -36.431  17.027  -5.571  1.00 20.00     0.006 C 
HETATM    5  C5  UNL     1     -36.901  16.141  -6.734  1.00 20.00     0.005 C 
HETATM    6  C6  UNL     1     -35.081  15.077  -5.536  1.00 20.00     0.064 C 
HETATM    7  C7  UNL     1     -35.804  16.042  -4.592  1.00 20.00     0.005 C 
HETATM    8  C8  UNL     1     -36.151  14.800  -6.595  1.00 20.00    -0.007 C 
HETATM    9  C9  UNL     1     -34.899  16.577  -3.457  1.00 20.00    -0.043 C 
HETATM   10  C10 UNL     1     -35.571  14.319  -7.917  1.00 20.00     0.011 C 
HETATM   11  C11 UNL     1     -35.725  17.468  -2.511  1.00 20.00     0.015 C 
HETATM   12  C12 UNL     1     -33.703  17.407  -3.962  1.00 20.00     0.015 C 
HETATM   13  O13 UNL     1     -34.785  12.732  -5.049  1.00 20.00    -0.298 OA
ENDROOT
TORSDOF 0
ENDMDL
MODEL 5
REMARK VINA RESULT:      -4.9      1.766      2.133
REMARK  0 active torsions:
REMARK  status: ('A' for Active; 'I' for Inactive)
ROOT
HETATM    1  C1  UNL     1     -36.924  15.317  -4.123  1.00 20.00     0.131 C 
HETATM    2  C2  UNL     1     -37.646  15.562  -5.436  1.00 20.00     0.079 C 
HETATM    3  C3  UNL     1     -36.788  15.150  -6.636  1.00 20.00     0.016 C 
HETATM    4  C4  UNL     1     -33.307  15.759  -4.904  1.00 20.00     0.006 C 
HETATM    5  C5  UNL     1     -33.207  15.550  -3.387  1.00 20.00     0.005 C 
HETATM    6  C6  UNL     1     -35.517  15.870  -4.051  1.00 20.00     0.064 C 
HETATM    7  C7  UNL     1     -34.727  15.319  -5.241  1.00 20.00     0.005 C 
HETATM    8  C8  UNL     1     -34.654  15.438  -2.863  1.00 20.00    -0.007 C 
HETATM    9  C9  UNL     1     -35.335  15.708  -6.608  1.00 20.00    -0.043 C 
HETATM   10  C10 UNL     1     -34.887  16.281  -1.617  1.00 20.00     0.011 C 
HETATM   11  C11 UNL     1     -34.531  15.045  -7.742  1.00 20.00     0.015 C 
HETATM   12  C12 UNL     1     -35.348  17.227  -6.867  1.00 20.00     0.015 C 
HETATM   13  O13 UNL     1     -37.486  14.793  -3.164  1.00 20.00    -0.298 OA
ENDROOT
TORSDOF 0
ENDMDL
MODEL 6
REMARK VINA RESULT:      -4.8      1.456      1.742
REMARK  0 active torsions:
REMARK  status: ('A' for Active; 'I' for Inactive)
ROOT
HETATM    1  C1  UNL     1     -33.613  14.772  -3.706  1.00 20.00     0.131 C 
HETATM    2  C2  UNL     1     -34.244  13.570  -4.386  1.00 20.00     0.079 C 
HETATM    3  C3  UNL     1     -35.189  13.994  -5.516  1.00 20.00     0.016 C 
HETATM    4  C4  UNL     1     -36.148  17.489  -3.983  1.00 20.00     0.006 C 
HETATM    5  C5  UNL     1     -35.103  18.214  -3.124  1.00 20.00     0.005 C 
HETATM    6  C6  UNL     1     -34.584  15.851  -3.279  1.00 20.00     0.064 C 
HETATM    7  C7  UNL     1     -35.407  16.262  -4.503  1.00 20.00     0.005 C 
HETATM    8  C8  UNL     1     -33.992  17.187  -2.824  1.00 20.00    -0.007 C 
HETATM    9  C9  UNL     1     -36.214  15.094  -5.115  1.00 20.00    -0.043 C 
HETATM   10  C10 UNL     1     -33.580  17.189  -1.359  1.00 20.00     0.011 C 
HETATM   11  C11 UNL     1     -36.941  15.575  -6.386  1.00 20.00     0.015 C 
HETATM   12  C12 UNL     1     -37.271  14.509  -4.160  1.00 20.00     0.015 C 
HETATM   13  O13 UNL     1     -32.414  14.808  -3.440  1.00 20.00    -0.298 OA
ENDROOT
TORSDOF 0
ENDMDL
MODEL 7
REMARK VINA RESULT:      -4.8      1.923      3.631
REMARK  0 active torsions:
REMARK  status: ('A' for Active; 'I' for Inactive)
ROOT
HETATM    1  C1  UNL     1     -35.231  13.994  -4.225  1.00 20.00     0.131 C 
HETATM    2  C2  UNL     1     -33.724  14.179  -4.200  1.00 20.00     0.079 C 
HETATM    3  C3  UNL     1     -33.288  15.085  -3.044  1.00 20.00     0.016 C 
HETATM    4  C4  UNL     1     -36.624  17.161  -2.842  1.00 20.00     0.006 C 
HETATM    5  C5  UNL     1     -37.936  16.462  -3.227  1.00 20.00     0.005 C 
HETATM    6  C6  UNL     1     -36.036  15.273  -4.152  1.00 20.00     0.064 C 
HETATM    7  C7  UNL     1     -35.584  16.049  -2.912  1.00 20.00     0.005 C 
HETATM    8  C8  UNL     1     -37.543  15.139  -3.917  1.00 20.00    -0.007 C 
HETATM    9  C9  UNL     1     -34.083  16.419  -2.938  1.00 20.00    -0.043 C 
HETATM   10  C10 UNL     1     -38.328  14.898  -5.199  1.00 20.00     0.011 C 
HETATM   11  C11 UNL     1     -33.697  17.119  -1.621  1.00 20.00     0.015 C 
HETATM   12  C12 UNL     1     -33.700  17.355  -4.100  1.00 20.00     0.015 C 
HETATM   13  O13 UNL     1     -35.743  12.890  -4.393  1.00 20.00    -0.298 OA
ENDROOT
TORSDOF 0
ENDMDL
MODEL 8
REMARK VINA RESULT:      -4.7      1.936      3.186
REMARK  0 active torsions:
REMARK  status: ('A' for Active; 'I' for Inactive)
ROOT
HETATM    1  C1  UNL     1     -33.883  16.986  -5.612  1.00 20.00     0.131 C 
HETATM    2  C2  UNL     1     -34.427  17.411  -6.964  1.00 20.00     0.079 C 
HETATM    3  C3  UNL     1     -35.871  16.940  -7.164  1.00 20.00     0.016 C 
HETATM    4  C4  UNL     1     -35.619  13.783  -4.829  1.00 20.00     0.006 C 
HETATM    5  C5  UNL     1     -34.662  13.844  -3.629  1.00 20.00     0.005 C 
HETATM    6  C6  UNL     1     -34.070  15.522  -5.276  1.00 20.00     0.064 C 
HETATM    7  C7  UNL     1     -35.557  15.188  -5.417  1.00 20.00     0.005 C 
HETATM    8  C8  UNL     1     -33.777  15.090  -3.837  1.00 20.00    -0.007 C 
HETATM    9  C9  UNL     1     -36.105  15.435  -6.842  1.00 20.00    -0.043 C 
HETATM   10  C10 UNL     1     -32.303  14.803  -3.589  1.00 20.00     0.011 C 
HETATM   11  C11 UNL     1     -37.620  15.155  -6.871  1.00 20.00     0.015 C 
HETATM   12  C12 UNL     1     -35.442  14.555  -7.918  1.00 20.00     0.015 C 
HETATM   13  O13 UNL     1     -33.253  17.761  -4.896  1.00 20.00    -0.298 OA
ENDROOT
TORSDOF 0
ENDMDL
MODEL 9
REMARK VINA RESULT:      -4.7      1.740      4.344
REMARK  0 active torsions:
REMARK  status: ('A' for Active; 'I' for Inactive)
ROOT
HETATM    1  C1  UNL     1     -34.575  17.216  -5.811  1.00 20.00     0.131 C 
HETATM    2  C2  UNL     1     -34.909  18.359  -4.869  1.00 20.00     0.079 C 
HETATM    3  C3  UNL     1     -34.577  18.006  -3.415  1.00 20.00     0.016 C 
HETATM    4  C4  UNL     1     -35.065  14.120  -3.797  1.00 20.00     0.006 C 
HETATM    5  C5  UNL     1     -34.756  13.481  -5.158  1.00 20.00     0.005 C 
HETATM    6  C6  UNL     1     -35.122  15.866  -5.401  1.00 20.00     0.064 C 
HETATM    7  C7  UNL     1     -34.650  15.576  -3.973  1.00 20.00     0.005 C 
HETATM    8  C8  UNL     1     -34.610  14.642  -6.165  1.00 20.00    -0.007 C 
HETATM    9  C9  UNL     1     -35.131  16.628  -2.947  1.00 20.00    -0.043 C 
HETATM   10  C10 UNL     1     -35.369  14.386  -7.459  1.00 20.00     0.011 C 
HETATM   11  C11 UNL     1     -34.543  16.307  -1.560  1.00 20.00     0.015 C 
HETATM   12  C12 UNL     1     -36.663  16.696  -2.806  1.00 20.00     0.015 C 
HETATM   13  O13 UNL     1     -33.990  17.406  -6.874  1.00 20.00    -0.298 OA
ENDROOT
TORSDOF 0
ENDMDL
