MODEL 1
REMARK VINA RESULT:      -4.5      0.000      0.000
REMARK  0 active torsions:
REMARK  status: ('A' for Active; 'I' for Inactive)
ROOT
HETATM    1  C1  UNL     1     -35.677   4.922   4.277  1.00 20.00     0.006 C 
HETATM    2  C2  UNL     1     -34.518   5.204   3.320  1.00 20.00     0.009 C 
HETATM    3  C3  UNL     1     -35.197   4.815   5.702  1.00 20.00    -0.005 A 
HETATM    4  C4  UNL     1     -33.739   4.730   6.031  1.00 20.00    -0.000 A 
HETATM    5  C5  UNL     1     -34.543   6.001   6.325  1.00 20.00    -0.000 A 
HETATM    6  C6  UNL     1     -33.361   6.039   5.405  1.00 20.00     0.003 A 
HETATM    7  C7  UNL     1     -33.535   6.252   3.899  1.00 20.00    -0.043 C 
HETATM    8  C8  UNL     1     -32.170   6.088   3.204  1.00 20.00     0.015 C 
HETATM    9  C9  UNL     1     -34.048   7.678   3.622  1.00 20.00     0.015 C 
ENDROOT
TORSDOF 0
ENDMDL
MODEL 2
REMARK VINA RESULT:      -4.4      8.607     10.297
REMARK  0 active torsions:
REMARK  status: ('A' for Active; 'I' for Inactive)
ROOT
HETATM    1  C1  UNL     1     -40.665   6.105  -0.157  1.00 20.00     0.006 C 
HETATM    2  C2  UNL     1     -40.709   4.757  -0.878  1.00 20.00     0.009 C 
HETATM    3  C3  UNL     1     -41.350   7.180  -0.961  1.00 20.00    -0.005 A 
HETATM    4  C4  UNL     1     -41.753   6.954  -2.385  1.00 20.00    -0.000 A 
HETATM    5  C5  UNL     1     -42.800   7.025  -1.269  1.00 20.00    -0.000 A 
HETATM    6  C6  UNL     1     -42.659   5.792  -2.109  1.00 20.00     0.003 A 
HETATM    7  C7  UNL     1     -42.093   4.495  -1.523  1.00 20.00    -0.043 C 
HETATM    8  C8  UNL     1     -41.925   3.461  -2.653  1.00 20.00     0.015 C 
HETATM    9  C9  UNL     1     -43.068   3.915  -0.482  1.00 20.00     0.015 C 
ENDROOT
TORSDOF 0
ENDMDL
MODEL 3
REMARK VINA RESULT:      -4.3     11.782     13.376
REMARK  0 active torsions:
REMARK  status: ('A' for Active; 'I' for Inactive)
ROOT
HETATM    1  C1  UNL     1     -34.791  13.243  -5.238  1.00 20.00     0.006 C 
HETATM    2  C2  UNL     1     -34.767  13.751  -3.795  1.00 20.00     0.009 C 
HETATM    3  C3  UNL     1     -35.120  14.351  -6.204  1.00 20.00    -0.005 A 
HETATM    4  C4  UNL     1     -35.618  15.681  -5.728  1.00 20.00    -0.000 A 
HETATM    5  C5  UNL     1     -34.200  15.522  -6.288  1.00 20.00    -0.000 A 
HETATM    6  C6  UNL     1     -34.420  16.004  -4.886  1.00 20.00     0.003 A 
HETATM    7  C7  UNL     1     -34.066  15.128  -3.682  1.00 20.00    -0.043 C 
HETATM    8  C8  UNL     1     -34.544  15.823  -2.392  1.00 20.00     0.015 C 
HETATM    9  C9  UNL     1     -32.539  14.945  -3.591  1.00 20.00     0.015 C 
ENDROOT
TORSDOF 0
ENDMDL
MODEL 4
REMARK VINA RESULT:      -4.2     11.638     13.149
REMARK  0 active torsions:
REMARK  status: ('A' for Active; 'I' for Inactive)
ROOT
HETATM    1  C1  UNL     1     -33.350  16.716  -4.795  1.00 20.00     0.006 C 
HETATM    2  C2  UNL     1     -34.081  15.427  -5.175  1.00 20.00     0.009 C 
HETATM    3  C3  UNL     1     -33.897  17.301  -3.519  1.00 20.00    -0.005 A 
HETATM    4  C4  UNL     1     -35.165  16.792  -2.906  1.00 20.00    -0.000 A 
HETATM    5  C5  UNL     1     -33.804  16.495  -2.268  1.00 20.00    -0.000 A 
HETATM    6  C6  UNL     1     -34.696  15.380  -2.724  1.00 20.00     0.003 A 
HETATM    7  C7  UNL     1     -34.334  14.525  -3.941  1.00 20.00    -0.043 C 
HETATM    8  C8  UNL     1     -35.504  13.573  -4.255  1.00 20.00     0.015 C 
HETATM    9  C9  UNL     1     -33.089  13.671  -3.637  1.00 20.00     0.015 C 
ENDROOT
TORSDOF 0
ENDMDL
MODEL 5
REMARK VINA RESULT:      -4.2      0.735      2.316
REMARK  0 active torsions:
REMARK  status: ('A' for Active; 'I' for Inactive)
ROOT
HETATM    1  C1  UNL     1     -34.039   5.823   6.059  1.00 20.00     0.006 C 
HETATM    2  C2  UNL     1     -33.493   6.885   5.102  1.00 20.00     0.009 C 
HETATM    3  C3  UNL     1     -35.139   5.018   5.416  1.00 20.00    -0.005 A 
HETATM    4  C4  UNL     1     -35.754   5.435   4.115  1.00 20.00    -0.000 A 
HETATM    5  C5  UNL     1     -34.820   4.222   4.196  1.00 20.00    -0.000 A 
HETATM    6  C6  UNL     1     -34.484   5.391   3.320  1.00 20.00     0.003 A 
HETATM    7  C7  UNL     1     -33.325   6.331   3.665  1.00 20.00    -0.043 C 
HETATM    8  C8  UNL     1     -33.323   7.514   2.677  1.00 20.00     0.015 C 
HETATM    9  C9  UNL     1     -31.983   5.589   3.530  1.00 20.00     0.015 C 
ENDROOT
TORSDOF 0
ENDMDL
MODEL 6
REMARK VINA RESULT:      -4.2     11.611     13.287
REMARK  0 active torsions:
REMARK  status: ('A' for Active; 'I' for Inactive)
ROOT
HETATM    1  C1  UNL     1     -34.918  13.279  -4.551  1.00 20.00     0.006 C 
HETATM    2  C2  UNL     1     -34.852  14.113  -5.832  1.00 20.00     0.009 C 
HETATM    3  C3  UNL     1     -34.048  13.865  -3.469  1.00 20.00    -0.005 A 
HETATM    4  C4  UNL     1     -33.067  14.958  -3.762  1.00 20.00    -0.000 A 
HETATM    5  C5  UNL     1     -34.352  15.240  -2.977  1.00 20.00    -0.000 A 
HETATM    6  C6  UNL     1     -34.076  15.943  -4.271  1.00 20.00     0.003 A 
HETATM    7  C7  UNL     1     -34.889  15.632  -5.530  1.00 20.00    -0.043 C 
HETATM    8  C8  UNL     1     -34.278  16.388  -6.726  1.00 20.00     0.015 C 
HETATM    9  C9  UNL     1     -36.343  16.108  -5.353  1.00 20.00     0.015 C 
ENDROOT
TORSDOF 0
ENDMDL
MODEL 7
REMARK VINA RESULT:      -4.2     11.830     13.040
REMARK  0 active torsions:
REMARK  status: ('A' for Active; 'I' for Inactive)
ROOT
HETATM    1  C1  UNL     1     -34.424  15.451  -5.828  1.00 20.00     0.006 C 
HETATM    2  C2  UNL     1     -34.003  16.386  -4.692  1.00 20.00     0.009 C 
HETATM    3  C3  UNL     1     -34.423  14.011  -5.381  1.00 20.00    -0.005 A 
HETATM    4  C4  UNL     1     -33.816  13.598  -4.077  1.00 20.00    -0.000 A 
HETATM    5  C5  UNL     1     -35.335  13.607  -4.274  1.00 20.00    -0.000 A 
HETATM    6  C6  UNL     1     -34.695  14.455  -3.216  1.00 20.00     0.003 A 
HETATM    7  C7  UNL     1     -34.649  15.980  -3.344  1.00 20.00    -0.043 C 
HETATM    8  C8  UNL     1     -33.800  16.558  -2.195  1.00 20.00     0.015 C 
HETATM    9  C9  UNL     1     -36.070  16.564  -3.233  1.00 20.00     0.015 C 
ENDROOT
TORSDOF 0
ENDMDL
MODEL 8
REMARK VINA RESULT:      -4.2     11.797     13.241
REMARK  0 active torsions:
REMARK  status: ('A' for Active; 'I' for Inactive)
ROOT
HETATM    1  C1  UNL     1     -33.259  13.890  -3.694  1.00 20.00     0.006 C 
HETATM    2  C2  UNL     1     -33.517  15.317  -3.207  1.00 20.00     0.009 C 
HETATM    3  C3  UNL     1     -34.471  13.318  -4.383  1.00 20.00    -0.005 A 
HETATM    4  C4  UNL     1     -35.801  14.003  -4.320  1.00 20.00    -0.000 A 
HETATM    5  C5  UNL     1     -34.978  13.994  -5.612  1.00 20.00    -0.000 A 
HETATM    6  C6  UNL     1     -35.347  15.286  -4.949  1.00 20.00     0.003 A 
HETATM    7  C7  UNL     1     -34.291  16.152  -4.258  1.00 20.00    -0.043 C 
HETATM    8  C8  UNL     1     -34.989  17.325  -3.542  1.00 20.00     0.015 C 
HETATM    9  C9  UNL     1     -33.319  16.735  -5.301  1.00 20.00     0.015 C 
ENDROOT
TORSDOF 0
ENDMDL
MODEL 9
REMARK VINA RESULT:      -4.2     11.965     13.541
REMARK  0 active torsions:
REMARK  status: ('A' for Active; 'I' for Inactive)
ROOT
HETATM    1  C1  UNL     1     -33.213  16.280  -4.903  1.00 20.00     0.006 C 
HETATM    2  C2  UNL     1     -34.637  16.446  -5.436  1.00 20.00     0.009 C 
HETATM    3  C3  UNL     1     -33.178  15.357  -3.712  1.00 20.00    -0.005 A 
HETATM    4  C4  UNL     1     -34.435  14.919  -3.025  1.00 20.00    -0.000 A 
HETATM    5  C5  UNL     1     -33.625  13.946  -3.889  1.00 20.00    -0.000 A 
HETATM    6  C6  UNL     1     -35.050  14.266  -4.227  1.00 20.00     0.003 A 
HETATM    7  C7  UNL     1     -35.403  15.100  -5.461  1.00 20.00    -0.043 C 
HETATM    8  C8  UNL     1     -36.916  15.392  -5.459  1.00 20.00     0.015 C 
HETATM    9  C9  UNL     1     -35.066  14.316  -6.744  1.00 20.00     0.015 C 
ENDROOT
TORSDOF 0
ENDMDL
