MODEL 1
REMARK VINA RESULT:      -3.6      0.000      0.000
REMARK  1 active torsions:
REMARK  status: ('A' for Active; 'I' for Inactive)
REMARK    1  A    between atoms: C4_4  and  C6_6 
ROOT
HETATM    1  C1  UNL     1     -33.377  16.483  -5.468  1.00 20.00     0.279 C 
HETATM    2  C2  UNL     1     -33.598  15.391  -3.310  1.00 20.00     0.284 C 
HETATM    3  C3  UNL     1     -33.564  17.902  -4.944  1.00 20.00     0.104 C 
HETATM    4  C4  UNL     1     -33.816  16.673  -2.499  1.00 20.00     0.075 C 
HETATM    5  N7  UNL     1     -32.751  15.596  -4.487  1.00 20.00     0.085 N 
HETATM    6  S8  UNL     1     -34.667  17.938  -3.504  1.00 20.00    -0.161 SA
HETATM    7  H21 UNL     1     -32.578  14.691  -4.927  1.00 20.00     0.315 HD
ENDROOT
BRANCH   4   8
HETATM    8  C6  UNL     1     -34.649  16.395  -1.252  1.00 20.00     0.012 C 
HETATM    9  C5  UNL     1     -34.417  17.420  -0.190  1.00 20.00     0.006 C 
ENDBRANCH   4   8
TORSDOF 1
ENDMDL
MODEL 2
REMARK VINA RESULT:      -3.6      1.928      2.426
REMARK  1 active torsions:
REMARK  status: ('A' for Active; 'I' for Inactive)
REMARK    1  A    between atoms: C4_4  and  C6_6 
ROOT
HETATM    1  C1  UNL     1     -34.934  13.510  -5.465  1.00 20.00     0.279 C 
HETATM    2  C2  UNL     1     -34.118  14.183  -3.279  1.00 20.00     0.284 C 
HETATM    3  C3  UNL     1     -34.523  14.789  -6.185  1.00 20.00     0.104 C 
HETATM    4  C4  UNL     1     -33.600  15.557  -3.714  1.00 20.00     0.075 C 
HETATM    5  N7  UNL     1     -34.050  13.182  -4.346  1.00 20.00     0.085 N 
HETATM    6  S8  UNL     1     -34.607  16.227  -5.082  1.00 20.00    -0.161 SA
HETATM    7  H21 UNL     1     -34.326  12.277  -3.964  1.00 20.00     0.315 HD
ENDROOT
BRANCH   4   8
HETATM    8  C6  UNL     1     -33.632  16.545  -2.552  1.00 20.00     0.012 C 
HETATM    9  C5  UNL     1     -34.716  16.219  -1.576  1.00 20.00     0.006 C 
ENDBRANCH   4   8
TORSDOF 1
ENDMDL
MODEL 3
REMARK VINA RESULT:      -3.6      1.885      2.457
REMARK  1 active torsions:
REMARK  status: ('A' for Active; 'I' for Inactive)
REMARK    1  A    between atoms: C4_4  and  C6_6 
ROOT
HETATM    1  C1  UNL     1     -34.885  13.332  -4.476  1.00 20.00     0.279 C 
HETATM    2  C2  UNL     1     -33.276  14.854  -3.480  1.00 20.00     0.284 C 
HETATM    3  C3  UNL     1     -36.040  14.325  -4.506  1.00 20.00     0.104 C 
HETATM    4  C4  UNL     1     -34.225  16.052  -3.376  1.00 20.00     0.075 C 
HETATM    5  N7  UNL     1     -33.580  13.980  -4.614  1.00 20.00     0.085 N 
HETATM    6  S8  UNL     1     -35.946  15.495  -3.122  1.00 20.00    -0.161 SA
HETATM    7  H21 UNL     1     -32.860  13.258  -4.673  1.00 20.00     0.315 HD
ENDROOT
BRANCH   4   8
HETATM    8  C6  UNL     1     -33.829  16.964  -2.220  1.00 20.00     0.012 C 
HETATM    9  C5  UNL     1     -34.551  16.609  -0.960  1.00 20.00     0.006 C 
ENDBRANCH   4   8
TORSDOF 1
ENDMDL
MODEL 4
REMARK VINA RESULT:      -3.6      2.499      2.807
REMARK  1 active torsions:
REMARK  status: ('A' for Active; 'I' for Inactive)
REMARK    1  A    between atoms: C4_4  and  C6_6 
ROOT
HETATM    1  C1  UNL     1     -35.499  14.061  -4.920  1.00 20.00     0.279 C 
HETATM    2  C2  UNL     1     -35.821  15.704  -3.161  1.00 20.00     0.284 C 
HETATM    3  C3  UNL     1     -34.109  13.624  -4.472  1.00 20.00     0.104 C 
HETATM    4  C4  UNL     1     -34.466  15.483  -2.480  1.00 20.00     0.075 C 
HETATM    5  N7  UNL     1     -36.341  14.497  -3.805  1.00 20.00     0.085 N 
HETATM    6  S8  UNL     1     -33.200  14.991  -3.700  1.00 20.00    -0.161 SA
HETATM    7  H21 UNL     1     -37.278  14.693  -4.160  1.00 20.00     0.315 HD
ENDROOT
BRANCH   4   8
HETATM    8  C6  UNL     1     -33.999  16.750  -1.770  1.00 20.00     0.012 C 
HETATM    9  C5  UNL     1     -34.675  16.928  -0.449  1.00 20.00     0.006 C 
ENDBRANCH   4   8
TORSDOF 1
ENDMDL
MODEL 5
REMARK VINA RESULT:      -3.5      0.972      1.071
REMARK  1 active torsions:
REMARK  status: ('A' for Active; 'I' for Inactive)
REMARK    1  A    between atoms: C4_4  and  C6_6 
ROOT
HETATM    1  C1  UNL     1     -34.063  15.311  -5.685  1.00 20.00     0.279 C 
HETATM    2  C2  UNL     1     -34.463  14.704  -3.367  1.00 20.00     0.284 C 
HETATM    3  C3  UNL     1     -33.480  16.687  -5.387  1.00 20.00     0.104 C 
HETATM    4  C4  UNL     1     -33.931  16.008  -2.762  1.00 20.00     0.075 C 
HETATM    5  N7  UNL     1     -33.797  14.342  -4.620  1.00 20.00     0.085 N 
HETATM    6  S8  UNL     1     -34.217  17.411  -3.896  1.00 20.00    -0.161 SA
HETATM    7  H21 UNL     1     -34.137  13.427  -4.918  1.00 20.00     0.315 HD
ENDROOT
BRANCH   4   8
HETATM    8  C6  UNL     1     -34.610  16.307  -1.429  1.00 20.00     0.012 C 
HETATM    9  C5  UNL     1     -33.947  17.438  -0.712  1.00 20.00     0.006 C 
ENDBRANCH   4   8
TORSDOF 1
ENDMDL
MODEL 6
REMARK VINA RESULT:      -3.5     12.746     13.793
REMARK  1 active torsions:
REMARK  status: ('A' for Active; 'I' for Inactive)
REMARK    1  A    between atoms: C4_4  and  C6_6 
ROOT
HETATM    1  C1  UNL     1     -35.030   4.404   5.928  1.00 20.00     0.279 C 
HETATM    2  C2  UNL     1     -34.541   5.017   3.630  1.00 20.00     0.284 C 
HETATM    3  C3  UNL     1     -34.621   5.740   6.535  1.00 20.00     0.104 C 
HETATM    4  C4  UNL     1     -34.064   6.440   3.937  1.00 20.00     0.075 C 
HETATM    5  N7  UNL     1     -35.557   4.538   4.569  1.00 20.00     0.085 N 
HETATM    6  S8  UNL     1     -33.286   6.520   5.588  1.00 20.00    -0.161 SA
HETATM    7  H21 UNL     1     -35.889   3.626   4.255  1.00 20.00     0.315 HD
ENDROOT
BRANCH   4   8
HETATM    8  C6  UNL     1     -33.057   6.916   2.896  1.00 20.00     0.012 C 
HETATM    9  C5  UNL     1     -31.756   7.305   3.520  1.00 20.00     0.006 C 
ENDBRANCH   4   8
TORSDOF 1
ENDMDL
MODEL 7
REMARK VINA RESULT:      -3.5      2.722      4.485
REMARK  1 active torsions:
REMARK  status: ('A' for Active; 'I' for Inactive)
REMARK    1  A    between atoms: C4_4  and  C6_6 
ROOT
HETATM    1  C1  UNL     1     -33.143  15.283  -3.674  1.00 20.00     0.279 C 
HETATM    2  C2  UNL     1     -34.086  15.923  -5.819  1.00 20.00     0.284 C 
HETATM    3  C3  UNL     1     -33.454  13.797  -3.805  1.00 20.00     0.104 C 
HETATM    4  C4  UNL     1     -34.524  14.515  -6.232  1.00 20.00     0.075 C 
HETATM    5  N7  UNL     1     -32.895  15.925  -4.966  1.00 20.00     0.085 N 
HETATM    6  S8  UNL     1     -34.966  13.518  -4.768  1.00 20.00    -0.161 SA
HETATM    7  H21 UNL     1     -32.611  16.891  -4.803  1.00 20.00     0.315 HD
ENDROOT
BRANCH   4   8
HETATM    8  C6  UNL     1     -35.727  14.571  -7.169  1.00 20.00     0.012 C 
HETATM    9  C5  UNL     1     -36.884  15.281  -6.545  1.00 20.00     0.006 C 
ENDBRANCH   4   8
TORSDOF 1
ENDMDL
MODEL 8
REMARK VINA RESULT:      -3.4      2.655      4.404
REMARK  1 active torsions:
REMARK  status: ('A' for Active; 'I' for Inactive)
REMARK    1  A    between atoms: C4_4  and  C6_6 
ROOT
HETATM    1  C1  UNL     1     -32.982  14.040  -3.578  1.00 20.00     0.279 C 
HETATM    2  C2  UNL     1     -34.789  13.337  -5.041  1.00 20.00     0.284 C 
HETATM    3  C3  UNL     1     -33.264  15.533  -3.689  1.00 20.00     0.104 C 
HETATM    4  C4  UNL     1     -35.309  14.745  -5.347  1.00 20.00     0.075 C 
HETATM    5  N7  UNL     1     -34.191  13.225  -3.709  1.00 20.00     0.085 N 
HETATM    6  S8  UNL     1     -33.946  15.961  -5.314  1.00 20.00    -0.161 SA
HETATM    7  H21 UNL     1     -33.948  12.248  -3.541  1.00 20.00     0.315 HD
ENDROOT
BRANCH   4   8
HETATM    8  C6  UNL     1     -35.978  14.795  -6.717  1.00 20.00     0.012 C 
HETATM    9  C5  UNL     1     -34.974  14.825  -7.824  1.00 20.00     0.006 C 
ENDBRANCH   4   8
TORSDOF 1
ENDMDL
MODEL 9
REMARK VINA RESULT:      -3.4      2.734      3.924
REMARK  1 active torsions:
REMARK  status: ('A' for Active; 'I' for Inactive)
REMARK    1  A    between atoms: C4_4  and  C6_6 
ROOT
HETATM    1  C1  UNL     1     -33.928  13.737  -3.669  1.00 20.00     0.279 C 
HETATM    2  C2  UNL     1     -33.272  15.929  -4.484  1.00 20.00     0.284 C 
HETATM    3  C3  UNL     1     -34.673  13.319  -4.930  1.00 20.00     0.104 C 
HETATM    4  C4  UNL     1     -33.936  15.798  -5.859  1.00 20.00     0.075 C 
HETATM    5  N7  UNL     1     -32.815  14.647  -3.945  1.00 20.00     0.085 N 
HETATM    6  S8  UNL     1     -35.425  14.745  -5.761  1.00 20.00    -0.161 SA
HETATM    7  H21 UNL     1     -32.309  14.819  -3.075  1.00 20.00     0.315 HD
ENDROOT
BRANCH   4   8
HETATM    8  C6  UNL     1     -34.336  17.165  -6.404  1.00 20.00     0.012 C 
HETATM    9  C5  UNL     1     -33.623  18.274  -5.700  1.00 20.00     0.006 C 
ENDBRANCH   4   8
TORSDOF 1
ENDMDL
