MODEL 1
REMARK VINA RESULT:      -5.3      0.000      0.000
REMARK  0 active torsions:
REMARK  status: ('A' for Active; 'I' for Inactive)
ROOT
HETATM    1  C1  UNL     1     -33.891   5.003   2.797  1.00 20.00    -0.018 C 
HETATM    2  C2  UNL     1     -33.380   6.721   6.306  1.00 20.00    -0.018 C 
HETATM    3  C3  UNL     1     -33.434   6.289   2.859  1.00 20.00    -0.078 C 
HETATM    4  C4  UNL     1     -34.509   5.992   6.070  1.00 20.00    -0.078 C 
HETATM    5  C5  UNL     1     -32.095   6.956   2.593  1.00 20.00     0.035 C 
HETATM    6  C6  UNL     1     -35.025   4.645   6.549  1.00 20.00     0.035 C 
HETATM    7  C7  UNL     1     -31.796   7.703   3.998  1.00 20.00     0.013 C 
HETATM    8  C8  UNL     1     -35.273   3.855   5.157  1.00 20.00     0.013 C 
HETATM    9  C9  UNL     1     -34.368   4.645   4.205  1.00 20.00     0.017 C 
HETATM   10  C10 UNL     1     -32.692   6.906   4.952  1.00 20.00     0.017 C 
HETATM   11  C11 UNL     1     -33.927   6.967   4.069  1.00 20.00     0.030 C 
HETATM   12  C12 UNL     1     -34.863   6.012   4.642  1.00 20.00     0.030 C 
ENDROOT
TORSDOF 0
ENDMDL
MODEL 2
REMARK VINA RESULT:      -5.2     12.010     13.589
REMARK  0 active torsions:
REMARK  status: ('A' for Active; 'I' for Inactive)
ROOT
HETATM    1  C1  UNL     1     -33.393  17.272  -5.232  1.00 20.00    -0.018 C 
HETATM    2  C2  UNL     1     -35.808  14.652  -3.551  1.00 20.00    -0.018 C 
HETATM    3  C3  UNL     1     -33.723  16.130  -5.904  1.00 20.00    -0.078 C 
HETATM    4  C4  UNL     1     -34.805  15.214  -2.816  1.00 20.00    -0.078 C 
HETATM    5  C5  UNL     1     -34.597  15.821  -7.109  1.00 20.00     0.035 C 
HETATM    6  C6  UNL     1     -34.754  16.232  -1.689  1.00 20.00     0.035 C 
HETATM    7  C7  UNL     1     -35.636  14.733  -6.510  1.00 20.00     0.013 C 
HETATM    8  C8  UNL     1     -33.766  17.366  -2.292  1.00 20.00     0.013 C 
HETATM    9  C9  UNL     1     -33.875  17.083  -3.794  1.00 20.00     0.017 C 
HETATM   10  C10 UNL     1     -35.536  15.023  -5.010  1.00 20.00     0.017 C 
HETATM   11  C11 UNL     1     -34.018  15.032  -4.969  1.00 20.00     0.030 C 
HETATM   12  C12 UNL     1     -33.666  15.583  -3.670  1.00 20.00     0.030 C 
ENDROOT
TORSDOF 0
ENDMDL
MODEL 3
REMARK VINA RESULT:      -5.2      0.055      3.989
REMARK  0 active torsions:
REMARK  status: ('A' for Active; 'I' for Inactive)
ROOT
HETATM    1  C1  UNL     1     -33.343   6.724   6.261  1.00 20.00    -0.018 C 
HETATM    2  C2  UNL     1     -33.948   5.011   2.765  1.00 20.00    -0.018 C 
HETATM    3  C3  UNL     1     -34.484   6.003   6.051  1.00 20.00    -0.078 C 
HETATM    4  C4  UNL     1     -33.482   6.292   2.816  1.00 20.00    -0.078 C 
HETATM    5  C5  UNL     1     -34.998   4.660   6.541  1.00 20.00     0.035 C 
HETATM    6  C6  UNL     1     -32.144   6.950   2.519  1.00 20.00     0.035 C 
HETATM    7  C7  UNL     1     -35.283   3.872   5.156  1.00 20.00     0.013 C 
HETATM    8  C8  UNL     1     -31.808   7.695   3.917  1.00 20.00     0.013 C 
HETATM    9  C9  UNL     1     -32.688   6.905   4.891  1.00 20.00     0.017 C 
HETATM   10  C10 UNL     1     -34.394   4.654   4.184  1.00 20.00     0.017 C 
HETATM   11  C11 UNL     1     -34.870   6.025   4.631  1.00 20.00     0.030 C 
HETATM   12  C12 UNL     1     -33.941   6.974   4.036  1.00 20.00     0.030 C 
ENDROOT
TORSDOF 0
ENDMDL
MODEL 4
REMARK VINA RESULT:      -5.2     12.017     13.632
REMARK  0 active torsions:
REMARK  status: ('A' for Active; 'I' for Inactive)
ROOT
HETATM    1  C1  UNL     1     -35.866  14.736  -3.457  1.00 20.00    -0.018 C 
HETATM    2  C2  UNL     1     -33.362  17.240  -5.185  1.00 20.00    -0.018 C 
HETATM    3  C3  UNL     1     -34.845  15.280  -2.730  1.00 20.00    -0.078 C 
HETATM    4  C4  UNL     1     -33.728  16.097  -5.834  1.00 20.00    -0.078 C 
HETATM    5  C5  UNL     1     -34.763  16.319  -1.624  1.00 20.00     0.035 C 
HETATM    6  C6  UNL     1     -34.609  15.790  -7.034  1.00 20.00     0.035 C 
HETATM    7  C7  UNL     1     -33.739  17.407  -2.248  1.00 20.00     0.013 C 
HETATM    8  C8  UNL     1     -35.685  14.748  -6.417  1.00 20.00     0.013 C 
HETATM    9  C9  UNL     1     -35.578  15.066  -4.921  1.00 20.00     0.017 C 
HETATM   10  C10 UNL     1     -33.854  17.097  -3.744  1.00 20.00     0.017 C 
HETATM   11  C11 UNL     1     -33.693  15.595  -3.589  1.00 20.00     0.030 C 
HETATM   12  C12 UNL     1     -34.060  15.028  -4.878  1.00 20.00     0.030 C 
ENDROOT
TORSDOF 0
ENDMDL
MODEL 5
REMARK VINA RESULT:      -5.1     11.775     13.658
REMARK  0 active torsions:
REMARK  status: ('A' for Active; 'I' for Inactive)
ROOT
HETATM    1  C1  UNL     1     -34.158  16.202  -6.241  1.00 20.00    -0.018 C 
HETATM    2  C2  UNL     1     -34.647  15.764  -2.356  1.00 20.00    -0.018 C 
HETATM    3  C3  UNL     1     -34.158  14.949  -5.698  1.00 20.00    -0.078 C 
HETATM    4  C4  UNL     1     -33.806  16.731  -2.825  1.00 20.00    -0.078 C 
HETATM    5  C5  UNL     1     -35.129  13.781  -5.721  1.00 20.00     0.035 C 
HETATM    6  C6  UNL     1     -33.862  18.248  -2.892  1.00 20.00     0.035 C 
HETATM    7  C7  UNL     1     -35.393  13.520  -4.145  1.00 20.00     0.013 C 
HETATM    8  C8  UNL     1     -33.663  18.532  -4.475  1.00 20.00     0.013 C 
HETATM    9  C9  UNL     1     -34.074  17.182  -5.070  1.00 20.00     0.017 C 
HETATM   10  C10 UNL     1     -34.992  14.873  -3.551  1.00 20.00     0.017 C 
HETATM   11  C11 UNL     1     -33.679  14.976  -4.307  1.00 20.00     0.030 C 
HETATM   12  C12 UNL     1     -33.230  16.347  -4.123  1.00 20.00     0.030 C 
ENDROOT
TORSDOF 0
ENDMDL
MODEL 6
REMARK VINA RESULT:      -5.1     11.787     13.574
REMARK  0 active torsions:
REMARK  status: ('A' for Active; 'I' for Inactive)
ROOT
HETATM    1  C1  UNL     1     -34.644  15.754  -2.362  1.00 20.00    -0.018 C 
HETATM    2  C2  UNL     1     -34.158  16.217  -6.244  1.00 20.00    -0.018 C 
HETATM    3  C3  UNL     1     -33.803  16.726  -2.826  1.00 20.00    -0.078 C 
HETATM    4  C4  UNL     1     -34.157  14.962  -5.709  1.00 20.00    -0.078 C 
HETATM    5  C5  UNL     1     -33.861  18.243  -2.883  1.00 20.00     0.035 C 
HETATM    6  C6  UNL     1     -35.127  13.792  -5.739  1.00 20.00     0.035 C 
HETATM    7  C7  UNL     1     -33.665  18.537  -4.463  1.00 20.00     0.013 C 
HETATM    8  C8  UNL     1     -35.389  13.520  -4.164  1.00 20.00     0.013 C 
HETATM    9  C9  UNL     1     -34.988  14.871  -3.561  1.00 20.00     0.017 C 
HETATM   10  C10 UNL     1     -34.076  17.190  -5.067  1.00 20.00     0.017 C 
HETATM   11  C11 UNL     1     -33.228  16.350  -4.128  1.00 20.00     0.030 C 
HETATM   12  C12 UNL     1     -33.676  14.980  -4.319  1.00 20.00     0.030 C 
ENDROOT
TORSDOF 0
ENDMDL
MODEL 7
REMARK VINA RESULT:      -5.1     12.012     13.757
REMARK  0 active torsions:
REMARK  status: ('A' for Active; 'I' for Inactive)
ROOT
HETATM    1  C1  UNL     1     -33.458  17.396  -4.891  1.00 20.00    -0.018 C 
HETATM    2  C2  UNL     1     -35.675  14.310  -3.851  1.00 20.00    -0.018 C 
HETATM    3  C3  UNL     1     -34.170  17.439  -3.727  1.00 20.00    -0.078 C 
HETATM    4  C4  UNL     1     -35.699  14.754  -5.141  1.00 20.00    -0.078 C 
HETATM    5  C5  UNL     1     -33.803  17.381  -2.253  1.00 20.00     0.035 C 
HETATM    6  C6  UNL     1     -35.167  14.217  -6.460  1.00 20.00     0.035 C 
HETATM    7  C7  UNL     1     -34.680  16.126  -1.728  1.00 20.00     0.013 C 
HETATM    8  C8  UNL     1     -34.232  15.436  -6.977  1.00 20.00     0.013 C 
HETATM    9  C9  UNL     1     -33.962  16.177  -5.664  1.00 20.00     0.017 C 
HETATM   10  C10 UNL     1     -34.941  15.378  -3.039  1.00 20.00     0.017 C 
HETATM   11  C11 UNL     1     -35.381  16.607  -3.817  1.00 20.00     0.030 C 
HETATM   12  C12 UNL     1     -35.412  16.195  -5.211  1.00 20.00     0.030 C 
ENDROOT
TORSDOF 0
ENDMDL
MODEL 8
REMARK VINA RESULT:      -5.1     12.002     13.650
REMARK  0 active torsions:
REMARK  status: ('A' for Active; 'I' for Inactive)
ROOT
HETATM    1  C1  UNL     1     -35.598  14.349  -3.771  1.00 20.00    -0.018 C 
HETATM    2  C2  UNL     1     -33.462  17.486  -4.832  1.00 20.00    -0.018 C 
HETATM    3  C3  UNL     1     -35.640  14.788  -5.064  1.00 20.00    -0.078 C 
HETATM    4  C4  UNL     1     -34.169  17.514  -3.665  1.00 20.00    -0.078 C 
HETATM    5  C5  UNL     1     -35.101  14.261  -6.383  1.00 20.00     0.035 C 
HETATM    6  C6  UNL     1     -33.793  17.471  -2.193  1.00 20.00     0.035 C 
HETATM    7  C7  UNL     1     -34.199  15.500  -6.907  1.00 20.00     0.013 C 
HETATM    8  C8  UNL     1     -34.638  16.196  -1.658  1.00 20.00     0.013 C 
HETATM    9  C9  UNL     1     -34.887  15.438  -2.967  1.00 20.00     0.017 C 
HETATM   10  C10 UNL     1     -33.940  16.251  -5.598  1.00 20.00     0.017 C 
HETATM   11  C11 UNL     1     -35.388  16.236  -5.139  1.00 20.00     0.030 C 
HETATM   12  C12 UNL     1     -35.359  16.654  -3.746  1.00 20.00     0.030 C 
ENDROOT
TORSDOF 0
ENDMDL
MODEL 9
REMARK VINA RESULT:      -5.0     12.133     13.822
REMARK  0 active torsions:
REMARK  status: ('A' for Active; 'I' for Inactive)
ROOT
HETATM    1  C1  UNL     1     -34.728  15.388  -6.950  1.00 20.00    -0.018 C 
HETATM    2  C2  UNL     1     -33.664  16.258  -3.257  1.00 20.00    -0.018 C 
HETATM    3  C3  UNL     1     -34.818  16.677  -6.507  1.00 20.00    -0.078 C 
HETATM    4  C4  UNL     1     -34.422  15.150  -3.497  1.00 20.00    -0.078 C 
HETATM    5  C5  UNL     1     -34.044  17.955  -6.788  1.00 20.00     0.035 C 
HETATM    6  C6  UNL     1     -34.159  13.653  -3.463  1.00 20.00     0.035 C 
HETATM    7  C7  UNL     1     -33.561  18.398  -5.308  1.00 20.00     0.013 C 
HETATM    8  C8  UNL     1     -34.577  13.195  -4.960  1.00 20.00     0.013 C 
HETATM    9  C9  UNL     1     -34.471  14.524  -5.715  1.00 20.00     0.017 C 
HETATM   10  C10 UNL     1     -33.656  17.067  -4.555  1.00 20.00     0.017 C 
HETATM   11  C11 UNL     1     -35.048  16.723  -5.054  1.00 20.00     0.030 C 
HETATM   12  C12 UNL     1     -35.257  15.329  -4.695  1.00 20.00     0.030 C 
ENDROOT
TORSDOF 0
ENDMDL
