MODEL 1
REMARK VINA RESULT:      -4.4      0.000      0.000
REMARK  0 active torsions:
REMARK  status: ('A' for Active; 'I' for Inactive)
ROOT
HETATM    1  C1  UNL     1     -35.153   4.175   4.471  1.00 20.00     0.004 C 
HETATM    2  C2  UNL     1     -35.026   4.344   5.984  1.00 20.00     0.005 C 
HETATM    3  C3  UNL     1     -35.136   5.527   3.756  1.00 20.00     0.042 C 
HETATM    4  C4  UNL     1     -34.266   6.753   6.519  1.00 20.00     0.013 A 
HETATM    5  C5  UNL     1     -33.931   5.288   6.379  1.00 20.00    -0.007 A 
HETATM    6  C6  UNL     1     -33.364   6.295   5.403  1.00 20.00     0.029 A 
HETATM    7  C7  UNL     1     -33.809   6.270   3.968  1.00 20.00     0.117 C 
HETATM    8 CL8  UNL     1     -33.958   7.956   3.383  1.00 20.00    -0.101 Cl
HETATM    9 CL9  UNL     1     -32.510   5.470   3.010  1.00 20.00    -0.101 Cl
ENDROOT
TORSDOF 0
ENDMDL
MODEL 2
REMARK VINA RESULT:      -4.2     12.482     13.426
REMARK  0 active torsions:
REMARK  status: ('A' for Active; 'I' for Inactive)
ROOT
HETATM    1  C1  UNL     1     -34.442  13.333  -4.829  1.00 20.00     0.004 C 
HETATM    2  C2  UNL     1     -33.470  13.586  -3.679  1.00 20.00     0.005 C 
HETATM    3  C3  UNL     1     -35.452  14.474  -4.968  1.00 20.00     0.042 C 
HETATM    4  C4  UNL     1     -33.645  16.053  -2.935  1.00 20.00     0.013 A 
HETATM    5  C5  UNL     1     -32.903  14.974  -3.685  1.00 20.00    -0.007 A 
HETATM    6  C6  UNL     1     -33.576  16.100  -4.438  1.00 20.00     0.029 A 
HETATM    7  C7  UNL     1     -34.766  15.805  -5.308  1.00 20.00     0.117 C 
HETATM    8 CL8  UNL     1     -35.939  17.149  -5.150  1.00 20.00    -0.101 Cl
HETATM    9 CL9  UNL     1     -34.196  15.773  -7.016  1.00 20.00    -0.101 Cl
ENDROOT
TORSDOF 0
ENDMDL
MODEL 3
REMARK VINA RESULT:      -4.2     12.134     13.281
REMARK  0 active torsions:
REMARK  status: ('A' for Active; 'I' for Inactive)
ROOT
HETATM    1  C1  UNL     1     -33.901  15.746  -6.106  1.00 20.00     0.004 C 
HETATM    2  C2  UNL     1     -34.999  14.724  -6.396  1.00 20.00     0.005 C 
HETATM    3  C3  UNL     1     -34.049  16.340  -4.704  1.00 20.00     0.042 C 
HETATM    4  C4  UNL     1     -36.185  14.088  -4.191  1.00 20.00     0.013 A 
HETATM    5  C5  UNL     1     -35.198  13.743  -5.279  1.00 20.00    -0.007 A 
HETATM    6  C6  UNL     1     -34.713  14.034  -3.876  1.00 20.00     0.029 A 
HETATM    7  C7  UNL     1     -33.900  15.270  -3.612  1.00 20.00     0.117 C 
HETATM    8 CL8  UNL     1     -34.388  15.949  -2.028  1.00 20.00    -0.101 Cl
HETATM    9 CL9  UNL     1     -32.175  14.770  -3.486  1.00 20.00    -0.101 Cl
ENDROOT
TORSDOF 0
ENDMDL
MODEL 4
REMARK VINA RESULT:      -4.1     12.060     13.038
REMARK  0 active torsions:
REMARK  status: ('A' for Active; 'I' for Inactive)
ROOT
HETATM    1  C1  UNL     1     -33.326  14.032  -3.697  1.00 20.00     0.004 C 
HETATM    2  C2  UNL     1     -34.472  13.328  -4.421  1.00 20.00     0.005 C 
HETATM    3  C3  UNL     1     -33.388  15.547  -3.897  1.00 20.00     0.042 C 
HETATM    4  C4  UNL     1     -36.248  15.069  -5.116  1.00 20.00     0.013 A 
HETATM    5  C5  UNL     1     -35.803  13.973  -4.178  1.00 20.00    -0.007 A 
HETATM    6  C6  UNL     1     -35.913  15.398  -3.685  1.00 20.00     0.029 A 
HETATM    7  C7  UNL     1     -34.669  16.150  -3.302  1.00 20.00     0.117 C 
HETATM    8 CL8  UNL     1     -34.840  17.852  -3.833  1.00 20.00    -0.101 Cl
HETATM    9 CL9  UNL     1     -34.561  16.144  -1.505  1.00 20.00    -0.101 Cl
ENDROOT
TORSDOF 0
ENDMDL
MODEL 5
REMARK VINA RESULT:      -4.1     12.703     13.890
REMARK  0 active torsions:
REMARK  status: ('A' for Active; 'I' for Inactive)
ROOT
HETATM    1  C1  UNL     1     -33.646  17.052  -3.836  1.00 20.00     0.004 C 
HETATM    2  C2  UNL     1     -33.617  15.883  -2.853  1.00 20.00     0.005 C 
HETATM    3  C3  UNL     1     -33.511  16.569  -5.281  1.00 20.00     0.042 C 
HETATM    4  C4  UNL     1     -33.944  13.669  -4.141  1.00 20.00     0.013 A 
HETATM    5  C5  UNL     1     -34.514  14.753  -3.259  1.00 20.00    -0.007 A 
HETATM    6  C6  UNL     1     -34.997  14.599  -4.684  1.00 20.00     0.029 A 
HETATM    7  C7  UNL     1     -34.684  15.667  -5.694  1.00 20.00     0.117 C 
HETATM    8 CL8  UNL     1     -34.324  14.885  -7.264  1.00 20.00    -0.101 Cl
HETATM    9 CL9  UNL     1     -36.168  16.666  -5.906  1.00 20.00    -0.101 Cl
ENDROOT
TORSDOF 0
ENDMDL
MODEL 6
REMARK VINA RESULT:      -4.1     11.991     13.036
REMARK  0 active torsions:
REMARK  status: ('A' for Active; 'I' for Inactive)
ROOT
HETATM    1  C1  UNL     1     -35.849  16.216  -2.886  1.00 20.00     0.004 C 
HETATM    2  C2  UNL     1     -36.674  15.094  -3.513  1.00 20.00     0.005 C 
HETATM    3  C3  UNL     1     -34.412  15.766  -2.615  1.00 20.00     0.042 C 
HETATM    4  C4  UNL     1     -35.096  13.221  -4.332  1.00 20.00     0.013 A 
HETATM    5  C5  UNL     1     -35.970  14.410  -4.647  1.00 20.00    -0.007 A 
HETATM    6  C6  UNL     1     -34.470  14.502  -4.816  1.00 20.00     0.029 A 
HETATM    7  C7  UNL     1     -33.674  15.401  -3.911  1.00 20.00     0.117 C 
HETATM    8 CL8  UNL     1     -32.125  14.593  -3.518  1.00 20.00    -0.101 Cl
HETATM    9 CL9  UNL     1     -33.292  16.900  -4.832  1.00 20.00    -0.101 Cl
ENDROOT
TORSDOF 0
ENDMDL
MODEL 7
REMARK VINA RESULT:      -4.0      9.247     10.359
REMARK  0 active torsions:
REMARK  status: ('A' for Active; 'I' for Inactive)
ROOT
HETATM    1  C1  UNL     1     -42.630   4.621  -2.745  1.00 20.00     0.004 C 
HETATM    2  C2  UNL     1     -41.569   4.086  -1.786  1.00 20.00     0.005 C 
HETATM    3  C3  UNL     1     -43.417   5.775  -2.120  1.00 20.00     0.042 C 
HETATM    4  C4  UNL     1     -41.244   5.759   0.155  1.00 20.00     0.013 A 
HETATM    5  C5  UNL     1     -40.756   5.171  -1.146  1.00 20.00    -0.007 A 
HETATM    6  C6  UNL     1     -41.246   6.601  -1.093  1.00 20.00     0.029 A 
HETATM    7  C7  UNL     1     -42.514   6.978  -1.808  1.00 20.00     0.117 C 
HETATM    8 CL8  UNL     1     -43.408   8.161  -0.804  1.00 20.00    -0.101 Cl
HETATM    9 CL9  UNL     1     -42.051   7.800  -3.341  1.00 20.00    -0.101 Cl
ENDROOT
TORSDOF 0
ENDMDL
MODEL 8
REMARK VINA RESULT:      -4.0      9.213     10.558
REMARK  0 active torsions:
REMARK  status: ('A' for Active; 'I' for Inactive)
ROOT
HETATM    1  C1  UNL     1     -40.661   4.651  -0.828  1.00 20.00     0.004 C 
HETATM    2  C2  UNL     1     -41.227   4.047  -2.112  1.00 20.00     0.005 C 
HETATM    3  C3  UNL     1     -41.054   6.122  -0.683  1.00 20.00     0.042 C 
HETATM    4  C4  UNL     1     -43.027   5.624  -3.082  1.00 20.00     0.013 A 
HETATM    5  C5  UNL     1     -42.676   4.368  -2.322  1.00 20.00    -0.007 A 
HETATM    6  C6  UNL     1     -43.341   5.526  -1.612  1.00 20.00     0.029 A 
HETATM    7  C7  UNL     1     -42.576   6.298  -0.573  1.00 20.00     0.117 C 
HETATM    8 CL8  UNL     1     -42.997   8.033  -0.721  1.00 20.00    -0.101 Cl
HETATM    9 CL9  UNL     1     -43.135   5.735   1.044  1.00 20.00    -0.101 Cl
ENDROOT
TORSDOF 0
ENDMDL
MODEL 9
REMARK VINA RESULT:      -4.0     12.094     13.474
REMARK  0 active torsions:
REMARK  status: ('A' for Active; 'I' for Inactive)
ROOT
HETATM    1  C1  UNL     1     -36.356  14.320  -4.161  1.00 20.00     0.004 C 
HETATM    2  C2  UNL     1     -36.423  15.081  -5.483  1.00 20.00     0.005 C 
HETATM    3  C3  UNL     1     -34.919  13.921  -3.819  1.00 20.00     0.042 C 
HETATM    4  C4  UNL     1     -34.045  15.816  -6.172  1.00 20.00     0.013 A 
HETATM    5  C5  UNL     1     -35.392  16.165  -5.589  1.00 20.00    -0.007 A 
HETATM    6  C6  UNL     1     -34.159  16.172  -4.714  1.00 20.00     0.029 A 
HETATM    7  C7  UNL     1     -34.017  15.148  -3.622  1.00 20.00     0.117 C 
HETATM    8 CL8  UNL     1     -32.304  14.633  -3.537  1.00 20.00    -0.101 Cl
HETATM    9 CL9  UNL     1     -34.425  15.954  -2.064  1.00 20.00    -0.101 Cl
ENDROOT
TORSDOF 0
ENDMDL
