MODEL 1
REMARK VINA RESULT:      -4.4      0.000      0.000
REMARK  0 active torsions:
REMARK  status: ('A' for Active; 'I' for Inactive)
ROOT
HETATM    1  C1  UNL     1     -34.812  13.287  -4.372  1.00 20.00    -0.020 A 
HETATM    2  C2  UNL     1     -33.689  13.782  -3.821  1.00 20.00    -0.020 A 
HETATM    3  C3  UNL     1     -34.104  15.611  -6.263  1.00 20.00     0.002 C 
HETATM    4  C4  UNL     1     -35.543  15.241  -5.922  1.00 20.00     0.014 C 
HETATM    5  C5  UNL     1     -33.541  16.122  -4.941  1.00 20.00     0.014 C 
HETATM    6  C6  UNL     1     -35.484  14.653  -4.500  1.00 20.00    -0.016 A 
HETATM    7  C7  UNL     1     -34.175  15.229  -3.859  1.00 20.00    -0.016 A 
HETATM    8  C8  UNL     1     -36.810  14.773  -3.762  1.00 20.00     0.020 C 
HETATM    9  C9  UNL     1     -34.229  15.908  -2.498  1.00 20.00     0.020 C 
ENDROOT
TORSDOF 0
ENDMDL
MODEL 2
REMARK VINA RESULT:      -4.3      1.113      3.144
REMARK  0 active torsions:
REMARK  status: ('A' for Active; 'I' for Inactive)
ROOT
HETATM    1  C1  UNL     1     -32.665  14.816  -3.715  1.00 20.00    -0.020 A 
HETATM    2  C2  UNL     1     -33.673  13.927  -3.699  1.00 20.00    -0.020 A 
HETATM    3  C3  UNL     1     -34.694  16.136  -1.812  1.00 20.00     0.002 C 
HETATM    4  C4  UNL     1     -33.823  16.943  -2.769  1.00 20.00     0.014 C 
HETATM    5  C5  UNL     1     -35.620  15.356  -2.739  1.00 20.00     0.014 C 
HETATM    6  C6  UNL     1     -33.578  16.014  -3.973  1.00 20.00    -0.016 A 
HETATM    7  C7  UNL     1     -34.753  14.977  -3.953  1.00 20.00    -0.016 A 
HETATM    8  C8  UNL     1     -33.262  16.782  -5.249  1.00 20.00     0.020 C 
HETATM    9  C9  UNL     1     -35.578  14.737  -5.209  1.00 20.00     0.020 C 
ENDROOT
TORSDOF 0
ENDMDL
MODEL 3
REMARK VINA RESULT:      -4.2      0.851      2.885
REMARK  0 active torsions:
REMARK  status: ('A' for Active; 'I' for Inactive)
ROOT
HETATM    1  C1  UNL     1     -34.009  13.583  -3.736  1.00 20.00    -0.020 A 
HETATM    2  C2  UNL     1     -34.619  13.164  -4.860  1.00 20.00    -0.020 A 
HETATM    3  C3  UNL     1     -36.744  14.989  -3.581  1.00 20.00     0.002 C 
HETATM    4  C4  UNL     1     -35.458  15.643  -3.089  1.00 20.00     0.014 C 
HETATM    5  C5  UNL     1     -36.545  14.894  -5.090  1.00 20.00     0.014 C 
HETATM    6  C6  UNL     1     -34.342  15.055  -3.973  1.00 20.00    -0.016 A 
HETATM    7  C7  UNL     1     -35.053  14.566  -5.281  1.00 20.00    -0.016 A 
HETATM    8  C8  UNL     1     -33.126  15.968  -4.063  1.00 20.00     0.020 C 
HETATM    9  C9  UNL     1     -34.529  15.003  -6.642  1.00 20.00     0.020 C 
ENDROOT
TORSDOF 0
ENDMDL
MODEL 4
REMARK VINA RESULT:      -4.2      1.057      2.674
REMARK  0 active torsions:
REMARK  status: ('A' for Active; 'I' for Inactive)
ROOT
HETATM    1  C1  UNL     1     -33.010  15.865  -4.202  1.00 20.00    -0.020 A 
HETATM    2  C2  UNL     1     -33.637  16.243  -5.330  1.00 20.00    -0.020 A 
HETATM    3  C3  UNL     1     -34.568  13.328  -4.986  1.00 20.00     0.002 C 
HETATM    4  C4  UNL     1     -34.359  13.745  -3.535  1.00 20.00     0.014 C 
HETATM    5  C5  UNL     1     -35.475  14.418  -5.547  1.00 20.00     0.014 C 
HETATM    6  C6  UNL     1     -34.270  15.282  -3.565  1.00 20.00    -0.016 A 
HETATM    7  C7  UNL     1     -35.001  15.722  -4.880  1.00 20.00    -0.016 A 
HETATM    8  C8  UNL     1     -34.652  15.916  -2.234  1.00 20.00     0.020 C 
HETATM    9  C9  UNL     1     -36.091  16.782  -4.828  1.00 20.00     0.020 C 
ENDROOT
TORSDOF 0
ENDMDL
MODEL 5
REMARK VINA RESULT:      -4.2      1.489      2.497
REMARK  0 active torsions:
REMARK  status: ('A' for Active; 'I' for Inactive)
ROOT
HETATM    1  C1  UNL     1     -34.905  15.938  -1.923  1.00 20.00    -0.020 A 
HETATM    2  C2  UNL     1     -33.747  16.590  -2.133  1.00 20.00    -0.020 A 
HETATM    3  C3  UNL     1     -33.278  13.906  -3.567  1.00 20.00     0.002 C 
HETATM    4  C4  UNL     1     -34.787  14.064  -3.720  1.00 20.00     0.014 C 
HETATM    5  C5  UNL     1     -32.723  15.225  -4.093  1.00 20.00     0.014 C 
HETATM    6  C6  UNL     1     -35.075  15.540  -3.388  1.00 20.00    -0.016 A 
HETATM    7  C7  UNL     1     -33.725  16.299  -3.632  1.00 20.00    -0.016 A 
HETATM    8  C8  UNL     1     -36.359  16.043  -4.031  1.00 20.00     0.020 C 
HETATM    9  C9  UNL     1     -33.699  17.540  -4.512  1.00 20.00     0.020 C 
ENDROOT
TORSDOF 0
ENDMDL
MODEL 6
REMARK VINA RESULT:      -4.2     10.935     12.644
REMARK  0 active torsions:
REMARK  status: ('A' for Active; 'I' for Inactive)
ROOT
HETATM    1  C1  UNL     1     -40.844   6.891  -0.732  1.00 20.00    -0.020 A 
HETATM    2  C2  UNL     1     -40.475   5.631  -0.438  1.00 20.00    -0.020 A 
HETATM    3  C3  UNL     1     -43.290   5.812   0.794  1.00 20.00     0.002 C 
HETATM    4  C4  UNL     1     -43.416   6.781  -0.376  1.00 20.00     0.014 C 
HETATM    5  C5  UNL     1     -42.758   4.537   0.150  1.00 20.00     0.014 C 
HETATM    6  C6  UNL     1     -42.208   6.480  -1.282  1.00 20.00    -0.016 A 
HETATM    7  C7  UNL     1     -41.778   5.013  -0.939  1.00 20.00    -0.016 A 
HETATM    8  C8  UNL     1     -42.450   6.884  -2.730  1.00 20.00     0.020 C 
HETATM    9  C9  UNL     1     -41.601   3.991  -2.053  1.00 20.00     0.020 C 
ENDROOT
TORSDOF 0
ENDMDL
MODEL 7
REMARK VINA RESULT:      -4.1     10.883     12.440
REMARK  0 active torsions:
REMARK  status: ('A' for Active; 'I' for Inactive)
ROOT
HETATM    1  C1  UNL     1     -40.848   5.975   0.013  1.00 20.00    -0.020 A 
HETATM    2  C2  UNL     1     -40.957   7.016  -0.833  1.00 20.00    -0.020 A 
HETATM    3  C3  UNL     1     -42.121   4.687  -2.477  1.00 20.00     0.002 C 
HETATM    4  C4  UNL     1     -42.474   4.254  -1.058  1.00 20.00     0.014 C 
HETATM    5  C5  UNL     1     -42.668   6.107  -2.566  1.00 20.00     0.014 C 
HETATM    6  C6  UNL     1     -42.289   5.514  -0.193  1.00 20.00    -0.016 A 
HETATM    7  C7  UNL     1     -42.416   6.726  -1.179  1.00 20.00    -0.016 A 
HETATM    8  C8  UNL     1     -43.125   5.476   1.080  1.00 20.00     0.020 C 
HETATM    9  C9  UNL     1     -43.374   7.866  -0.864  1.00 20.00     0.020 C 
ENDROOT
TORSDOF 0
ENDMDL
MODEL 8
REMARK VINA RESULT:      -4.1      0.891      2.277
REMARK  0 active torsions:
REMARK  status: ('A' for Active; 'I' for Inactive)
ROOT
HETATM    1  C1  UNL     1     -34.511  13.641  -5.273  1.00 20.00    -0.020 A 
HETATM    2  C2  UNL     1     -35.115  13.337  -4.110  1.00 20.00    -0.020 A 
HETATM    3  C3  UNL     1     -33.281  15.681  -3.322  1.00 20.00     0.002 C 
HETATM    4  C4  UNL     1     -33.584  16.019  -4.778  1.00 20.00     0.014 C 
HETATM    5  C5  UNL     1     -34.659  15.475  -2.705  1.00 20.00     0.014 C 
HETATM    6  C6  UNL     1     -34.791  15.138  -5.154  1.00 20.00    -0.016 A 
HETATM    7  C7  UNL     1     -35.493  14.783  -3.799  1.00 20.00    -0.016 A 
HETATM    8  C8  UNL     1     -35.603  15.720  -6.303  1.00 20.00     0.020 C 
HETATM    9  C9  UNL     1     -36.988  15.019  -3.631  1.00 20.00     0.020 C 
ENDROOT
TORSDOF 0
ENDMDL
MODEL 9
REMARK VINA RESULT:      -4.1     11.061     12.501
REMARK  0 active torsions:
REMARK  status: ('A' for Active; 'I' for Inactive)
ROOT
HETATM    1  C1  UNL     1     -40.767   4.685  -1.089  1.00 20.00    -0.020 A 
HETATM    2  C2  UNL     1     -40.791   5.553  -0.061  1.00 20.00    -0.020 A 
HETATM    3  C3  UNL     1     -42.082   7.172  -2.340  1.00 20.00     0.002 C 
HETATM    4  C4  UNL     1     -42.488   5.752  -2.719  1.00 20.00     0.014 C 
HETATM    5  C5  UNL     1     -42.529   7.299  -0.888  1.00 20.00     0.014 C 
HETATM    6  C6  UNL     1     -42.233   4.908  -1.456  1.00 20.00    -0.016 A 
HETATM    7  C7  UNL     1     -42.261   5.920  -0.259  1.00 20.00    -0.016 A 
HETATM    8  C8  UNL     1     -43.091   3.651  -1.410  1.00 20.00     0.020 C 
HETATM    9  C9  UNL     1     -43.144   5.646   0.950  1.00 20.00     0.020 C 
ENDROOT
TORSDOF 0
ENDMDL
