MODEL 1
REMARK VINA RESULT:      -4.7      0.000      0.000
REMARK  0 active torsions:
REMARK  status: ('A' for Active; 'I' for Inactive)
ROOT
HETATM    1  C1  UNL     1     -33.722   6.639   5.536  1.00 20.00     0.014 C 
HETATM    2  C2  UNL     1     -35.015   5.433   3.723  1.00 20.00     0.014 C 
HETATM    3  C3  UNL     1     -34.054   5.430   6.370  1.00 20.00    -0.004 A 
HETATM    4  C4  UNL     1     -35.195   4.366   4.769  1.00 20.00    -0.004 A 
HETATM    5  C5  UNL     1     -34.117   4.070   5.759  1.00 20.00    -0.001 A 
HETATM    6  C6  UNL     1     -35.389   4.790   6.187  1.00 20.00    -0.001 A 
HETATM    7  C7  UNL     1     -33.810   6.360   4.016  1.00 20.00    -0.046 C 
HETATM    8  C8  UNL     1     -32.502   5.710   3.515  1.00 20.00     0.015 C 
HETATM    9  C9  UNL     1     -33.991   7.688   3.262  1.00 20.00     0.015 C 
ENDROOT
TORSDOF 0
ENDMDL
MODEL 2
REMARK VINA RESULT:      -4.7      1.061      2.338
REMARK  0 active torsions:
REMARK  status: ('A' for Active; 'I' for Inactive)
ROOT
HETATM    1  C1  UNL     1     -34.783   3.968   4.350  1.00 20.00     0.014 C 
HETATM    2  C2  UNL     1     -33.814   6.296   4.587  1.00 20.00     0.014 C 
HETATM    3  C3  UNL     1     -34.895   4.024   5.850  1.00 20.00    -0.004 A 
HETATM    4  C4  UNL     1     -34.040   6.078   6.059  1.00 20.00    -0.004 A 
HETATM    5  C5  UNL     1     -35.216   5.302   6.549  1.00 20.00    -0.001 A 
HETATM    6  C6  UNL     1     -33.814   4.712   6.615  1.00 20.00    -0.001 A 
HETATM    7  C7  UNL     1     -34.690   5.373   3.705  1.00 20.00    -0.046 C 
HETATM    8  C8  UNL     1     -36.100   5.977   3.534  1.00 20.00     0.015 C 
HETATM    9  C9  UNL     1     -34.060   5.252   2.307  1.00 20.00     0.015 C 
ENDROOT
TORSDOF 0
ENDMDL
MODEL 3
REMARK VINA RESULT:      -4.4      8.806     10.324
REMARK  0 active torsions:
REMARK  status: ('A' for Active; 'I' for Inactive)
ROOT
HETATM    1  C1  UNL     1     -40.777   4.527  -1.053  1.00 20.00     0.014 C 
HETATM    2  C2  UNL     1     -42.510   5.358  -2.701  1.00 20.00     0.014 C 
HETATM    3  C3  UNL     1     -40.904   5.903  -0.455  1.00 20.00    -0.004 A 
HETATM    4  C4  UNL     1     -42.434   6.636  -1.910  1.00 20.00    -0.004 A 
HETATM    5  C5  UNL     1     -42.215   6.614  -0.433  1.00 20.00    -0.001 A 
HETATM    6  C6  UNL     1     -41.106   7.059  -1.376  1.00 20.00    -0.001 A 
HETATM    7  C7  UNL     1     -42.008   4.130  -1.904  1.00 20.00    -0.046 C 
HETATM    8  C8  UNL     1     -43.132   3.585  -0.997  1.00 20.00     0.015 C 
HETATM    9  C9  UNL     1     -41.612   3.011  -2.883  1.00 20.00     0.015 C 
ENDROOT
TORSDOF 0
ENDMDL
MODEL 4
REMARK VINA RESULT:      -4.4     12.016     13.686
REMARK  0 active torsions:
REMARK  status: ('A' for Active; 'I' for Inactive)
ROOT
HETATM    1  C1  UNL     1     -34.617  13.638  -5.187  1.00 20.00     0.014 C 
HETATM    2  C2  UNL     1     -33.758  15.990  -5.560  1.00 20.00     0.014 C 
HETATM    3  C3  UNL     1     -34.110  13.835  -3.783  1.00 20.00    -0.004 A 
HETATM    4  C4  UNL     1     -33.352  15.911  -4.113  1.00 20.00    -0.004 A 
HETATM    5  C5  UNL     1     -34.184  15.169  -3.120  1.00 20.00    -0.001 A 
HETATM    6  C6  UNL     1     -32.848  14.608  -3.589  1.00 20.00    -0.001 A 
HETATM    7  C7  UNL     1     -34.868  14.975  -5.925  1.00 20.00    -0.046 C 
HETATM    8  C8  UNL     1     -36.254  15.541  -5.550  1.00 20.00     0.015 C 
HETATM    9  C9  UNL     1     -34.858  14.731  -7.444  1.00 20.00     0.015 C 
ENDROOT
TORSDOF 0
ENDMDL
MODEL 5
REMARK VINA RESULT:      -4.3     12.086     12.956
REMARK  0 active torsions:
REMARK  status: ('A' for Active; 'I' for Inactive)
ROOT
HETATM    1  C1  UNL     1     -33.581  15.009  -3.214  1.00 20.00     0.014 C 
HETATM    2  C2  UNL     1     -36.098  15.270  -3.108  1.00 20.00     0.014 C 
HETATM    3  C3  UNL     1     -33.872  14.125  -4.398  1.00 20.00    -0.004 A 
HETATM    4  C4  UNL     1     -36.093  14.356  -4.304  1.00 20.00    -0.004 A 
HETATM    5  C5  UNL     1     -35.004  14.428  -5.322  1.00 20.00    -0.001 A 
HETATM    6  C6  UNL     1     -35.085  13.257  -4.351  1.00 20.00    -0.001 A 
HETATM    7  C7  UNL     1     -34.741  15.984  -2.897  1.00 20.00    -0.046 C 
HETATM    8  C8  UNL     1     -34.649  17.235  -3.797  1.00 20.00     0.015 C 
HETATM    9  C9  UNL     1     -34.631  16.451  -1.435  1.00 20.00     0.015 C 
ENDROOT
TORSDOF 0
ENDMDL
MODEL 6
REMARK VINA RESULT:      -4.2      8.723     10.080
REMARK  0 active torsions:
REMARK  status: ('A' for Active; 'I' for Inactive)
ROOT
HETATM    1  C1  UNL     1     -42.739   5.669  -2.140  1.00 20.00     0.014 C 
HETATM    2  C2  UNL     1     -40.963   7.187  -1.165  1.00 20.00     0.014 C 
HETATM    3  C3  UNL     1     -42.253   4.686  -1.108  1.00 20.00    -0.004 A 
HETATM    4  C4  UNL     1     -40.686   6.027  -0.247  1.00 20.00    -0.004 A 
HETATM    5  C5  UNL     1     -41.791   5.147   0.234  1.00 20.00    -0.001 A 
HETATM    6  C6  UNL     1     -40.793   4.645  -0.801  1.00 20.00    -0.001 A 
HETATM    7  C7  UNL     1     -42.379   7.133  -1.787  1.00 20.00    -0.046 C 
HETATM    8  C8  UNL     1     -43.417   7.717  -0.807  1.00 20.00     0.015 C 
HETATM    9  C9  UNL     1     -42.409   7.988  -3.065  1.00 20.00     0.015 C 
ENDROOT
TORSDOF 0
ENDMDL
MODEL 7
REMARK VINA RESULT:      -4.2     11.906     13.156
REMARK  0 active torsions:
REMARK  status: ('A' for Active; 'I' for Inactive)
ROOT
HETATM    1  C1  UNL     1     -35.401  16.038  -4.389  1.00 20.00     0.014 C 
HETATM    2  C2  UNL     1     -33.125  15.217  -3.641  1.00 20.00     0.014 C 
HETATM    3  C3  UNL     1     -35.642  14.593  -4.736  1.00 20.00    -0.004 A 
HETATM    4  C4  UNL     1     -33.634  13.869  -4.075  1.00 20.00    -0.004 A 
HETATM    5  C5  UNL     1     -35.069  13.496  -3.902  1.00 20.00    -0.001 A 
HETATM    6  C6  UNL     1     -34.505  13.797  -5.285  1.00 20.00    -0.001 A 
HETATM    7  C7  UNL     1     -34.267  16.222  -3.351  1.00 20.00    -0.046 C 
HETATM    8  C8  UNL     1     -34.811  16.015  -1.922  1.00 20.00     0.015 C 
HETATM    9  C9  UNL     1     -33.721  17.657  -3.440  1.00 20.00     0.015 C 
ENDROOT
TORSDOF 0
ENDMDL
MODEL 8
REMARK VINA RESULT:      -4.2     12.317     13.172
REMARK  0 active torsions:
REMARK  status: ('A' for Active; 'I' for Inactive)
ROOT
HETATM    1  C1  UNL     1     -35.860  14.914  -3.573  1.00 20.00     0.014 C 
HETATM    2  C2  UNL     1     -33.329  14.995  -3.525  1.00 20.00     0.014 C 
HETATM    3  C3  UNL     1     -35.767  16.144  -2.710  1.00 20.00    -0.004 A 
HETATM    4  C4  UNL     1     -33.533  16.215  -2.669  1.00 20.00    -0.004 A 
HETATM    5  C5  UNL     1     -34.677  17.143  -2.912  1.00 20.00    -0.001 A 
HETATM    6  C6  UNL     1     -34.670  16.219  -1.702  1.00 20.00    -0.001 A 
HETATM    7  C7  UNL     1     -34.569  14.656  -4.389  1.00 20.00    -0.046 C 
HETATM    8  C8  UNL     1     -34.572  15.506  -5.677  1.00 20.00     0.015 C 
HETATM    9  C9  UNL     1     -34.514  13.176  -4.805  1.00 20.00     0.015 C 
ENDROOT
TORSDOF 0
ENDMDL
MODEL 9
REMARK VINA RESULT:      -4.2     12.057     13.684
REMARK  0 active torsions:
REMARK  status: ('A' for Active; 'I' for Inactive)
ROOT
HETATM    1  C1  UNL     1     -34.456  15.286  -6.066  1.00 20.00     0.014 C 
HETATM    2  C2  UNL     1     -33.834  15.607  -3.633  1.00 20.00     0.014 C 
HETATM    3  C3  UNL     1     -34.913  13.924  -5.615  1.00 20.00    -0.004 A 
HETATM    4  C4  UNL     1     -34.365  14.208  -3.467  1.00 20.00    -0.004 A 
HETATM    5  C5  UNL     1     -35.528  13.728  -4.270  1.00 20.00    -0.001 A 
HETATM    6  C6  UNL     1     -34.120  13.224  -4.562  1.00 20.00    -0.001 A 
HETATM    7  C7  UNL     1     -34.376  16.305  -4.904  1.00 20.00    -0.046 C 
HETATM    8  C8  UNL     1     -35.767  16.913  -4.629  1.00 20.00     0.015 C 
HETATM    9  C9  UNL     1     -33.433  17.455  -5.297  1.00 20.00     0.015 C 
ENDROOT
TORSDOF 0
ENDMDL
