MODEL 1
REMARK VINA RESULT:      -5.9      0.000      0.000
REMARK  0 active torsions:
REMARK  status: ('A' for Active; 'I' for Inactive)
ROOT
HETATM    1  C1  UNL     1     -35.242   4.368   6.040  1.00 20.00     0.004 C 
HETATM    2  C2  UNL     1     -35.282   3.964   4.735  1.00 20.00    -0.017 C 
HETATM    3  C3  UNL     1     -33.753   5.283   2.781  1.00 20.00    -0.021 C 
HETATM    4  C4  UNL     1     -33.024   6.398   3.109  1.00 20.00    -0.024 C 
HETATM    5  C5  UNL     1     -33.948   6.610   6.794  1.00 20.00    -0.019 C 
HETATM    6  C6  UNL     1     -34.472   5.574   6.136  1.00 20.00    -0.056 C 
HETATM    7  C7  UNL     1     -33.001   7.395   5.826  1.00 20.00     0.036 C 
HETATM    8  C8  UNL     1     -34.829   5.069   3.813  1.00 20.00     0.039 C 
HETATM    9  C9  UNL     1     -33.522   6.987   4.423  1.00 20.00     0.020 C 
HETATM   10  C10 UNL     1     -33.879   5.600   4.826  1.00 20.00     0.037 C 
ENDROOT
TORSDOF 0
ENDMDL
MODEL 2
REMARK VINA RESULT:      -5.9      0.257      3.212
REMARK  0 active torsions:
REMARK  status: ('A' for Active; 'I' for Inactive)
ROOT
HETATM    1  C1  UNL     1     -32.941   7.379   5.755  1.00 20.00     0.004 C 
HETATM    2  C2  UNL     1     -33.609   6.726   6.752  1.00 20.00    -0.017 C 
HETATM    3  C3  UNL     1     -35.064   4.385   6.205  1.00 20.00    -0.021 C 
HETATM    4  C4  UNL     1     -35.187   3.933   4.915  1.00 20.00    -0.024 C 
HETATM    5  C5  UNL     1     -33.198   6.665   3.168  1.00 20.00    -0.019 C 
HETATM    6  C6  UNL     1     -33.258   6.768   4.497  1.00 20.00    -0.056 C 
HETATM    7  C7  UNL     1     -33.916   5.344   2.733  1.00 20.00     0.036 C 
HETATM    8  C8  UNL     1     -34.697   5.846   6.187  1.00 20.00     0.039 C 
HETATM    9  C9  UNL     1     -34.855   5.046   3.930  1.00 20.00     0.020 C 
HETATM   10  C10 UNL     1     -33.912   5.571   4.954  1.00 20.00     0.037 C 
ENDROOT
TORSDOF 0
ENDMDL
MODEL 3
REMARK VINA RESULT:      -5.5      0.370      2.627
REMARK  0 active torsions:
REMARK  status: ('A' for Active; 'I' for Inactive)
ROOT
HETATM    1  C1  UNL     1     -35.380   4.085   4.646  1.00 20.00     0.004 C 
HETATM    2  C2  UNL     1     -35.305   4.399   5.974  1.00 20.00    -0.017 C 
HETATM    3  C3  UNL     1     -33.879   6.664   6.831  1.00 20.00    -0.021 C 
HETATM    4  C4  UNL     1     -33.173   7.419   5.929  1.00 20.00    -0.024 C 
HETATM    5  C5  UNL     1     -33.946   5.414   2.789  1.00 20.00    -0.019 C 
HETATM    6  C6  UNL     1     -34.527   4.968   3.904  1.00 20.00    -0.056 C 
HETATM    7  C7  UNL     1     -33.171   6.734   3.118  1.00 20.00     0.036 C 
HETATM    8  C8  UNL     1     -34.123   5.295   6.251  1.00 20.00     0.039 C 
HETATM    9  C9  UNL     1     -32.939   6.630   4.647  1.00 20.00     0.020 C 
HETATM   10  C10 UNL     1     -34.231   5.945   4.918  1.00 20.00     0.037 C 
ENDROOT
TORSDOF 0
ENDMDL
MODEL 4
REMARK VINA RESULT:      -5.3      0.887      2.698
REMARK  0 active torsions:
REMARK  status: ('A' for Active; 'I' for Inactive)
ROOT
HETATM    1  C1  UNL     1     -32.066   7.526   4.062  1.00 20.00     0.004 C 
HETATM    2  C2  UNL     1     -32.465   6.915   2.907  1.00 20.00    -0.017 C 
HETATM    3  C3  UNL     1     -34.715   5.231   2.882  1.00 20.00    -0.021 C 
HETATM    4  C4  UNL     1     -35.374   4.941   4.049  1.00 20.00    -0.024 C 
HETATM    5  C5  UNL     1     -33.199   6.949   6.439  1.00 20.00    -0.019 C 
HETATM    6  C6  UNL     1     -32.856   7.034   5.153  1.00 20.00    -0.056 C 
HETATM    7  C7  UNL     1     -34.501   6.088   6.558  1.00 20.00     0.036 C 
HETATM    8  C8  UNL     1     -33.322   5.709   3.202  1.00 20.00     0.039 C 
HETATM    9  C9  UNL     1     -34.490   5.257   5.249  1.00 20.00     0.020 C 
HETATM   10  C10 UNL     1     -33.885   6.338   4.426  1.00 20.00     0.037 C 
ENDROOT
TORSDOF 0
ENDMDL
MODEL 5
REMARK VINA RESULT:      -5.2      0.445      2.604
REMARK  0 active torsions:
REMARK  status: ('A' for Active; 'I' for Inactive)
ROOT
HETATM    1  C1  UNL     1     -33.666   6.850   6.708  1.00 20.00     0.004 C 
HETATM    2  C2  UNL     1     -32.984   7.456   5.691  1.00 20.00    -0.017 C 
HETATM    3  C3  UNL     1     -33.295   6.584   3.038  1.00 20.00    -0.021 C 
HETATM    4  C4  UNL     1     -34.066   5.483   2.758  1.00 20.00    -0.024 C 
HETATM    5  C5  UNL     1     -35.115   4.611   6.309  1.00 20.00    -0.019 C 
HETATM    6  C6  UNL     1     -34.354   5.701   6.194  1.00 20.00    -0.056 C 
HETATM    7  C7  UNL     1     -35.429   4.062   4.877  1.00 20.00     0.036 C 
HETATM    8  C8  UNL     1     -32.889   6.550   4.488  1.00 20.00     0.039 C 
HETATM    9  C9  UNL     1     -34.283   4.655   4.017  1.00 20.00     0.020 C 
HETATM   10  C10 UNL     1     -34.208   5.929   4.781  1.00 20.00     0.037 C 
ENDROOT
TORSDOF 0
ENDMDL
MODEL 6
REMARK VINA RESULT:      -5.2      0.327      3.049
REMARK  0 active torsions:
REMARK  status: ('A' for Active; 'I' for Inactive)
ROOT
HETATM    1  C1  UNL     1     -34.057   5.211   2.823  1.00 20.00     0.004 C 
HETATM    2  C2  UNL     1     -33.329   6.354   3.003  1.00 20.00    -0.017 C 
HETATM    3  C3  UNL     1     -32.873   7.367   5.584  1.00 20.00    -0.021 C 
HETATM    4  C4  UNL     1     -33.455   6.771   6.674  1.00 20.00    -0.024 C 
HETATM    5  C5  UNL     1     -35.350   4.013   4.863  1.00 20.00    -0.019 C 
HETATM    6  C6  UNL     1     -34.609   4.801   4.081  1.00 20.00    -0.056 C 
HETATM    7  C7  UNL     1     -35.124   4.429   6.355  1.00 20.00     0.036 C 
HETATM    8  C8  UNL     1     -33.632   6.981   4.342  1.00 20.00     0.039 C 
HETATM    9  C9  UNL     1     -34.619   5.890   6.237  1.00 20.00     0.020 C 
HETATM   10  C10 UNL     1     -33.872   5.657   4.972  1.00 20.00     0.037 C 
ENDROOT
TORSDOF 0
ENDMDL
MODEL 7
REMARK VINA RESULT:      -4.9     12.179     13.939
REMARK  0 active torsions:
REMARK  status: ('A' for Active; 'I' for Inactive)
ROOT
HETATM    1  C1  UNL     1     -34.741  13.238  -4.922  1.00 20.00     0.004 C 
HETATM    2  C2  UNL     1     -34.366  13.602  -3.660  1.00 20.00    -0.017 C 
HETATM    3  C3  UNL     1     -33.677  16.265  -3.084  1.00 20.00    -0.021 C 
HETATM    4  C4  UNL     1     -33.625  17.199  -4.089  1.00 20.00    -0.024 C 
HETATM    5  C5  UNL     1     -34.569  14.943  -7.003  1.00 20.00    -0.019 C 
HETATM    6  C6  UNL     1     -34.556  14.350  -5.808  1.00 20.00    -0.056 C 
HETATM    7  C7  UNL     1     -34.271  16.468  -6.813  1.00 20.00     0.036 C 
HETATM    8  C8  UNL     1     -33.573  14.886  -3.681  1.00 20.00     0.039 C 
HETATM    9  C9  UNL     1     -33.540  16.512  -5.446  1.00 20.00     0.020 C 
HETATM   10  C10 UNL     1     -34.331  15.401  -4.852  1.00 20.00     0.037 C 
ENDROOT
TORSDOF 0
ENDMDL
MODEL 8
REMARK VINA RESULT:      -4.8      9.450     10.770
REMARK  0 active torsions:
REMARK  status: ('A' for Active; 'I' for Inactive)
ROOT
HETATM    1  C1  UNL     1     -43.048   4.132  -3.249  1.00 20.00     0.004 C 
HETATM    2  C2  UNL     1     -42.249   3.462  -2.365  1.00 20.00    -0.017 C 
HETATM    3  C3  UNL     1     -40.835   4.854  -0.375  1.00 20.00    -0.021 C 
HETATM    4  C4  UNL     1     -40.867   6.225  -0.334  1.00 20.00    -0.024 C 
HETATM    5  C5  UNL     1     -43.106   6.825  -3.351  1.00 20.00    -0.019 C 
HETATM    6  C6  UNL     1     -42.881   5.543  -3.058  1.00 20.00    -0.056 C 
HETATM    7  C7  UNL     1     -42.426   7.719  -2.260  1.00 20.00     0.036 C 
HETATM    8  C8  UNL     1     -41.227   4.387  -1.753  1.00 20.00     0.039 C 
HETATM    9  C9  UNL     1     -41.340   6.783  -1.671  1.00 20.00     0.020 C 
HETATM   10  C10 UNL     1     -42.155   5.547  -1.816  1.00 20.00     0.037 C 
ENDROOT
TORSDOF 0
ENDMDL
MODEL 9
REMARK VINA RESULT:      -4.8     12.181     14.038
REMARK  0 active torsions:
REMARK  status: ('A' for Active; 'I' for Inactive)
ROOT
HETATM    1  C1  UNL     1     -33.655  17.206  -4.140  1.00 20.00     0.004 C 
HETATM    2  C2  UNL     1     -33.770  16.320  -3.105  1.00 20.00    -0.017 C 
HETATM    3  C3  UNL     1     -34.311  13.607  -3.597  1.00 20.00    -0.021 C 
HETATM    4  C4  UNL     1     -34.552  13.170  -4.875  1.00 20.00    -0.024 C 
HETATM    5  C5  UNL     1     -34.222  16.503  -6.680  1.00 20.00    -0.019 C 
HETATM    6  C6  UNL     1     -34.003  16.546  -5.365  1.00 20.00    -0.056 C 
HETATM    7  C7  UNL     1     -34.465  15.015  -7.102  1.00 20.00     0.036 C 
HETATM    8  C8  UNL     1     -34.541  15.094  -3.527  1.00 20.00     0.039 C 
HETATM    9  C9  UNL     1     -34.910  14.345  -5.777  1.00 20.00     0.020 C 
HETATM   10  C10 UNL     1     -34.025  15.179  -4.919  1.00 20.00     0.037 C 
ENDROOT
TORSDOF 0
ENDMDL
