MODEL 1
REMARK VINA RESULT:      -5.7      0.000      0.000
REMARK  2 active torsions:
REMARK  status: ('A' for Active; 'I' for Inactive)
REMARK    1  A    between atoms: C2_2  and  C3_3 
REMARK    2  A    between atoms: C2_2  and  C4_4 
ROOT
HETATM    1  C2  UNL     1     -33.806   5.546   5.185  1.00 20.00     0.244 C 
HETATM    2 CL9  UNL     1     -33.831   6.774   6.503  1.00 20.00    -0.111 Cl
ENDROOT
BRANCH   1   3
HETATM    3  C3  UNL     1     -33.665   6.232   3.810  1.00 20.00     0.200 C 
HETATM    4  C1  UNL     1     -33.918   5.303   2.624  1.00 20.00     0.072 C 
HETATM    5  F5  UNL     1     -34.564   7.255   3.734  1.00 20.00    -0.224 F 
HETATM    6 CL10 UNL     1     -32.026   6.932   3.601  1.00 20.00    -0.081 Cl
ENDBRANCH   1   3
BRANCH   1   7
HETATM    7  C4  UNL     1     -35.063   4.696   5.344  1.00 20.00     0.408 C 
HETATM    8  F6  UNL     1     -36.018   5.045   4.455  1.00 20.00    -0.169 F 
HETATM    9  F7  UNL     1     -34.789   3.384   5.160  1.00 20.00    -0.169 F 
HETATM   10  F8  UNL     1     -35.593   4.809   6.581  1.00 20.00    -0.169 F 
ENDBRANCH   1   7
TORSDOF 2
ENDMDL
MODEL 2
REMARK VINA RESULT:      -5.7      0.011      1.191
REMARK  2 active torsions:
REMARK  status: ('A' for Active; 'I' for Inactive)
REMARK    1  A    between atoms: C2_2  and  C3_3 
REMARK    2  A    between atoms: C2_2  and  C4_4 
ROOT
HETATM    1  C2  UNL     1     -33.803   5.547   5.186  1.00 20.00     0.244 C 
HETATM    2 CL9  UNL     1     -33.845   6.776   6.503  1.00 20.00    -0.111 Cl
ENDROOT
BRANCH   1   3
HETATM    3  C3  UNL     1     -33.662   6.234   3.811  1.00 20.00     0.200 C 
HETATM    4  C1  UNL     1     -33.921   5.306   2.625  1.00 20.00     0.072 C 
HETATM    5  F5  UNL     1     -34.558   7.259   3.737  1.00 20.00    -0.224 F 
HETATM    6 CL10 UNL     1     -32.021   6.928   3.600  1.00 20.00    -0.081 Cl
ENDBRANCH   1   3
BRANCH   1   7
HETATM    7  C4  UNL     1     -35.054   4.687   5.341  1.00 20.00     0.408 C 
HETATM    8  F6  UNL     1     -34.787   3.377   5.145  1.00 20.00    -0.169 F 
HETATM    9  F7  UNL     1     -35.582   4.818   6.579  1.00 20.00    -0.169 F 
HETATM   10  F8  UNL     1     -36.021   5.043   4.469  1.00 20.00    -0.169 F 
ENDBRANCH   1   7
TORSDOF 2
ENDMDL
MODEL 3
REMARK VINA RESULT:      -5.2      1.229      1.713
REMARK  2 active torsions:
REMARK  status: ('A' for Active; 'I' for Inactive)
REMARK    1  A    between atoms: C2_2  and  C3_3 
REMARK    2  A    between atoms: C2_2  and  C4_4 
ROOT
HETATM    1  C2  UNL     1     -33.824   5.390   4.963  1.00 20.00     0.244 C 
HETATM    2 CL9  UNL     1     -33.864   6.656   6.246  1.00 20.00    -0.111 Cl
ENDROOT
BRANCH   1   3
HETATM    3  C3  UNL     1     -33.581   6.031   3.580  1.00 20.00     0.200 C 
HETATM    4  C1  UNL     1     -32.105   6.227   3.239  1.00 20.00     0.072 C 
HETATM    5  F5  UNL     1     -34.124   5.228   2.621  1.00 20.00    -0.224 F 
HETATM    6 CL10 UNL     1     -34.376   7.635   3.461  1.00 20.00    -0.081 Cl
ENDBRANCH   1   3
BRANCH   1   7
HETATM    7  C4  UNL     1     -35.124   4.601   5.077  1.00 20.00     0.408 C 
HETATM    8  F6  UNL     1     -34.972   3.324   4.662  1.00 20.00    -0.169 F 
HETATM    9  F7  UNL     1     -35.560   4.567   6.358  1.00 20.00    -0.169 F 
HETATM   10  F8  UNL     1     -36.116   5.155   4.347  1.00 20.00    -0.169 F 
ENDBRANCH   1   7
TORSDOF 2
ENDMDL
MODEL 4
REMARK VINA RESULT:      -5.0      2.387      3.486
REMARK  2 active torsions:
REMARK  status: ('A' for Active; 'I' for Inactive)
REMARK    1  A    between atoms: C2_2  and  C3_3 
REMARK    2  A    between atoms: C2_2  and  C4_4 
ROOT
HETATM    1  C2  UNL     1     -33.866   6.657   4.185  1.00 20.00     0.244 C 
HETATM    2 CL9  UNL     1     -33.586   6.566   5.963  1.00 20.00    -0.111 Cl
ENDROOT
BRANCH   1   3
HETATM    3  C3  UNL     1     -34.737   5.473   3.715  1.00 20.00     0.200 C 
HETATM    4  C1  UNL     1     -36.190   5.848   3.429  1.00 20.00     0.072 C 
HETATM    5  F5  UNL     1     -34.207   4.965   2.566  1.00 20.00    -0.224 F 
HETATM    6 CL10 UNL     1     -34.754   4.157   4.935  1.00 20.00    -0.081 Cl
ENDBRANCH   1   3
BRANCH   1   7
HETATM    7  C4  UNL     1     -32.494   6.738   3.523  1.00 20.00     0.408 C 
HETATM    8  F6  UNL     1     -32.569   7.262   2.280  1.00 20.00    -0.169 F 
HETATM    9  F7  UNL     1     -31.651   7.512   4.246  1.00 20.00    -0.169 F 
HETATM   10  F8  UNL     1     -31.911   5.524   3.421  1.00 20.00    -0.169 F 
ENDBRANCH   1   7
TORSDOF 2
ENDMDL
MODEL 5
REMARK VINA RESULT:      -4.6      1.621      2.896
REMARK  2 active torsions:
REMARK  status: ('A' for Active; 'I' for Inactive)
REMARK    1  A    between atoms: C2_2  and  C3_3 
REMARK    2  A    between atoms: C2_2  and  C4_4 
ROOT
HETATM    1  C2  UNL     1     -34.205   6.215   4.456  1.00 20.00     0.244 C 
HETATM    2 CL9  UNL     1     -32.531   6.163   3.790  1.00 20.00    -0.111 Cl
ENDROOT
BRANCH   1   3
HETATM    3  C3  UNL     1     -34.195   5.894   5.966  1.00 20.00     0.200 C 
HETATM    4  C1  UNL     1     -33.597   7.003   6.831  1.00 20.00     0.072 C 
HETATM    5  F5  UNL     1     -35.478   5.692   6.382  1.00 20.00    -0.224 F 
HETATM    6 CL10 UNL     1     -33.270   4.394   6.303  1.00 20.00    -0.081 Cl
ENDBRANCH   1   3
BRANCH   1   7
HETATM    7  C4  UNL     1     -35.049   5.266   3.611  1.00 20.00     0.408 C 
HETATM    8  F6  UNL     1     -36.292   5.753   3.404  1.00 20.00    -0.169 F 
HETATM    9  F7  UNL     1     -34.482   5.060   2.400  1.00 20.00    -0.169 F 
HETATM   10  F8  UNL     1     -35.175   4.053   4.189  1.00 20.00    -0.169 F 
ENDBRANCH   1   7
TORSDOF 2
ENDMDL
MODEL 6
REMARK VINA RESULT:      -4.4     12.202     12.854
REMARK  2 active torsions:
REMARK  status: ('A' for Active; 'I' for Inactive)
REMARK    1  A    between atoms: C2_2  and  C3_3 
REMARK    2  A    between atoms: C2_2  and  C4_4 
ROOT
HETATM    1  C2  UNL     1     -34.900  14.508  -3.239  1.00 20.00     0.244 C 
HETATM    2 CL9  UNL     1     -36.603  14.628  -3.815  1.00 20.00    -0.111 Cl
ENDROOT
BRANCH   1   3
HETATM    3  C3  UNL     1     -34.356  15.905  -2.869  1.00 20.00     0.200 C 
HETATM    4  C1  UNL     1     -34.669  16.332  -1.436  1.00 20.00     0.072 C 
HETATM    5  F5  UNL     1     -32.999  15.901  -3.012  1.00 20.00    -0.224 F 
HETATM    6 CL10 UNL     1     -35.015  17.166  -3.961  1.00 20.00    -0.081 Cl
ENDBRANCH   1   3
BRANCH   1   7
HETATM    7  C4  UNL     1     -34.112  13.787  -4.328  1.00 20.00     0.408 C 
HETATM    8  F6  UNL     1     -32.935  13.313  -3.863  1.00 20.00    -0.169 F 
HETATM    9  F7  UNL     1     -34.812  12.740  -4.821  1.00 20.00    -0.169 F 
HETATM   10  F8  UNL     1     -33.842  14.597  -5.374  1.00 20.00    -0.169 F 
ENDBRANCH   1   7
TORSDOF 2
ENDMDL
MODEL 7
REMARK VINA RESULT:      -4.4     12.055     13.494
REMARK  2 active torsions:
REMARK  status: ('A' for Active; 'I' for Inactive)
REMARK    1  A    between atoms: C2_2  and  C3_3 
REMARK    2  A    between atoms: C2_2  and  C4_4 
ROOT
HETATM    1  C2  UNL     1     -33.269  15.476  -4.098  1.00 20.00     0.244 C 
HETATM    2 CL9  UNL     1     -33.645  16.212  -2.496  1.00 20.00    -0.111 Cl
ENDROOT
BRANCH   1   3
HETATM    3  C3  UNL     1     -33.954  16.269  -5.231  1.00 20.00     0.200 C 
HETATM    4  C1  UNL     1     -33.579  17.749  -5.265  1.00 20.00     0.072 C 
HETATM    5  F5  UNL     1     -33.596  15.723  -6.428  1.00 20.00    -0.224 F 
HETATM    6 CL10 UNL     1     -35.741  16.171  -5.100  1.00 20.00    -0.081 Cl
ENDBRANCH   1   3
BRANCH   1   7
HETATM    7  C4  UNL     1     -33.672  14.007  -4.017  1.00 20.00     0.408 C 
HETATM    8  F6  UNL     1     -32.652  13.231  -3.588  1.00 20.00    -0.169 F 
HETATM    9  F7  UNL     1     -34.707  13.834  -3.162  1.00 20.00    -0.169 F 
HETATM   10  F8  UNL     1     -34.076  13.529  -5.213  1.00 20.00    -0.169 F 
ENDBRANCH   1   7
TORSDOF 2
ENDMDL
MODEL 8
REMARK VINA RESULT:      -4.3     12.335     13.163
REMARK  2 active torsions:
REMARK  status: ('A' for Active; 'I' for Inactive)
REMARK    1  A    between atoms: C2_2  and  C3_3 
REMARK    2  A    between atoms: C2_2  and  C4_4 
ROOT
HETATM    1  C2  UNL     1     -34.618  15.047  -4.711  1.00 20.00     0.244 C 
HETATM    2 CL9  UNL     1     -34.369  14.972  -6.495  1.00 20.00    -0.111 Cl
ENDROOT
BRANCH   1   3
HETATM    3  C3  UNL     1     -33.557  15.957  -4.056  1.00 20.00     0.200 C 
HETATM    4  C1  UNL     1     -33.899  16.377  -2.628  1.00 20.00     0.072 C 
HETATM    5  F5  UNL     1     -32.368  15.290  -4.018  1.00 20.00    -0.224 F 
HETATM    6 CL10 UNL     1     -33.311  17.456  -5.012  1.00 20.00    -0.081 Cl
ENDBRANCH   1   3
BRANCH   1   7
HETATM    7  C4  UNL     1     -34.622  13.609  -4.203  1.00 20.00     0.408 C 
HETATM    8  F6  UNL     1     -34.099  13.516  -2.961  1.00 20.00    -0.169 F 
HETATM    9  F7  UNL     1     -35.882  13.115  -4.156  1.00 20.00    -0.169 F 
HETATM   10  F8  UNL     1     -33.916  12.787  -5.008  1.00 20.00    -0.169 F 
ENDBRANCH   1   7
TORSDOF 2
ENDMDL
MODEL 9
REMARK VINA RESULT:      -4.3      9.116      9.934
REMARK  2 active torsions:
REMARK  status: ('A' for Active; 'I' for Inactive)
REMARK    1  A    between atoms: C2_2  and  C3_3 
REMARK    2  A    between atoms: C2_2  and  C4_4 
ROOT
HETATM    1  C2  UNL     1     -41.533   5.884  -1.859  1.00 20.00     0.244 C 
HETATM    2 CL9  UNL     1     -43.055   6.231  -2.759  1.00 20.00    -0.111 Cl
ENDROOT
BRANCH   1   3
HETATM    3  C3  UNL     1     -41.453   4.388  -1.489  1.00 20.00     0.200 C 
HETATM    4  C1  UNL     1     -41.825   3.446  -2.633  1.00 20.00     0.072 C 
HETATM    5  F5  UNL     1     -40.175   4.095  -1.111  1.00 20.00    -0.224 F 
HETATM    6 CL10 UNL     1     -42.531   4.005  -0.107  1.00 20.00    -0.081 Cl
ENDBRANCH   1   3
BRANCH   1   7
HETATM    7  C4  UNL     1     -41.493   6.836  -0.668  1.00 20.00     0.408 C 
HETATM    8  F6  UNL     1     -40.612   6.427   0.270  1.00 20.00    -0.169 F 
HETATM    9  F7  UNL     1     -41.133   8.082  -1.055  1.00 20.00    -0.169 F 
HETATM   10  F8  UNL     1     -42.701   6.950  -0.075  1.00 20.00    -0.169 F 
ENDBRANCH   1   7
TORSDOF 2
ENDMDL
