MODEL 1
REMARK VINA RESULT:      -5.3      0.000      0.000
REMARK  0 active torsions:
REMARK  status: ('A' for Active; 'I' for Inactive)
ROOT
HETATM    1  C1  UNL     1     -36.695  15.109  -3.468  1.00 20.00     0.132 C 
HETATM    2  C2  UNL     1     -37.181  16.520  -3.297  1.00 20.00     0.079 C 
HETATM    3  C3  UNL     1     -35.880  17.306  -3.289  1.00 20.00     0.017 C 
HETATM    4  C4  UNL     1     -33.429  16.600  -3.226  1.00 20.00     0.011 C 
HETATM    5  C5  UNL     1     -33.445  15.854  -4.554  1.00 20.00     0.010 C 
HETATM    6  C6  UNL     1     -35.225  14.947  -3.124  1.00 20.00     0.071 C 
HETATM    7  C7  UNL     1     -34.831  16.370  -2.654  1.00 20.00    -0.033 C 
HETATM    8  C8  UNL     1     -34.257  14.571  -4.279  1.00 20.00    -0.037 C 
HETATM    9  C9  UNL     1     -34.837  16.503  -1.128  1.00 20.00     0.016 C 
HETATM   10  C10 UNL     1     -34.938  14.091  -5.568  1.00 20.00     0.015 C 
HETATM   11  C11 UNL     1     -33.310  13.454  -3.794  1.00 20.00     0.015 C 
HETATM   12  O12 UNL     1     -37.426  14.183  -3.798  1.00 20.00    -0.298 OA
ENDROOT
TORSDOF 0
ENDMDL
MODEL 2
REMARK VINA RESULT:      -5.2      1.721      3.173
REMARK  0 active torsions:
REMARK  status: ('A' for Active; 'I' for Inactive)
ROOT
HETATM    1  C1  UNL     1     -34.931  13.805  -5.299  1.00 20.00     0.132 C 
HETATM    2  C2  UNL     1     -35.061  14.058  -6.774  1.00 20.00     0.079 C 
HETATM    3  C3  UNL     1     -34.863  15.562  -6.858  1.00 20.00     0.017 C 
HETATM    4  C4  UNL     1     -34.686  17.388  -5.085  1.00 20.00     0.011 C 
HETATM    5  C5  UNL     1     -33.423  16.848  -4.427  1.00 20.00     0.010 C 
HETATM    6  C6  UNL     1     -35.110  15.063  -4.468  1.00 20.00     0.071 C 
HETATM    7  C7  UNL     1     -35.433  16.132  -5.543  1.00 20.00    -0.033 C 
HETATM    8  C8  UNL     1     -33.878  15.580  -3.677  1.00 20.00    -0.037 C 
HETATM    9  C9  UNL     1     -36.936  16.396  -5.672  1.00 20.00     0.016 C 
HETATM   10  C10 UNL     1     -32.714  14.586  -3.564  1.00 20.00     0.015 C 
HETATM   11  C11 UNL     1     -34.324  15.956  -2.249  1.00 20.00     0.015 C 
HETATM   12  O12 UNL     1     -34.752  12.690  -4.823  1.00 20.00    -0.298 OA
ENDROOT
TORSDOF 0
ENDMDL
MODEL 3
REMARK VINA RESULT:      -5.0      1.972      3.475
REMARK  0 active torsions:
REMARK  status: ('A' for Active; 'I' for Inactive)
ROOT
HETATM    1  C1  UNL     1     -35.322  16.958  -4.931  1.00 20.00     0.132 C 
HETATM    2  C2  UNL     1     -36.592  16.689  -5.686  1.00 20.00     0.079 C 
HETATM    3  C3  UNL     1     -36.564  15.176  -5.826  1.00 20.00     0.017 C 
HETATM    4  C4  UNL     1     -34.790  13.419  -5.302  1.00 20.00     0.011 C 
HETATM    5  C5  UNL     1     -34.737  13.690  -3.803  1.00 20.00     0.010 C 
HETATM    6  C6  UNL     1     -34.341  15.801  -4.996  1.00 20.00     0.071 C 
HETATM    7  C7  UNL     1     -35.073  14.792  -5.917  1.00 20.00    -0.033 C 
HETATM    8  C8  UNL     1     -34.028  15.053  -3.671  1.00 20.00    -0.037 C 
HETATM    9  C9  UNL     1     -34.581  14.863  -7.367  1.00 20.00     0.016 C 
HETATM   10  C10 UNL     1     -34.492  15.768  -2.395  1.00 20.00     0.015 C 
HETATM   11  C11 UNL     1     -32.504  14.836  -3.569  1.00 20.00     0.015 C 
HETATM   12  O12 UNL     1     -35.089  18.022  -4.369  1.00 20.00    -0.298 OA
ENDROOT
TORSDOF 0
ENDMDL
MODEL 4
REMARK VINA RESULT:      -4.9      1.212      3.461
REMARK  0 active torsions:
REMARK  status: ('A' for Active; 'I' for Inactive)
ROOT
HETATM    1  C1  UNL     1     -36.225  14.394  -4.198  1.00 20.00     0.132 C 
HETATM    2  C2  UNL     1     -35.244  13.260  -4.289  1.00 20.00     0.079 C 
HETATM    3  C3  UNL     1     -33.950  13.984  -4.621  1.00 20.00     0.017 C 
HETATM    4  C4  UNL     1     -33.428  16.405  -5.234  1.00 20.00     0.011 C 
HETATM    5  C5  UNL     1     -33.906  17.009  -3.919  1.00 20.00     0.010 C 
HETATM    6  C6  UNL     1     -35.726  15.660  -4.870  1.00 20.00     0.071 C 
HETATM    7  C7  UNL     1     -34.362  15.213  -5.457  1.00 20.00    -0.033 C 
HETATM    8  C8  UNL     1     -35.443  16.888  -3.963  1.00 20.00    -0.037 C 
HETATM    9  C9  UNL     1     -34.456  14.852  -6.943  1.00 20.00     0.016 C 
HETATM   10  C10 UNL     1     -36.006  16.788  -2.539  1.00 20.00     0.015 C 
HETATM   11  C11 UNL     1     -36.042  18.146  -4.625  1.00 20.00     0.015 C 
HETATM   12  O12 UNL     1     -37.331  14.284  -3.681  1.00 20.00    -0.298 OA
ENDROOT
TORSDOF 0
ENDMDL
MODEL 5
REMARK VINA RESULT:      -4.9      1.427      2.391
REMARK  0 active torsions:
REMARK  status: ('A' for Active; 'I' for Inactive)
ROOT
HETATM    1  C1  UNL     1     -35.877  14.708  -3.778  1.00 20.00     0.132 C 
HETATM    2  C2  UNL     1     -35.494  15.487  -2.551  1.00 20.00     0.079 C 
HETATM    3  C3  UNL     1     -34.428  16.426  -3.090  1.00 20.00     0.017 C 
HETATM    4  C4  UNL     1     -33.226  16.577  -5.336  1.00 20.00     0.011 C 
HETATM    5  C5  UNL     1     -34.473  16.860  -6.165  1.00 20.00     0.010 C 
HETATM    6  C6  UNL     1     -34.837  14.797  -4.880  1.00 20.00     0.071 C 
HETATM    7  C7  UNL     1     -33.722  15.651  -4.222  1.00 20.00    -0.033 C 
HETATM    8  C8  UNL     1     -35.244  15.524  -6.191  1.00 20.00    -0.037 C 
HETATM    9  C9  UNL     1     -32.582  14.793  -3.664  1.00 20.00     0.016 C 
HETATM   10  C10 UNL     1     -36.747  15.785  -6.350  1.00 20.00     0.015 C 
HETATM   11  C11 UNL     1     -34.775  14.681  -7.395  1.00 20.00     0.015 C 
HETATM   12  O12 UNL     1     -36.896  14.033  -3.852  1.00 20.00    -0.298 OA
ENDROOT
TORSDOF 0
ENDMDL
MODEL 6
REMARK VINA RESULT:      -4.8      1.871      3.382
REMARK  0 active torsions:
REMARK  status: ('A' for Active; 'I' for Inactive)
ROOT
HETATM    1  C1  UNL     1     -34.473  14.628  -5.972  1.00 20.00     0.132 C 
HETATM    2  C2  UNL     1     -34.817  13.395  -5.187  1.00 20.00     0.079 C 
HETATM    3  C3  UNL     1     -34.803  13.914  -3.759  1.00 20.00     0.017 C 
HETATM    4  C4  UNL     1     -34.087  16.136  -2.729  1.00 20.00     0.011 C 
HETATM    5  C5  UNL     1     -35.116  16.989  -3.460  1.00 20.00     0.010 C 
HETATM    6  C6  UNL     1     -33.833  15.710  -5.120  1.00 20.00     0.071 C 
HETATM    7  C7  UNL     1     -33.740  15.031  -3.730  1.00 20.00    -0.033 C 
HETATM    8  C8  UNL     1     -34.629  17.029  -4.924  1.00 20.00    -0.037 C 
HETATM    9  C9  UNL     1     -32.349  14.451  -3.456  1.00 20.00     0.016 C 
HETATM   10  C10 UNL     1     -35.820  17.218  -5.872  1.00 20.00     0.015 C 
HETATM   11  C11 UNL     1     -33.671  18.223  -5.116  1.00 20.00     0.015 C 
HETATM   12  O12 UNL     1     -34.644  14.722  -7.182  1.00 20.00    -0.298 OA
ENDROOT
TORSDOF 0
ENDMDL
MODEL 7
REMARK VINA RESULT:      -4.8      2.034      3.108
REMARK  0 active torsions:
REMARK  status: ('A' for Active; 'I' for Inactive)
ROOT
HETATM    1  C1  UNL     1     -33.248  15.449  -3.626  1.00 20.00     0.132 C 
HETATM    2  C2  UNL     1     -33.752  16.219  -2.438  1.00 20.00     0.079 C 
HETATM    3  C3  UNL     1     -35.076  16.761  -2.950  1.00 20.00     0.017 C 
HETATM    4  C4  UNL     1     -36.171  16.771  -5.254  1.00 20.00     0.011 C 
HETATM    5  C5  UNL     1     -36.273  15.257  -5.388  1.00 20.00     0.010 C 
HETATM    6  C6  UNL     1     -33.934  15.847  -4.920  1.00 20.00     0.071 C 
HETATM    7  C7  UNL     1     -34.879  16.988  -4.462  1.00 20.00    -0.033 C 
HETATM    8  C8  UNL     1     -34.824  14.780  -5.615  1.00 20.00    -0.037 C 
HETATM    9  C9  UNL     1     -34.289  18.376  -4.731  1.00 20.00     0.016 C 
HETATM   10  C10 UNL     1     -34.651  13.348  -5.092  1.00 20.00     0.015 C 
HETATM   11  C11 UNL     1     -34.511  14.777  -7.126  1.00 20.00     0.015 C 
HETATM   12  O12 UNL     1     -32.341  14.628  -3.556  1.00 20.00    -0.298 OA
ENDROOT
TORSDOF 0
ENDMDL
MODEL 8
REMARK VINA RESULT:      -4.8      1.938      3.860
REMARK  0 active torsions:
REMARK  status: ('A' for Active; 'I' for Inactive)
ROOT
HETATM    1  C1  UNL     1     -33.756  16.335  -5.324  1.00 20.00     0.132 C 
HETATM    2  C2  UNL     1     -34.275  15.757  -6.610  1.00 20.00     0.079 C 
HETATM    3  C3  UNL     1     -35.501  14.991  -6.142  1.00 20.00     0.017 C 
HETATM    4  C4  UNL     1     -36.413  14.426  -3.827  1.00 20.00     0.011 C 
HETATM    5  C5  UNL     1     -36.645  15.868  -3.392  1.00 20.00     0.010 C 
HETATM    6  C6  UNL     1     -34.303  15.627  -4.097  1.00 20.00     0.071 C 
HETATM    7  C7  UNL     1     -35.170  14.502  -4.718  1.00 20.00    -0.033 C 
HETATM    8  C8  UNL     1     -35.232  16.442  -3.157  1.00 20.00    -0.037 C 
HETATM    9  C9  UNL     1     -34.435  13.158  -4.762  1.00 20.00     0.016 C 
HETATM   10  C10 UNL     1     -35.233  17.958  -3.395  1.00 20.00     0.015 C 
HETATM   11  C11 UNL     1     -34.808  16.190  -1.695  1.00 20.00     0.015 C 
HETATM   12  O12 UNL     1     -32.937  17.245  -5.280  1.00 20.00    -0.298 OA
ENDROOT
TORSDOF 0
ENDMDL
MODEL 9
REMARK VINA RESULT:      -4.7      1.894      3.018
REMARK  0 active torsions:
REMARK  status: ('A' for Active; 'I' for Inactive)
ROOT
HETATM    1  C1  UNL     1     -34.976  17.230  -5.178  1.00 20.00     0.132 C 
HETATM    2  C2  UNL     1     -33.477  17.325  -5.143  1.00 20.00     0.079 C 
HETATM    3  C3  UNL     1     -33.091  16.011  -4.485  1.00 20.00     0.017 C 
HETATM    4  C4  UNL     1     -34.452  14.167  -3.365  1.00 20.00     0.011 C 
HETATM    5  C5  UNL     1     -35.248  13.781  -4.606  1.00 20.00     0.010 C 
HETATM    6  C6  UNL     1     -35.523  16.191  -4.215  1.00 20.00     0.071 C 
HETATM    7  C7  UNL     1     -34.240  15.676  -3.513  1.00 20.00    -0.033 C 
HETATM    8  C8  UNL     1     -36.229  14.950  -4.827  1.00 20.00    -0.037 C 
HETATM    9  C9  UNL     1     -34.013  16.341  -2.152  1.00 20.00     0.016 C 
HETATM   10  C10 UNL     1     -36.581  15.070  -6.316  1.00 20.00     0.015 C 
HETATM   11  C11 UNL     1     -37.534  14.684  -4.048  1.00 20.00     0.015 C 
HETATM   12  O12 UNL     1     -35.678  17.955  -5.873  1.00 20.00    -0.298 OA
ENDROOT
TORSDOF 0
ENDMDL
