MODEL 1
REMARK VINA RESULT:      -4.1      0.000      0.000
REMARK  1 active torsions:
REMARK  status: ('A' for Active; 'I' for Inactive)
REMARK    1  A    between atoms: C2_2  and  C4_4 
ROOT
HETATM    1  C1  UNL     1     -35.226   4.631   4.699  1.00 20.00    -0.034 C 
HETATM    2  C2  UNL     1     -34.749   5.417   3.723  1.00 20.00    -0.016 C 
HETATM    3  C3  UNL     1     -34.813   4.738   6.129  1.00 20.00     0.036 C 
ENDROOT
BRANCH   2   4
HETATM    4  C4  UNL     1     -33.742   6.496   3.948  1.00 20.00     0.141 C 
HETATM    5 CL5  UNL     1     -32.226   6.095   3.112  1.00 20.00    -0.126 Cl
ENDBRANCH   2   4
TORSDOF 1
ENDMDL
MODEL 2
REMARK VINA RESULT:      -4.1      1.095      1.664
REMARK  1 active torsions:
REMARK  status: ('A' for Active; 'I' for Inactive)
REMARK    1  A    between atoms: C2_2  and  C4_4 
ROOT
HETATM    1  C1  UNL     1     -34.579   4.989   6.147  1.00 20.00    -0.034 C 
HETATM    2  C2  UNL     1     -35.069   4.568   4.971  1.00 20.00    -0.016 C 
HETATM    3  C3  UNL     1     -34.124   6.387   6.405  1.00 20.00     0.036 C 
ENDROOT
BRANCH   2   4
HETATM    4  C4  UNL     1     -35.217   5.448   3.774  1.00 20.00     0.141 C 
HETATM    5 CL5  UNL     1     -33.646   5.644   2.968  1.00 20.00    -0.126 Cl
ENDBRANCH   2   4
TORSDOF 1
ENDMDL
MODEL 3
REMARK VINA RESULT:      -3.9      1.858      2.769
REMARK  1 active torsions:
REMARK  status: ('A' for Active; 'I' for Inactive)
REMARK    1  A    between atoms: C2_2  and  C4_4 
ROOT
HETATM    1  C1  UNL     1     -34.727   5.475   3.420  1.00 20.00    -0.034 C 
HETATM    2  C2  UNL     1     -35.246   4.940   4.536  1.00 20.00    -0.016 C 
HETATM    3  C3  UNL     1     -33.321   5.964   3.309  1.00 20.00     0.036 C 
ENDROOT
BRANCH   2   4
HETATM    4  C4  UNL     1     -34.479   4.770   5.806  1.00 20.00     0.141 C 
HETATM    5 CL5  UNL     1     -34.212   6.352   6.568  1.00 20.00    -0.126 Cl
ENDBRANCH   2   4
TORSDOF 1
ENDMDL
MODEL 4
REMARK VINA RESULT:      -3.7      2.273      3.102
REMARK  1 active torsions:
REMARK  status: ('A' for Active; 'I' for Inactive)
REMARK    1  A    between atoms: C2_2  and  C4_4 
ROOT
HETATM    1  C1  UNL     1     -33.562   5.954   2.959  1.00 20.00    -0.034 C 
HETATM    2  C2  UNL     1     -34.512   5.569   3.824  1.00 20.00    -0.016 C 
HETATM    3  C3  UNL     1     -32.240   6.510   3.370  1.00 20.00     0.036 C 
ENDROOT
BRANCH   2   4
HETATM    4  C4  UNL     1     -34.363   5.652   5.308  1.00 20.00     0.141 C 
HETATM    5 CL5  UNL     1     -35.014   4.183   6.065  1.00 20.00    -0.126 Cl
ENDBRANCH   2   4
TORSDOF 1
ENDMDL
MODEL 5
REMARK VINA RESULT:      -3.6      1.802      1.802
REMARK  1 active torsions:
REMARK  status: ('A' for Active; 'I' for Inactive)
REMARK    1  A    between atoms: C2_2  and  C4_4 
ROOT
HETATM    1  C1  UNL     1     -35.303   4.796   4.460  1.00 20.00    -0.034 C 
HETATM    2  C2  UNL     1     -34.619   5.883   4.075  1.00 20.00    -0.016 C 
HETATM    3  C3  UNL     1     -34.928   3.949   5.631  1.00 20.00     0.036 C 
ENDROOT
BRANCH   2   4
HETATM    4  C4  UNL     1     -33.395   6.381   4.771  1.00 20.00     0.141 C 
HETATM    5 CL5  UNL     1     -33.801   6.878   6.428  1.00 20.00    -0.126 Cl
ENDBRANCH   2   4
TORSDOF 1
ENDMDL
MODEL 6
REMARK VINA RESULT:      -3.4      2.238      2.663
REMARK  1 active torsions:
REMARK  status: ('A' for Active; 'I' for Inactive)
REMARK    1  A    between atoms: C2_2  and  C4_4 
ROOT
HETATM    1  C1  UNL     1     -33.532   6.595   4.948  1.00 20.00    -0.034 C 
HETATM    2  C2  UNL     1     -34.186   5.867   4.030  1.00 20.00    -0.016 C 
HETATM    3  C3  UNL     1     -33.928   6.671   6.385  1.00 20.00     0.036 C 
ENDROOT
BRANCH   2   4
HETATM    4  C4  UNL     1     -35.394   5.045   4.334  1.00 20.00     0.141 C 
HETATM    5 CL5  UNL     1     -34.958   3.704   5.414  1.00 20.00    -0.126 Cl
ENDBRANCH   2   4
TORSDOF 1
ENDMDL
MODEL 7
REMARK VINA RESULT:      -3.2      2.471      3.755
REMARK  1 active torsions:
REMARK  status: ('A' for Active; 'I' for Inactive)
REMARK    1  A    between atoms: C2_2  and  C4_4 
ROOT
HETATM    1  C1  UNL     1     -31.928   7.264   3.350  1.00 20.00    -0.034 C 
HETATM    2  C2  UNL     1     -32.714   6.255   3.754  1.00 20.00    -0.016 C 
HETATM    3  C3  UNL     1     -32.159   8.049   2.102  1.00 20.00     0.036 C 
ENDROOT
BRANCH   2   4
HETATM    4  C4  UNL     1     -33.919   5.792   3.003  1.00 20.00     0.141 C 
HETATM    5 CL5  UNL     1     -35.152   5.205   4.139  1.00 20.00    -0.126 Cl
ENDBRANCH   2   4
TORSDOF 1
ENDMDL
MODEL 8
REMARK VINA RESULT:      -3.1      2.808      3.609
REMARK  1 active torsions:
REMARK  status: ('A' for Active; 'I' for Inactive)
REMARK    1  A    between atoms: C2_2  and  C4_4 
ROOT
HETATM    1  C1  UNL     1     -32.536   6.642   3.692  1.00 20.00    -0.034 C 
HETATM    2  C2  UNL     1     -31.844   7.649   3.139  1.00 20.00    -0.016 C 
HETATM    3  C3  UNL     1     -33.567   5.844   2.965  1.00 20.00     0.036 C 
ENDROOT
BRANCH   2   4
HETATM    4  C4  UNL     1     -32.022   8.097   1.726  1.00 20.00     0.141 C 
HETATM    5 CL5  UNL     1     -32.542   9.795   1.690  1.00 20.00    -0.126 Cl
ENDBRANCH   2   4
TORSDOF 1
ENDMDL
MODEL 9
REMARK VINA RESULT:      -2.8     11.896     12.362
REMARK  1 active torsions:
REMARK  status: ('A' for Active; 'I' for Inactive)
REMARK    1  A    between atoms: C2_2  and  C4_4 
ROOT
HETATM    1  C1  UNL     1     -33.503  13.766  -3.907  1.00 20.00    -0.034 C 
HETATM    2  C2  UNL     1     -33.055  14.975  -3.537  1.00 20.00    -0.016 C 
HETATM    3  C3  UNL     1     -34.943  13.450  -4.142  1.00 20.00     0.036 C 
ENDROOT
BRANCH   2   4
HETATM    4  C4  UNL     1     -33.944  16.154  -3.313  1.00 20.00     0.141 C 
HETATM    5 CL5  UNL     1     -34.534  16.158  -1.638  1.00 20.00    -0.126 Cl
ENDBRANCH   2   4
TORSDOF 1
ENDMDL
