MODEL 1
REMARK VINA RESULT:      -4.6      0.000      0.000
REMARK  1 active torsions:
REMARK  status: ('A' for Active; 'I' for Inactive)
REMARK    1  A    between atoms: C5_5  and  O10_10 
ROOT
HETATM    1  C1  UNL     1     -33.376  13.848  -3.743  1.00 20.00     0.001 C 
HETATM    2  C2  UNL     1     -32.994  15.086  -3.395  1.00 20.00    -0.018 C 
HETATM    3  C3  UNL     1     -35.578  14.739  -4.592  1.00 20.00     0.046 C 
HETATM    4  C4  UNL     1     -34.353  17.014  -4.396  1.00 20.00     0.024 A 
HETATM    5  C5  UNL     1     -34.815  13.532  -4.029  1.00 20.00     0.141 C 
HETATM    6  C6  UNL     1     -33.931  16.215  -3.189  1.00 20.00    -0.018 A 
HETATM    7  C7  UNL     1     -35.329  16.018  -3.803  1.00 20.00    -0.030 A 
HETATM    8  C8  UNL     1     -33.770  16.942  -1.878  1.00 20.00     0.020 C 
HETATM    9  C9  UNL     1     -36.549  16.552  -3.098  1.00 20.00     0.016 C 
ENDROOT
BRANCH   5  10
HETATM   10  O10 UNL     1     -34.862  12.478  -4.987  1.00 20.00    -0.392 OA
HETATM   11  H24 UNL     1     -34.860  12.899  -5.860  1.00 20.00     0.210 HD
ENDBRANCH   5  10
TORSDOF 1
ENDMDL
MODEL 2
REMARK VINA RESULT:      -4.5      1.159      2.095
REMARK  1 active torsions:
REMARK  status: ('A' for Active; 'I' for Inactive)
REMARK    1  A    between atoms: C5_5  and  O10_10 
ROOT
HETATM    1  C1  UNL     1     -34.615  14.290  -5.698  1.00 20.00     0.001 C 
HETATM    2  C2  UNL     1     -34.648  15.607  -5.952  1.00 20.00    -0.018 C 
HETATM    3  C3  UNL     1     -35.086  14.725  -3.258  1.00 20.00     0.046 C 
HETATM    4  C4  UNL     1     -35.692  17.086  -4.138  1.00 20.00     0.024 A 
HETATM    5  C5  UNL     1     -34.472  13.776  -4.296  1.00 20.00     0.141 C 
HETATM    6  C6  UNL     1     -34.476  16.655  -4.920  1.00 20.00    -0.018 A 
HETATM    7  C7  UNL     1     -34.679  16.177  -3.470  1.00 20.00    -0.030 A 
HETATM    8  C8  UNL     1     -33.434  17.696  -5.240  1.00 20.00     0.020 C 
HETATM    9  C9  UNL     1     -33.837  16.748  -2.358  1.00 20.00     0.016 C 
ENDROOT
BRANCH   5  10
HETATM   10  O10 UNL     1     -35.136  12.518  -4.209  1.00 20.00    -0.392 OA
HETATM   11  H24 UNL     1     -35.839  12.530  -4.877  1.00 20.00     0.210 HD
ENDBRANCH   5  10
TORSDOF 1
ENDMDL
MODEL 3
REMARK VINA RESULT:      -4.5      1.846      2.990
REMARK  1 active torsions:
REMARK  status: ('A' for Active; 'I' for Inactive)
REMARK    1  A    between atoms: C5_5  and  O10_10 
ROOT
HETATM    1  C1  UNL     1     -35.904  15.930  -2.563  1.00 20.00     0.001 C 
HETATM    2  C2  UNL     1     -34.581  15.840  -2.766  1.00 20.00    -0.018 C 
HETATM    3  C3  UNL     1     -36.315  14.124  -4.276  1.00 20.00     0.046 C 
HETATM    4  C4  UNL     1     -33.764  13.750  -4.006  1.00 20.00     0.024 A 
HETATM    5  C5  UNL     1     -36.879  15.349  -3.544  1.00 20.00     0.141 C 
HETATM    6  C6  UNL     1     -33.967  15.245  -3.976  1.00 20.00    -0.018 A 
HETATM    7  C7  UNL     1     -34.905  14.349  -4.806  1.00 20.00    -0.030 A 
HETATM    8  C8  UNL     1     -32.941  16.113  -4.659  1.00 20.00     0.020 C 
HETATM    9  C9  UNL     1     -34.804  14.332  -6.310  1.00 20.00     0.016 C 
ENDROOT
BRANCH   5  10
HETATM   10  O10 UNL     1     -38.049  14.953  -2.832  1.00 20.00    -0.392 OA
HETATM   11  H24 UNL     1     -37.966  14.000  -2.673  1.00 20.00     0.210 HD
ENDBRANCH   5  10
TORSDOF 1
ENDMDL
MODEL 4
REMARK VINA RESULT:      -4.5      1.425      1.561
REMARK  1 active torsions:
REMARK  status: ('A' for Active; 'I' for Inactive)
REMARK    1  A    between atoms: C5_5  and  O10_10 
ROOT
HETATM    1  C1  UNL     1     -33.673  14.282  -3.647  1.00 20.00     0.001 C 
HETATM    2  C2  UNL     1     -33.115  15.440  -4.031  1.00 20.00    -0.018 C 
HETATM    3  C3  UNL     1     -35.504  14.568  -5.359  1.00 20.00     0.046 C 
HETATM    4  C4  UNL     1     -33.903  16.387  -6.278  1.00 20.00     0.024 A 
HETATM    5  C5  UNL     1     -35.085  13.940  -4.023  1.00 20.00     0.141 C 
HETATM    6  C6  UNL     1     -33.834  16.499  -4.775  1.00 20.00    -0.018 A 
HETATM    7  C7  UNL     1     -35.133  16.041  -5.463  1.00 20.00    -0.030 A 
HETATM    8  C8  UNL     1     -33.736  17.877  -4.172  1.00 20.00     0.020 C 
HETATM    9  C9  UNL     1     -36.319  16.969  -5.538  1.00 20.00     0.016 C 
ENDROOT
BRANCH   5  10
HETATM   10  O10 UNL     1     -35.190  12.523  -4.134  1.00 20.00    -0.392 OA
HETATM   11  H24 UNL     1     -35.971  12.263  -3.621  1.00 20.00     0.210 HD
ENDBRANCH   5  10
TORSDOF 1
ENDMDL
MODEL 5
REMARK VINA RESULT:      -4.3      1.488      2.264
REMARK  1 active torsions:
REMARK  status: ('A' for Active; 'I' for Inactive)
REMARK    1  A    between atoms: C5_5  and  O10_10 
ROOT
HETATM    1  C1  UNL     1     -33.154  16.194  -4.689  1.00 20.00     0.001 C 
HETATM    2  C2  UNL     1     -33.590  17.432  -4.408  1.00 20.00    -0.018 C 
HETATM    3  C3  UNL     1     -34.559  15.248  -2.818  1.00 20.00     0.046 C 
HETATM    4  C4  UNL     1     -35.666  17.590  -2.913  1.00 20.00     0.024 A 
HETATM    5  C5  UNL     1     -33.318  15.073  -3.705  1.00 20.00     0.141 C 
HETATM    6  C6  UNL     1     -34.190  17.825  -3.112  1.00 20.00    -0.018 A 
HETATM    7  C7  UNL     1     -34.681  16.653  -2.242  1.00 20.00    -0.030 A 
HETATM    8  C8  UNL     1     -33.574  19.043  -2.471  1.00 20.00     0.020 C 
HETATM    9  C9  UNL     1     -34.551  16.715  -0.742  1.00 20.00     0.016 C 
ENDROOT
BRANCH   5  10
HETATM   10  O10 UNL     1     -33.447  13.854  -4.431  1.00 20.00    -0.392 OA
HETATM   11  H24 UNL     1     -32.616  13.732  -4.915  1.00 20.00     0.210 HD
ENDBRANCH   5  10
TORSDOF 1
ENDMDL
MODEL 6
REMARK VINA RESULT:      -4.3      1.528      2.331
REMARK  1 active torsions:
REMARK  status: ('A' for Active; 'I' for Inactive)
REMARK    1  A    between atoms: C5_5  and  O10_10 
ROOT
HETATM    1  C1  UNL     1     -35.518  13.836  -4.959  1.00 20.00     0.001 C 
HETATM    2  C2  UNL     1     -34.956  14.028  -3.756  1.00 20.00    -0.018 C 
HETATM    3  C3  UNL     1     -33.999  15.577  -5.973  1.00 20.00     0.046 C 
HETATM    4  C4  UNL     1     -32.724  15.288  -3.736  1.00 20.00     0.024 A 
HETATM    5  C5  UNL     1     -35.339  14.833  -6.065  1.00 20.00     0.141 C 
HETATM    6  C6  UNL     1     -34.190  15.240  -3.383  1.00 20.00    -0.018 A 
HETATM    7  C7  UNL     1     -33.702  16.090  -4.571  1.00 20.00    -0.030 A 
HETATM    8  C8  UNL     1     -34.632  15.902  -2.103  1.00 20.00     0.020 C 
HETATM    9  C9  UNL     1     -33.663  17.593  -4.462  1.00 20.00     0.016 C 
ENDROOT
BRANCH   5  10
HETATM   10  O10 UNL     1     -35.388  14.138  -7.309  1.00 20.00    -0.392 OA
HETATM   11  H24 UNL     1     -34.572  13.617  -7.366  1.00 20.00     0.210 HD
ENDBRANCH   5  10
TORSDOF 1
ENDMDL
MODEL 7
REMARK VINA RESULT:      -4.3      1.047      2.428
REMARK  1 active torsions:
REMARK  status: ('A' for Active; 'I' for Inactive)
REMARK    1  A    between atoms: C5_5  and  O10_10 
ROOT
HETATM    1  C1  UNL     1     -35.435  13.845  -4.120  1.00 20.00     0.001 C 
HETATM    2  C2  UNL     1     -36.195  14.747  -3.481  1.00 20.00    -0.018 C 
HETATM    3  C3  UNL     1     -33.349  15.113  -3.482  1.00 20.00     0.046 C 
HETATM    4  C4  UNL     1     -34.974  16.308  -1.855  1.00 20.00     0.024 A 
HETATM    5  C5  UNL     1     -34.009  14.146  -4.475  1.00 20.00     0.141 C 
HETATM    6  C6  UNL     1     -35.744  16.116  -3.138  1.00 20.00    -0.018 A 
HETATM    7  C7  UNL     1     -34.218  16.323  -3.169  1.00 20.00    -0.030 A 
HETATM    8  C8  UNL     1     -36.672  17.219  -3.579  1.00 20.00     0.020 C 
HETATM    9  C9  UNL     1     -33.640  17.633  -3.641  1.00 20.00     0.016 C 
ENDROOT
BRANCH   5  10
HETATM   10  O10 UNL     1     -33.277  12.922  -4.471  1.00 20.00    -0.392 OA
HETATM   11  H24 UNL     1     -33.786  12.295  -5.008  1.00 20.00     0.210 HD
ENDBRANCH   5  10
TORSDOF 1
ENDMDL
MODEL 8
REMARK VINA RESULT:      -4.3      2.323      3.566
REMARK  1 active torsions:
REMARK  status: ('A' for Active; 'I' for Inactive)
REMARK    1  A    between atoms: C5_5  and  O10_10 
ROOT
HETATM    1  C1  UNL     1     -34.162  16.284  -6.368  1.00 20.00     0.001 C 
HETATM    2  C2  UNL     1     -34.276  15.013  -5.951  1.00 20.00    -0.018 C 
HETATM    3  C3  UNL     1     -33.439  17.002  -4.059  1.00 20.00     0.046 C 
HETATM    4  C4  UNL     1     -33.155  14.448  -3.717  1.00 20.00     0.024 A 
HETATM    5  C5  UNL     1     -34.088  17.417  -5.387  1.00 20.00     0.141 C 
HETATM    6  C6  UNL     1     -34.413  14.617  -4.531  1.00 20.00    -0.018 A 
HETATM    7  C7  UNL     1     -33.995  15.694  -3.513  1.00 20.00    -0.030 A 
HETATM    8  C8  UNL     1     -35.574  13.701  -4.237  1.00 20.00     0.020 C 
HETATM    9  C9  UNL     1     -34.743  15.840  -2.212  1.00 20.00     0.016 C 
ENDROOT
BRANCH   5  10
HETATM   10  O10 UNL     1     -33.311  18.461  -5.965  1.00 20.00    -0.392 OA
HETATM   11  H24 UNL     1     -33.151  18.208  -6.888  1.00 20.00     0.210 HD
ENDBRANCH   5  10
TORSDOF 1
ENDMDL
MODEL 9
REMARK VINA RESULT:      -4.2      2.130      3.137
REMARK  1 active torsions:
REMARK  status: ('A' for Active; 'I' for Inactive)
REMARK    1  A    between atoms: C5_5  and  O10_10 
ROOT
HETATM    1  C1  UNL     1     -33.602  16.059  -3.126  1.00 20.00     0.001 C 
HETATM    2  C2  UNL     1     -33.305  15.499  -4.309  1.00 20.00    -0.018 C 
HETATM    3  C3  UNL     1     -35.936  15.105  -3.235  1.00 20.00     0.046 C 
HETATM    4  C4  UNL     1     -34.905  13.675  -5.135  1.00 20.00     0.024 A 
HETATM    5  C5  UNL     1     -35.026  16.208  -2.676  1.00 20.00     0.141 C 
HETATM    6  C6  UNL     1     -34.318  15.055  -5.294  1.00 20.00    -0.018 A 
HETATM    7  C7  UNL     1     -35.738  14.874  -4.727  1.00 20.00    -0.030 A 
HETATM    8  C8  UNL     1     -34.117  15.583  -6.692  1.00 20.00     0.020 C 
HETATM    9  C9  UNL     1     -36.940  15.222  -5.567  1.00 20.00     0.016 C 
ENDROOT
BRANCH   5  10
HETATM   10  O10 UNL     1     -35.056  16.144  -1.253  1.00 20.00    -0.392 OA
HETATM   11  H24 UNL     1     -35.979  15.979  -1.004  1.00 20.00     0.210 HD
ENDBRANCH   5  10
TORSDOF 1
ENDMDL
