MODEL 1
REMARK VINA RESULT:      -5.5      0.000      0.000
REMARK  3 active torsions:
REMARK  status: ('A' for Active; 'I' for Inactive)
REMARK    1  A    between atoms: C1_1  and  C3_3 
REMARK    2  A    between atoms: C1_1  and  C4_4 
REMARK    3  A    between atoms: C2_2  and  C3_3 
ROOT
HETATM    1  C1  UNL     1     -33.828   5.468   4.988  1.00 20.00     0.197 C 
ENDROOT
BRANCH   1   2
HETATM    2  C3  UNL     1     -33.664   6.107   3.614  1.00 20.00     0.264 C 
HETATM    3  F5  UNL     1     -34.418   7.234   3.549  1.00 20.00    -0.205 F 
HETATM    4  F6  UNL     1     -34.132   5.258   2.664  1.00 20.00    -0.205 F 
BRANCH   2   5
HETATM    5  C2  UNL     1     -32.214   6.452   3.315  1.00 20.00     0.193 C 
HETATM    6 CL10 UNL     1     -32.110   7.916   2.305  1.00 20.00    -0.124 Cl
ENDBRANCH   2   5
ENDBRANCH   1   2
BRANCH   1   7
HETATM    7  C4  UNL     1     -35.115   4.675   5.108  1.00 20.00     0.393 C 
HETATM    8  F7  UNL     1     -34.938   3.387   4.745  1.00 20.00    -0.171 F 
HETATM    9  F8  UNL     1     -35.555   4.684   6.386  1.00 20.00    -0.171 F 
HETATM   10  F9  UNL     1     -36.091   5.198   4.336  1.00 20.00    -0.171 F 
ENDBRANCH   1   7
TORSDOF 3
ENDMDL
MODEL 2
REMARK VINA RESULT:      -5.5      0.013      1.192
REMARK  3 active torsions:
REMARK  status: ('A' for Active; 'I' for Inactive)
REMARK    1  A    between atoms: C1_1  and  C3_3 
REMARK    2  A    between atoms: C1_1  and  C4_4 
REMARK    3  A    between atoms: C2_2  and  C3_3 
ROOT
HETATM    1  C1  UNL     1     -33.817   5.455   4.986  1.00 20.00     0.197 C 
ENDROOT
BRANCH   1   2
HETATM    2  C3  UNL     1     -33.660   6.102   3.614  1.00 20.00     0.264 C 
HETATM    3  F5  UNL     1     -34.417   7.227   3.559  1.00 20.00    -0.205 F 
HETATM    4  F6  UNL     1     -34.131   5.256   2.663  1.00 20.00    -0.205 F 
BRANCH   2   5
HETATM    5  C2  UNL     1     -32.213   6.450   3.311  1.00 20.00     0.193 C 
HETATM    6 CL10 UNL     1     -32.116   7.913   2.297  1.00 20.00    -0.124 Cl
ENDBRANCH   2   5
ENDBRANCH   1   2
BRANCH   1   7
HETATM    7  C4  UNL     1     -35.115   4.684   5.119  1.00 20.00     0.393 C 
HETATM    8  F7  UNL     1     -36.080   5.199   4.327  1.00 20.00    -0.171 F 
HETATM    9  F8  UNL     1     -34.935   3.394   4.759  1.00 20.00    -0.171 F 
HETATM   10  F9  UNL     1     -35.567   4.694   6.391  1.00 20.00    -0.171 F 
ENDBRANCH   1   7
TORSDOF 3
ENDMDL
MODEL 3
REMARK VINA RESULT:      -5.4      2.456      3.847
REMARK  3 active torsions:
REMARK  status: ('A' for Active; 'I' for Inactive)
REMARK    1  A    between atoms: C1_1  and  C3_3 
REMARK    2  A    between atoms: C1_1  and  C4_4 
REMARK    3  A    between atoms: C2_2  and  C3_3 
ROOT
HETATM    1  C1  UNL     1     -33.730   6.476   4.290  1.00 20.00     0.197 C 
ENDROOT
BRANCH   1   2
HETATM    2  C3  UNL     1     -34.681   5.451   3.682  1.00 20.00     0.264 C 
HETATM    3  F5  UNL     1     -34.135   4.952   2.544  1.00 20.00    -0.205 F 
HETATM    4  F6  UNL     1     -35.841   6.065   3.334  1.00 20.00    -0.205 F 
BRANCH   2   5
HETATM    5  C2  UNL     1     -34.979   4.312   4.642  1.00 20.00     0.193 C 
HETATM    6 CL10 UNL     1     -34.852   4.861   6.332  1.00 20.00    -0.124 Cl
ENDBRANCH   2   5
ENDBRANCH   1   2
BRANCH   1   7
HETATM    7  C4  UNL     1     -32.492   6.692   3.443  1.00 20.00     0.393 C 
HETATM    8  F7  UNL     1     -32.797   7.253   2.254  1.00 20.00    -0.171 F 
HETATM    9  F8  UNL     1     -31.628   7.516   4.075  1.00 20.00    -0.171 F 
HETATM   10  F9  UNL     1     -31.847   5.529   3.205  1.00 20.00    -0.171 F 
ENDBRANCH   1   7
TORSDOF 3
ENDMDL
MODEL 4
REMARK VINA RESULT:      -5.4      2.463      3.817
REMARK  3 active torsions:
REMARK  status: ('A' for Active; 'I' for Inactive)
REMARK    1  A    between atoms: C1_1  and  C3_3 
REMARK    2  A    between atoms: C1_1  and  C4_4 
REMARK    3  A    between atoms: C2_2  and  C3_3 
ROOT
HETATM    1  C1  UNL     1     -33.840   6.556   4.181  1.00 20.00     0.197 C 
ENDROOT
BRANCH   1   2
HETATM    2  C3  UNL     1     -34.725   5.444   3.630  1.00 20.00     0.264 C 
HETATM    3  F5  UNL     1     -34.178   4.960   2.486  1.00 20.00    -0.205 F 
HETATM    4  F6  UNL     1     -35.940   5.954   3.307  1.00 20.00    -0.205 F 
BRANCH   2   5
HETATM    5  C2  UNL     1     -34.900   4.309   4.626  1.00 20.00     0.193 C 
HETATM    6 CL10 UNL     1     -34.871   4.928   6.297  1.00 20.00    -0.124 Cl
ENDBRANCH   2   5
ENDBRANCH   1   2
BRANCH   1   7
HETATM    7  C4  UNL     1     -32.526   6.675   3.435  1.00 20.00     0.393 C 
HETATM    8  F7  UNL     1     -31.951   5.468   3.249  1.00 20.00    -0.171 F 
HETATM    9  F8  UNL     1     -32.725   7.226   2.217  1.00 20.00    -0.171 F 
HETATM   10  F9  UNL     1     -31.650   7.459   4.099  1.00 20.00    -0.171 F 
ENDBRANCH   1   7
TORSDOF 3
ENDMDL
MODEL 5
REMARK VINA RESULT:      -5.2      1.355      1.969
REMARK  3 active torsions:
REMARK  status: ('A' for Active; 'I' for Inactive)
REMARK    1  A    between atoms: C1_1  and  C3_3 
REMARK    2  A    between atoms: C1_1  and  C4_4 
REMARK    3  A    between atoms: C2_2  and  C3_3 
ROOT
HETATM    1  C1  UNL     1     -34.461   5.019   4.644  1.00 20.00     0.197 C 
ENDROOT
BRANCH   1   2
HETATM    2  C3  UNL     1     -33.686   6.295   4.338  1.00 20.00     0.264 C 
HETATM    3  F5  UNL     1     -33.081   6.735   5.471  1.00 20.00    -0.205 F 
HETATM    4  F6  UNL     1     -34.552   7.264   3.946  1.00 20.00    -0.205 F 
BRANCH   2   5
HETATM    5  C2  UNL     1     -32.641   6.082   3.257  1.00 20.00     0.193 C 
HETATM    6 CL10 UNL     1     -32.073   7.644   2.613  1.00 20.00    -0.124 Cl
ENDBRANCH   2   5
ENDBRANCH   1   2
BRANCH   1   7
HETATM    7  C4  UNL     1     -34.661   4.803   6.131  1.00 20.00     0.393 C 
HETATM    8  F7  UNL     1     -34.971   5.956   6.761  1.00 20.00    -0.171 F 
HETATM    9  F8  UNL     1     -35.671   3.933   6.349  1.00 20.00    -0.171 F 
HETATM   10  F9  UNL     1     -33.552   4.295   6.710  1.00 20.00    -0.171 F 
ENDBRANCH   1   7
TORSDOF 3
ENDMDL
MODEL 6
REMARK VINA RESULT:      -5.2      1.358      1.729
REMARK  3 active torsions:
REMARK  status: ('A' for Active; 'I' for Inactive)
REMARK    1  A    between atoms: C1_1  and  C3_3 
REMARK    2  A    between atoms: C1_1  and  C4_4 
REMARK    3  A    between atoms: C2_2  and  C3_3 
ROOT
HETATM    1  C1  UNL     1     -34.542   5.056   4.624  1.00 20.00     0.197 C 
ENDROOT
BRANCH   1   2
HETATM    2  C3  UNL     1     -33.719   6.305   4.331  1.00 20.00     0.264 C 
HETATM    3  F5  UNL     1     -33.146   6.746   5.480  1.00 20.00    -0.205 F 
HETATM    4  F6  UNL     1     -34.540   7.292   3.890  1.00 20.00    -0.205 F 
BRANCH   2   5
HETATM    5  C2  UNL     1     -32.638   6.046   3.295  1.00 20.00     0.193 C 
HETATM    6 CL10 UNL     1     -32.110   7.571   2.539  1.00 20.00    -0.124 Cl
ENDBRANCH   2   5
ENDBRANCH   1   2
BRANCH   1   7
HETATM    7  C4  UNL     1     -34.702   4.802   6.109  1.00 20.00     0.393 C 
HETATM    8  F7  UNL     1     -35.701   3.929   6.357  1.00 20.00    -0.171 F 
HETATM    9  F8  UNL     1     -33.566   4.281   6.622  1.00 20.00    -0.171 F 
HETATM   10  F9  UNL     1     -34.966   5.944   6.780  1.00 20.00    -0.171 F 
ENDBRANCH   1   7
TORSDOF 3
ENDMDL
MODEL 7
REMARK VINA RESULT:      -5.1      1.547      2.258
REMARK  3 active torsions:
REMARK  status: ('A' for Active; 'I' for Inactive)
REMARK    1  A    between atoms: C1_1  and  C3_3 
REMARK    2  A    between atoms: C1_1  and  C4_4 
REMARK    3  A    between atoms: C2_2  and  C3_3 
ROOT
HETATM    1  C1  UNL     1     -34.220   6.042   4.982  1.00 20.00     0.197 C 
ENDROOT
BRANCH   1   2
HETATM    2  C3  UNL     1     -34.793   5.233   3.824  1.00 20.00     0.264 C 
HETATM    3  F5  UNL     1     -36.033   5.696   3.524  1.00 20.00    -0.205 F 
HETATM    4  F6  UNL     1     -34.931   3.938   4.204  1.00 20.00    -0.205 F 
BRANCH   2   5
HETATM    5  C2  UNL     1     -33.913   5.307   2.587  1.00 20.00     0.193 C 
HETATM    6 CL10 UNL     1     -32.360   6.095   2.965  1.00 20.00    -0.124 Cl
ENDBRANCH   2   5
ENDBRANCH   1   2
BRANCH   1   7
HETATM    7  C4  UNL     1     -34.561   5.443   6.332  1.00 20.00     0.393 C 
HETATM    8  F7  UNL     1     -34.633   6.391   7.290  1.00 20.00    -0.171 F 
HETATM    9  F8  UNL     1     -35.759   4.820   6.281  1.00 20.00    -0.171 F 
HETATM   10  F9  UNL     1     -33.642   4.530   6.714  1.00 20.00    -0.171 F 
ENDBRANCH   1   7
TORSDOF 3
ENDMDL
MODEL 8
REMARK VINA RESULT:      -4.9      2.055      3.663
REMARK  3 active torsions:
REMARK  status: ('A' for Active; 'I' for Inactive)
REMARK    1  A    between atoms: C1_1  and  C3_3 
REMARK    2  A    between atoms: C1_1  and  C4_4 
REMARK    3  A    between atoms: C2_2  and  C3_3 
ROOT
HETATM    1  C1  UNL     1     -33.772   6.602   4.266  1.00 20.00     0.197 C 
ENDROOT
BRANCH   1   2
HETATM    2  C3  UNL     1     -34.475   5.451   4.975  1.00 20.00     0.264 C 
HETATM    3  F5  UNL     1     -33.783   4.302   4.762  1.00 20.00    -0.205 F 
HETATM    4  F6  UNL     1     -35.710   5.278   4.439  1.00 20.00    -0.205 F 
BRANCH   2   5
HETATM    5  C2  UNL     1     -34.602   5.695   6.470  1.00 20.00     0.193 C 
HETATM    6 CL10 UNL     1     -33.729   7.175   6.943  1.00 20.00    -0.124 Cl
ENDBRANCH   2   5
ENDBRANCH   1   2
BRANCH   1   7
HETATM    7  C4  UNL     1     -33.025   6.150   3.027  1.00 20.00     0.393 C 
HETATM    8  F7  UNL     1     -33.767   5.303   2.282  1.00 20.00    -0.171 F 
HETATM    9  F8  UNL     1     -32.714   7.212   2.251  1.00 20.00    -0.171 F 
HETATM   10  F9  UNL     1     -31.871   5.526   3.346  1.00 20.00    -0.171 F 
ENDBRANCH   1   7
TORSDOF 3
ENDMDL
MODEL 9
REMARK VINA RESULT:      -4.7      1.213      1.739
REMARK  3 active torsions:
REMARK  status: ('A' for Active; 'I' for Inactive)
REMARK    1  A    between atoms: C1_1  and  C3_3 
REMARK    2  A    between atoms: C1_1  and  C4_4 
REMARK    3  A    between atoms: C2_2  and  C3_3 
ROOT
HETATM    1  C1  UNL     1     -33.703   6.215   4.590  1.00 20.00     0.197 C 
ENDROOT
BRANCH   1   2
HETATM    2  C3  UNL     1     -32.789   6.312   3.375  1.00 20.00     0.264 C 
HETATM    3  F5  UNL     1     -33.531   6.193   2.244  1.00 20.00    -0.205 F 
HETATM    4  F6  UNL     1     -31.912   5.276   3.388  1.00 20.00    -0.205 F 
BRANCH   2   5
HETATM    5  C2  UNL     1     -32.023   7.624   3.341  1.00 20.00     0.193 C 
HETATM    6 CL10 UNL     1     -31.995   8.295   1.690  1.00 20.00    -0.124 Cl
ENDBRANCH   2   5
ENDBRANCH   1   2
BRANCH   1   7
HETATM    7  C4  UNL     1     -34.885   5.295   4.356  1.00 20.00     0.393 C 
HETATM    8  F7  UNL     1     -35.481   4.949   5.517  1.00 20.00    -0.171 F 
HETATM    9  F8  UNL     1     -35.812   5.907   3.586  1.00 20.00    -0.171 F 
HETATM   10  F9  UNL     1     -34.512   4.163   3.722  1.00 20.00    -0.171 F 
ENDBRANCH   1   7
TORSDOF 3
ENDMDL
