MODEL 1
REMARK VINA RESULT:      -4.3      0.000      0.000
REMARK  0 active torsions:
REMARK  status: ('A' for Active; 'I' for Inactive)
ROOT
HETATM    1  C1  UNL     1     -34.891   4.338   5.871  1.00 20.00    -0.025 C 
HETATM    2  C2  UNL     1     -34.608   3.809   4.671  1.00 20.00    -0.025 C 
HETATM    3  C3  UNL     1     -35.558   5.876   4.280  1.00 20.00     0.017 C 
HETATM    4  C4  UNL     1     -33.537   6.364   5.428  1.00 20.00     0.013 C 
HETATM    5  C5  UNL     1     -34.965   5.836   5.691  1.00 20.00     0.009 C 
HETATM    6  C6  UNL     1     -34.479   4.957   3.695  1.00 20.00     0.012 C 
HETATM    7  C7  UNL     1     -33.174   5.715   4.055  1.00 20.00    -0.010 C 
HETATM    8  C8  UNL     1     -32.778   6.751   3.010  1.00 20.00     0.010 C 
ENDROOT
TORSDOF 0
ENDMDL
MODEL 2
REMARK VINA RESULT:      -4.2      1.027      2.859
REMARK  0 active torsions:
REMARK  status: ('A' for Active; 'I' for Inactive)
ROOT
HETATM    1  C1  UNL     1     -33.523   5.487   2.702  1.00 20.00    -0.025 C 
HETATM    2  C2  UNL     1     -32.771   6.061   3.653  1.00 20.00    -0.025 C 
HETATM    3  C3  UNL     1     -34.931   6.810   3.969  1.00 20.00     0.017 C 
HETATM    4  C4  UNL     1     -35.056   4.471   4.360  1.00 20.00     0.013 C 
HETATM    5  C5  UNL     1     -34.949   5.486   3.200  1.00 20.00     0.009 C 
HETATM    6  C6  UNL     1     -33.695   6.428   4.792  1.00 20.00     0.012 C 
HETATM    7  C7  UNL     1     -34.143   5.101   5.459  1.00 20.00    -0.010 C 
HETATM    8  C8  UNL     1     -34.883   5.314   6.774  1.00 20.00     0.010 C 
ENDROOT
TORSDOF 0
ENDMDL
MODEL 3
REMARK VINA RESULT:      -4.2     11.927     12.935
REMARK  0 active torsions:
REMARK  status: ('A' for Active; 'I' for Inactive)
ROOT
HETATM    1  C1  UNL     1     -33.703  16.670  -2.163  1.00 20.00    -0.025 C 
HETATM    2  C2  UNL     1     -34.855  16.068  -1.832  1.00 20.00    -0.025 C 
HETATM    3  C3  UNL     1     -34.919  16.420  -4.112  1.00 20.00     0.017 C 
HETATM    4  C4  UNL     1     -33.115  14.908  -3.800  1.00 20.00     0.013 C 
HETATM    5  C5  UNL     1     -33.466  16.403  -3.630  1.00 20.00     0.009 C 
HETATM    6  C6  UNL     1     -35.377  15.386  -3.077  1.00 20.00     0.012 C 
HETATM    7  C7  UNL     1     -34.433  14.190  -3.369  1.00 20.00    -0.010 C 
HETATM    8  C8  UNL     1     -34.967  13.259  -4.451  1.00 20.00     0.010 C 
ENDROOT
TORSDOF 0
ENDMDL
MODEL 4
REMARK VINA RESULT:      -4.1      1.067      2.140
REMARK  0 active torsions:
REMARK  status: ('A' for Active; 'I' for Inactive)
ROOT
HETATM    1  C1  UNL     1     -35.187   5.348   6.679  1.00 20.00    -0.025 C 
HETATM    2  C2  UNL     1     -34.194   6.213   6.421  1.00 20.00    -0.025 C 
HETATM    3  C3  UNL     1     -33.594   4.202   5.458  1.00 20.00     0.017 C 
HETATM    4  C4  UNL     1     -35.547   4.861   4.278  1.00 20.00     0.013 C 
HETATM    5  C5  UNL     1     -35.114   4.260   5.634  1.00 20.00     0.009 C 
HETATM    6  C6  UNL     1     -33.469   5.707   5.193  1.00 20.00     0.012 C 
HETATM    7  C7  UNL     1     -34.425   5.908   3.987  1.00 20.00    -0.010 C 
HETATM    8  C8  UNL     1     -33.747   5.673   2.643  1.00 20.00     0.010 C 
ENDROOT
TORSDOF 0
ENDMDL
MODEL 5
REMARK VINA RESULT:      -4.1     11.891     12.854
REMARK  0 active torsions:
REMARK  status: ('A' for Active; 'I' for Inactive)
ROOT
HETATM    1  C1  UNL     1     -34.854  13.556  -4.419  1.00 20.00    -0.025 C 
HETATM    2  C2  UNL     1     -33.627  13.623  -3.880  1.00 20.00    -0.025 C 
HETATM    3  C3  UNL     1     -34.032  15.668  -4.870  1.00 20.00     0.017 C 
HETATM    4  C4  UNL     1     -35.652  15.520  -3.140  1.00 20.00     0.013 C 
HETATM    5  C5  UNL     1     -35.359  14.972  -4.555  1.00 20.00     0.009 C 
HETATM    6  C6  UNL     1     -33.322  15.085  -3.642  1.00 20.00     0.012 C 
HETATM    7  C7  UNL     1     -34.236  15.556  -2.481  1.00 20.00    -0.010 C 
HETATM    8  C8  UNL     1     -33.874  16.942  -1.961  1.00 20.00     0.010 C 
ENDROOT
TORSDOF 0
ENDMDL
MODEL 6
REMARK VINA RESULT:      -4.0      8.364      9.644
REMARK  0 active torsions:
REMARK  status: ('A' for Active; 'I' for Inactive)
ROOT
HETATM    1  C1  UNL     1     -40.737   4.694  -1.078  1.00 20.00    -0.025 C 
HETATM    2  C2  UNL     1     -41.932   4.557  -1.674  1.00 20.00    -0.025 C 
HETATM    3  C3  UNL     1     -42.319   5.536   0.380  1.00 20.00     0.017 C 
HETATM    4  C4  UNL     1     -41.023   7.138  -0.801  1.00 20.00     0.013 C 
HETATM    5  C5  UNL     1     -40.873   5.794  -0.053  1.00 20.00     0.009 C 
HETATM    6  C6  UNL     1     -42.860   5.578  -1.054  1.00 20.00     0.012 C 
HETATM    7  C7  UNL     1     -42.389   6.974  -1.541  1.00 20.00    -0.010 C 
HETATM    8  C8  UNL     1     -43.371   8.088  -1.199  1.00 20.00     0.010 C 
ENDROOT
TORSDOF 0
ENDMDL
MODEL 7
REMARK VINA RESULT:      -4.0     11.935     13.100
REMARK  0 active torsions:
REMARK  status: ('A' for Active; 'I' for Inactive)
ROOT
HETATM    1  C1  UNL     1     -34.519  14.435  -5.436  1.00 20.00    -0.025 C 
HETATM    2  C2  UNL     1     -34.685  13.645  -4.364  1.00 20.00    -0.025 C 
HETATM    3  C3  UNL     1     -32.918  15.052  -3.889  1.00 20.00     0.017 C 
HETATM    4  C4  UNL     1     -34.786  16.503  -4.101  1.00 20.00     0.013 C 
HETATM    5  C5  UNL     1     -33.806  15.680  -4.967  1.00 20.00     0.009 C 
HETATM    6  C6  UNL     1     -34.094  14.373  -3.177  1.00 20.00     0.012 C 
HETATM    7  C7  UNL     1     -35.029  15.573  -2.870  1.00 20.00    -0.010 C 
HETATM    8  C8  UNL     1     -34.702  16.261  -1.551  1.00 20.00     0.010 C 
ENDROOT
TORSDOF 0
ENDMDL
MODEL 8
REMARK VINA RESULT:      -4.0      8.335      9.804
REMARK  0 active torsions:
REMARK  status: ('A' for Active; 'I' for Inactive)
ROOT
HETATM    1  C1  UNL     1     -41.192   6.883  -1.276  1.00 20.00    -0.025 C 
HETATM    2  C2  UNL     1     -41.940   6.265  -2.203  1.00 20.00    -0.025 C 
HETATM    3  C3  UNL     1     -40.681   4.632  -1.165  1.00 20.00     0.017 C 
HETATM    4  C4  UNL     1     -42.087   5.474   0.555  1.00 20.00     0.013 C 
HETATM    5  C5  UNL     1     -40.816   5.847  -0.243  1.00 20.00     0.009 C 
HETATM    6  C6  UNL     1     -42.074   4.819  -1.778  1.00 20.00     0.012 C 
HETATM    7  C7  UNL     1     -42.989   4.797  -0.525  1.00 20.00    -0.010 C 
HETATM    8  C8  UNL     1     -43.417   3.391  -0.124  1.00 20.00     0.010 C 
ENDROOT
TORSDOF 0
ENDMDL
MODEL 9
REMARK VINA RESULT:      -3.9     11.736     12.985
REMARK  0 active torsions:
REMARK  status: ('A' for Active; 'I' for Inactive)
ROOT
HETATM    1  C1  UNL     1     -34.806  13.905  -5.779  1.00 20.00    -0.025 C 
HETATM    2  C2  UNL     1     -35.011  15.231  -5.773  1.00 20.00    -0.025 C 
HETATM    3  C3  UNL     1     -36.309  14.347  -4.081  1.00 20.00     0.017 C 
HETATM    4  C4  UNL     1     -34.078  13.887  -3.412  1.00 20.00     0.013 C 
HETATM    5  C5  UNL     1     -35.156  13.393  -4.402  1.00 20.00     0.009 C 
HETATM    6  C6  UNL     1     -35.484  15.603  -4.385  1.00 20.00     0.012 C 
HETATM    7  C7  UNL     1     -34.271  15.437  -3.432  1.00 20.00    -0.010 C 
HETATM    8  C8  UNL     1     -34.522  16.007  -2.042  1.00 20.00     0.010 C 
ENDROOT
TORSDOF 0
ENDMDL
