MODEL 1
REMARK VINA RESULT:      -6.0      0.000      0.000
REMARK  3 active torsions:
REMARK  status: ('A' for Active; 'I' for Inactive)
REMARK    1  A    between atoms: C2_2  and  C5_5 
REMARK    2  A    between atoms: C4_4  and  C5_5 
REMARK    3  A    between atoms: C4_4  and  C6_6 
ROOT
HETATM    1  C4  UNL     1     -33.736   5.677   4.702  1.00 20.00     0.353 C 
HETATM    2  F7  UNL     1     -33.935   6.901   5.275  1.00 20.00    -0.233 F 
ENDROOT
BRANCH   1   3
HETATM    3  C5  UNL     1     -33.190   5.919   3.298  1.00 20.00     0.300 C 
HETATM    4  F8  UNL     1     -33.881   5.133   2.425  1.00 20.00    -0.198 F 
HETATM    5  F9  UNL     1     -31.905   5.461   3.269  1.00 20.00    -0.198 F 
BRANCH   3   6
HETATM    6  C2  UNL     1     -33.205   7.360   2.882  1.00 20.00     0.050 C 
HETATM    7  C1  UNL     1     -32.251   7.947   2.147  1.00 20.00    -0.029 C 
HETATM    8  C3  UNL     1     -32.280   9.385   1.745  1.00 20.00     0.036 C 
ENDBRANCH   3   6
ENDBRANCH   1   3
BRANCH   1   9
HETATM    9  C6  UNL     1     -35.058   4.941   4.757  1.00 20.00     0.424 C 
HETATM   10  F10 UNL     1     -35.972   5.488   3.930  1.00 20.00    -0.168 F 
HETATM   11  F11 UNL     1     -34.914   3.642   4.420  1.00 20.00    -0.168 F 
HETATM   12  F12 UNL     1     -35.569   4.987   6.008  1.00 20.00    -0.168 F 
ENDBRANCH   1   9
TORSDOF 3
ENDMDL
MODEL 2
REMARK VINA RESULT:      -5.8      1.058      1.623
REMARK  3 active torsions:
REMARK  status: ('A' for Active; 'I' for Inactive)
REMARK    1  A    between atoms: C2_2  and  C5_5 
REMARK    2  A    between atoms: C4_4  and  C5_5 
REMARK    3  A    between atoms: C4_4  and  C6_6 
ROOT
HETATM    1  C4  UNL     1     -33.920   5.498   5.100  1.00 20.00     0.353 C 
HETATM    2  F7  UNL     1     -34.113   6.657   5.797  1.00 20.00    -0.233 F 
ENDROOT
BRANCH   1   3
HETATM    3  C5  UNL     1     -34.422   5.735   3.679  1.00 20.00     0.300 C 
HETATM    4  F8  UNL     1     -35.782   5.819   3.710  1.00 20.00    -0.198 F 
HETATM    5  F9  UNL     1     -34.139   4.618   2.949  1.00 20.00    -0.198 F 
BRANCH   3   6
HETATM    6  C2  UNL     1     -33.805   6.926   3.009  1.00 20.00     0.050 C 
HETATM    7  C1  UNL     1     -32.490   7.082   2.801  1.00 20.00    -0.029 C 
HETATM    8  C3  UNL     1     -31.892   8.277   2.135  1.00 20.00     0.036 C 
ENDBRANCH   3   6
ENDBRANCH   1   3
BRANCH   1   9
HETATM    9  C6  UNL     1     -34.636   4.400   5.857  1.00 20.00     0.424 C 
HETATM   10  F10 UNL     1     -35.693   4.874   6.548  1.00 20.00    -0.168 F 
HETATM   11  F11 UNL     1     -35.081   3.435   5.024  1.00 20.00    -0.168 F 
HETATM   12  F12 UNL     1     -33.800   3.821   6.748  1.00 20.00    -0.168 F 
ENDBRANCH   1   9
TORSDOF 3
ENDMDL
MODEL 3
REMARK VINA RESULT:      -5.8      1.005      1.990
REMARK  3 active torsions:
REMARK  status: ('A' for Active; 'I' for Inactive)
REMARK    1  A    between atoms: C2_2  and  C5_5 
REMARK    2  A    between atoms: C4_4  and  C5_5 
REMARK    3  A    between atoms: C4_4  and  C6_6 
ROOT
HETATM    1  C4  UNL     1     -33.955   6.172   3.497  1.00 20.00     0.353 C 
HETATM    2  F7  UNL     1     -34.163   5.186   2.575  1.00 20.00    -0.233 F 
ENDROOT
BRANCH   1   3
HETATM    3  C5  UNL     1     -32.483   6.564   3.415  1.00 20.00     0.300 C 
HETATM    4  F8  UNL     1     -31.733   5.427   3.389  1.00 20.00    -0.198 F 
HETATM    5  F9  UNL     1     -32.158   7.194   4.581  1.00 20.00    -0.198 F 
BRANCH   3   6
HETATM    6  C2  UNL     1     -32.161   7.470   2.264  1.00 20.00     0.050 C 
HETATM    7  C1  UNL     1     -32.541   8.753   2.178  1.00 20.00    -0.029 C 
HETATM    8  C3  UNL     1     -32.214   9.640   1.022  1.00 20.00     0.036 C 
ENDBRANCH   3   6
ENDBRANCH   1   3
BRANCH   1   9
HETATM    9  C6  UNL     1     -34.398   5.627   4.838  1.00 20.00     0.424 C 
HETATM   10  F10 UNL     1     -33.628   4.596   5.240  1.00 20.00    -0.168 F 
HETATM   11  F11 UNL     1     -34.356   6.577   5.796  1.00 20.00    -0.168 F 
HETATM   12  F12 UNL     1     -35.670   5.174   4.764  1.00 20.00    -0.168 F 
ENDBRANCH   1   9
TORSDOF 3
ENDMDL
MODEL 4
REMARK VINA RESULT:      -5.7      0.952      1.504
REMARK  3 active torsions:
REMARK  status: ('A' for Active; 'I' for Inactive)
REMARK    1  A    between atoms: C2_2  and  C5_5 
REMARK    2  A    between atoms: C4_4  and  C5_5 
REMARK    3  A    between atoms: C4_4  and  C6_6 
ROOT
HETATM    1  C4  UNL     1     -33.646   6.013   4.414  1.00 20.00     0.353 C 
HETATM    2  F7  UNL     1     -34.302   7.050   5.014  1.00 20.00    -0.233 F 
ENDROOT
BRANCH   1   3
HETATM    3  C5  UNL     1     -32.462   6.606   3.655  1.00 20.00     0.300 C 
HETATM    4  F8  UNL     1     -31.691   5.583   3.190  1.00 20.00    -0.198 F 
HETATM    5  F9  UNL     1     -31.684   7.271   4.558  1.00 20.00    -0.198 F 
BRANCH   3   6
HETATM    6  C2  UNL     1     -32.856   7.550   2.560  1.00 20.00     0.050 C 
HETATM    7  C1  UNL     1     -32.000   8.329   1.884  1.00 20.00    -0.029 C 
HETATM    8  C3  UNL     1     -32.411   9.267   0.797  1.00 20.00     0.036 C 
ENDBRANCH   3   6
ENDBRANCH   1   3
BRANCH   1   9
HETATM    9  C6  UNL     1     -34.657   5.286   3.553  1.00 20.00     0.424 C 
HETATM   10  F10 UNL     1     -35.773   6.019   3.362  1.00 20.00    -0.168 F 
HETATM   11  F11 UNL     1     -34.146   4.980   2.342  1.00 20.00    -0.168 F 
HETATM   12  F12 UNL     1     -35.033   4.130   4.145  1.00 20.00    -0.168 F 
ENDBRANCH   1   9
TORSDOF 3
ENDMDL
MODEL 5
REMARK VINA RESULT:      -5.1     10.691     11.994
REMARK  3 active torsions:
REMARK  status: ('A' for Active; 'I' for Inactive)
REMARK    1  A    between atoms: C2_2  and  C5_5 
REMARK    2  A    between atoms: C4_4  and  C5_5 
REMARK    3  A    between atoms: C4_4  and  C6_6 
ROOT
HETATM    1  C4  UNL     1     -34.625  15.167  -4.373  1.00 20.00     0.353 C 
HETATM    2  F7  UNL     1     -34.637  15.390  -5.721  1.00 20.00    -0.233 F 
ENDROOT
BRANCH   1   3
HETATM    3  C5  UNL     1     -33.357  15.811  -3.820  1.00 20.00     0.300 C 
HETATM    4  F8  UNL     1     -32.867  16.673  -4.754  1.00 20.00    -0.198 F 
HETATM    5  F9  UNL     1     -32.416  14.830  -3.695  1.00 20.00    -0.198 F 
BRANCH   3   6
HETATM    6  C2  UNL     1     -33.547  16.478  -2.490  1.00 20.00     0.050 C 
HETATM    7  C1  UNL     1     -34.595  16.272  -1.681  1.00 20.00    -0.029 C 
HETATM    8  C3  UNL     1     -34.770  16.948  -0.361  1.00 20.00     0.036 C 
ENDBRANCH   3   6
ENDBRANCH   1   3
BRANCH   1   9
HETATM    9  C6  UNL     1     -34.723  13.670  -4.169  1.00 20.00     0.424 C 
HETATM   10  F10 UNL     1     -34.101  12.987  -5.152  1.00 20.00    -0.168 F 
HETATM   11  F11 UNL     1     -34.179  13.296  -2.992  1.00 20.00    -0.168 F 
HETATM   12  F12 UNL     1     -36.018  13.281  -4.166  1.00 20.00    -0.168 F 
ENDBRANCH   1   9
TORSDOF 3
ENDMDL
MODEL 6
REMARK VINA RESULT:      -5.1      2.019      3.754
REMARK  3 active torsions:
REMARK  status: ('A' for Active; 'I' for Inactive)
REMARK    1  A    between atoms: C2_2  and  C5_5 
REMARK    2  A    between atoms: C4_4  and  C5_5 
REMARK    3  A    between atoms: C4_4  and  C6_6 
ROOT
HETATM    1  C4  UNL     1     -35.049   4.700   4.225  1.00 20.00     0.353 C 
HETATM    2  F7  UNL     1     -36.289   5.271   4.154  1.00 20.00    -0.233 F 
ENDROOT
BRANCH   1   3
HETATM    3  C5  UNL     1     -34.701   4.557   5.704  1.00 20.00     0.300 C 
HETATM    4  F8  UNL     1     -33.541   3.850   5.808  1.00 20.00    -0.198 F 
HETATM    5  F9  UNL     1     -35.661   3.778   6.281  1.00 20.00    -0.198 F 
BRANCH   3   6
HETATM    6  C2  UNL     1     -34.625   5.863   6.437  1.00 20.00     0.050 C 
HETATM    7  C1  UNL     1     -33.504   6.580   6.597  1.00 20.00    -0.029 C 
HETATM    8  C3  UNL     1     -33.447   7.878   7.333  1.00 20.00     0.036 C 
ENDBRANCH   3   6
ENDBRANCH   1   3
BRANCH   1   9
HETATM    9  C6  UNL     1     -34.109   5.581   3.429  1.00 20.00     0.424 C 
HETATM   10  F10 UNL     1     -34.422   6.887   3.549  1.00 20.00    -0.168 F 
HETATM   11  F11 UNL     1     -32.828   5.420   3.825  1.00 20.00    -0.168 F 
HETATM   12  F12 UNL     1     -34.175   5.270   2.115  1.00 20.00    -0.168 F 
ENDBRANCH   1   9
TORSDOF 3
ENDMDL
MODEL 7
REMARK VINA RESULT:      -5.0     10.713     11.984
REMARK  3 active torsions:
REMARK  status: ('A' for Active; 'I' for Inactive)
REMARK    1  A    between atoms: C2_2  and  C5_5 
REMARK    2  A    between atoms: C4_4  and  C5_5 
REMARK    3  A    between atoms: C4_4  and  C6_6 
ROOT
HETATM    1  C4  UNL     1     -34.623  15.191  -4.361  1.00 20.00     0.353 C 
HETATM    2  F7  UNL     1     -34.642  15.432  -5.705  1.00 20.00    -0.233 F 
ENDROOT
BRANCH   1   3
HETATM    3  C5  UNL     1     -33.355  15.832  -3.804  1.00 20.00     0.300 C 
HETATM    4  F8  UNL     1     -32.837  16.660  -4.754  1.00 20.00    -0.198 F 
HETATM    5  F9  UNL     1     -32.431  14.841  -3.636  1.00 20.00    -0.198 F 
BRANCH   3   6
HETATM    6  C2  UNL     1     -33.557  16.539  -2.497  1.00 20.00     0.050 C 
HETATM    7  C1  UNL     1     -34.543  16.266  -1.631  1.00 20.00    -0.029 C 
HETATM    8  C3  UNL     1     -34.731  16.983  -0.335  1.00 20.00     0.036 C 
ENDBRANCH   3   6
ENDBRANCH   1   3
BRANCH   1   9
HETATM    9  C6  UNL     1     -34.715  13.692  -4.177  1.00 20.00     0.424 C 
HETATM   10  F10 UNL     1     -35.994  13.263  -4.173  1.00 20.00    -0.168 F 
HETATM   11  F11 UNL     1     -34.058  13.033  -5.155  1.00 20.00    -0.168 F 
HETATM   12  F12 UNL     1     -34.166  13.329  -2.996  1.00 20.00    -0.168 F 
ENDBRANCH   1   9
TORSDOF 3
ENDMDL
MODEL 8
REMARK VINA RESULT:      -5.0     11.257     12.563
REMARK  3 active torsions:
REMARK  status: ('A' for Active; 'I' for Inactive)
REMARK    1  A    between atoms: C2_2  and  C5_5 
REMARK    2  A    between atoms: C4_4  and  C5_5 
REMARK    3  A    between atoms: C4_4  and  C6_6 
ROOT
HETATM    1  C4  UNL     1     -34.045  15.727  -4.777  1.00 20.00     0.353 C 
HETATM    2  F7  UNL     1     -32.959  16.296  -5.380  1.00 20.00    -0.233 F 
ENDROOT
BRANCH   1   3
HETATM    3  C5  UNL     1     -33.608  15.284  -3.384  1.00 20.00     0.300 C 
HETATM    4  F8  UNL     1     -32.336  14.803  -3.463  1.00 20.00    -0.198 F 
HETATM    5  F9  UNL     1     -34.383  14.220  -3.026  1.00 20.00    -0.198 F 
BRANCH   3   6
HETATM    6  C2  UNL     1     -33.735  16.354  -2.340  1.00 20.00     0.050 C 
HETATM    7  C1  UNL     1     -34.628  16.337  -1.341  1.00 20.00    -0.029 C 
HETATM    8  C3  UNL     1     -34.743  17.414  -0.313  1.00 20.00     0.036 C 
ENDBRANCH   3   6
ENDBRANCH   1   3
BRANCH   1   9
HETATM    9  C6  UNL     1     -34.522  14.612  -5.682  1.00 20.00     0.424 C 
HETATM   10  F10 UNL     1     -34.034  13.413  -5.303  1.00 20.00    -0.168 F 
HETATM   11  F11 UNL     1     -35.870  14.528  -5.694  1.00 20.00    -0.168 F 
HETATM   12  F12 UNL     1     -34.112  14.830  -6.952  1.00 20.00    -0.168 F 
ENDBRANCH   1   9
TORSDOF 3
ENDMDL
MODEL 9
REMARK VINA RESULT:      -5.0     11.245     12.530
REMARK  3 active torsions:
REMARK  status: ('A' for Active; 'I' for Inactive)
REMARK    1  A    between atoms: C2_2  and  C5_5 
REMARK    2  A    between atoms: C4_4  and  C5_5 
REMARK    3  A    between atoms: C4_4  and  C6_6 
ROOT
HETATM    1  C4  UNL     1     -33.996  14.093  -4.744  1.00 20.00     0.353 C 
HETATM    2  F7  UNL     1     -34.940  13.448  -3.995  1.00 20.00    -0.233 F 
ENDROOT
BRANCH   1   3
HETATM    3  C5  UNL     1     -33.309  15.105  -3.832  1.00 20.00     0.300 C 
HETATM    4  F8  UNL     1     -32.966  16.194  -4.576  1.00 20.00    -0.198 F 
HETATM    5  F9  UNL     1     -32.130  14.555  -3.419  1.00 20.00    -0.198 F 
BRANCH   3   6
HETATM    6  C2  UNL     1     -34.120  15.484  -2.629  1.00 20.00     0.050 C 
HETATM    7  C1  UNL     1     -33.897  16.569  -1.874  1.00 20.00    -0.029 C 
HETATM    8  C3  UNL     1     -34.713  16.929  -0.677  1.00 20.00     0.036 C 
ENDBRANCH   3   6
ENDBRANCH   1   3
BRANCH   1   9
HETATM    9  C6  UNL     1     -34.709  14.690  -5.939  1.00 20.00     0.424 C 
HETATM   10  F10 UNL     1     -35.546  15.685  -5.580  1.00 20.00    -0.168 F 
HETATM   11  F11 UNL     1     -33.834  15.185  -6.840  1.00 20.00    -0.168 F 
HETATM   12  F12 UNL     1     -35.451  13.747  -6.563  1.00 20.00    -0.168 F 
ENDBRANCH   1   9
TORSDOF 3
ENDMDL
