MODEL 1
REMARK VINA RESULT:      -4.7      0.000      0.000
REMARK  2 active torsions:
REMARK  status: ('A' for Active; 'I' for Inactive)
REMARK    1  A    between atoms: C7_7  and  C10_10 
REMARK    2  A    between atoms: C8_8  and  C9_9 
ROOT
HETATM    1  C1  UNL     1     -34.598  16.327  -1.156  1.00 20.00    -0.019 C 
HETATM    2  C3  UNL     1     -34.817  17.448  -0.426  1.00 20.00    -0.087 C 
HETATM    3  C5  UNL     1     -34.578  18.720  -1.253  1.00 20.00     0.039 C 
HETATM    4  C8  UNL     1     -34.417  16.750  -2.569  1.00 20.00     0.021 C 
HETATM    5  C10 UNL     1     -33.666  18.072  -2.262  1.00 20.00     0.005 C 
HETATM    6  C11 UNL     1     -35.205  17.527   1.005  1.00 20.00     0.043 C 
ENDROOT
BRANCH   4   7
HETATM    7  C9  UNL     1     -33.654  16.282  -3.834  1.00 20.00     0.022 C 
HETATM    8  C4  UNL     1     -34.173  14.852  -4.012  1.00 20.00    -0.082 C 
HETATM    9  C2  UNL     1     -35.480  14.932  -4.332  1.00 20.00    -0.019 C 
HETATM   10  C12 UNL     1     -33.343  13.653  -3.755  1.00 20.00     0.043 C 
HETATM   11  C7  UNL     1     -35.822  16.394  -4.495  1.00 20.00     0.014 C 
HETATM   12  C6  UNL     1     -34.431  16.858  -5.028  1.00 20.00     0.018 C 
ENDBRANCH   4   7
TORSDOF 2
ENDMDL
MODEL 2
REMARK VINA RESULT:      -4.6      1.956      3.618
REMARK  2 active torsions:
REMARK  status: ('A' for Active; 'I' for Inactive)
REMARK    1  A    between atoms: C7_7  and  C10_10 
REMARK    2  A    between atoms: C8_8  and  C9_9 
ROOT
HETATM    1  C1  UNL     1     -35.611  15.844  -3.652  1.00 20.00    -0.019 C 
HETATM    2  C3  UNL     1     -34.605  15.811  -2.744  1.00 20.00    -0.087 C 
HETATM    3  C5  UNL     1     -33.370  15.079  -3.291  1.00 20.00     0.039 C 
HETATM    4  C8  UNL     1     -35.061  15.342  -4.939  1.00 20.00     0.021 C 
HETATM    5  C10 UNL     1     -34.119  14.275  -4.322  1.00 20.00     0.005 C 
HETATM    6  C11 UNL     1     -34.622  16.355  -1.364  1.00 20.00     0.043 C 
ENDROOT
BRANCH   4   7
HETATM    7  C9  UNL     1     -35.555  14.587  -6.198  1.00 20.00     0.022 C 
HETATM    8  C4  UNL     1     -36.595  15.556  -6.767  1.00 20.00    -0.082 C 
HETATM    9  C2  UNL     1     -35.939  16.657  -7.184  1.00 20.00    -0.019 C 
HETATM   10  C12 UNL     1     -38.052  15.292  -6.729  1.00 20.00     0.043 C 
HETATM   11  C7  UNL     1     -34.460  16.397  -7.021  1.00 20.00     0.014 C 
HETATM   12  C6  UNL     1     -34.505  14.860  -7.287  1.00 20.00     0.018 C 
ENDBRANCH   4   7
TORSDOF 2
ENDMDL
MODEL 3
REMARK VINA RESULT:      -4.6      1.222      2.415
REMARK  2 active torsions:
REMARK  status: ('A' for Active; 'I' for Inactive)
REMARK    1  A    between atoms: C7_7  and  C10_10 
REMARK    2  A    between atoms: C8_8  and  C9_9 
ROOT
HETATM    1  C1  UNL     1     -33.330  18.048  -1.544  1.00 20.00    -0.019 C 
HETATM    2  C3  UNL     1     -33.576  18.057  -0.211  1.00 20.00    -0.087 C 
HETATM    3  C5  UNL     1     -34.822  17.232   0.142  1.00 20.00     0.039 C 
HETATM    4  C8  UNL     1     -34.247  17.049  -2.155  1.00 20.00     0.021 C 
HETATM    5  C10 UNL     1     -35.455  17.326  -1.222  1.00 20.00     0.005 C 
HETATM    6  C11 UNL     1     -32.811  18.775   0.838  1.00 20.00     0.043 C 
ENDROOT
BRANCH   4   7
HETATM    7  C9  UNL     1     -34.979  16.813  -3.499  1.00 20.00     0.022 C 
HETATM    8  C4  UNL     1     -33.817  16.783  -4.498  1.00 20.00    -0.082 C 
HETATM    9  C2  UNL     1     -33.085  15.682  -4.234  1.00 20.00    -0.019 C 
HETATM   10  C12 UNL     1     -33.562  17.867  -5.474  1.00 20.00     0.043 C 
HETATM   11  C7  UNL     1     -33.801  14.903  -3.157  1.00 20.00     0.014 C 
HETATM   12  C6  UNL     1     -35.253  15.302  -3.566  1.00 20.00     0.018 C 
ENDBRANCH   4   7
TORSDOF 2
ENDMDL
MODEL 4
REMARK VINA RESULT:      -4.6      1.909      4.933
REMARK  2 active torsions:
REMARK  status: ('A' for Active; 'I' for Inactive)
REMARK    1  A    between atoms: C7_7  and  C10_10 
REMARK    2  A    between atoms: C8_8  and  C9_9 
ROOT
HETATM    1  C1  UNL     1     -36.059  16.077  -5.701  1.00 20.00    -0.019 C 
HETATM    2  C3  UNL     1     -36.422  15.347  -6.784  1.00 20.00    -0.087 C 
HETATM    3  C5  UNL     1     -35.271  14.461  -7.284  1.00 20.00     0.039 C 
HETATM    4  C8  UNL     1     -34.729  15.580  -5.261  1.00 20.00     0.021 C 
HETATM    5  C10 UNL     1     -34.170  15.292  -6.679  1.00 20.00     0.005 C 
HETATM    6  C11 UNL     1     -37.731  15.366  -7.483  1.00 20.00     0.043 C 
ENDROOT
BRANCH   4   7
HETATM    7  C9  UNL     1     -33.458  16.125  -4.563  1.00 20.00     0.022 C 
HETATM    8  C4  UNL     1     -34.034  16.760  -3.294  1.00 20.00    -0.082 C 
HETATM    9  C2  UNL     1     -34.523  15.764  -2.528  1.00 20.00    -0.019 C 
HETATM   10  C12 UNL     1     -34.095  18.224  -3.078  1.00 20.00     0.043 C 
HETATM   11  C7  UNL     1     -34.175  14.457  -3.201  1.00 20.00     0.014 C 
HETATM   12  C6  UNL     1     -32.830  14.922  -3.840  1.00 20.00     0.018 C 
ENDBRANCH   4   7
TORSDOF 2
ENDMDL
MODEL 5
REMARK VINA RESULT:      -4.6      2.506      4.823
REMARK  2 active torsions:
REMARK  status: ('A' for Active; 'I' for Inactive)
REMARK    1  A    between atoms: C7_7  and  C10_10 
REMARK    2  A    between atoms: C8_8  and  C9_9 
ROOT
HETATM    1  C1  UNL     1     -34.016  16.652  -6.100  1.00 20.00    -0.019 C 
HETATM    2  C3  UNL     1     -34.621  17.075  -7.237  1.00 20.00    -0.087 C 
HETATM    3  C5  UNL     1     -35.546  15.998  -7.822  1.00 20.00     0.039 C 
HETATM    4  C8  UNL     1     -34.649  15.363  -5.717  1.00 20.00     0.021 C 
HETATM    5  C10 UNL     1     -34.856  14.834  -7.160  1.00 20.00     0.005 C 
HETATM    6  C11 UNL     1     -34.441  18.382  -7.918  1.00 20.00     0.043 C 
ENDROOT
BRANCH   4   7
HETATM    7  C9  UNL     1     -34.265  14.051  -4.989  1.00 20.00     0.022 C 
HETATM    8  C4  UNL     1     -33.632  14.573  -3.695  1.00 20.00    -0.082 C 
HETATM    9  C2  UNL     1     -34.608  15.166  -2.978  1.00 20.00    -0.019 C 
HETATM   10  C12 UNL     1     -32.181  14.491  -3.414  1.00 20.00     0.043 C 
HETATM   11  C7  UNL     1     -35.912  14.943  -3.707  1.00 20.00     0.014 C 
HETATM   12  C6  UNL     1     -35.555  13.552  -4.318  1.00 20.00     0.018 C 
ENDBRANCH   4   7
TORSDOF 2
ENDMDL
MODEL 6
REMARK VINA RESULT:      -4.5      1.620      3.051
REMARK  2 active torsions:
REMARK  status: ('A' for Active; 'I' for Inactive)
REMARK    1  A    between atoms: C7_7  and  C10_10 
REMARK    2  A    between atoms: C8_8  and  C9_9 
ROOT
HETATM    1  C1  UNL     1     -34.926  17.374  -3.789  1.00 20.00    -0.019 C 
HETATM    2  C3  UNL     1     -34.085  17.872  -2.851  1.00 20.00    -0.087 C 
HETATM    3  C5  UNL     1     -33.701  16.809  -1.810  1.00 20.00     0.039 C 
HETATM    4  C8  UNL     1     -34.995  15.903  -3.584  1.00 20.00     0.021 C 
HETATM    5  C10 UNL     1     -34.910  15.938  -2.035  1.00 20.00     0.005 C 
HETATM    6  C11 UNL     1     -33.577  19.263  -2.746  1.00 20.00     0.043 C 
ENDROOT
BRANCH   4   7
HETATM    7  C9  UNL     1     -36.008  14.748  -3.783  1.00 20.00     0.022 C 
HETATM    8  C4  UNL     1     -36.433  14.941  -5.242  1.00 20.00    -0.082 C 
HETATM    9  C2  UNL     1     -35.361  14.680  -6.015  1.00 20.00    -0.019 C 
HETATM   10  C12 UNL     1     -37.774  15.431  -5.634  1.00 20.00     0.043 C 
HETATM   11  C7  UNL     1     -34.252  14.193  -5.111  1.00 20.00     0.014 C 
HETATM   12  C6  UNL     1     -35.162  13.493  -4.054  1.00 20.00     0.018 C 
ENDBRANCH   4   7
TORSDOF 2
ENDMDL
MODEL 7
REMARK VINA RESULT:      -4.4      1.452      2.123
REMARK  2 active torsions:
REMARK  status: ('A' for Active; 'I' for Inactive)
REMARK    1  A    between atoms: C7_7  and  C10_10 
REMARK    2  A    between atoms: C8_8  and  C9_9 
ROOT
HETATM    1  C1  UNL     1     -36.167  16.724  -2.792  1.00 20.00    -0.019 C 
HETATM    2  C3  UNL     1     -36.208  17.757  -1.915  1.00 20.00    -0.087 C 
HETATM    3  C5  UNL     1     -34.897  17.883  -1.125  1.00 20.00     0.039 C 
HETATM    4  C8  UNL     1     -34.768  16.223  -2.819  1.00 20.00     0.021 C 
HETATM    5  C10 UNL     1     -34.472  16.450  -1.313  1.00 20.00     0.005 C 
HETATM    6  C11 UNL     1     -37.346  18.676  -1.661  1.00 20.00     0.043 C 
ENDROOT
BRANCH   4   7
HETATM    7  C9  UNL     1     -34.015  14.890  -3.055  1.00 20.00     0.022 C 
HETATM    8  C4  UNL     1     -34.579  14.437  -4.406  1.00 20.00    -0.082 C 
HETATM    9  C2  UNL     1     -34.155  15.315  -5.337  1.00 20.00    -0.019 C 
HETATM   10  C12 UNL     1     -35.503  13.289  -4.552  1.00 20.00     0.043 C 
HETATM   11  C7  UNL     1     -33.212  16.282  -4.659  1.00 20.00     0.014 C 
HETATM   12  C6  UNL     1     -32.636  15.282  -3.609  1.00 20.00     0.018 C 
ENDBRANCH   4   7
TORSDOF 2
ENDMDL
MODEL 8
REMARK VINA RESULT:      -4.4      1.261      4.383
REMARK  2 active torsions:
REMARK  status: ('A' for Active; 'I' for Inactive)
REMARK    1  A    between atoms: C7_7  and  C10_10 
REMARK    2  A    between atoms: C8_8  and  C9_9 
ROOT
HETATM    1  C1  UNL     1     -35.358  15.485  -3.003  1.00 20.00    -0.019 C 
HETATM    2  C3  UNL     1     -34.464  14.651  -3.588  1.00 20.00    -0.087 C 
HETATM    3  C5  UNL     1     -33.088  15.315  -3.749  1.00 20.00     0.039 C 
HETATM    4  C8  UNL     1     -34.606  16.676  -2.529  1.00 20.00     0.021 C 
HETATM    5  C10 UNL     1     -33.602  16.731  -3.711  1.00 20.00     0.005 C 
HETATM    6  C11 UNL     1     -34.708  13.270  -4.074  1.00 20.00     0.043 C 
ENDROOT
BRANCH   4   7
HETATM    7  C9  UNL     1     -34.850  18.188  -2.298  1.00 20.00     0.022 C 
HETATM    8  C4  UNL     1     -35.869  18.179  -1.154  1.00 20.00    -0.082 C 
HETATM    9  C2  UNL     1     -35.247  17.695  -0.061  1.00 20.00    -0.019 C 
HETATM   10  C12 UNL     1     -37.290  18.552  -1.335  1.00 20.00     0.043 C 
HETATM   11  C7  UNL     1     -33.792  17.494  -0.413  1.00 20.00     0.014 C 
HETATM   12  C6  UNL     1     -33.677  18.673  -1.430  1.00 20.00     0.018 C 
ENDBRANCH   4   7
TORSDOF 2
ENDMDL
MODEL 9
REMARK VINA RESULT:      -4.4      1.203      1.421
REMARK  2 active torsions:
REMARK  status: ('A' for Active; 'I' for Inactive)
REMARK    1  A    between atoms: C7_7  and  C10_10 
REMARK    2  A    between atoms: C8_8  and  C9_9 
ROOT
HETATM    1  C1  UNL     1     -34.844  16.755  -0.268  1.00 20.00    -0.019 C 
HETATM    2  C3  UNL     1     -34.705  17.738   0.655  1.00 20.00    -0.087 C 
HETATM    3  C5  UNL     1     -33.938  18.943   0.089  1.00 20.00     0.039 C 
HETATM    4  C8  UNL     1     -34.385  17.304  -1.571  1.00 20.00     0.021 C 
HETATM    5  C10 UNL     1     -33.235  18.174  -0.999  1.00 20.00     0.005 C 
HETATM    6  C11 UNL     1     -35.173  17.721   2.063  1.00 20.00     0.043 C 
ENDROOT
BRANCH   4   7
HETATM    7  C9  UNL     1     -33.729  16.797  -2.879  1.00 20.00     0.022 C 
HETATM    8  C4  UNL     1     -34.817  15.885  -3.453  1.00 20.00    -0.082 C 
HETATM    9  C2  UNL     1     -35.861  16.666  -3.797  1.00 20.00    -0.019 C 
HETATM   10  C12 UNL     1     -34.700  14.409  -3.487  1.00 20.00     0.043 C 
HETATM   11  C7  UNL     1     -35.448  18.103  -3.581  1.00 20.00     0.014 C 
HETATM   12  C6  UNL     1     -33.934  17.919  -3.911  1.00 20.00     0.018 C 
ENDBRANCH   4   7
TORSDOF 2
ENDMDL
