MODEL 1
REMARK VINA RESULT:      -4.5      0.000      0.000
REMARK  2 active torsions:
REMARK  status: ('A' for Active; 'I' for Inactive)
REMARK    1  A    between atoms: C7_7  and  C9_9 
REMARK    2  A    between atoms: C8_8  and  C10_10 
ROOT
HETATM    1  C1  UNL     1     -34.194  17.386  -0.227  1.00 20.00    -0.030 C 
HETATM    2  C2  UNL     1     -34.815  16.469  -1.003  1.00 20.00    -0.025 C 
HETATM    3  C5  UNL     1     -33.291  18.310  -1.049  1.00 20.00     0.032 C 
HETATM    4  C9  UNL     1     -34.216  16.559  -2.360  1.00 20.00     0.020 C 
HETATM    5  C10 UNL     1     -34.009  18.098  -2.355  1.00 20.00     0.005 C 
ENDROOT
BRANCH   4   6
HETATM    6  C7  UNL     1     -34.635  16.341  -3.836  1.00 20.00     0.016 C 
HETATM    7  C3  UNL     1     -35.065  14.874  -3.833  1.00 20.00    -0.025 C 
HETATM    8  C4  UNL     1     -33.963  14.132  -3.610  1.00 20.00    -0.025 C 
HETATM    9  C8  UNL     1     -32.777  15.066  -3.589  1.00 20.00     0.013 C 
HETATM   10  C6  UNL     1     -33.331  16.103  -4.613  1.00 20.00     0.018 C 
ENDBRANCH   4   6
TORSDOF 2
ENDMDL
MODEL 2
REMARK VINA RESULT:      -4.5      0.852      3.835
REMARK  2 active torsions:
REMARK  status: ('A' for Active; 'I' for Inactive)
REMARK    1  A    between atoms: C7_7  and  C9_9 
REMARK    2  A    between atoms: C8_8  and  C10_10 
ROOT
HETATM    1  C1  UNL     1     -33.288  13.804  -3.853  1.00 20.00    -0.030 C 
HETATM    2  C2  UNL     1     -32.935  15.075  -3.556  1.00 20.00    -0.025 C 
HETATM    3  C5  UNL     1     -34.805  13.604  -3.785  1.00 20.00     0.032 C 
HETATM    4  C9  UNL     1     -34.150  15.766  -3.052  1.00 20.00     0.020 C 
HETATM    5  C10 UNL     1     -35.156  15.053  -3.995  1.00 20.00     0.005 C 
ENDROOT
BRANCH   4   6
HETATM    6  C7  UNL     1     -34.754  17.193  -3.030  1.00 20.00     0.016 C 
HETATM    7  C3  UNL     1     -33.654  17.996  -2.338  1.00 20.00    -0.025 C 
HETATM    8  C4  UNL     1     -33.583  17.567  -1.063  1.00 20.00    -0.025 C 
HETATM    9  C8  UNL     1     -34.702  16.576  -0.849  1.00 20.00     0.013 C 
HETATM   10  C6  UNL     1     -35.721  17.222  -1.837  1.00 20.00     0.018 C 
ENDBRANCH   4   6
TORSDOF 2
ENDMDL
MODEL 3
REMARK VINA RESULT:      -4.4      1.185      2.091
REMARK  2 active torsions:
REMARK  status: ('A' for Active; 'I' for Inactive)
REMARK    1  A    between atoms: C7_7  and  C9_9 
REMARK    2  A    between atoms: C8_8  and  C10_10 
ROOT
HETATM    1  C1  UNL     1     -35.771  17.351  -1.964  1.00 20.00    -0.030 C 
HETATM    2  C2  UNL     1     -35.594  16.987  -3.255  1.00 20.00    -0.025 C 
HETATM    3  C5  UNL     1     -34.759  16.672  -1.037  1.00 20.00     0.032 C 
HETATM    4  C9  UNL     1     -34.606  15.878  -3.270  1.00 20.00     0.020 C 
HETATM    5  C10 UNL     1     -33.730  16.411  -2.105  1.00 20.00     0.005 C 
ENDROOT
BRANCH   4   6
HETATM    6  C7  UNL     1     -33.508  15.308  -4.203  1.00 20.00     0.016 C 
HETATM    7  C3  UNL     1     -34.276  15.091  -5.506  1.00 20.00    -0.025 C 
HETATM    8  C4  UNL     1     -35.172  14.110  -5.288  1.00 20.00    -0.025 C 
HETATM    9  C8  UNL     1     -34.935  13.573  -3.896  1.00 20.00     0.013 C 
HETATM   10  C6  UNL     1     -33.395  13.815  -3.858  1.00 20.00     0.018 C 
ENDBRANCH   4   6
TORSDOF 2
ENDMDL
MODEL 4
REMARK VINA RESULT:      -4.4      2.108      3.936
REMARK  2 active torsions:
REMARK  status: ('A' for Active; 'I' for Inactive)
REMARK    1  A    between atoms: C7_7  and  C9_9 
REMARK    2  A    between atoms: C8_8  and  C10_10 
ROOT
HETATM    1  C1  UNL     1     -34.457  16.723  -7.318  1.00 20.00    -0.030 C 
HETATM    2  C2  UNL     1     -34.210  15.514  -6.762  1.00 20.00    -0.025 C 
HETATM    3  C5  UNL     1     -34.380  17.851  -6.285  1.00 20.00     0.032 C 
HETATM    4  C9  UNL     1     -34.168  15.705  -5.289  1.00 20.00     0.020 C 
HETATM    5  C10 UNL     1     -33.500  17.106  -5.316  1.00 20.00     0.005 C 
ENDROOT
BRANCH   4   6
HETATM    6  C7  UNL     1     -33.466  15.087  -4.053  1.00 20.00     0.016 C 
HETATM    7  C3  UNL     1     -33.811  13.605  -4.197  1.00 20.00    -0.025 C 
HETATM    8  C4  UNL     1     -35.139  13.481  -4.012  1.00 20.00    -0.025 C 
HETATM    9  C8  UNL     1     -35.677  14.837  -3.621  1.00 20.00     0.013 C 
HETATM   10  C6  UNL     1     -34.408  15.335  -2.866  1.00 20.00     0.018 C 
ENDBRANCH   4   6
TORSDOF 2
ENDMDL
MODEL 5
REMARK VINA RESULT:      -4.4      1.920      4.291
REMARK  2 active torsions:
REMARK  status: ('A' for Active; 'I' for Inactive)
REMARK    1  A    between atoms: C7_7  and  C9_9 
REMARK    2  A    between atoms: C8_8  and  C10_10 
ROOT
HETATM    1  C1  UNL     1     -35.097  16.464  -7.208  1.00 20.00    -0.030 C 
HETATM    2  C2  UNL     1     -35.422  16.582  -5.900  1.00 20.00    -0.025 C 
HETATM    3  C5  UNL     1     -34.459  15.107  -7.515  1.00 20.00     0.032 C 
HETATM    4  C9  UNL     1     -34.832  15.417  -5.191  1.00 20.00     0.020 C 
HETATM    5  C10 UNL     1     -35.055  14.390  -6.333  1.00 20.00     0.005 C 
ENDROOT
BRANCH   4   6
HETATM    6  C7  UNL     1     -35.134  14.530  -3.957  1.00 20.00     0.016 C 
HETATM    7  C3  UNL     1     -35.031  15.532  -2.808  1.00 20.00    -0.025 C 
HETATM    8  C4  UNL     1     -33.743  15.918  -2.724  1.00 20.00    -0.025 C 
HETATM    9  C8  UNL     1     -32.952  15.098  -3.715  1.00 20.00     0.013 C 
HETATM   10  C6  UNL     1     -33.820  13.805  -3.628  1.00 20.00     0.018 C 
ENDBRANCH   4   6
TORSDOF 2
ENDMDL
MODEL 6
REMARK VINA RESULT:      -4.2      1.830      4.322
REMARK  2 active torsions:
REMARK  status: ('A' for Active; 'I' for Inactive)
REMARK    1  A    between atoms: C7_7  and  C9_9 
REMARK    2  A    between atoms: C8_8  and  C10_10 
ROOT
HETATM    1  C1  UNL     1     -36.562  15.153  -6.598  1.00 20.00    -0.030 C 
HETATM    2  C2  UNL     1     -36.539  15.378  -5.264  1.00 20.00    -0.025 C 
HETATM    3  C5  UNL     1     -35.316  14.397  -7.069  1.00 20.00     0.032 C 
HETATM    4  C9  UNL     1     -35.191  14.992  -4.773  1.00 20.00     0.020 C 
HETATM    5  C10 UNL     1     -34.998  13.785  -5.730  1.00 20.00     0.005 C 
ENDROOT
BRANCH   4   6
HETATM    6  C7  UNL     1     -34.536  14.432  -3.485  1.00 20.00     0.016 C 
HETATM    7  C3  UNL     1     -34.672  15.608  -2.519  1.00 20.00    -0.025 C 
HETATM    8  C4  UNL     1     -33.884  16.600  -2.976  1.00 20.00    -0.025 C 
HETATM    9  C8  UNL     1     -33.120  16.068  -4.165  1.00 20.00     0.013 C 
HETATM   10  C6  UNL     1     -33.020  14.589  -3.682  1.00 20.00     0.018 C 
ENDBRANCH   4   6
TORSDOF 2
ENDMDL
MODEL 7
REMARK VINA RESULT:      -4.2     12.030     13.394
REMARK  2 active torsions:
REMARK  status: ('A' for Active; 'I' for Inactive)
REMARK    1  A    between atoms: C7_7  and  C9_9 
REMARK    2  A    between atoms: C8_8  and  C10_10 
ROOT
HETATM    1  C1  UNL     1     -31.979   6.578   2.957  1.00 20.00    -0.030 C 
HETATM    2  C2  UNL     1     -32.645   6.886   4.094  1.00 20.00    -0.025 C 
HETATM    3  C5  UNL     1     -32.658   5.439   2.191  1.00 20.00     0.032 C 
HETATM    4  C9  UNL     1     -33.685   5.844   4.294  1.00 20.00     0.020 C 
HETATM    5  C10 UNL     1     -34.023   5.648   2.792  1.00 20.00     0.005 C 
ENDROOT
BRANCH   4   6
HETATM    6  C7  UNL     1     -35.098   5.712   4.915  1.00 20.00     0.016 C 
HETATM    7  C3  UNL     1     -34.789   5.694   6.412  1.00 20.00    -0.025 C 
HETATM    8  C4  UNL     1     -34.124   4.552   6.672  1.00 20.00    -0.025 C 
HETATM    9  C8  UNL     1     -34.089   3.740   5.399  1.00 20.00     0.013 C 
HETATM   10  C6  UNL     1     -35.458   4.221   4.829  1.00 20.00     0.018 C 
ENDBRANCH   4   6
TORSDOF 2
ENDMDL
MODEL 8
REMARK VINA RESULT:      -4.1      2.496      3.820
REMARK  2 active torsions:
REMARK  status: ('A' for Active; 'I' for Inactive)
REMARK    1  A    between atoms: C7_7  and  C9_9 
REMARK    2  A    between atoms: C8_8  and  C10_10 
ROOT
HETATM    1  C1  UNL     1     -33.628  13.618  -3.581  1.00 20.00    -0.030 C 
HETATM    2  C2  UNL     1     -34.746  13.656  -4.342  1.00 20.00    -0.025 C 
HETATM    3  C5  UNL     1     -32.806  14.903  -3.712  1.00 20.00     0.032 C 
HETATM    4  C9  UNL     1     -34.653  14.862  -5.205  1.00 20.00     0.020 C 
HETATM    5  C10 UNL     1     -33.955  15.770  -4.157  1.00 20.00     0.005 C 
ENDROOT
BRANCH   4   6
HETATM    6  C7  UNL     1     -35.598  15.890  -5.876  1.00 20.00     0.016 C 
HETATM    7  C3  UNL     1     -36.480  14.995  -6.745  1.00 20.00    -0.025 C 
HETATM    8  C4  UNL     1     -35.698  14.473  -7.710  1.00 20.00    -0.025 C 
HETATM    9  C8  UNL     1     -34.331  15.101  -7.582  1.00 20.00     0.013 C 
HETATM   10  C6  UNL     1     -34.806  16.487  -7.049  1.00 20.00     0.018 C 
ENDBRANCH   4   6
TORSDOF 2
ENDMDL
MODEL 9
REMARK VINA RESULT:      -4.1      2.035      3.521
REMARK  2 active torsions:
REMARK  status: ('A' for Active; 'I' for Inactive)
REMARK    1  A    between atoms: C7_7  and  C9_9 
REMARK    2  A    between atoms: C8_8  and  C10_10 
ROOT
HETATM    1  C1  UNL     1     -33.579  16.152  -2.755  1.00 20.00    -0.030 C 
HETATM    2  C2  UNL     1     -33.262  15.874  -4.040  1.00 20.00    -0.025 C 
HETATM    3  C5  UNL     1     -35.011  15.727  -2.417  1.00 20.00     0.032 C 
HETATM    4  C9  UNL     1     -34.513  15.451  -4.723  1.00 20.00     0.020 C 
HETATM    5  C10 UNL     1     -35.123  14.698  -3.510  1.00 20.00     0.005 C 
ENDROOT
BRANCH   4   6
HETATM    6  C7  UNL     1     -34.951  14.517  -5.878  1.00 20.00     0.016 C 
HETATM    7  C3  UNL     1     -34.251  15.146  -7.082  1.00 20.00    -0.025 C 
HETATM    8  C4  UNL     1     -34.819  16.348  -7.296  1.00 20.00    -0.025 C 
HETATM    9  C8  UNL     1     -35.976  16.486  -6.335  1.00 20.00     0.013 C 
HETATM   10  C6  UNL     1     -36.360  14.976  -6.280  1.00 20.00     0.018 C 
ENDBRANCH   4   6
TORSDOF 2
ENDMDL
