MODEL 1
REMARK VINA RESULT:      -4.9      0.000      0.000
REMARK  0 active torsions:
REMARK  status: ('A' for Active; 'I' for Inactive)
ROOT
HETATM    1  C1  UNL     1     -33.972   5.019   2.890  1.00 20.00    -0.025 A 
HETATM    2  C2  UNL     1     -33.181   6.087   3.032  1.00 20.00    -0.025 A 
HETATM    3  C3  UNL     1     -35.103   3.902   4.877  1.00 20.00     0.009 C 
HETATM    4  C4  UNL     1     -32.685   7.072   5.313  1.00 20.00     0.009 C 
HETATM    5  C5  UNL     1     -34.251   4.446   6.019  1.00 20.00     0.005 C 
HETATM    6  C6  UNL     1     -33.558   6.869   6.547  1.00 20.00     0.005 C 
HETATM    7  C7  UNL     1     -35.130   5.024   3.839  1.00 20.00     0.013 A 
HETATM    8  C8  UNL     1     -33.644   6.997   4.121  1.00 20.00     0.013 A 
HETATM    9  C9  UNL     1     -34.655   5.919   6.089  1.00 20.00    -0.009 C 
HETATM   10  C10 UNL     1     -34.929   6.321   4.637  1.00 20.00     0.005 A 
ENDROOT
TORSDOF 0
ENDMDL
MODEL 2
REMARK VINA RESULT:      -4.8     12.095     13.342
REMARK  0 active torsions:
REMARK  status: ('A' for Active; 'I' for Inactive)
ROOT
HETATM    1  C1  UNL     1     -34.447  14.968  -6.621  1.00 20.00    -0.025 A 
HETATM    2  C2  UNL     1     -34.107  16.220  -6.303  1.00 20.00    -0.025 A 
HETATM    3  C3  UNL     1     -34.618  13.129  -4.871  1.00 20.00     0.009 C 
HETATM    4  C4  UNL     1     -33.543  16.874  -3.921  1.00 20.00     0.009 C 
HETATM    5  C5  UNL     1     -33.811  13.753  -3.736  1.00 20.00     0.005 C 
HETATM    6  C6  UNL     1     -33.988  16.097  -2.686  1.00 20.00     0.005 C 
HETATM    7  C7  UNL     1     -35.288  14.310  -5.571  1.00 20.00     0.013 A 
HETATM    8  C8  UNL     1     -34.634  16.632  -4.967  1.00 20.00     0.013 A 
HETATM    9  C9  UNL     1     -34.716  14.881  -3.240  1.00 20.00    -0.009 C 
HETATM   10  C10 UNL     1     -35.426  15.398  -4.495  1.00 20.00     0.005 A 
ENDROOT
TORSDOF 0
ENDMDL
MODEL 3
REMARK VINA RESULT:      -4.8     12.217     13.754
REMARK  0 active torsions:
REMARK  status: ('A' for Active; 'I' for Inactive)
ROOT
HETATM    1  C1  UNL     1     -34.278  13.616  -3.635  1.00 20.00    -0.025 A 
HETATM    2  C2  UNL     1     -34.563  13.232  -4.882  1.00 20.00    -0.025 A 
HETATM    3  C3  UNL     1     -33.657  16.018  -3.069  1.00 20.00     0.009 C 
HETATM    4  C4  UNL     1     -34.457  14.856  -6.824  1.00 20.00     0.009 C 
HETATM    5  C5  UNL     1     -33.273  16.535  -4.452  1.00 20.00     0.005 C 
HETATM    6  C6  UNL     1     -34.547  16.372  -6.683  1.00 20.00     0.005 C 
HETATM    7  C7  UNL     1     -34.766  14.998  -3.326  1.00 20.00     0.013 A 
HETATM    8  C8  UNL     1     -35.273  14.293  -5.656  1.00 20.00     0.013 A 
HETATM    9  C9  UNL     1     -34.613  16.616  -5.183  1.00 20.00    -0.009 C 
HETATM   10  C10 UNL     1     -35.430  15.440  -4.639  1.00 20.00     0.005 A 
ENDROOT
TORSDOF 0
ENDMDL
MODEL 4
REMARK VINA RESULT:      -4.7     12.255     13.637
REMARK  0 active torsions:
REMARK  status: ('A' for Active; 'I' for Inactive)
ROOT
HETATM    1  C1  UNL     1     -33.861  17.820  -3.404  1.00 20.00    -0.025 A 
HETATM    2  C2  UNL     1     -33.614  17.671  -4.708  1.00 20.00    -0.025 A 
HETATM    3  C3  UNL     1     -34.915  15.972  -2.008  1.00 20.00     0.009 C 
HETATM    4  C4  UNL     1     -34.226  15.540  -5.936  1.00 20.00     0.009 C 
HETATM    5  C5  UNL     1     -35.519  15.106  -3.110  1.00 20.00     0.005 C 
HETATM    6  C6  UNL     1     -34.441  14.190  -5.261  1.00 20.00     0.005 C 
HETATM    7  C7  UNL     1     -33.646  16.560  -2.624  1.00 20.00     0.013 A 
HETATM    8  C8  UNL     1     -33.211  16.275  -5.055  1.00 20.00     0.013 A 
HETATM    9  C9  UNL     1     -34.295  14.475  -3.774  1.00 20.00    -0.009 C 
HETATM   10  C10 UNL     1     -33.207  15.551  -3.695  1.00 20.00     0.005 A 
ENDROOT
TORSDOF 0
ENDMDL
MODEL 5
REMARK VINA RESULT:      -4.6     12.145     13.618
REMARK  0 active torsions:
REMARK  status: ('A' for Active; 'I' for Inactive)
ROOT
HETATM    1  C1  UNL     1     -34.670  15.561  -2.547  1.00 20.00    -0.025 A 
HETATM    2  C2  UNL     1     -33.766  16.419  -3.028  1.00 20.00    -0.025 A 
HETATM    3  C3  UNL     1     -36.224  14.241  -4.070  1.00 20.00     0.009 C 
HETATM    4  C4  UNL     1     -33.551  16.859  -5.514  1.00 20.00     0.009 C 
HETATM    5  C5  UNL     1     -36.121  15.065  -5.349  1.00 20.00     0.005 C 
HETATM    6  C6  UNL     1     -34.035  15.905  -6.602  1.00 20.00     0.005 C 
HETATM    7  C7  UNL     1     -34.847  14.355  -3.417  1.00 20.00     0.013 A 
HETATM    8  C8  UNL     1     -33.184  15.965  -4.326  1.00 20.00     0.013 A 
HETATM    9  C9  UNL     1     -34.706  14.768  -5.846  1.00 20.00    -0.009 C 
HETATM   10  C10 UNL     1     -33.868  14.606  -4.574  1.00 20.00     0.005 A 
ENDROOT
TORSDOF 0
ENDMDL
MODEL 6
REMARK VINA RESULT:      -4.6     12.089     13.514
REMARK  0 active torsions:
REMARK  status: ('A' for Active; 'I' for Inactive)
ROOT
HETATM    1  C1  UNL     1     -33.220  16.660  -5.125  1.00 20.00    -0.025 A 
HETATM    2  C2  UNL     1     -34.012  16.199  -6.098  1.00 20.00    -0.025 A 
HETATM    3  C3  UNL     1     -33.700  16.211  -2.666  1.00 20.00     0.009 C 
HETATM    4  C4  UNL     1     -36.110  14.875  -5.581  1.00 20.00     0.009 C 
HETATM    5  C5  UNL     1     -35.174  15.825  -2.740  1.00 20.00     0.005 C 
HETATM    6  C6  UNL     1     -36.356  14.129  -4.274  1.00 20.00     0.005 C 
HETATM    7  C7  UNL     1     -33.096  15.706  -3.977  1.00 20.00     0.013 A 
HETATM    8  C8  UNL     1     -34.591  14.861  -5.775  1.00 20.00     0.013 A 
HETATM    9  C9  UNL     1     -35.145  14.452  -3.412  1.00 20.00    -0.009 C 
HETATM   10  C10 UNL     1     -33.978  14.522  -4.402  1.00 20.00     0.005 A 
ENDROOT
TORSDOF 0
ENDMDL
MODEL 7
REMARK VINA RESULT:      -4.5     12.193     13.543
REMARK  0 active torsions:
REMARK  status: ('A' for Active; 'I' for Inactive)
ROOT
HETATM    1  C1  UNL     1     -36.082  14.753  -5.629  1.00 20.00    -0.025 A 
HETATM    2  C2  UNL     1     -36.410  14.685  -4.336  1.00 20.00    -0.025 A 
HETATM    3  C3  UNL     1     -33.964  15.917  -6.427  1.00 20.00     0.009 C 
HETATM    4  C4  UNL     1     -34.976  15.765  -2.549  1.00 20.00     0.009 C 
HETATM    5  C5  UNL     1     -33.646  16.774  -5.206  1.00 20.00     0.005 C 
HETATM    6  C6  UNL     1     -33.501  16.111  -2.722  1.00 20.00     0.005 C 
HETATM    7  C7  UNL     1     -34.606  14.651  -5.860  1.00 20.00     0.013 A 
HETATM    8  C8  UNL     1     -35.215  14.551  -3.452  1.00 20.00     0.013 A 
HETATM    9  C9  UNL     1     -33.188  15.750  -4.166  1.00 20.00    -0.009 C 
HETATM   10  C10 UNL     1     -34.035  14.504  -4.442  1.00 20.00     0.005 A 
ENDROOT
TORSDOF 0
ENDMDL
MODEL 8
REMARK VINA RESULT:      -4.5      8.961     10.201
REMARK  0 active torsions:
REMARK  status: ('A' for Active; 'I' for Inactive)
ROOT
HETATM    1  C1  UNL     1     -43.047   5.800  -3.262  1.00 20.00    -0.025 A 
HETATM    2  C2  UNL     1     -42.716   6.998  -2.774  1.00 20.00    -0.025 A 
HETATM    3  C3  UNL     1     -42.082   3.643  -2.316  1.00 20.00     0.009 C 
HETATM    4  C4  UNL     1     -41.044   7.244  -0.886  1.00 20.00     0.009 C 
HETATM    5  C5  UNL     1     -40.863   4.188  -1.577  1.00 20.00     0.005 C 
HETATM    6  C6  UNL     1     -40.689   6.135   0.099  1.00 20.00     0.005 C 
HETATM    7  C7  UNL     1     -43.135   4.745  -2.202  1.00 20.00     0.013 A 
HETATM    8  C8  UNL     1     -42.494   6.971  -1.297  1.00 20.00     0.013 A 
HETATM    9  C9  UNL     1     -41.475   4.925  -0.385  1.00 20.00    -0.009 C 
HETATM   10  C10 UNL     1     -42.789   5.508  -0.914  1.00 20.00     0.005 A 
ENDROOT
TORSDOF 0
ENDMDL
MODEL 9
REMARK VINA RESULT:      -4.5     12.264     13.821
REMARK  0 active torsions:
REMARK  status: ('A' for Active; 'I' for Inactive)
ROOT
HETATM    1  C1  UNL     1     -33.692  17.082  -4.216  1.00 20.00    -0.025 A 
HETATM    2  C2  UNL     1     -33.450  16.141  -3.299  1.00 20.00    -0.025 A 
HETATM    3  C3  UNL     1     -34.628  16.518  -6.514  1.00 20.00     0.009 C 
HETATM    4  C4  UNL     1     -33.849  13.687  -3.783  1.00 20.00     0.009 C 
HETATM    5  C5  UNL     1     -34.310  15.028  -6.583  1.00 20.00     0.005 C 
HETATM    6  C6  UNL     1     -34.783  13.164  -4.870  1.00 20.00     0.005 C 
HETATM    7  C7  UNL     1     -34.910  16.792  -5.037  1.00 20.00     0.013 A 
HETATM    8  C8  UNL     1     -34.445  15.029  -3.348  1.00 20.00     0.013 A 
HETATM    9  C9  UNL     1     -35.286  14.414  -5.577  1.00 20.00    -0.009 C 
HETATM   10  C10 UNL     1     -35.415  15.459  -4.465  1.00 20.00     0.005 A 
ENDROOT
TORSDOF 0
ENDMDL
