MODEL 1
REMARK VINA RESULT:      -4.8      0.000      0.000
REMARK  1 active torsions:
REMARK  status: ('A' for Active; 'I' for Inactive)
REMARK    1  A    between atoms: C1_1  and  C2_2 
ROOT
HETATM    1  C2  UNL     1     -34.949   4.957   4.540  1.00 20.00     0.363 C 
HETATM    2  F4  UNL     1     -34.916   3.626   4.280  1.00 20.00    -0.183 F 
HETATM    3  F5  UNL     1     -36.161   5.404   4.119  1.00 20.00    -0.183 F 
HETATM    4 CL7  UNL     1     -33.683   5.780   3.611  1.00 20.00    -0.044 Cl
ENDROOT
BRANCH   1   5
HETATM    5  C1  UNL     1     -34.834   5.198   6.033  1.00 20.00     0.353 C 
HETATM    6  F3  UNL     1     -34.147   4.153   6.576  1.00 20.00    -0.225 F 
HETATM    7 CL6  UNL     1     -33.958   6.696   6.415  1.00 20.00    -0.082 Cl
ENDBRANCH   1   5
TORSDOF 1
ENDMDL
MODEL 2
REMARK VINA RESULT:      -4.7      0.884      2.743
REMARK  1 active torsions:
REMARK  status: ('A' for Active; 'I' for Inactive)
REMARK    1  A    between atoms: C1_1  and  C2_2 
ROOT
HETATM    1  C2  UNL     1     -34.597   4.932   5.768  1.00 20.00     0.363 C 
HETATM    2  F4  UNL     1     -35.744   4.587   6.407  1.00 20.00    -0.183 F 
HETATM    3  F5  UNL     1     -33.681   3.977   6.076  1.00 20.00    -0.183 F 
HETATM    4 CL7  UNL     1     -34.020   6.494   6.376  1.00 20.00    -0.044 Cl
ENDROOT
BRANCH   1   5
HETATM    5  C1  UNL     1     -34.818   4.928   4.268  1.00 20.00     0.353 C 
HETATM    6  F3  UNL     1     -36.075   5.397   4.026  1.00 20.00    -0.225 F 
HETATM    7 CL6  UNL     1     -33.663   5.969   3.408  1.00 20.00    -0.082 Cl
ENDBRANCH   1   5
TORSDOF 1
ENDMDL
MODEL 3
REMARK VINA RESULT:      -4.7      2.041      2.469
REMARK  1 active torsions:
REMARK  status: ('A' for Active; 'I' for Inactive)
REMARK    1  A    between atoms: C1_1  and  C2_2 
ROOT
HETATM    1  C2  UNL     1     -34.881   5.322   3.773  1.00 20.00     0.363 C 
HETATM    2  F4  UNL     1     -36.112   5.791   3.447  1.00 20.00    -0.183 F 
HETATM    3  F5  UNL     1     -34.353   4.801   2.635  1.00 20.00    -0.183 F 
HETATM    4 CL7  UNL     1     -35.032   4.030   4.977  1.00 20.00    -0.044 Cl
ENDROOT
BRANCH   1   5
HETATM    5  C1  UNL     1     -33.999   6.463   4.241  1.00 20.00     0.353 C 
HETATM    6  F3  UNL     1     -33.820   6.333   5.586  1.00 20.00    -0.225 F 
HETATM    7 CL6  UNL     1     -32.400   6.449   3.466  1.00 20.00    -0.082 Cl
ENDBRANCH   1   5
TORSDOF 1
ENDMDL
MODEL 4
REMARK VINA RESULT:      -4.5      1.989      1.989
REMARK  1 active torsions:
REMARK  status: ('A' for Active; 'I' for Inactive)
REMARK    1  A    between atoms: C1_1  and  C2_2 
ROOT
HETATM    1  C2  UNL     1     -33.949   5.921   4.013  1.00 20.00     0.363 C 
HETATM    2  F4  UNL     1     -34.650   5.008   3.293  1.00 20.00    -0.183 F 
HETATM    3  F5  UNL     1     -34.615   7.099   3.897  1.00 20.00    -0.183 F 
HETATM    4 CL7  UNL     1     -32.327   6.111   3.322  1.00 20.00    -0.044 Cl
ENDROOT
BRANCH   1   5
HETATM    5  C1  UNL     1     -33.922   5.519   5.475  1.00 20.00     0.353 C 
HETATM    6  F3  UNL     1     -34.298   6.599   6.216  1.00 20.00    -0.225 F 
HETATM    7 CL6  UNL     1     -35.040   4.185   5.834  1.00 20.00    -0.082 Cl
ENDBRANCH   1   5
TORSDOF 1
ENDMDL
MODEL 5
REMARK VINA RESULT:      -4.4      1.320      2.682
REMARK  1 active torsions:
REMARK  status: ('A' for Active; 'I' for Inactive)
REMARK    1  A    between atoms: C1_1  and  C2_2 
ROOT
HETATM    1  C2  UNL     1     -34.955   4.937   4.557  1.00 20.00     0.363 C 
HETATM    2  F4  UNL     1     -36.107   5.438   4.043  1.00 20.00    -0.183 F 
HETATM    3  F5  UNL     1     -35.143   3.598   4.692  1.00 20.00    -0.183 F 
HETATM    4 CL7  UNL     1     -34.660   5.637   6.159  1.00 20.00    -0.044 Cl
ENDROOT
BRANCH   1   5
HETATM    5  C1  UNL     1     -33.810   5.172   3.592  1.00 20.00     0.353 C 
HETATM    6  F3  UNL     1     -34.327   5.237   2.332  1.00 20.00    -0.225 F 
HETATM    7 CL6  UNL     1     -32.948   6.692   3.916  1.00 20.00    -0.082 Cl
ENDBRANCH   1   5
TORSDOF 1
ENDMDL
MODEL 6
REMARK VINA RESULT:      -4.3      1.916      2.408
REMARK  1 active torsions:
REMARK  status: ('A' for Active; 'I' for Inactive)
REMARK    1  A    between atoms: C1_1  and  C2_2 
ROOT
HETATM    1  C2  UNL     1     -34.615   5.029   6.051  1.00 20.00     0.363 C 
HETATM    2  F4  UNL     1     -33.653   4.357   6.733  1.00 20.00    -0.183 F 
HETATM    3  F5  UNL     1     -35.666   5.167   6.901  1.00 20.00    -0.183 F 
HETATM    4 CL7  UNL     1     -35.135   4.073   4.651  1.00 20.00    -0.044 Cl
ENDROOT
BRANCH   1   5
HETATM    5  C1  UNL     1     -34.113   6.408   5.669  1.00 20.00     0.353 C 
HETATM    6  F3  UNL     1     -33.316   6.861   6.678  1.00 20.00    -0.225 F 
HETATM    7 CL6  UNL     1     -33.158   6.393   4.171  1.00 20.00    -0.082 Cl
ENDBRANCH   1   5
TORSDOF 1
ENDMDL
MODEL 7
REMARK VINA RESULT:      -4.3      2.126      2.790
REMARK  1 active torsions:
REMARK  status: ('A' for Active; 'I' for Inactive)
REMARK    1  A    between atoms: C1_1  and  C2_2 
ROOT
HETATM    1  C2  UNL     1     -33.959   6.263   4.587  1.00 20.00     0.363 C 
HETATM    2  F4  UNL     1     -32.735   5.888   4.137  1.00 20.00    -0.183 F 
HETATM    3  F5  UNL     1     -34.289   7.396   3.912  1.00 20.00    -0.183 F 
HETATM    4 CL7  UNL     1     -33.873   6.635   6.318  1.00 20.00    -0.044 Cl
ENDROOT
BRANCH   1   5
HETATM    5  C1  UNL     1     -34.982   5.191   4.265  1.00 20.00     0.353 C 
HETATM    6  F3  UNL     1     -34.689   4.685   3.034  1.00 20.00    -0.225 F 
HETATM    7 CL6  UNL     1     -34.956   3.853   5.435  1.00 20.00    -0.082 Cl
ENDBRANCH   1   5
TORSDOF 1
ENDMDL
MODEL 8
REMARK VINA RESULT:      -4.2      1.936      2.830
REMARK  1 active torsions:
REMARK  status: ('A' for Active; 'I' for Inactive)
REMARK    1  A    between atoms: C1_1  and  C2_2 
ROOT
HETATM    1  C2  UNL     1     -34.726   5.378   4.541  1.00 20.00     0.363 C 
HETATM    2  F4  UNL     1     -34.518   6.429   5.373  1.00 20.00    -0.183 F 
HETATM    3  F5  UNL     1     -35.916   5.603   3.925  1.00 20.00    -0.183 F 
HETATM    4 CL7  UNL     1     -34.845   3.882   5.484  1.00 20.00    -0.044 Cl
ENDROOT
BRANCH   1   5
HETATM    5  C1  UNL     1     -33.636   5.325   3.489  1.00 20.00     0.353 C 
HETATM    6  F3  UNL     1     -34.232   5.195   2.270  1.00 20.00    -0.225 F 
HETATM    7 CL6  UNL     1     -32.641   6.798   3.465  1.00 20.00    -0.082 Cl
ENDBRANCH   1   5
TORSDOF 1
ENDMDL
MODEL 9
REMARK VINA RESULT:      -4.2      2.323      2.588
REMARK  1 active torsions:
REMARK  status: ('A' for Active; 'I' for Inactive)
REMARK    1  A    between atoms: C1_1  and  C2_2 
ROOT
HETATM    1  C2  UNL     1     -34.023   6.125   4.306  1.00 20.00     0.363 C 
HETATM    2  F4  UNL     1     -34.070   7.471   4.144  1.00 20.00    -0.183 F 
HETATM    3  F5  UNL     1     -32.879   5.702   3.706  1.00 20.00    -0.183 F 
HETATM    4 CL7  UNL     1     -35.407   5.376   3.488  1.00 20.00    -0.044 Cl
ENDROOT
BRANCH   1   5
HETATM    5  C1  UNL     1     -33.955   5.781   5.781  1.00 20.00     0.353 C 
HETATM    6  F3  UNL     1     -34.282   6.898   6.490  1.00 20.00    -0.225 F 
HETATM    7 CL6  UNL     1     -35.087   4.487   6.232  1.00 20.00    -0.082 Cl
ENDBRANCH   1   5
TORSDOF 1
ENDMDL
