MODEL 1
REMARK VINA RESULT:      -4.4      0.000      0.000
REMARK  1 active torsions:
REMARK  status: ('A' for Active; 'I' for Inactive)
REMARK    1  A    between atoms: C3_3  and  C9_9 
ROOT
HETATM    1  C1  UNL     1     -34.356  14.606  -3.236  1.00 20.00     0.017 A 
HETATM    2  C2  UNL     1     -34.602  14.158  -4.566  1.00 20.00     0.028 A 
HETATM    3  C3  UNL     1     -33.996  15.935  -3.196  1.00 20.00    -0.012 A 
HETATM    4  C4  UNL     1     -34.422  15.163  -5.492  1.00 20.00     0.051 A 
HETATM    5  S10 UNL     1     -33.956  16.638  -4.757  1.00 20.00    -0.087 SA
HETATM    6 BR11 UNL     1     -34.656  14.954  -7.365  1.00 20.00    -0.043 Br
ENDROOT
BRANCH   3   7
HETATM    7  C9  UNL     1     -33.653  16.783  -1.988  1.00 20.00     0.026 C 
HETATM    8  C7  UNL     1     -34.644  16.608  -0.833  1.00 20.00     0.010 C 
HETATM    9  C5  UNL     1     -35.688  17.691  -1.057  1.00 20.00     0.001 C 
HETATM   10  C6  UNL     1     -34.901  18.873  -1.604  1.00 20.00     0.001 C 
HETATM   11  C8  UNL     1     -33.628  18.299  -2.234  1.00 20.00     0.010 C 
ENDBRANCH   3   7
TORSDOF 1
ENDMDL
MODEL 2
REMARK VINA RESULT:      -4.3      3.073      4.769
REMARK  1 active torsions:
REMARK  status: ('A' for Active; 'I' for Inactive)
REMARK    1  A    between atoms: C3_3  and  C9_9 
ROOT
HETATM    1  C1  UNL     1     -34.177  16.601  -1.238  1.00 20.00     0.017 A 
HETATM    2  C2  UNL     1     -34.920  17.320  -0.258  1.00 20.00     0.028 A 
HETATM    3  C3  UNL     1     -34.737  16.706  -2.492  1.00 20.00    -0.012 A 
HETATM    4  C4  UNL     1     -36.020  17.948  -0.800  1.00 20.00     0.051 A 
HETATM    5  S10 UNL     1     -36.154  17.669  -2.485  1.00 20.00    -0.087 SA
HETATM    6 BR11 UNL     1     -37.252  19.003   0.187  1.00 20.00    -0.043 Br
ENDROOT
BRANCH   3   7
HETATM    7  C9  UNL     1     -34.259  16.094  -3.793  1.00 20.00     0.026 C 
HETATM    8  C7  UNL     1     -35.299  15.173  -4.440  1.00 20.00     0.010 C 
HETATM    9  C5  UNL     1     -34.977  13.791  -3.894  1.00 20.00     0.001 C 
HETATM   10  C6  UNL     1     -33.459  13.764  -3.793  1.00 20.00     0.001 C 
HETATM   11  C8  UNL     1     -33.000  15.221  -3.686  1.00 20.00     0.010 C 
ENDBRANCH   3   7
TORSDOF 1
ENDMDL
MODEL 3
REMARK VINA RESULT:      -4.3      2.848      4.641
REMARK  1 active torsions:
REMARK  status: ('A' for Active; 'I' for Inactive)
REMARK    1  A    between atoms: C3_3  and  C9_9 
ROOT
HETATM    1  C1  UNL     1     -35.086  16.185  -1.686  1.00 20.00     0.017 A 
HETATM    2  C2  UNL     1     -34.385  16.974  -0.728  1.00 20.00     0.028 A 
HETATM    3  C3  UNL     1     -34.891  16.639  -2.972  1.00 20.00    -0.012 A 
HETATM    4  C4  UNL     1     -33.681  18.000  -1.319  1.00 20.00     0.051 A 
HETATM    5  S10 UNL     1     -33.867  18.011  -3.021  1.00 20.00    -0.087 SA
HETATM    6 BR11 UNL     1     -32.624  19.263  -0.372  1.00 20.00    -0.043 Br
ENDROOT
BRANCH   3   7
HETATM    7  C9  UNL     1     -35.456  16.084  -4.264  1.00 20.00     0.026 C 
HETATM    8  C7  UNL     1     -36.308  14.828  -4.054  1.00 20.00     0.010 C 
HETATM    9  C5  UNL     1     -35.331  13.674  -4.209  1.00 20.00     0.001 C 
HETATM   10  C6  UNL     1     -34.371  14.129  -5.297  1.00 20.00     0.001 C 
HETATM   11  C8  UNL     1     -34.414  15.659  -5.309  1.00 20.00     0.010 C 
ENDBRANCH   3   7
TORSDOF 1
ENDMDL
MODEL 4
REMARK VINA RESULT:      -4.3      2.549      3.713
REMARK  1 active torsions:
REMARK  status: ('A' for Active; 'I' for Inactive)
REMARK    1  A    between atoms: C3_3  and  C9_9 
ROOT
HETATM    1  C1  UNL     1     -35.217  14.314  -6.418  1.00 20.00     0.017 A 
HETATM    2  C2  UNL     1     -36.136  14.769  -7.409  1.00 20.00     0.028 A 
HETATM    3  C3  UNL     1     -35.694  14.512  -5.141  1.00 20.00    -0.012 A 
HETATM    4  C4  UNL     1     -37.280  15.295  -6.850  1.00 20.00     0.051 A 
HETATM    5  S10 UNL     1     -37.243  15.243  -5.139  1.00 20.00    -0.087 SA
HETATM    6 BR11 UNL     1     -38.735  16.002  -7.846  1.00 20.00    -0.043 Br
ENDROOT
BRANCH   3   7
HETATM    7  C9  UNL     1     -35.029  14.172  -3.823  1.00 20.00     0.026 C 
HETATM    8  C7  UNL     1     -34.902  15.379  -2.887  1.00 20.00     0.010 C 
HETATM    9  C5  UNL     1     -33.536  15.966  -3.205  1.00 20.00     0.001 C 
HETATM   10  C6  UNL     1     -32.658  14.758  -3.496  1.00 20.00     0.001 C 
HETATM   11  C8  UNL     1     -33.597  13.628  -3.929  1.00 20.00     0.010 C 
ENDBRANCH   3   7
TORSDOF 1
ENDMDL
MODEL 5
REMARK VINA RESULT:      -4.2      0.918      1.595
REMARK  1 active torsions:
REMARK  status: ('A' for Active; 'I' for Inactive)
REMARK    1  A    between atoms: C3_3  and  C9_9 
ROOT
HETATM    1  C1  UNL     1     -34.481  14.766  -3.299  1.00 20.00     0.017 A 
HETATM    2  C2  UNL     1     -34.352  14.242  -4.619  1.00 20.00     0.028 A 
HETATM    3  C3  UNL     1     -35.069  16.012  -3.293  1.00 20.00    -0.012 A 
HETATM    4  C4  UNL     1     -34.848  15.107  -5.569  1.00 20.00     0.051 A 
HETATM    5  S10 UNL     1     -35.463  16.545  -4.872  1.00 20.00    -0.087 SA
HETATM    6 BR11 UNL     1     -34.855  14.763  -7.437  1.00 20.00    -0.043 Br
ENDROOT
BRANCH   3   7
HETATM    7  C9  UNL     1     -35.380  16.901  -2.106  1.00 20.00     0.026 C 
HETATM    8  C7  UNL     1     -35.121  18.385  -2.386  1.00 20.00     0.010 C 
HETATM    9  C5  UNL     1     -33.687  18.613  -1.936  1.00 20.00     0.001 C 
HETATM   10  C6  UNL     1     -33.523  17.724  -0.712  1.00 20.00     0.001 C 
HETATM   11  C8  UNL     1     -34.568  16.611  -0.835  1.00 20.00     0.010 C 
ENDBRANCH   3   7
TORSDOF 1
ENDMDL
MODEL 6
REMARK VINA RESULT:      -4.2      2.811      4.938
REMARK  1 active torsions:
REMARK  status: ('A' for Active; 'I' for Inactive)
REMARK    1  A    between atoms: C3_3  and  C9_9 
ROOT
HETATM    1  C1  UNL     1     -33.518  15.398  -4.199  1.00 20.00     0.017 A 
HETATM    2  C2  UNL     1     -33.344  15.955  -2.899  1.00 20.00     0.028 A 
HETATM    3  C3  UNL     1     -34.848  15.229  -4.516  1.00 20.00    -0.012 A 
HETATM    4  C4  UNL     1     -34.548  16.192  -2.272  1.00 20.00     0.051 A 
HETATM    5  S10 UNL     1     -35.880  15.742  -3.249  1.00 20.00    -0.087 SA
HETATM    6 BR11 UNL     1     -34.727  16.929  -0.531  1.00 20.00    -0.043 Br
ENDROOT
BRANCH   3   7
HETATM    7  C9  UNL     1     -35.450  14.671  -5.789  1.00 20.00     0.026 C 
HETATM    8  C7  UNL     1     -34.566  14.899  -7.020  1.00 20.00     0.010 C 
HETATM    9  C5  UNL     1     -35.049  16.220  -7.597  1.00 20.00     0.001 C 
HETATM   10  C6  UNL     1     -36.552  16.214  -7.363  1.00 20.00     0.001 C 
HETATM   11  C8  UNL     1     -36.809  15.265  -6.189  1.00 20.00     0.010 C 
ENDBRANCH   3   7
TORSDOF 1
ENDMDL
MODEL 7
REMARK VINA RESULT:      -4.1      2.648      4.947
REMARK  1 active torsions:
REMARK  status: ('A' for Active; 'I' for Inactive)
REMARK    1  A    between atoms: C3_3  and  C9_9 
ROOT
HETATM    1  C1  UNL     1     -34.759  14.747  -4.120  1.00 20.00     0.017 A 
HETATM    2  C2  UNL     1     -34.644  15.244  -2.789  1.00 20.00     0.028 A 
HETATM    3  C3  UNL     1     -34.270  15.639  -5.049  1.00 20.00    -0.012 A 
HETATM    4  C4  UNL     1     -34.071  16.496  -2.752  1.00 20.00     0.051 A 
HETATM    5  S10 UNL     1     -33.675  17.069  -4.316  1.00 20.00    -0.087 SA
HETATM    6 BR11 UNL     1     -33.751  17.485  -1.162  1.00 20.00    -0.043 Br
ENDROOT
BRANCH   3   7
HETATM    7  C9  UNL     1     -34.209  15.493  -6.556  1.00 20.00     0.026 C 
HETATM    8  C7  UNL     1     -34.676  16.750  -7.298  1.00 20.00     0.010 C 
HETATM    9  C5  UNL     1     -36.162  16.527  -7.528  1.00 20.00     0.001 C 
HETATM   10  C6  UNL     1     -36.289  15.034  -7.794  1.00 20.00     0.001 C 
HETATM   11  C8  UNL     1     -35.073  14.368  -7.143  1.00 20.00     0.010 C 
ENDBRANCH   3   7
TORSDOF 1
ENDMDL
MODEL 8
REMARK VINA RESULT:      -4.1      3.388      4.758
REMARK  1 active torsions:
REMARK  status: ('A' for Active; 'I' for Inactive)
REMARK    1  A    between atoms: C3_3  and  C9_9 
ROOT
HETATM    1  C1  UNL     1     -34.453  16.348  -2.254  1.00 20.00     0.017 A 
HETATM    2  C2  UNL     1     -34.591  16.563  -0.852  1.00 20.00     0.028 A 
HETATM    3  C3  UNL     1     -33.933  17.449  -2.898  1.00 20.00    -0.012 A 
HETATM    4  C4  UNL     1     -34.171  17.821  -0.478  1.00 20.00     0.051 A 
HETATM    5  S10 UNL     1     -33.613  18.736  -1.814  1.00 20.00    -0.087 SA
HETATM    6 BR11 UNL     1     -34.199  18.479   1.303  1.00 20.00    -0.043 Br
ENDROOT
BRANCH   3   7
HETATM    7  C9  UNL     1     -33.635  17.625  -4.373  1.00 20.00     0.026 C 
HETATM    8  C7  UNL     1     -34.843  18.124  -5.172  1.00 20.00     0.010 C 
HETATM    9  C5  UNL     1     -35.529  16.857  -5.658  1.00 20.00     0.001 C 
HETATM   10  C6  UNL     1     -34.388  15.895  -5.957  1.00 20.00     0.001 C 
HETATM   11  C8  UNL     1     -33.195  16.352  -5.112  1.00 20.00     0.010 C 
ENDBRANCH   3   7
TORSDOF 1
ENDMDL
MODEL 9
REMARK VINA RESULT:      -4.0      2.059      3.013
REMARK  1 active torsions:
REMARK  status: ('A' for Active; 'I' for Inactive)
REMARK    1  A    between atoms: C3_3  and  C9_9 
ROOT
HETATM    1  C1  UNL     1     -34.406  14.780  -6.846  1.00 20.00     0.017 A 
HETATM    2  C2  UNL     1     -35.667  14.513  -7.453  1.00 20.00     0.028 A 
HETATM    3  C3  UNL     1     -34.484  15.794  -5.917  1.00 20.00    -0.012 A 
HETATM    4  C4  UNL     1     -36.661  15.333  -6.965  1.00 20.00     0.051 A 
HETATM    5  S10 UNL     1     -36.073  16.420  -5.780  1.00 20.00    -0.087 SA
HETATM    6 BR11 UNL     1     -38.474  15.278  -7.528  1.00 20.00    -0.043 Br
ENDROOT
BRANCH   3   7
HETATM    7  C9  UNL     1     -33.378  16.375  -5.060  1.00 20.00     0.026 C 
HETATM    8  C7  UNL     1     -32.985  15.465  -3.892  1.00 20.00     0.010 C 
HETATM    9  C5  UNL     1     -33.859  15.926  -2.737  1.00 20.00     0.001 C 
HETATM   10  C6  UNL     1     -33.962  17.434  -2.913  1.00 20.00     0.001 C 
HETATM   11  C8  UNL     1     -33.699  17.722  -4.394  1.00 20.00     0.010 C 
ENDBRANCH   3   7
TORSDOF 1
ENDMDL
