MODEL 1
REMARK VINA RESULT:      -4.0      0.000      0.000
REMARK  1 active torsions:
REMARK  status: ('A' for Active; 'I' for Inactive)
REMARK    1  A    between atoms: C4_4  and  C5_5 
ROOT
HETATM    1  C1  UNL     1     -32.432   7.114   2.815  1.00 20.00     0.059 C 
HETATM    2  C5  UNL     1     -32.846   5.832   3.378  1.00 20.00     0.132 C 
HETATM    3  N6  UNL     1     -32.086   8.124   2.358  1.00 20.00    -0.197 NA
ENDROOT
BRANCH   2   4
HETATM    4  C4  UNL     1     -34.105   6.144   4.157  1.00 20.00     0.046 C 
HETATM    5  C2  UNL     1     -33.971   6.220   5.683  1.00 20.00     0.175 C 
HETATM    6  O7  UNL     1     -35.047   5.269   5.863  1.00 20.00    -0.390 OA
HETATM    7  C3  UNL     1     -35.044   4.967   4.447  1.00 20.00     0.175 C 
ENDBRANCH   2   4
TORSDOF 1
ENDMDL
MODEL 2
REMARK VINA RESULT:      -3.5     11.111     11.522
REMARK  1 active torsions:
REMARK  status: ('A' for Active; 'I' for Inactive)
REMARK    1  A    between atoms: C4_4  and  C5_5 
ROOT
HETATM    1  C1  UNL     1     -34.472  16.180  -1.891  1.00 20.00     0.059 C 
HETATM    2  C5  UNL     1     -34.220  15.739  -3.260  1.00 20.00     0.132 C 
HETATM    3  N6  UNL     1     -34.668  16.550  -0.808  1.00 20.00    -0.197 NA
ENDROOT
BRANCH   2   4
HETATM    4  C4  UNL     1     -34.532  14.258  -3.250  1.00 20.00     0.046 C 
HETATM    5  C2  UNL     1     -33.579  13.347  -4.032  1.00 20.00     0.175 C 
HETATM    6  O7  UNL     1     -34.680  12.765  -4.771  1.00 20.00    -0.390 OA
HETATM    7  C3  UNL     1     -35.584  13.770  -4.254  1.00 20.00     0.175 C 
ENDBRANCH   2   4
TORSDOF 1
ENDMDL
MODEL 3
REMARK VINA RESULT:      -3.5      2.906      3.733
REMARK  1 active torsions:
REMARK  status: ('A' for Active; 'I' for Inactive)
REMARK    1  A    between atoms: C4_4  and  C5_5 
ROOT
HETATM    1  C1  UNL     1     -34.731   4.771   5.842  1.00 20.00     0.059 C 
HETATM    2  C5  UNL     1     -34.090   6.082   5.905  1.00 20.00     0.132 C 
HETATM    3  N6  UNL     1     -35.238   3.727   5.814  1.00 20.00    -0.197 NA
ENDROOT
BRANCH   2   4
HETATM    4  C4  UNL     1     -34.056   6.561   4.469  1.00 20.00     0.046 C 
HETATM    5  C2  UNL     1     -34.472   5.549   3.395  1.00 20.00     0.175 C 
HETATM    6  O7  UNL     1     -33.243   5.764   2.661  1.00 20.00    -0.390 OA
HETATM    7  C3  UNL     1     -32.694   6.524   3.764  1.00 20.00     0.175 C 
ENDBRANCH   2   4
TORSDOF 1
ENDMDL
MODEL 4
REMARK VINA RESULT:      -3.4     11.385     11.960
REMARK  1 active torsions:
REMARK  status: ('A' for Active; 'I' for Inactive)
REMARK    1  A    between atoms: C4_4  and  C5_5 
ROOT
HETATM    1  C1  UNL     1     -37.089  14.826  -3.605  1.00 20.00     0.059 C 
HETATM    2  C5  UNL     1     -35.798  15.449  -3.328  1.00 20.00     0.132 C 
HETATM    3  N6  UNL     1     -38.125  14.343  -3.810  1.00 20.00    -0.197 NA
ENDROOT
BRANCH   2   4
HETATM    4  C4  UNL     1     -34.831  14.760  -4.268  1.00 20.00     0.046 C 
HETATM    5  C2  UNL     1     -34.905  13.230  -4.333  1.00 20.00     0.175 C 
HETATM    6  O7  UNL     1     -33.487  13.111  -4.063  1.00 20.00    -0.390 OA
HETATM    7  C3  UNL     1     -33.411  14.520  -3.739  1.00 20.00     0.175 C 
ENDBRANCH   2   4
TORSDOF 1
ENDMDL
MODEL 5
REMARK VINA RESULT:      -3.4     11.602     12.037
REMARK  1 active torsions:
REMARK  status: ('A' for Active; 'I' for Inactive)
REMARK    1  A    between atoms: C4_4  and  C5_5 
ROOT
HETATM    1  C1  UNL     1     -35.140  13.678  -4.145  1.00 20.00     0.059 C 
HETATM    2  C5  UNL     1     -35.608  14.881  -3.463  1.00 20.00     0.132 C 
HETATM    3  N6  UNL     1     -34.789  12.718  -4.695  1.00 20.00    -0.197 NA
ENDROOT
BRANCH   2   4
HETATM    4  C4  UNL     1     -34.382  15.426  -2.762  1.00 20.00     0.046 C 
HETATM    5  C2  UNL     1     -34.626  16.335  -1.552  1.00 20.00     0.175 C 
HETATM    6  O7  UNL     1     -33.789  17.373  -2.114  1.00 20.00    -0.390 OA
HETATM    7  C3  UNL     1     -33.734  16.671  -3.379  1.00 20.00     0.175 C 
ENDBRANCH   2   4
TORSDOF 1
ENDMDL
MODEL 6
REMARK VINA RESULT:      -3.3     11.812     12.794
REMARK  1 active torsions:
REMARK  status: ('A' for Active; 'I' for Inactive)
REMARK    1  A    between atoms: C4_4  and  C5_5 
ROOT
HETATM    1  C1  UNL     1     -34.776  13.826  -3.834  1.00 20.00     0.059 C 
HETATM    2  C5  UNL     1     -34.838  15.070  -3.070  1.00 20.00     0.132 C 
HETATM    3  N6  UNL     1     -34.745  12.831  -4.431  1.00 20.00    -0.197 NA
ENDROOT
BRANCH   2   4
HETATM    4  C4  UNL     1     -33.627  15.857  -3.520  1.00 20.00     0.046 C 
HETATM    5  C2  UNL     1     -33.731  17.385  -3.447  1.00 20.00     0.175 C 
HETATM    6  O7  UNL     1     -33.343  17.516  -4.836  1.00 20.00    -0.390 OA
HETATM    7  C3  UNL     1     -33.478  16.088  -5.029  1.00 20.00     0.175 C 
ENDBRANCH   2   4
TORSDOF 1
ENDMDL
MODEL 7
REMARK VINA RESULT:      -3.3     12.108     12.670
REMARK  1 active torsions:
REMARK  status: ('A' for Active; 'I' for Inactive)
REMARK    1  A    between atoms: C4_4  and  C5_5 
ROOT
HETATM    1  C1  UNL     1     -34.763  16.641  -0.827  1.00 20.00     0.059 C 
HETATM    2  C5  UNL     1     -34.798  15.909  -2.091  1.00 20.00     0.132 C 
HETATM    3  N6  UNL     1     -34.755  17.214   0.182  1.00 20.00    -0.197 NA
ENDROOT
BRANCH   2   4
HETATM    4  C4  UNL     1     -33.500  16.273  -2.780  1.00 20.00     0.046 C 
HETATM    5  C2  UNL     1     -33.600  17.217  -3.983  1.00 20.00     0.175 C 
HETATM    6  O7  UNL     1     -32.861  16.294  -4.818  1.00 20.00    -0.390 OA
HETATM    7  C3  UNL     1     -32.959  15.266  -3.803  1.00 20.00     0.175 C 
ENDBRANCH   2   4
TORSDOF 1
ENDMDL
MODEL 8
REMARK VINA RESULT:      -3.2      2.352      3.109
REMARK  1 active torsions:
REMARK  status: ('A' for Active; 'I' for Inactive)
REMARK    1  A    between atoms: C4_4  and  C5_5 
ROOT
HETATM    1  C1  UNL     1     -34.124   6.296   6.517  1.00 20.00     0.059 C 
HETATM    2  C5  UNL     1     -34.903   5.082   6.284  1.00 20.00     0.132 C 
HETATM    3  N6  UNL     1     -33.511   7.260   6.722  1.00 20.00    -0.197 NA
ENDROOT
BRANCH   2   4
HETATM    4  C4  UNL     1     -34.667   4.749   4.826  1.00 20.00     0.046 C 
HETATM    5  C2  UNL     1     -33.579   5.551   4.104  1.00 20.00     0.175 C 
HETATM    6  O7  UNL     1     -34.498   5.921   3.048  1.00 20.00    -0.390 OA
HETATM    7  C3  UNL     1     -35.613   5.401   3.811  1.00 20.00     0.175 C 
ENDBRANCH   2   4
TORSDOF 1
ENDMDL
MODEL 9
REMARK VINA RESULT:      -3.2     11.817     12.467
REMARK  1 active torsions:
REMARK  status: ('A' for Active; 'I' for Inactive)
REMARK    1  A    between atoms: C4_4  and  C5_5 
ROOT
HETATM    1  C1  UNL     1     -36.328  14.080  -3.916  1.00 20.00     0.059 C 
HETATM    2  C5  UNL     1     -34.912  13.726  -3.944  1.00 20.00     0.132 C 
HETATM    3  N6  UNL     1     -37.459  14.342  -3.899  1.00 20.00    -0.197 NA
ENDROOT
BRANCH   2   4
HETATM    4  C4  UNL     1     -34.188  15.008  -3.594  1.00 20.00     0.046 C 
HETATM    5  C2  UNL     1     -34.172  16.105  -4.666  1.00 20.00     0.175 C 
HETATM    6  O7  UNL     1     -32.729  16.206  -4.593  1.00 20.00    -0.390 OA
HETATM    7  C3  UNL     1     -32.666  15.012  -3.778  1.00 20.00     0.175 C 
ENDBRANCH   2   4
TORSDOF 1
ENDMDL
