MODEL 1
REMARK VINA RESULT:      -4.4      0.000      0.000
REMARK  0 active torsions:
REMARK  status: ('A' for Active; 'I' for Inactive)
ROOT
HETATM    1  C1  UNL     1     -35.049  13.698  -4.770  1.00 20.00     0.136 C 
HETATM    2  C2  UNL     1     -34.939  14.450  -3.460  1.00 20.00     0.088 C 
HETATM    3  C3  UNL     1     -35.448  14.493  -5.984  1.00 20.00     0.152 C 
HETATM    4  C4  UNL     1     -34.150  16.542  -4.681  1.00 20.00     0.083 C 
HETATM    5  C5  UNL     1     -33.883  15.572  -3.508  1.00 20.00    -0.033 C 
HETATM    6  C6  UNL     1     -32.465  14.969  -3.592  1.00 20.00     0.016 C 
HETATM    7  C7  UNL     1     -33.974  16.375  -2.193  1.00 20.00     0.016 C 
HETATM    8  O8  UNL     1     -34.876  12.481  -4.827  1.00 20.00    -0.297 OA
HETATM    9  S9  UNL     1     -34.192  15.746  -6.320  1.00 20.00    -0.161 SA
ENDROOT
TORSDOF 0
ENDMDL
MODEL 2
REMARK VINA RESULT:      -4.2      1.723      2.936
REMARK  0 active torsions:
REMARK  status: ('A' for Active; 'I' for Inactive)
ROOT
HETATM    1  C1  UNL     1     -34.430  13.570  -4.667  1.00 20.00     0.136 C 
HETATM    2  C2  UNL     1     -34.538  14.259  -6.011  1.00 20.00     0.088 C 
HETATM    3  C3  UNL     1     -33.292  13.986  -3.775  1.00 20.00     0.152 C 
HETATM    4  C4  UNL     1     -33.616  16.419  -5.023  1.00 20.00     0.083 C 
HETATM    5  C5  UNL     1     -34.733  15.783  -5.882  1.00 20.00    -0.033 C 
HETATM    6  C6  UNL     1     -36.129  16.097  -5.305  1.00 20.00     0.016 C 
HETATM    7  C7  UNL     1     -34.659  16.400  -7.294  1.00 20.00     0.016 C 
HETATM    8  O8  UNL     1     -35.203  12.669  -4.345  1.00 20.00    -0.297 OA
HETATM    9  S9  UNL     1     -33.476  15.729  -3.341  1.00 20.00    -0.161 SA
ENDROOT
TORSDOF 0
ENDMDL
MODEL 3
REMARK VINA RESULT:      -4.0      1.758      2.371
REMARK  0 active torsions:
REMARK  status: ('A' for Active; 'I' for Inactive)
ROOT
HETATM    1  C1  UNL     1     -35.327  13.857  -4.271  1.00 20.00     0.136 C 
HETATM    2  C2  UNL     1     -34.220  14.887  -4.355  1.00 20.00     0.088 C 
HETATM    3  C3  UNL     1     -36.717  14.366  -4.003  1.00 20.00     0.152 C 
HETATM    4  C4  UNL     1     -35.826  16.589  -5.362  1.00 20.00     0.083 C 
HETATM    5  C5  UNL     1     -34.445  15.907  -5.489  1.00 20.00    -0.033 C 
HETATM    6  C6  UNL     1     -34.283  15.224  -6.863  1.00 20.00     0.016 C 
HETATM    7  C7  UNL     1     -33.361  16.999  -5.376  1.00 20.00     0.016 C 
HETATM    8  O8  UNL     1     -35.089  12.653  -4.360  1.00 20.00    -0.297 OA
HETATM    9  S9  UNL     1     -37.237  15.434  -5.362  1.00 20.00    -0.161 SA
ENDROOT
TORSDOF 0
ENDMDL
MODEL 4
REMARK VINA RESULT:      -4.0      1.816      1.951
REMARK  0 active torsions:
REMARK  status: ('A' for Active; 'I' for Inactive)
ROOT
HETATM    1  C1  UNL     1     -37.020  14.846  -4.230  1.00 20.00     0.136 C 
HETATM    2  C2  UNL     1     -35.957  15.458  -3.342  1.00 20.00     0.088 C 
HETATM    3  C3  UNL     1     -37.019  15.253  -5.678  1.00 20.00     0.152 C 
HETATM    4  C4  UNL     1     -34.306  15.504  -5.282  1.00 20.00     0.083 C 
HETATM    5  C5  UNL     1     -34.528  15.111  -3.804  1.00 20.00    -0.033 C 
HETATM    6  C6  UNL     1     -34.240  13.613  -3.574  1.00 20.00     0.016 C 
HETATM    7  C7  UNL     1     -33.534  15.918  -2.941  1.00 20.00     0.016 C 
HETATM    8  O8  UNL     1     -37.881  14.094  -3.774  1.00 20.00    -0.297 OA
HETATM    9  S9  UNL     1     -35.473  14.728  -6.448  1.00 20.00    -0.161 SA
ENDROOT
TORSDOF 0
ENDMDL
MODEL 5
REMARK VINA RESULT:      -4.0      1.838      2.252
REMARK  0 active torsions:
REMARK  status: ('A' for Active; 'I' for Inactive)
ROOT
HETATM    1  C1  UNL     1     -36.109  14.491  -4.163  1.00 20.00     0.136 C 
HETATM    2  C2  UNL     1     -35.762  15.965  -4.184  1.00 20.00     0.088 C 
HETATM    3  C3  UNL     1     -35.094  13.541  -4.737  1.00 20.00     0.152 C 
HETATM    4  C4  UNL     1     -33.292  15.429  -3.860  1.00 20.00     0.083 C 
HETATM    5  C5  UNL     1     -34.486  16.285  -3.380  1.00 20.00    -0.033 C 
HETATM    6  C6  UNL     1     -34.741  16.090  -1.871  1.00 20.00     0.016 C 
HETATM    7  C7  UNL     1     -34.132  17.769  -3.609  1.00 20.00     0.016 C 
HETATM    8  O8  UNL     1     -37.197  14.096  -3.746  1.00 20.00    -0.297 OA
HETATM    9  S9  UNL     1     -33.573  13.630  -3.770  1.00 20.00    -0.161 SA
ENDROOT
TORSDOF 0
ENDMDL
MODEL 6
REMARK VINA RESULT:      -4.0      1.496      1.757
REMARK  0 active torsions:
REMARK  status: ('A' for Active; 'I' for Inactive)
ROOT
HETATM    1  C1  UNL     1     -33.981  13.766  -3.857  1.00 20.00     0.136 C 
HETATM    2  C2  UNL     1     -34.394  15.043  -3.156  1.00 20.00     0.088 C 
HETATM    3  C3  UNL     1     -34.948  13.192  -4.857  1.00 20.00     0.152 C 
HETATM    4  C4  UNL     1     -35.638  15.830  -5.236  1.00 20.00     0.083 C 
HETATM    5  C5  UNL     1     -34.620  16.211  -4.136  1.00 20.00    -0.033 C 
HETATM    6  C6  UNL     1     -33.278  16.661  -4.750  1.00 20.00     0.016 C 
HETATM    7  C7  UNL     1     -35.197  17.402  -3.343  1.00 20.00     0.016 C 
HETATM    8  O8  UNL     1     -32.929  13.193  -3.578  1.00 20.00    -0.297 OA
HETATM    9  S9  UNL     1     -35.175  14.362  -6.212  1.00 20.00    -0.161 SA
ENDROOT
TORSDOF 0
ENDMDL
MODEL 7
REMARK VINA RESULT:      -3.7      2.036      3.301
REMARK  0 active torsions:
REMARK  status: ('A' for Active; 'I' for Inactive)
ROOT
HETATM    1  C1  UNL     1     -33.231  15.465  -3.782  1.00 20.00     0.136 C 
HETATM    2  C2  UNL     1     -33.239  16.394  -4.978  1.00 20.00     0.088 C 
HETATM    3  C3  UNL     1     -34.360  15.607  -2.797  1.00 20.00     0.152 C 
HETATM    4  C4  UNL     1     -35.786  16.380  -5.022  1.00 20.00     0.083 C 
HETATM    5  C5  UNL     1     -34.495  16.220  -5.855  1.00 20.00    -0.033 C 
HETATM    6  C6  UNL     1     -34.460  14.855  -6.574  1.00 20.00     0.016 C 
HETATM    7  C7  UNL     1     -34.484  17.321  -6.936  1.00 20.00     0.016 C 
HETATM    8  O8  UNL     1     -32.311  14.670  -3.595  1.00 20.00    -0.297 OA
HETATM    9  S9  UNL     1     -35.922  15.227  -3.616  1.00 20.00    -0.161 SA
ENDROOT
TORSDOF 0
ENDMDL
MODEL 8
REMARK VINA RESULT:      -3.7      2.193      3.403
REMARK  0 active torsions:
REMARK  status: ('A' for Active; 'I' for Inactive)
ROOT
HETATM    1  C1  UNL     1     -34.315  16.128  -2.377  1.00 20.00     0.136 C 
HETATM    2  C2  UNL     1     -34.192  14.773  -3.042  1.00 20.00     0.088 C 
HETATM    3  C3  UNL     1     -33.940  17.331  -3.199  1.00 20.00     0.152 C 
HETATM    4  C4  UNL     1     -34.818  15.780  -5.298  1.00 20.00     0.083 C 
HETATM    5  C5  UNL     1     -35.090  14.641  -4.288  1.00 20.00    -0.033 C 
HETATM    6  C6  UNL     1     -36.576  14.605  -3.875  1.00 20.00     0.016 C 
HETATM    7  C7  UNL     1     -34.762  13.301  -4.979  1.00 20.00     0.016 C 
HETATM    8  O8  UNL     1     -34.652  16.235  -1.198  1.00 20.00    -0.297 OA
HETATM    9  S9  UNL     1     -35.046  17.456  -4.619  1.00 20.00    -0.161 SA
ENDROOT
TORSDOF 0
ENDMDL
MODEL 9
REMARK VINA RESULT:      -3.7     11.933     13.251
REMARK  0 active torsions:
REMARK  status: ('A' for Active; 'I' for Inactive)
ROOT
HETATM    1  C1  UNL     1     -41.066   5.785  -0.919  1.00 20.00     0.136 C 
HETATM    2  C2  UNL     1     -40.964   4.421  -1.568  1.00 20.00     0.088 C 
HETATM    3  C3  UNL     1     -41.524   6.924  -1.789  1.00 20.00     0.152 C 
HETATM    4  C4  UNL     1     -42.939   4.951  -3.087  1.00 20.00     0.083 C 
HETATM    5  C5  UNL     1     -42.316   3.923  -2.117  1.00 20.00    -0.033 C 
HETATM    6  C6  UNL     1     -43.277   3.597  -0.955  1.00 20.00     0.016 C 
HETATM    7  C7  UNL     1     -42.066   2.617  -2.900  1.00 20.00     0.016 C 
HETATM    8  O8  UNL     1     -40.734   5.964   0.252  1.00 20.00    -0.297 OA
HETATM    9  S9  UNL     1     -43.205   6.603  -2.363  1.00 20.00    -0.161 SA
ENDROOT
TORSDOF 0
ENDMDL
