MODEL 1
REMARK VINA RESULT:      -3.8      0.000      0.000
REMARK  1 active torsions:
REMARK  status: ('A' for Active; 'I' for Inactive)
REMARK    1  A    between atoms: C2_2  and  C6_6 
ROOT
HETATM    1  C1  UNL     1     -33.602  18.170  -4.803  1.00 20.00     0.167 A 
HETATM    2  C2  UNL     1     -34.149  15.993  -3.932  1.00 20.00     0.024 A 
HETATM    3  C3  UNL     1     -34.110  17.017  -3.009  1.00 20.00     0.116 A 
HETATM    4  N7  UNL     1     -33.797  18.267  -3.507  1.00 20.00    -0.245 NA
HETATM    5  S8  UNL     1     -33.780  16.608  -5.489  1.00 20.00    -0.084 SA
HETATM    6 BR9  UNL     1     -34.458  16.798  -1.154  1.00 20.00    -0.028 Br
ENDROOT
BRANCH   2   7
HETATM    7  C6  UNL     1     -34.470  14.516  -3.648  1.00 20.00     0.028 A 
HETATM    8  C4  UNL     1     -33.341  13.511  -3.678  1.00 20.00     0.010 A 
HETATM    9  C5  UNL     1     -34.355  13.521  -4.780  1.00 20.00     0.010 A 
ENDBRANCH   2   7
TORSDOF 1
ENDMDL
MODEL 2
REMARK VINA RESULT:      -3.8      2.490      3.222
REMARK  1 active torsions:
REMARK  status: ('A' for Active; 'I' for Inactive)
REMARK    1  A    between atoms: C2_2  and  C6_6 
ROOT
HETATM    1  C1  UNL     1     -34.144  16.706  -6.470  1.00 20.00     0.167 A 
HETATM    2  C2  UNL     1     -33.906  16.124  -4.145  1.00 20.00     0.024 A 
HETATM    3  C3  UNL     1     -34.376  15.123  -4.970  1.00 20.00     0.116 A 
HETATM    4  N7  UNL     1     -34.512  15.455  -6.304  1.00 20.00    -0.245 NA
HETATM    5  S8  UNL     1     -33.621  17.542  -5.066  1.00 20.00    -0.084 SA
HETATM    6 BR9  UNL     1     -34.824  13.374  -4.380  1.00 20.00    -0.028 Br
ENDROOT
BRANCH   2   7
HETATM    7  C6  UNL     1     -33.662  16.023  -2.630  1.00 20.00     0.028 A 
HETATM    8  C4  UNL     1     -34.827  16.245  -1.693  1.00 20.00     0.010 A 
HETATM    9  C5  UNL     1     -33.751  17.281  -1.798  1.00 20.00     0.010 A 
ENDBRANCH   2   7
TORSDOF 1
ENDMDL
MODEL 3
REMARK VINA RESULT:      -3.7      2.874      3.961
REMARK  1 active torsions:
REMARK  status: ('A' for Active; 'I' for Inactive)
REMARK    1  A    between atoms: C2_2  and  C6_6 
ROOT
HETATM    1  C1  UNL     1     -34.444  13.109  -4.561  1.00 20.00     0.167 A 
HETATM    2  C2  UNL     1     -34.974  15.143  -3.385  1.00 20.00     0.024 A 
HETATM    3  C3  UNL     1     -36.050  14.441  -3.888  1.00 20.00     0.116 A 
HETATM    4  N7  UNL     1     -35.748  13.274  -4.562  1.00 20.00    -0.245 NA
HETATM    5  S8  UNL     1     -33.520  14.318  -3.766  1.00 20.00    -0.084 SA
HETATM    6 BR9  UNL     1     -37.861  14.982  -3.700  1.00 20.00    -0.028 Br
ENDROOT
BRANCH   2   7
HETATM    7  C6  UNL     1     -35.029  16.464  -2.599  1.00 20.00     0.028 A 
HETATM    8  C4  UNL     1     -33.743  17.026  -2.040  1.00 20.00     0.010 A 
HETATM    9  C5  UNL     1     -34.757  16.433  -1.113  1.00 20.00     0.010 A 
ENDBRANCH   2   7
TORSDOF 1
ENDMDL
MODEL 4
REMARK VINA RESULT:      -3.6      1.339      1.339
REMARK  1 active torsions:
REMARK  status: ('A' for Active; 'I' for Inactive)
REMARK    1  A    between atoms: C2_2  and  C6_6 
ROOT
HETATM    1  C1  UNL     1     -35.928  17.810  -4.767  1.00 20.00     0.167 A 
HETATM    2  C2  UNL     1     -35.244  15.680  -3.876  1.00 20.00     0.024 A 
HETATM    3  C3  UNL     1     -35.181  16.745  -3.002  1.00 20.00     0.116 A 
HETATM    4  N7  UNL     1     -35.573  17.968  -3.511  1.00 20.00    -0.245 NA
HETATM    5  S8  UNL     1     -35.817  16.219  -5.400  1.00 20.00    -0.084 SA
HETATM    6 BR9  UNL     1     -34.604  16.614  -1.197  1.00 20.00    -0.028 Br
ENDROOT
BRANCH   2   7
HETATM    7  C6  UNL     1     -34.870  14.220  -3.569  1.00 20.00     0.028 A 
HETATM    8  C4  UNL     1     -33.458  13.762  -3.848  1.00 20.00     0.010 A 
HETATM    9  C5  UNL     1     -34.576  13.291  -4.724  1.00 20.00     0.010 A 
ENDBRANCH   2   7
TORSDOF 1
ENDMDL
MODEL 5
REMARK VINA RESULT:      -3.6      2.473      3.422
REMARK  1 active torsions:
REMARK  status: ('A' for Active; 'I' for Inactive)
REMARK    1  A    between atoms: C2_2  and  C6_6 
ROOT
HETATM    1  C1  UNL     1     -35.797  16.955  -5.481  1.00 20.00     0.167 A 
HETATM    2  C2  UNL     1     -34.556  16.520  -3.463  1.00 20.00     0.024 A 
HETATM    3  C3  UNL     1     -34.706  15.449  -4.319  1.00 20.00     0.116 A 
HETATM    4  N7  UNL     1     -35.417  15.697  -5.477  1.00 20.00    -0.245 NA
HETATM    5  S8  UNL     1     -35.333  17.898  -4.125  1.00 20.00    -0.084 SA
HETATM    6 BR9  UNL     1     -34.004  13.714  -3.994  1.00 20.00    -0.028 Br
ENDROOT
BRANCH   2   7
HETATM    7  C6  UNL     1     -33.814  16.519  -2.116  1.00 20.00     0.028 A 
HETATM    8  C4  UNL     1     -34.625  16.592  -0.843  1.00 20.00     0.010 A 
HETATM    9  C5  UNL     1     -33.827  17.779  -1.282  1.00 20.00     0.010 A 
ENDBRANCH   2   7
TORSDOF 1
ENDMDL
MODEL 6
REMARK VINA RESULT:      -3.5      3.223      4.269
REMARK  1 active torsions:
REMARK  status: ('A' for Active; 'I' for Inactive)
REMARK    1  A    between atoms: C2_2  and  C6_6 
ROOT
HETATM    1  C1  UNL     1     -38.009  14.924  -3.940  1.00 20.00     0.167 A 
HETATM    2  C2  UNL     1     -35.996  15.917  -3.067  1.00 20.00     0.024 A 
HETATM    3  C3  UNL     1     -35.854  14.664  -3.626  1.00 20.00     0.116 A 
HETATM    4  N7  UNL     1     -37.008  14.093  -4.128  1.00 20.00    -0.245 NA
HETATM    5  S8  UNL     1     -37.635  16.411  -3.168  1.00 20.00    -0.084 SA
HETATM    6 BR9  UNL     1     -34.209  13.722  -3.737  1.00 20.00    -0.028 Br
ENDROOT
BRANCH   2   7
HETATM    7  C6  UNL     1     -34.881  16.771  -2.441  1.00 20.00     0.028 A 
HETATM    8  C4  UNL     1     -34.563  16.584  -0.976  1.00 20.00     0.010 A 
HETATM    9  C5  UNL     1     -35.261  17.828  -1.429  1.00 20.00     0.010 A 
ENDBRANCH   2   7
TORSDOF 1
ENDMDL
MODEL 7
REMARK VINA RESULT:      -3.4     13.266     13.628
REMARK  1 active torsions:
REMARK  status: ('A' for Active; 'I' for Inactive)
REMARK    1  A    between atoms: C2_2  and  C6_6 
ROOT
HETATM    1  C1  UNL     1     -43.236   7.162  -3.559  1.00 20.00     0.167 A 
HETATM    2  C2  UNL     1     -41.887   5.885  -2.027  1.00 20.00     0.024 A 
HETATM    3  C3  UNL     1     -42.643   5.151  -2.918  1.00 20.00     0.116 A 
HETATM    4  N7  UNL     1     -43.417   5.882  -3.797  1.00 20.00    -0.245 NA
HETATM    5  S8  UNL     1     -42.147   7.558  -2.294  1.00 20.00    -0.084 SA
HETATM    6 BR9  UNL     1     -42.667   3.253  -2.990  1.00 20.00    -0.028 Br
ENDROOT
BRANCH   2   7
HETATM    7  C6  UNL     1     -40.943   5.325  -0.950  1.00 20.00     0.028 A 
HETATM    8  C4  UNL     1     -41.538   4.838   0.351  1.00 20.00     0.010 A 
HETATM    9  C5  UNL     1     -40.755   6.113   0.326  1.00 20.00     0.010 A 
ENDBRANCH   2   7
TORSDOF 1
ENDMDL
MODEL 8
REMARK VINA RESULT:      -3.4      2.664      3.624
REMARK  1 active torsions:
REMARK  status: ('A' for Active; 'I' for Inactive)
REMARK    1  A    between atoms: C2_2  and  C6_6 
ROOT
HETATM    1  C1  UNL     1     -34.823  13.923  -5.578  1.00 20.00     0.167 A 
HETATM    2  C2  UNL     1     -34.151  15.506  -3.892  1.00 20.00     0.024 A 
HETATM    3  C3  UNL     1     -34.162  15.977  -5.189  1.00 20.00     0.116 A 
HETATM    4  N7  UNL     1     -34.548  15.071  -6.157  1.00 20.00    -0.245 NA
HETATM    5  S8  UNL     1     -34.642  13.863  -3.873  1.00 20.00    -0.084 SA
HETATM    6 BR9  UNL     1     -33.693  17.749  -5.686  1.00 20.00    -0.028 Br
ENDROOT
BRANCH   2   7
HETATM    7  C6  UNL     1     -33.767  16.300  -2.633  1.00 20.00     0.028 A 
HETATM    8  C4  UNL     1     -34.682  16.239  -1.432  1.00 20.00     0.010 A 
HETATM    9  C5  UNL     1     -34.608  17.493  -2.245  1.00 20.00     0.010 A 
ENDBRANCH   2   7
TORSDOF 1
ENDMDL
MODEL 9
REMARK VINA RESULT:      -3.4     12.778     13.675
REMARK  1 active torsions:
REMARK  status: ('A' for Active; 'I' for Inactive)
REMARK    1  A    between atoms: C2_2  and  C6_6 
ROOT
HETATM    1  C1  UNL     1     -35.246   4.199   5.846  1.00 20.00     0.167 A 
HETATM    2  C2  UNL     1     -34.089   5.917   4.618  1.00 20.00     0.024 A 
HETATM    3  C3  UNL     1     -34.122   6.076   5.988  1.00 20.00     0.116 A 
HETATM    4  N7  UNL     1     -34.785   5.091   6.694  1.00 20.00    -0.245 NA
HETATM    5  S8  UNL     1     -34.917   4.479   4.186  1.00 20.00    -0.084 SA
HETATM    6 BR9  UNL     1     -33.326   7.530   6.915  1.00 20.00    -0.028 Br
ENDROOT
BRANCH   2   7
HETATM    7  C6  UNL     1     -33.421   6.859   3.603  1.00 20.00     0.028 A 
HETATM    8  C4  UNL     1     -32.501   6.265   2.561  1.00 20.00     0.010 A 
HETATM    9  C5  UNL     1     -31.927   7.069   3.685  1.00 20.00     0.010 A 
ENDBRANCH   2   7
TORSDOF 1
ENDMDL
