MODEL 1
REMARK VINA RESULT:      -3.7      0.000      0.000
REMARK  1 active torsions:
REMARK  status: ('A' for Active; 'I' for Inactive)
REMARK    1  A    between atoms: C3_3  and  C5_5 
ROOT
HETATM    1  C1  UNL     1     -33.673  17.486  -3.705  1.00 20.00     0.144 A 
HETATM    2  C2  UNL     1     -34.092  16.791  -2.590  1.00 20.00     0.071 A 
HETATM    3  C3  UNL     1     -34.260  15.614  -4.685  1.00 20.00     0.103 A 
HETATM    4  N7  UNL     1     -33.768  16.813  -4.907  1.00 20.00    -0.251 NA
HETATM    5  S8  UNL     1     -34.631  15.230  -3.054  1.00 20.00    -0.061 SA
HETATM    6 BR9  UNL     1     -34.082  17.444  -0.814  1.00 20.00    -0.041 Br
ENDROOT
BRANCH   3   7
HETATM    7  C5  UNL     1     -34.510  14.609  -5.688  1.00 20.00    -0.035 C 
HETATM    8  C4  UNL     1     -34.752  13.352  -5.267  1.00 20.00     0.021 C 
HETATM    9  C6  UNL     1     -34.499  14.898  -7.169  1.00 20.00     0.050 C 
ENDBRANCH   3   7
TORSDOF 1
ENDMDL
MODEL 2
REMARK VINA RESULT:      -3.7     13.196     14.423
REMARK  1 active torsions:
REMARK  status: ('A' for Active; 'I' for Inactive)
REMARK    1  A    between atoms: C3_3  and  C5_5 
ROOT
HETATM    1  C1  UNL     1     -42.942   5.731  -2.950  1.00 20.00     0.144 A 
HETATM    2  C2  UNL     1     -41.985   5.813  -1.960  1.00 20.00     0.071 A 
HETATM    3  C3  UNL     1     -42.368   3.616  -2.870  1.00 20.00     0.103 A 
HETATM    4  N7  UNL     1     -43.164   4.472  -3.473  1.00 20.00    -0.251 NA
HETATM    5  S8  UNL     1     -41.329   4.257  -1.664  1.00 20.00    -0.061 SA
HETATM    6 BR9  UNL     1     -41.464   7.392  -1.058  1.00 20.00    -0.041 Br
ENDROOT
BRANCH   3   7
HETATM    7  C5  UNL     1     -42.299   2.201  -3.138  1.00 20.00    -0.035 C 
HETATM    8  C4  UNL     1     -41.309   1.763  -3.939  1.00 20.00     0.021 C 
HETATM    9  C6  UNL     1     -43.284   1.204  -2.575  1.00 20.00     0.050 C 
ENDBRANCH   3   7
TORSDOF 1
ENDMDL
MODEL 3
REMARK VINA RESULT:      -3.6      2.502      4.394
REMARK  1 active torsions:
REMARK  status: ('A' for Active; 'I' for Inactive)
REMARK    1  A    between atoms: C3_3  and  C5_5 
ROOT
HETATM    1  C1  UNL     1     -33.760  17.051  -4.783  1.00 20.00     0.144 A 
HETATM    2  C2  UNL     1     -34.306  15.796  -4.617  1.00 20.00     0.071 A 
HETATM    3  C3  UNL     1     -33.957  17.065  -2.599  1.00 20.00     0.103 A 
HETATM    4  N7  UNL     1     -33.559  17.781  -3.628  1.00 20.00    -0.251 NA
HETATM    5  S8  UNL     1     -34.582  15.506  -2.949  1.00 20.00    -0.061 SA
HETATM    6 BR9  UNL     1     -34.697  14.570  -6.003  1.00 20.00    -0.041 Br
ENDROOT
BRANCH   3   7
HETATM    7  C5  UNL     1     -33.911  17.479  -1.219  1.00 20.00    -0.035 C 
HETATM    8  C4  UNL     1     -34.726  16.851  -0.350  1.00 20.00     0.021 C 
HETATM    9  C6  UNL     1     -33.009  18.581  -0.716  1.00 20.00     0.050 C 
ENDBRANCH   3   7
TORSDOF 1
ENDMDL
MODEL 4
REMARK VINA RESULT:      -3.6      2.813      4.388
REMARK  1 active torsions:
REMARK  status: ('A' for Active; 'I' for Inactive)
REMARK    1  A    between atoms: C3_3  and  C5_5 
ROOT
HETATM    1  C1  UNL     1     -34.480  14.256  -4.345  1.00 20.00     0.144 A 
HETATM    2  C2  UNL     1     -34.557  15.176  -5.369  1.00 20.00     0.071 A 
HETATM    3  C3  UNL     1     -34.326  16.091  -3.153  1.00 20.00     0.103 A 
HETATM    4  N7  UNL     1     -34.348  14.778  -3.073  1.00 20.00    -0.251 NA
HETATM    5  S8  UNL     1     -34.462  16.763  -4.726  1.00 20.00    -0.061 SA
HETATM    6 BR9  UNL     1     -34.740  14.767  -7.207  1.00 20.00    -0.041 Br
ENDROOT
BRANCH   3   7
HETATM    7  C5  UNL     1     -34.200  16.998  -2.040  1.00 20.00    -0.035 C 
HETATM    8  C4  UNL     1     -34.651  16.584  -0.840  1.00 20.00     0.021 C 
HETATM    9  C6  UNL     1     -33.601  18.379  -2.163  1.00 20.00     0.050 C 
ENDBRANCH   3   7
TORSDOF 1
ENDMDL
MODEL 5
REMARK VINA RESULT:      -3.6     13.030     14.124
REMARK  1 active torsions:
REMARK  status: ('A' for Active; 'I' for Inactive)
REMARK    1  A    between atoms: C3_3  and  C5_5 
ROOT
HETATM    1  C1  UNL     1     -40.851   5.212  -1.057  1.00 20.00     0.144 A 
HETATM    2  C2  UNL     1     -41.862   5.981  -1.593  1.00 20.00     0.071 A 
HETATM    3  C3  UNL     1     -41.771   3.696  -2.348  1.00 20.00     0.103 A 
HETATM    4  N7  UNL     1     -40.797   3.901  -1.489  1.00 20.00    -0.251 NA
HETATM    5  S8  UNL     1     -42.788   5.036  -2.683  1.00 20.00    -0.061 SA
HETATM    6 BR9  UNL     1     -42.191   7.802  -1.196  1.00 20.00    -0.041 Br
ENDROOT
BRANCH   3   7
HETATM    7  C5  UNL     1     -42.049   2.452  -3.022  1.00 20.00    -0.035 C 
HETATM    8  C4  UNL     1     -43.176   1.796  -2.685  1.00 20.00     0.021 C 
HETATM    9  C6  UNL     1     -41.137   1.856  -4.067  1.00 20.00     0.050 C 
ENDBRANCH   3   7
TORSDOF 1
ENDMDL
MODEL 6
REMARK VINA RESULT:      -3.5     12.788     13.738
REMARK  1 active torsions:
REMARK  status: ('A' for Active; 'I' for Inactive)
REMARK    1  A    between atoms: C3_3  and  C5_5 
ROOT
HETATM    1  C1  UNL     1     -41.025   3.927  -1.849  1.00 20.00     0.144 A 
HETATM    2  C2  UNL     1     -42.072   3.502  -2.638  1.00 20.00     0.071 A 
HETATM    3  C3  UNL     1     -41.997   5.866  -2.179  1.00 20.00     0.103 A 
HETATM    4  N7  UNL     1     -40.979   5.282  -1.584  1.00 20.00    -0.251 NA
HETATM    5  S8  UNL     1     -43.047   4.844  -3.073  1.00 20.00    -0.061 SA
HETATM    6 BR9  UNL     1     -42.399   1.716  -3.170  1.00 20.00    -0.041 Br
ENDROOT
BRANCH   3   7
HETATM    7  C5  UNL     1     -42.296   7.275  -2.143  1.00 20.00    -0.035 C 
HETATM    8  C4  UNL     1     -42.330   7.877  -0.938  1.00 20.00     0.021 C 
HETATM    9  C6  UNL     1     -42.582   8.092  -3.380  1.00 20.00     0.050 C 
ENDBRANCH   3   7
TORSDOF 1
ENDMDL
MODEL 7
REMARK VINA RESULT:      -3.4      3.664      4.238
REMARK  1 active torsions:
REMARK  status: ('A' for Active; 'I' for Inactive)
REMARK    1  A    between atoms: C3_3  and  C5_5 
ROOT
HETATM    1  C1  UNL     1     -38.397  14.789  -3.942  1.00 20.00     0.144 A 
HETATM    2  C2  UNL     1     -38.481  16.147  -3.720  1.00 20.00     0.071 A 
HETATM    3  C3  UNL     1     -36.295  15.173  -3.445  1.00 20.00     0.103 A 
HETATM    4  N7  UNL     1     -37.144  14.227  -3.785  1.00 20.00    -0.251 NA
HETATM    5  S8  UNL     1     -36.935  16.758  -3.296  1.00 20.00    -0.061 SA
HETATM    6 BR9  UNL     1     -40.052  17.192  -3.857  1.00 20.00    -0.041 Br
ENDROOT
BRANCH   3   7
HETATM    7  C5  UNL     1     -34.888  14.986  -3.192  1.00 20.00    -0.035 C 
HETATM    8  C4  UNL     1     -34.323  13.839  -3.614  1.00 20.00     0.021 C 
HETATM    9  C6  UNL     1     -34.036  16.004  -2.473  1.00 20.00     0.050 C 
ENDBRANCH   3   7
TORSDOF 1
ENDMDL
MODEL 8
REMARK VINA RESULT:      -3.4      1.609      2.001
REMARK  1 active torsions:
REMARK  status: ('A' for Active; 'I' for Inactive)
REMARK    1  A    between atoms: C3_3  and  C5_5 
ROOT
HETATM    1  C1  UNL     1     -34.511  14.864  -3.177  1.00 20.00     0.144 A 
HETATM    2  C2  UNL     1     -34.497  16.179  -2.763  1.00 20.00     0.071 A 
HETATM    3  C3  UNL     1     -34.480  15.829  -5.146  1.00 20.00     0.103 A 
HETATM    4  N7  UNL     1     -34.502  14.660  -4.543  1.00 20.00    -0.251 NA
HETATM    5  S8  UNL     1     -34.470  17.213  -4.131  1.00 20.00    -0.061 SA
HETATM    6 BR9  UNL     1     -34.506  16.770  -0.966  1.00 20.00    -0.041 Br
ENDROOT
BRANCH   3   7
HETATM    7  C5  UNL     1     -34.466  16.038  -6.572  1.00 20.00    -0.035 C 
HETATM    8  C4  UNL     1     -34.363  14.952  -7.363  1.00 20.00     0.021 C 
HETATM    9  C6  UNL     1     -34.547  17.405  -7.208  1.00 20.00     0.050 C 
ENDBRANCH   3   7
TORSDOF 1
ENDMDL
MODEL 9
REMARK VINA RESULT:      -3.4      4.243      4.818
REMARK  1 active torsions:
REMARK  status: ('A' for Active; 'I' for Inactive)
REMARK    1  A    between atoms: C3_3  and  C5_5 
ROOT
HETATM    1  C1  UNL     1     -38.956  14.748  -4.258  1.00 20.00     0.144 A 
HETATM    2  C2  UNL     1     -38.700  15.338  -5.477  1.00 20.00     0.071 A 
HETATM    3  C3  UNL     1     -36.764  14.686  -4.201  1.00 20.00     0.103 A 
HETATM    4  N7  UNL     1     -37.847  14.373  -3.524  1.00 20.00    -0.251 NA
HETATM    5  S8  UNL     1     -37.007  15.434  -5.726  1.00 20.00    -0.061 SA
HETATM    6 BR9  UNL     1     -40.007  15.953  -6.700  1.00 20.00    -0.041 Br
ENDROOT
BRANCH   3   7
HETATM    7  C5  UNL     1     -35.408  14.454  -3.771  1.00 20.00    -0.035 C 
HETATM    8  C4  UNL     1     -34.771  13.374  -4.264  1.00 20.00     0.021 C 
HETATM    9  C6  UNL     1     -34.685  15.352  -2.795  1.00 20.00     0.050 C 
ENDBRANCH   3   7
TORSDOF 1
ENDMDL
