MODEL 1
REMARK VINA RESULT:      -4.7      0.000      0.000
REMARK  1 active torsions:
REMARK  status: ('A' for Active; 'I' for Inactive)
REMARK    1  A    between atoms: C9_9  and  S11_11 
ROOT
HETATM    1  C1  UNL     1     -33.557  18.631  -2.441  1.00 20.00     0.015 A 
HETATM    2  C2  UNL     1     -33.581  17.201  -4.429  1.00 20.00     0.016 A 
HETATM    3  C3  UNL     1     -33.798  18.800  -1.081  1.00 20.00     0.025 A 
HETATM    4  C4  UNL     1     -33.846  15.969  -5.011  1.00 20.00     0.039 A 
HETATM    5  C5  UNL     1     -34.554  16.512  -0.952  1.00 20.00     0.056 A 
HETATM    6  C6  UNL     1     -33.815  17.398  -3.061  1.00 20.00    -0.007 A 
HETATM    7  C7  UNL     1     -34.322  16.315  -2.311  1.00 20.00     0.070 A 
HETATM    8  C8  UNL     1     -34.297  17.739  -0.336  1.00 20.00     0.036 A 
HETATM    9  C9  UNL     1     -34.341  14.971  -4.196  1.00 20.00     0.091 A 
HETATM   10  N10 UNL     1     -34.580  15.120  -2.874  1.00 20.00    -0.242 NA
HETATM   11 CL12 UNL     1     -34.597  17.936   1.348  1.00 20.00    -0.084 Cl
ENDROOT
BRANCH   9  12
HETATM   12  S11 UNL     1     -34.701  13.369  -4.893  1.00 20.00    -0.123 SA
HETATM   13  H18 UNL     1     -34.190  13.596  -6.113  1.00 20.00     0.108 HD
ENDBRANCH   9  12
TORSDOF 1
ENDMDL
MODEL 2
REMARK VINA RESULT:      -4.7      3.643      5.177
REMARK  1 active torsions:
REMARK  status: ('A' for Active; 'I' for Inactive)
REMARK    1  A    between atoms: C9_9  and  S11_11 
ROOT
HETATM    1  C1  UNL     1     -35.110  14.127  -3.906  1.00 20.00     0.015 A 
HETATM    2  C2  UNL     1     -34.757  15.537  -1.935  1.00 20.00     0.016 A 
HETATM    3  C3  UNL     1     -35.031  13.950  -5.284  1.00 20.00     0.025 A 
HETATM    4  C4  UNL     1     -34.330  16.738  -1.386  1.00 20.00     0.039 A 
HETATM    5  C5  UNL     1     -34.109  16.170  -5.497  1.00 20.00     0.056 A 
HETATM    6  C6  UNL     1     -34.687  15.332  -3.320  1.00 20.00    -0.007 A 
HETATM    7  C7  UNL     1     -34.177  16.375  -4.121  1.00 20.00     0.070 A 
HETATM    8  C8  UNL     1     -34.530  14.972  -6.080  1.00 20.00     0.036 A 
HETATM    9  C9  UNL     1     -33.847  17.699  -2.251  1.00 20.00     0.091 A 
HETATM   10  N10 UNL     1     -33.764  17.541  -3.591  1.00 20.00    -0.242 NA
HETATM   11 CL12 UNL     1     -34.425  14.763  -7.786  1.00 20.00    -0.084 Cl
ENDROOT
BRANCH   9  12
HETATM   12  S11 UNL     1     -33.287  19.263  -1.599  1.00 20.00    -0.123 SA
HETATM   13  H18 UNL     1     -32.165  18.812  -1.018  1.00 20.00     0.108 HD
ENDBRANCH   9  12
TORSDOF 1
ENDMDL
MODEL 3
REMARK VINA RESULT:      -4.6      3.246      4.428
REMARK  1 active torsions:
REMARK  status: ('A' for Active; 'I' for Inactive)
REMARK    1  A    between atoms: C9_9  and  S11_11 
ROOT
HETATM    1  C1  UNL     1     -33.505  16.986  -4.512  1.00 20.00     0.015 A 
HETATM    2  C2  UNL     1     -33.659  18.472  -2.571  1.00 20.00     0.016 A 
HETATM    3  C3  UNL     1     -33.702  15.731  -5.081  1.00 20.00     0.025 A 
HETATM    4  C4  UNL     1     -34.008  18.670  -1.242  1.00 20.00     0.039 A 
HETATM    5  C5  UNL     1     -34.580  14.937  -2.978  1.00 20.00     0.056 A 
HETATM    6  C6  UNL     1     -33.847  17.218  -3.169  1.00 20.00    -0.007 A 
HETATM    7  C7  UNL     1     -34.394  16.182  -2.383  1.00 20.00     0.070 A 
HETATM    8  C8  UNL     1     -34.240  14.706  -4.313  1.00 20.00     0.036 A 
HETATM    9  C9  UNL     1     -34.535  17.596  -0.555  1.00 20.00     0.091 A 
HETATM   10  N10 UNL     1     -34.732  16.372  -1.094  1.00 20.00    -0.242 NA
HETATM   11 CL12 UNL     1     -34.489  13.150  -5.008  1.00 20.00    -0.084 Cl
ENDROOT
BRANCH   9  12
HETATM   12  S11 UNL     1     -34.999  17.793   1.157  1.00 20.00    -0.123 SA
HETATM   13  H18 UNL     1     -33.990  17.086   1.688  1.00 20.00     0.108 HD
ENDBRANCH   9  12
TORSDOF 1
ENDMDL
MODEL 4
REMARK VINA RESULT:      -4.6      2.557      3.325
REMARK  1 active torsions:
REMARK  status: ('A' for Active; 'I' for Inactive)
REMARK    1  A    between atoms: C9_9  and  S11_11 
ROOT
HETATM    1  C1  UNL     1     -33.379  15.287  -4.315  1.00 20.00     0.015 A 
HETATM    2  C2  UNL     1     -34.513  14.864  -6.444  1.00 20.00     0.016 A 
HETATM    3  C3  UNL     1     -33.439  15.673  -2.979  1.00 20.00     0.025 A 
HETATM    4  C4  UNL     1     -35.684  14.837  -7.189  1.00 20.00     0.039 A 
HETATM    5  C5  UNL     1     -35.821  15.985  -3.198  1.00 20.00     0.056 A 
HETATM    6  C6  UNL     1     -34.545  15.249  -5.096  1.00 20.00    -0.007 A 
HETATM    7  C7  UNL     1     -35.791  15.603  -4.536  1.00 20.00     0.070 A 
HETATM    8  C8  UNL     1     -34.662  16.023  -2.420  1.00 20.00     0.036 A 
HETATM    9  C9  UNL     1     -36.854  15.200  -6.553  1.00 20.00     0.091 A 
HETATM   10  N10 UNL     1     -36.927  15.578  -5.257  1.00 20.00    -0.242 NA
HETATM   11 CL12 UNL     1     -34.748  16.500  -0.768  1.00 20.00    -0.084 Cl
ENDROOT
BRANCH   9  12
HETATM   12  S11 UNL     1     -38.387  15.185  -7.465  1.00 20.00    -0.123 SA
HETATM   13  H18 UNL     1     -37.872  14.855  -8.659  1.00 20.00     0.108 HD
ENDBRANCH   9  12
TORSDOF 1
ENDMDL
MODEL 5
REMARK VINA RESULT:      -4.4      1.859      2.615
REMARK  1 active torsions:
REMARK  status: ('A' for Active; 'I' for Inactive)
REMARK    1  A    between atoms: C9_9  and  S11_11 
ROOT
HETATM    1  C1  UNL     1     -34.999  15.883  -1.742  1.00 20.00     0.015 A 
HETATM    2  C2  UNL     1     -35.594  14.564  -3.718  1.00 20.00     0.016 A 
HETATM    3  C3  UNL     1     -34.367  16.991  -1.184  1.00 20.00     0.025 A 
HETATM    4  C4  UNL     1     -35.543  14.383  -5.093  1.00 20.00     0.039 A 
HETATM    5  C5  UNL     1     -33.668  17.677  -3.389  1.00 20.00     0.056 A 
HETATM    6  C6  UNL     1     -34.966  15.671  -3.130  1.00 20.00    -0.007 A 
HETATM    7  C7  UNL     1     -34.291  16.578  -3.974  1.00 20.00     0.070 A 
HETATM    8  C8  UNL     1     -33.701  17.888  -2.009  1.00 20.00     0.036 A 
HETATM    9  C9  UNL     1     -34.858  15.323  -5.835  1.00 20.00     0.091 A 
HETATM   10  N10 UNL     1     -34.240  16.403  -5.308  1.00 20.00    -0.242 NA
HETATM   11 CL12 UNL     1     -32.917  19.263  -1.329  1.00 20.00    -0.084 Cl
ENDROOT
BRANCH   9  12
HETATM   12  S11 UNL     1     -34.759  15.138  -7.607  1.00 20.00    -0.123 SA
HETATM   13  H18 UNL     1     -35.836  15.877  -7.915  1.00 20.00     0.108 HD
ENDBRANCH   9  12
TORSDOF 1
ENDMDL
MODEL 6
REMARK VINA RESULT:      -4.3      4.422      5.651
REMARK  1 active torsions:
REMARK  status: ('A' for Active; 'I' for Inactive)
REMARK    1  A    between atoms: C9_9  and  S11_11 
ROOT
HETATM    1  C1  UNL     1     -31.035  19.263   2.996  1.00 20.00     0.015 A 
HETATM    2  C2  UNL     1     -31.781  18.984   0.680  1.00 20.00     0.016 A 
HETATM    3  C3  UNL     1     -31.306  19.205   4.360  1.00 20.00     0.025 A 
HETATM    4  C4  UNL     1     -32.784  18.651  -0.220  1.00 20.00     0.039 A 
HETATM    5  C5  UNL     1     -33.556  18.489   3.860  1.00 20.00     0.056 A 
HETATM    6  C6  UNL     1     -32.028  18.933   2.059  1.00 20.00    -0.007 A 
HETATM    7  C7  UNL     1     -33.312  18.539   2.490  1.00 20.00     0.070 A 
HETATM    8  C8  UNL     1     -32.569  18.817   4.792  1.00 20.00     0.036 A 
HETATM    9  C9  UNL     1     -34.008  18.278   0.297  1.00 20.00     0.091 A 
HETATM   10  N10 UNL     1     -34.287  18.216   1.618  1.00 20.00    -0.242 NA
HETATM   11 CL12 UNL     1     -32.915  18.740   6.477  1.00 20.00    -0.084 Cl
ENDROOT
BRANCH   9  12
HETATM   12  S11 UNL     1     -35.333  17.842  -0.815  1.00 20.00    -0.123 SA
HETATM   13  H18 UNL     1     -34.576  17.277  -1.768  1.00 20.00     0.108 HD
ENDBRANCH   9  12
TORSDOF 1
ENDMDL
MODEL 7
REMARK VINA RESULT:      -4.3      3.766      5.208
REMARK  1 active torsions:
REMARK  status: ('A' for Active; 'I' for Inactive)
REMARK    1  A    between atoms: C9_9  and  S11_11 
ROOT
HETATM    1  C1  UNL     1     -34.454  14.813  -6.462  1.00 20.00     0.015 A 
HETATM    2  C2  UNL     1     -33.303  15.341  -4.366  1.00 20.00     0.016 A 
HETATM    3  C3  UNL     1     -35.631  14.747  -7.202  1.00 20.00     0.025 A 
HETATM    4  C4  UNL     1     -33.357  15.794  -3.055  1.00 20.00     0.039 A 
HETATM    5  C5  UNL     1     -36.851  15.585  -5.296  1.00 20.00     0.056 A 
HETATM    6  C6  UNL     1     -34.474  15.266  -5.133  1.00 20.00    -0.007 A 
HETATM    7  C7  UNL     1     -35.689  15.660  -4.533  1.00 20.00     0.070 A 
HETATM    8  C8  UNL     1     -36.831  15.134  -6.618  1.00 20.00     0.036 A 
HETATM    9  C9  UNL     1     -34.591  16.157  -2.555  1.00 20.00     0.091 A 
HETATM   10  N10 UNL     1     -35.743  16.099  -3.261  1.00 20.00    -0.242 NA
HETATM   11 CL12 UNL     1     -38.293  15.059  -7.524  1.00 20.00    -0.084 Cl
ENDROOT
BRANCH   9  12
HETATM   12  S11 UNL     1     -34.718  16.744  -0.875  1.00 20.00    -0.123 SA
HETATM   13  H18 UNL     1     -33.890  17.793  -0.999  1.00 20.00     0.108 HD
ENDBRANCH   9  12
TORSDOF 1
ENDMDL
MODEL 8
REMARK VINA RESULT:      -4.3      3.786      5.014
REMARK  1 active torsions:
REMARK  status: ('A' for Active; 'I' for Inactive)
REMARK    1  A    between atoms: C9_9  and  S11_11 
ROOT
HETATM    1  C1  UNL     1     -33.937  14.692  -3.312  1.00 20.00     0.015 A 
HETATM    2  C2  UNL     1     -34.476  16.257  -1.507  1.00 20.00     0.016 A 
HETATM    3  C3  UNL     1     -34.165  14.224  -4.604  1.00 20.00     0.025 A 
HETATM    4  C4  UNL     1     -35.231  17.321  -1.034  1.00 20.00     0.039 A 
HETATM    5  C5  UNL     1     -35.882  15.897  -4.883  1.00 20.00     0.056 A 
HETATM    6  C6  UNL     1     -34.685  15.767  -2.804  1.00 20.00    -0.007 A 
HETATM    7  C7  UNL     1     -35.675  16.385  -3.596  1.00 20.00     0.070 A 
HETATM    8  C8  UNL     1     -35.139  14.828  -5.389  1.00 20.00     0.036 A 
HETATM    9  C9  UNL     1     -36.176  17.860  -1.883  1.00 20.00     0.091 A 
HETATM   10  N10 UNL     1     -36.409  17.417  -3.138  1.00 20.00    -0.242 NA
HETATM   11 CL12 UNL     1     -35.428  14.259  -6.989  1.00 20.00    -0.084 Cl
ENDROOT
BRANCH   9  12
HETATM   12  S11 UNL     1     -37.177  19.228  -1.325  1.00 20.00    -0.123 SA
HETATM   13  H18 UNL     1     -38.374  18.675  -1.573  1.00 20.00     0.108 HD
ENDBRANCH   9  12
TORSDOF 1
ENDMDL
MODEL 9
REMARK VINA RESULT:      -4.3      5.484      7.060
REMARK  1 active torsions:
REMARK  status: ('A' for Active; 'I' for Inactive)
REMARK    1  A    between atoms: C9_9  and  S11_11 
ROOT
HETATM    1  C1  UNL     1     -31.789  18.877   0.815  1.00 20.00     0.015 A 
HETATM    2  C2  UNL     1     -31.026  19.256   3.111  1.00 20.00     0.016 A 
HETATM    3  C3  UNL     1     -32.800  18.509  -0.069  1.00 20.00     0.025 A 
HETATM    4  C4  UNL     1     -31.292  19.260   4.474  1.00 20.00     0.039 A 
HETATM    5  C5  UNL     1     -34.284  18.169   1.803  1.00 20.00     0.056 A 
HETATM    6  C6  UNL     1     -32.026  18.890   2.200  1.00 20.00    -0.007 A 
HETATM    7  C7  UNL     1     -33.292  18.532   2.710  1.00 20.00     0.070 A 
HETATM    8  C8  UNL     1     -34.049  18.155   0.427  1.00 20.00     0.036 A 
HETATM    9  C9  UNL     1     -32.560  18.893   4.877  1.00 20.00     0.091 A 
HETATM   10  N10 UNL     1     -33.552  18.534   4.031  1.00 20.00    -0.242 NA
HETATM   11 CL12 UNL     1     -35.307  17.701  -0.657  1.00 20.00    -0.084 Cl
ENDROOT
BRANCH   9  12
HETATM   12  S11 UNL     1     -32.956  18.878   6.617  1.00 20.00    -0.123 SA
HETATM   13  H18 UNL     1     -32.505  17.643   6.882  1.00 20.00     0.108 HD
ENDBRANCH   9  12
TORSDOF 1
ENDMDL
