MODEL 1
REMARK VINA RESULT:      -4.3      0.000      0.000
REMARK  1 active torsions:
REMARK  status: ('A' for Active; 'I' for Inactive)
REMARK    1  A    between atoms: C3_3  and  C5_5 
ROOT
HETATM    1  C1  UNL     1     -34.628   5.000   3.467  1.00 20.00     0.022 A 
HETATM    2  C2  UNL     1     -33.841   5.754   2.547  1.00 20.00     0.028 A 
HETATM    3  C3  UNL     1     -34.456   5.426   4.765  1.00 20.00     0.048 A 
HETATM    4  C4  UNL     1     -33.099   6.727   3.178  1.00 20.00     0.052 A 
HETATM    5  S8  UNL     1     -33.350   6.730   4.873  1.00 20.00    -0.082 SA
HETATM    6 BR9  UNL     1     -31.929   7.932   2.291  1.00 20.00    -0.043 Br
ENDROOT
BRANCH   3   7
HETATM    7  C5  UNL     1     -35.088   4.905   5.996  1.00 20.00     0.393 C 
HETATM    8  F6  UNL     1     -34.963   5.785   7.029  1.00 20.00    -0.208 F 
HETATM    9  F7  UNL     1     -34.490   3.752   6.411  1.00 20.00    -0.208 F 
ENDBRANCH   3   7
TORSDOF 1
ENDMDL
MODEL 2
REMARK VINA RESULT:      -4.0      3.490      4.204
REMARK  1 active torsions:
REMARK  status: ('A' for Active; 'I' for Inactive)
REMARK    1  A    between atoms: C3_3  and  C5_5 
ROOT
HETATM    1  C1  UNL     1     -33.879   5.737   2.686  1.00 20.00     0.022 A 
HETATM    2  C2  UNL     1     -34.666   5.004   3.622  1.00 20.00     0.028 A 
HETATM    3  C3  UNL     1     -33.014   6.610   3.307  1.00 20.00     0.048 A 
HETATM    4  C4  UNL     1     -34.371   5.346   4.923  1.00 20.00     0.052 A 
HETATM    5  S8  UNL     1     -33.151   6.545   5.013  1.00 20.00    -0.082 SA
HETATM    6 BR9  UNL     1     -35.210   4.588   6.450  1.00 20.00    -0.043 Br
ENDROOT
BRANCH   3   7
HETATM    7  C5  UNL     1     -32.042   7.537   2.691  1.00 20.00     0.393 C 
HETATM    8  F6  UNL     1     -31.139   7.990   3.605  1.00 20.00    -0.208 F 
HETATM    9  F7  UNL     1     -32.661   8.646   2.194  1.00 20.00    -0.208 F 
ENDBRANCH   3   7
TORSDOF 1
ENDMDL
MODEL 3
REMARK VINA RESULT:      -3.9      1.291      1.689
REMARK  1 active torsions:
REMARK  status: ('A' for Active; 'I' for Inactive)
REMARK    1  A    between atoms: C3_3  and  C5_5 
ROOT
HETATM    1  C1  UNL     1     -33.707   6.356   5.658  1.00 20.00     0.022 A 
HETATM    2  C2  UNL     1     -32.907   7.239   4.877  1.00 20.00     0.028 A 
HETATM    3  C3  UNL     1     -34.351   5.418   4.883  1.00 20.00     0.048 A 
HETATM    4  C4  UNL     1     -32.970   6.942   3.534  1.00 20.00     0.052 A 
HETATM    5  S8  UNL     1     -33.991   5.603   3.218  1.00 20.00    -0.082 SA
HETATM    6 BR9  UNL     1     -32.041   7.894   2.177  1.00 20.00    -0.043 Br
ENDROOT
BRANCH   3   7
HETATM    7  C5  UNL     1     -35.263   4.337   5.313  1.00 20.00     0.393 C 
HETATM    8  F6  UNL     1     -35.612   4.474   6.624  1.00 20.00    -0.208 F 
HETATM    9  F7  UNL     1     -34.667   3.114   5.210  1.00 20.00    -0.208 F 
ENDBRANCH   3   7
TORSDOF 1
ENDMDL
MODEL 4
REMARK VINA RESULT:      -3.9      9.973     10.427
REMARK  1 active torsions:
REMARK  status: ('A' for Active; 'I' for Inactive)
REMARK    1  A    between atoms: C3_3  and  C5_5 
ROOT
HETATM    1  C1  UNL     1     -40.784   5.483  -0.812  1.00 20.00     0.022 A 
HETATM    2  C2  UNL     1     -40.794   4.148  -1.311  1.00 20.00     0.028 A 
HETATM    3  C3  UNL     1     -41.706   6.282  -1.451  1.00 20.00     0.048 A 
HETATM    4  C4  UNL     1     -41.725   3.978  -2.312  1.00 20.00     0.052 A 
HETATM    5  S8  UNL     1     -42.581   5.424  -2.648  1.00 20.00    -0.082 SA
HETATM    6 BR9  UNL     1     -42.035   2.341  -3.225  1.00 20.00    -0.043 Br
ENDROOT
BRANCH   3   7
HETATM    7  C5  UNL     1     -41.999   7.713  -1.223  1.00 20.00     0.393 C 
HETATM    8  F6  UNL     1     -40.936   8.354  -0.661  1.00 20.00    -0.208 F 
HETATM    9  F7  UNL     1     -43.037   7.874  -0.352  1.00 20.00    -0.208 F 
ENDBRANCH   3   7
TORSDOF 1
ENDMDL
MODEL 5
REMARK VINA RESULT:      -3.9     12.334     12.956
REMARK  1 active torsions:
REMARK  status: ('A' for Active; 'I' for Inactive)
REMARK    1  A    between atoms: C3_3  and  C5_5 
ROOT
HETATM    1  C1  UNL     1     -34.274  14.498  -3.156  1.00 20.00     0.022 A 
HETATM    2  C2  UNL     1     -34.346  14.060  -4.510  1.00 20.00     0.028 A 
HETATM    3  C3  UNL     1     -34.409  15.864  -3.045  1.00 20.00     0.048 A 
HETATM    4  C4  UNL     1     -34.533  15.109  -5.383  1.00 20.00     0.052 A 
HETATM    5  S8  UNL     1     -34.621  16.614  -4.570  1.00 20.00    -0.082 SA
HETATM    6 BR9  UNL     1     -34.677  14.926  -7.268  1.00 20.00    -0.043 Br
ENDROOT
BRANCH   3   7
HETATM    7  C5  UNL     1     -34.390  16.695  -1.822  1.00 20.00     0.393 C 
HETATM    8  F6  UNL     1     -33.121  17.077  -1.502  1.00 20.00    -0.208 F 
HETATM    9  F7  UNL     1     -34.855  16.001  -0.744  1.00 20.00    -0.208 F 
ENDBRANCH   3   7
TORSDOF 1
ENDMDL
MODEL 6
REMARK VINA RESULT:      -3.9     13.071     13.916
REMARK  1 active torsions:
REMARK  status: ('A' for Active; 'I' for Inactive)
REMARK    1  A    between atoms: C3_3  and  C5_5 
ROOT
HETATM    1  C1  UNL     1     -34.425  13.696  -4.830  1.00 20.00     0.022 A 
HETATM    2  C2  UNL     1     -34.457  14.080  -3.458  1.00 20.00     0.028 A 
HETATM    3  C3  UNL     1     -34.475  14.783  -5.674  1.00 20.00     0.048 A 
HETATM    4  C4  UNL     1     -34.530  15.446  -3.305  1.00 20.00     0.052 A 
HETATM    5  S8  UNL     1     -34.561  16.261  -4.812  1.00 20.00    -0.082 SA
HETATM    6 BR9  UNL     1     -34.592  16.340  -1.630  1.00 20.00    -0.043 Br
ENDROOT
BRANCH   3   7
HETATM    7  C5  UNL     1     -34.464  14.803  -7.152  1.00 20.00     0.393 C 
HETATM    8  F6  UNL     1     -34.674  16.060  -7.633  1.00 20.00    -0.208 F 
HETATM    9  F7  UNL     1     -35.465  14.032  -7.665  1.00 20.00    -0.208 F 
ENDBRANCH   3   7
TORSDOF 1
ENDMDL
MODEL 7
REMARK VINA RESULT:      -3.8     12.878     13.657
REMARK  1 active torsions:
REMARK  status: ('A' for Active; 'I' for Inactive)
REMARK    1  A    between atoms: C3_3  and  C5_5 
ROOT
HETATM    1  C1  UNL     1     -34.469  14.791  -6.093  1.00 20.00     0.022 A 
HETATM    2  C2  UNL     1     -34.403  16.033  -6.791  1.00 20.00     0.028 A 
HETATM    3  C3  UNL     1     -34.116  14.922  -4.768  1.00 20.00     0.048 A 
HETATM    4  C4  UNL     1     -34.001  17.065  -5.972  1.00 20.00     0.052 A 
HETATM    5  S8  UNL     1     -33.706  16.536  -4.369  1.00 20.00    -0.082 SA
HETATM    6 BR9  UNL     1     -33.793  18.867  -6.536  1.00 20.00    -0.043 Br
ENDROOT
BRANCH   3   7
HETATM    7  C5  UNL     1     -34.058  13.878  -3.724  1.00 20.00     0.393 C 
HETATM    8  F6  UNL     1     -32.832  13.284  -3.683  1.00 20.00    -0.208 F 
HETATM    9  F7  UNL     1     -34.951  12.877  -3.973  1.00 20.00    -0.208 F 
ENDBRANCH   3   7
TORSDOF 1
ENDMDL
MODEL 8
REMARK VINA RESULT:      -3.7     12.936     13.658
REMARK  1 active torsions:
REMARK  status: ('A' for Active; 'I' for Inactive)
REMARK    1  A    between atoms: C3_3  and  C5_5 
ROOT
HETATM    1  C1  UNL     1     -33.674  16.388  -4.852  1.00 20.00     0.022 A 
HETATM    2  C2  UNL     1     -33.592  16.951  -3.545  1.00 20.00     0.028 A 
HETATM    3  C3  UNL     1     -34.580  15.352  -4.914  1.00 20.00     0.048 A 
HETATM    4  C4  UNL     1     -34.439  16.324  -2.659  1.00 20.00     0.052 A 
HETATM    5  S8  UNL     1     -35.328  15.062  -3.401  1.00 20.00    -0.082 SA
HETATM    6 BR9  UNL     1     -34.614  16.791  -0.826  1.00 20.00    -0.043 Br
ENDROOT
BRANCH   3   7
HETATM    7  C5  UNL     1     -34.947  14.520  -6.079  1.00 20.00     0.393 C 
HETATM    8  F6  UNL     1     -34.927  13.193  -5.768  1.00 20.00    -0.208 F 
HETATM    9  F7  UNL     1     -34.059  14.679  -7.102  1.00 20.00    -0.208 F 
ENDBRANCH   3   7
TORSDOF 1
ENDMDL
MODEL 9
REMARK VINA RESULT:      -3.7     10.473     10.969
REMARK  1 active torsions:
REMARK  status: ('A' for Active; 'I' for Inactive)
REMARK    1  A    between atoms: C3_3  and  C5_5 
ROOT
HETATM    1  C1  UNL     1     -40.744   4.130  -1.429  1.00 20.00     0.022 A 
HETATM    2  C2  UNL     1     -40.930   5.446  -0.913  1.00 20.00     0.028 A 
HETATM    3  C3  UNL     1     -41.677   3.815  -2.391  1.00 20.00     0.048 A 
HETATM    4  C4  UNL     1     -41.998   6.085  -1.500  1.00 20.00     0.052 A 
HETATM    5  S8  UNL     1     -42.774   5.101  -2.669  1.00 20.00    -0.082 SA
HETATM    6 BR9  UNL     1     -42.562   7.849  -1.076  1.00 20.00    -0.043 Br
ENDROOT
BRANCH   3   7
HETATM    7  C5  UNL     1     -41.820   2.559  -3.158  1.00 20.00     0.393 C 
HETATM    8  F6  UNL     1     -40.671   2.248  -3.821  1.00 20.00    -0.208 F 
HETATM    9  F7  UNL     1     -42.786   2.670  -4.115  1.00 20.00    -0.208 F 
ENDBRANCH   3   7
TORSDOF 1
ENDMDL
