MODEL 1
REMARK VINA RESULT:      -4.2      0.000      0.000
REMARK  1 active torsions:
REMARK  status: ('A' for Active; 'I' for Inactive)
REMARK    1  A    between atoms: C4_4  and  C8_8 
ROOT
HETATM    1  C5  UNL     1     -35.302  13.456  -4.217  1.00 20.00     0.033 C 
HETATM    2  C6  UNL     1     -36.243  14.566  -3.772  1.00 20.00     0.042 C 
HETATM    3  C7  UNL     1     -34.241  14.188  -5.015  1.00 20.00     0.273 C 
HETATM    4  C8  UNL     1     -35.401  15.854  -3.825  1.00 20.00     0.256 C 
HETATM    5  C9  UNL     1     -33.302  16.419  -4.953  1.00 20.00     0.310 C 
HETATM    6  N10 UNL     1     -34.053  15.404  -4.226  1.00 20.00     0.093 N 
ENDROOT
BRANCH   4   7
HETATM    7  C4  UNL     1     -35.398  16.605  -2.510  1.00 20.00    -0.018 A 
HETATM    8  C1  UNL     1     -34.567  16.265  -1.404  1.00 20.00     0.017 A 
HETATM    9  C2  UNL     1     -34.762  17.107  -0.331  1.00 20.00     0.050 A 
HETATM   10  S11 UNL     1     -35.945  18.302  -0.661  1.00 20.00    -0.113 SA
HETATM   11  C3  UNL     1     -36.198  17.693  -2.241  1.00 20.00     0.058 A 
ENDBRANCH   4   7
TORSDOF 1
ENDMDL
MODEL 2
REMARK VINA RESULT:      -4.2      2.487      4.228
REMARK  1 active torsions:
REMARK  status: ('A' for Active; 'I' for Inactive)
REMARK    1  A    between atoms: C4_4  and  C8_8 
ROOT
HETATM    1  C5  UNL     1     -35.304  17.935  -0.540  1.00 20.00     0.033 C 
HETATM    2  C6  UNL     1     -34.574  16.621  -0.778  1.00 20.00     0.042 C 
HETATM    3  C7  UNL     1     -34.702  18.868  -1.572  1.00 20.00     0.273 C 
HETATM    4  C8  UNL     1     -34.062  16.701  -2.228  1.00 20.00     0.256 C 
HETATM    5  C9  UNL     1     -33.726  18.574  -3.769  1.00 20.00     0.310 C 
HETATM    6  N10 UNL     1     -34.571  17.991  -2.735  1.00 20.00     0.093 N 
ENDROOT
BRANCH   4   7
HETATM    7  C4  UNL     1     -34.511  15.526  -3.071  1.00 20.00    -0.018 A 
HETATM    8  C1  UNL     1     -35.877  15.195  -3.309  1.00 20.00     0.017 A 
HETATM    9  C2  UNL     1     -36.008  14.081  -4.108  1.00 20.00     0.050 A 
HETATM   10  S11 UNL     1     -34.488  13.438  -4.567  1.00 20.00    -0.113 SA
HETATM   11  C3  UNL     1     -33.650  14.651  -3.696  1.00 20.00     0.058 A 
ENDBRANCH   4   7
TORSDOF 1
ENDMDL
MODEL 3
REMARK VINA RESULT:      -4.2      1.378      1.671
REMARK  1 active torsions:
REMARK  status: ('A' for Active; 'I' for Inactive)
REMARK    1  A    between atoms: C4_4  and  C8_8 
ROOT
HETATM    1  C5  UNL     1     -36.590  14.358  -4.086  1.00 20.00     0.033 C 
HETATM    2  C6  UNL     1     -36.121  15.804  -4.148  1.00 20.00     0.042 C 
HETATM    3  C7  UNL     1     -35.306  13.562  -4.208  1.00 20.00     0.273 C 
HETATM    4  C8  UNL     1     -34.641  15.766  -3.722  1.00 20.00     0.256 C 
HETATM    5  C9  UNL     1     -32.994  13.958  -3.604  1.00 20.00     0.310 C 
HETATM    6  N10 UNL     1     -34.382  14.351  -3.394  1.00 20.00     0.093 N 
ENDROOT
BRANCH   4   7
HETATM    7  C4  UNL     1     -34.342  16.697  -2.566  1.00 20.00    -0.018 A 
HETATM    8  C1  UNL     1     -34.629  16.390  -1.205  1.00 20.00     0.017 A 
HETATM    9  C2  UNL     1     -34.257  17.408  -0.355  1.00 20.00     0.050 A 
HETATM   10  S11 UNL     1     -33.566  18.729  -1.199  1.00 20.00    -0.113 SA
HETATM   11  C3  UNL     1     -33.763  17.939  -2.705  1.00 20.00     0.058 A 
ENDBRANCH   4   7
TORSDOF 1
ENDMDL
MODEL 4
REMARK VINA RESULT:      -4.2      1.579      2.155
REMARK  1 active torsions:
REMARK  status: ('A' for Active; 'I' for Inactive)
REMARK    1  A    between atoms: C4_4  and  C8_8 
ROOT
HETATM    1  C5  UNL     1     -34.180  13.666  -4.784  1.00 20.00     0.033 C 
HETATM    2  C6  UNL     1     -33.806  14.028  -3.355  1.00 20.00     0.042 C 
HETATM    3  C7  UNL     1     -35.689  13.804  -4.803  1.00 20.00     0.273 C 
HETATM    4  C8  UNL     1     -34.980  14.879  -2.834  1.00 20.00     0.256 C 
HETATM    5  C9  UNL     1     -37.289  15.163  -3.596  1.00 20.00     0.310 C 
HETATM    6  N10 UNL     1     -35.895  14.999  -3.986  1.00 20.00     0.093 N 
ENDROOT
BRANCH   4   7
HETATM    7  C4  UNL     1     -34.534  16.225  -2.301  1.00 20.00    -0.018 A 
HETATM    8  C1  UNL     1     -34.574  16.586  -0.923  1.00 20.00     0.017 A 
HETATM    9  C2  UNL     1     -34.112  17.866  -0.710  1.00 20.00     0.050 A 
HETATM   10  S11 UNL     1     -33.633  18.626  -2.168  1.00 20.00    -0.113 SA
HETATM   11  C3  UNL     1     -34.043  17.242  -3.089  1.00 20.00     0.058 A 
ENDBRANCH   4   7
TORSDOF 1
ENDMDL
MODEL 5
REMARK VINA RESULT:      -4.0      1.209      2.200
REMARK  1 active torsions:
REMARK  status: ('A' for Active; 'I' for Inactive)
REMARK    1  A    between atoms: C4_4  and  C8_8 
ROOT
HETATM    1  C5  UNL     1     -34.317  15.986  -6.797  1.00 20.00     0.033 C 
HETATM    2  C6  UNL     1     -33.583  16.478  -5.559  1.00 20.00     0.042 C 
HETATM    3  C7  UNL     1     -34.661  14.549  -6.459  1.00 20.00     0.273 C 
HETATM    4  C8  UNL     1     -34.045  15.550  -4.420  1.00 20.00     0.256 C 
HETATM    5  C9  UNL     1     -35.109  13.345  -4.406  1.00 20.00     0.310 C 
HETATM    6  N10 UNL     1     -35.033  14.651  -5.048  1.00 20.00     0.093 N 
ENDROOT
BRANCH   4   7
HETATM    7  C4  UNL     1     -34.616  16.311  -3.242  1.00 20.00    -0.018 A 
HETATM    8  C1  UNL     1     -34.180  16.135  -1.897  1.00 20.00     0.017 A 
HETATM    9  C2  UNL     1     -34.862  16.950  -1.021  1.00 20.00     0.050 A 
HETATM   10  S11 UNL     1     -36.026  17.921  -1.821  1.00 20.00    -0.113 SA
HETATM   11  C3  UNL     1     -35.617  17.252  -3.343  1.00 20.00     0.058 A 
ENDBRANCH   4   7
TORSDOF 1
ENDMDL
MODEL 6
REMARK VINA RESULT:      -4.0     13.026     14.619
REMARK  1 active torsions:
REMARK  status: ('A' for Active; 'I' for Inactive)
REMARK    1  A    between atoms: C4_4  and  C8_8 
ROOT
HETATM    1  C5  UNL     1     -41.603   5.684   0.075  1.00 20.00     0.033 C 
HETATM    2  C6  UNL     1     -40.857   4.668  -0.778  1.00 20.00     0.042 C 
HETATM    3  C7  UNL     1     -42.315   6.551  -0.945  1.00 20.00     0.273 C 
HETATM    4  C8  UNL     1     -41.613   4.637  -2.120  1.00 20.00     0.256 C 
HETATM    5  C9  UNL     1     -43.187   6.188  -3.175  1.00 20.00     0.310 C 
HETATM    6  N10 UNL     1     -42.746   5.564  -1.934  1.00 20.00     0.093 N 
ENDROOT
BRANCH   4   7
HETATM    7  C4  UNL     1     -42.058   3.243  -2.508  1.00 20.00    -0.018 A 
HETATM    8  C1  UNL     1     -41.342   2.403  -3.409  1.00 20.00     0.017 A 
HETATM    9  C2  UNL     1     -41.963   1.187  -3.588  1.00 20.00     0.050 A 
HETATM   10  S11 UNL     1     -43.406   1.063  -2.672  1.00 20.00    -0.113 SA
HETATM   11  C3  UNL     1     -43.200   2.638  -2.033  1.00 20.00     0.058 A 
ENDBRANCH   4   7
TORSDOF 1
ENDMDL
MODEL 7
REMARK VINA RESULT:      -3.9      3.468      4.389
REMARK  1 active torsions:
REMARK  status: ('A' for Active; 'I' for Inactive)
REMARK    1  A    between atoms: C4_4  and  C8_8 
ROOT
HETATM    1  C5  UNL     1     -33.949  13.675  -3.521  1.00 20.00     0.033 C 
HETATM    2  C6  UNL     1     -34.479  13.290  -4.894  1.00 20.00     0.042 C 
HETATM    3  C7  UNL     1     -33.217  14.978  -3.775  1.00 20.00     0.273 C 
HETATM    4  C8  UNL     1     -34.534  14.608  -5.690  1.00 20.00     0.256 C 
HETATM    5  C9  UNL     1     -33.463  16.786  -5.367  1.00 20.00     0.310 C 
HETATM    6  N10 UNL     1     -34.103  15.643  -4.729  1.00 20.00     0.093 N 
ENDROOT
BRANCH   4   7
HETATM    7  C4  UNL     1     -35.906  14.884  -6.268  1.00 20.00    -0.018 A 
HETATM    8  C1  UNL     1     -37.026  15.300  -5.491  1.00 20.00     0.017 A 
HETATM    9  C2  UNL     1     -38.153  15.482  -6.263  1.00 20.00     0.050 A 
HETATM   10  S11 UNL     1     -37.857  15.150  -7.918  1.00 20.00    -0.113 SA
HETATM   11  C3  UNL     1     -36.219  14.763  -7.604  1.00 20.00     0.058 A 
ENDBRANCH   4   7
TORSDOF 1
ENDMDL
MODEL 8
REMARK VINA RESULT:      -3.9      2.735      4.335
REMARK  1 active torsions:
REMARK  status: ('A' for Active; 'I' for Inactive)
REMARK    1  A    between atoms: C4_4  and  C8_8 
ROOT
HETATM    1  C5  UNL     1     -34.577  16.140  -1.971  1.00 20.00     0.033 C 
HETATM    2  C6  UNL     1     -34.289  15.131  -3.073  1.00 20.00     0.042 C 
HETATM    3  C7  UNL     1     -33.956  17.421  -2.490  1.00 20.00     0.273 C 
HETATM    4  C8  UNL     1     -34.065  15.973  -4.342  1.00 20.00     0.256 C 
HETATM    5  C9  UNL     1     -33.538  18.339  -4.692  1.00 20.00     0.310 C 
HETATM    6  N10 UNL     1     -34.293  17.367  -3.912  1.00 20.00     0.093 N 
ENDROOT
BRANCH   4   7
HETATM    7  C4  UNL     1     -34.968  15.560  -5.485  1.00 20.00    -0.018 A 
HETATM    8  C1  UNL     1     -34.537  14.776  -6.594  1.00 20.00     0.017 A 
HETATM    9  C2  UNL     1     -35.557  14.543  -7.490  1.00 20.00     0.050 A 
HETATM   10  S11 UNL     1     -37.027  15.269  -6.993  1.00 20.00    -0.113 SA
HETATM   11  C3  UNL     1     -36.300  15.897  -5.576  1.00 20.00     0.058 A 
ENDBRANCH   4   7
TORSDOF 1
ENDMDL
MODEL 9
REMARK VINA RESULT:      -3.8     12.906     14.724
REMARK  1 active torsions:
REMARK  status: ('A' for Active; 'I' for Inactive)
REMARK    1  A    between atoms: C4_4  and  C8_8 
ROOT
HETATM    1  C5  UNL     1     -41.236   6.323  -0.936  1.00 20.00     0.033 C 
HETATM    2  C6  UNL     1     -41.992   5.963  -2.207  1.00 20.00     0.042 C 
HETATM    3  C7  UNL     1     -42.028   5.633   0.157  1.00 20.00     0.273 C 
HETATM    4  C8  UNL     1     -42.770   4.679  -1.863  1.00 20.00     0.256 C 
HETATM    5  C9  UNL     1     -43.401   3.641   0.263  1.00 20.00     0.310 C 
HETATM    6  N10 UNL     1     -42.373   4.361  -0.477  1.00 20.00     0.093 N 
ENDROOT
BRANCH   4   7
HETATM    7  C4  UNL     1     -42.482   3.546  -2.826  1.00 20.00    -0.018 A 
HETATM    8  C1  UNL     1     -41.213   2.910  -2.948  1.00 20.00     0.017 A 
HETATM    9  C2  UNL     1     -41.223   1.912  -3.897  1.00 20.00     0.050 A 
HETATM   10  S11 UNL     1     -42.760   1.746  -4.638  1.00 20.00    -0.113 SA
HETATM   11  C3  UNL     1     -43.414   3.012  -3.688  1.00 20.00     0.058 A 
ENDBRANCH   4   7
TORSDOF 1
ENDMDL
