MODEL 1
REMARK VINA RESULT:      -4.3      0.000      0.000
REMARK  0 active torsions:
REMARK  status: ('A' for Active; 'I' for Inactive)
ROOT
HETATM    1  C1  UNL     1     -34.798  16.320  -2.041  1.00 20.00    -0.057 C 
HETATM    2  C2  UNL     1     -34.033  14.597  -3.651  1.00 20.00    -0.057 C 
HETATM    3  C3  UNL     1     -34.626  16.688  -0.763  1.00 20.00     0.016 C 
HETATM    4  C4  UNL     1     -33.227  13.528  -3.717  1.00 20.00     0.016 C 
HETATM    5  C5  UNL     1     -33.653  15.854  -2.908  1.00 20.00     0.070 C 
HETATM    6  C6  UNL     1     -36.152  16.316  -2.715  1.00 20.00     0.306 C 
HETATM    7  C7  UNL     1     -35.403  14.625  -4.295  1.00 20.00     0.306 C 
HETATM    8  C8  UNL     1     -37.762  15.021  -3.964  1.00 20.00     0.310 C 
HETATM    9  N9  UNL     1     -36.447  15.006  -3.324  1.00 20.00     0.091 N 
ENDROOT
TORSDOF 0
ENDMDL
MODEL 2
REMARK VINA RESULT:      -4.0      1.902      3.660
REMARK  0 active torsions:
REMARK  status: ('A' for Active; 'I' for Inactive)
ROOT
HETATM    1  C1  UNL     1     -34.075  14.886  -3.711  1.00 20.00    -0.057 C 
HETATM    2  C2  UNL     1     -34.705  16.558  -1.992  1.00 20.00    -0.057 C 
HETATM    3  C3  UNL     1     -33.403  13.732  -3.834  1.00 20.00     0.016 C 
HETATM    4  C4  UNL     1     -34.557  16.800  -0.682  1.00 20.00     0.016 C 
HETATM    5  C5  UNL     1     -34.976  15.176  -2.535  1.00 20.00     0.070 C 
HETATM    6  C6  UNL     1     -33.970  16.003  -4.726  1.00 20.00     0.306 C 
HETATM    7  C7  UNL     1     -34.588  17.644  -3.039  1.00 20.00     0.306 C 
HETATM    8  C8  UNL     1     -33.508  18.346  -5.082  1.00 20.00     0.310 C 
HETATM    9  N9  UNL     1     -33.610  17.281  -4.084  1.00 20.00     0.091 N 
ENDROOT
TORSDOF 0
ENDMDL
MODEL 3
REMARK VINA RESULT:      -3.9      2.083      2.530
REMARK  0 active torsions:
REMARK  status: ('A' for Active; 'I' for Inactive)
ROOT
HETATM    1  C1  UNL     1     -33.740  16.235  -3.097  1.00 20.00    -0.057 C 
HETATM    2  C2  UNL     1     -34.148  14.430  -4.745  1.00 20.00    -0.057 C 
HETATM    3  C3  UNL     1     -34.031  16.563  -1.829  1.00 20.00     0.016 C 
HETATM    4  C4  UNL     1     -34.780  13.253  -4.855  1.00 20.00     0.016 C 
HETATM    5  C5  UNL     1     -33.384  14.826  -3.506  1.00 20.00     0.070 C 
HETATM    6  C6  UNL     1     -33.766  17.241  -4.226  1.00 20.00     0.306 C 
HETATM    7  C7  UNL     1     -34.167  15.470  -5.844  1.00 20.00     0.306 C 
HETATM    8  C8  UNL     1     -34.635  17.769  -6.416  1.00 20.00     0.310 C 
HETATM    9  N9  UNL     1     -34.618  16.780  -5.337  1.00 20.00     0.091 N 
ENDROOT
TORSDOF 0
ENDMDL
MODEL 4
REMARK VINA RESULT:      -3.8      0.936      3.187
REMARK  0 active torsions:
REMARK  status: ('A' for Active; 'I' for Inactive)
ROOT
HETATM    1  C1  UNL     1     -36.990  15.414  -3.649  1.00 20.00    -0.057 C 
HETATM    2  C2  UNL     1     -35.003  16.109  -2.340  1.00 20.00    -0.057 C 
HETATM    3  C3  UNL     1     -38.301  15.180  -3.493  1.00 20.00     0.016 C 
HETATM    4  C4  UNL     1     -34.655  16.454  -1.092  1.00 20.00     0.016 C 
HETATM    5  C5  UNL     1     -36.290  16.571  -2.979  1.00 20.00     0.070 C 
HETATM    6  C6  UNL     1     -36.098  14.526  -4.489  1.00 20.00     0.306 C 
HETATM    7  C7  UNL     1     -34.147  15.208  -3.205  1.00 20.00     0.306 C 
HETATM    8  C8  UNL     1     -34.078  13.205  -4.552  1.00 20.00     0.310 C 
HETATM    9  N9  UNL     1     -34.924  14.066  -3.725  1.00 20.00     0.091 N 
ENDROOT
TORSDOF 0
ENDMDL
MODEL 5
REMARK VINA RESULT:      -3.7      3.709      5.625
REMARK  0 active torsions:
REMARK  status: ('A' for Active; 'I' for Inactive)
ROOT
HETATM    1  C1  UNL     1     -32.940  18.901   1.280  1.00 20.00    -0.057 C 
HETATM    2  C2  UNL     1     -34.560  17.568  -0.041  1.00 20.00    -0.057 C 
HETATM    3  C3  UNL     1     -31.622  18.991   1.513  1.00 20.00     0.016 C 
HETATM    4  C4  UNL     1     -34.596  16.546  -0.907  1.00 20.00     0.016 C 
HETATM    5  C5  UNL     1     -33.500  18.642  -0.098  1.00 20.00     0.070 C 
HETATM    6  C6  UNL     1     -33.973  19.028   2.377  1.00 20.00     0.306 C 
HETATM    7  C7  UNL     1     -35.563  17.719   1.082  1.00 20.00     0.306 C 
HETATM    8  C8  UNL     1     -35.878  18.013   3.458  1.00 20.00     0.310 C 
HETATM    9  N9  UNL     1     -34.892  17.874   2.387  1.00 20.00     0.091 N 
ENDROOT
TORSDOF 0
ENDMDL
MODEL 6
REMARK VINA RESULT:      -3.7      1.643      3.312
REMARK  0 active torsions:
REMARK  status: ('A' for Active; 'I' for Inactive)
ROOT
HETATM    1  C1  UNL     1     -35.421  14.425  -5.972  1.00 20.00    -0.057 C 
HETATM    2  C2  UNL     1     -34.130  14.075  -3.885  1.00 20.00    -0.057 C 
HETATM    3  C3  UNL     1     -35.256  14.422  -7.303  1.00 20.00     0.016 C 
HETATM    4  C4  UNL     1     -32.888  13.781  -3.474  1.00 20.00     0.016 C 
HETATM    5  C5  UNL     1     -34.770  13.401  -5.074  1.00 20.00     0.070 C 
HETATM    6  C6  UNL     1     -36.252  15.467  -5.256  1.00 20.00     0.306 C 
HETATM    7  C7  UNL     1     -34.984  15.124  -3.208  1.00 20.00     0.306 C 
HETATM    8  C8  UNL     1     -36.303  17.125  -3.502  1.00 20.00     0.310 C 
HETATM    9  N9  UNL     1     -35.485  16.118  -4.177  1.00 20.00     0.091 N 
ENDROOT
TORSDOF 0
ENDMDL
MODEL 7
REMARK VINA RESULT:      -3.7      1.799      2.979
REMARK  0 active torsions:
REMARK  status: ('A' for Active; 'I' for Inactive)
ROOT
HETATM    1  C1  UNL     1     -34.427  14.485  -4.332  1.00 20.00    -0.057 C 
HETATM    2  C2  UNL     1     -35.556  14.894  -6.501  1.00 20.00    -0.057 C 
HETATM    3  C3  UNL     1     -33.497  13.688  -3.786  1.00 20.00     0.016 C 
HETATM    4  C4  UNL     1     -35.570  14.440  -7.762  1.00 20.00     0.016 C 
HETATM    5  C5  UNL     1     -34.279  15.068  -5.717  1.00 20.00     0.070 C 
HETATM    6  C6  UNL     1     -35.712  14.846  -3.621  1.00 20.00     0.306 C 
HETATM    7  C7  UNL     1     -36.821  15.248  -5.748  1.00 20.00     0.306 C 
HETATM    8  C8  UNL     1     -38.123  14.894  -3.745  1.00 20.00     0.310 C 
HETATM    9  N9  UNL     1     -36.891  14.543  -4.453  1.00 20.00     0.091 N 
ENDROOT
TORSDOF 0
ENDMDL
MODEL 8
REMARK VINA RESULT:      -3.7      1.903      3.117
REMARK  0 active torsions:
REMARK  status: ('A' for Active; 'I' for Inactive)
ROOT
HETATM    1  C1  UNL     1     -34.258  16.998  -4.905  1.00 20.00    -0.057 C 
HETATM    2  C2  UNL     1     -34.188  16.114  -2.590  1.00 20.00    -0.057 C 
HETATM    3  C3  UNL     1     -34.789  18.007  -5.610  1.00 20.00     0.016 C 
HETATM    4  C4  UNL     1     -34.660  16.385  -1.364  1.00 20.00     0.016 C 
HETATM    5  C5  UNL     1     -33.687  17.192  -3.521  1.00 20.00     0.070 C 
HETATM    6  C6  UNL     1     -34.208  15.578  -5.424  1.00 20.00     0.306 C 
HETATM    7  C7  UNL     1     -34.139  14.710  -3.152  1.00 20.00     0.306 C 
HETATM    8  C8  UNL     1     -34.757  13.268  -4.987  1.00 20.00     0.310 C 
HETATM    9  N9  UNL     1     -34.810  14.633  -4.465  1.00 20.00     0.091 N 
ENDROOT
TORSDOF 0
ENDMDL
MODEL 9
REMARK VINA RESULT:      -3.7     10.932     12.270
REMARK  0 active torsions:
REMARK  status: ('A' for Active; 'I' for Inactive)
ROOT
HETATM    1  C1  UNL     1     -42.090   4.233  -2.225  1.00 20.00    -0.057 C 
HETATM    2  C2  UNL     1     -41.393   6.014  -0.649  1.00 20.00    -0.057 C 
HETATM    3  C3  UNL     1     -41.634   3.092  -2.764  1.00 20.00     0.016 C 
HETATM    4  C4  UNL     1     -40.356   6.362   0.126  1.00 20.00     0.016 C 
HETATM    5  C5  UNL     1     -41.867   4.587  -0.775  1.00 20.00     0.070 C 
HETATM    6  C6  UNL     1     -42.845   5.269  -3.028  1.00 20.00     0.306 C 
HETATM    7  C7  UNL     1     -42.160   7.019  -1.482  1.00 20.00     0.306 C 
HETATM    8  C8  UNL     1     -42.970   7.590  -3.684  1.00 20.00     0.310 C 
HETATM    9  N9  UNL     1     -42.230   6.604  -2.896  1.00 20.00     0.091 N 
ENDROOT
TORSDOF 0
ENDMDL
