MODEL 1
REMARK VINA RESULT:      -4.7      0.000      0.000
REMARK  0 active torsions:
REMARK  status: ('A' for Active; 'I' for Inactive)
ROOT
HETATM    1  C1  UNL     1     -33.998  15.847  -2.979  1.00 20.00    -0.037 C 
HETATM    2  C2  UNL     1     -35.384  15.372  -3.295  1.00 20.00     0.040 C 
HETATM    3  C3  UNL     1     -34.639  13.417  -4.309  1.00 20.00     0.243 C 
HETATM    4  C4  UNL     1     -33.765  16.889  -2.172  1.00 20.00    -0.022 C 
HETATM    5  C5  UNL     1     -32.902  15.041  -3.605  1.00 20.00     0.049 C 
HETATM    6  C6  UNL     1     -33.300  13.577  -3.623  1.00 20.00     0.110 C 
HETATM    7  C7  UNL     1     -36.567  16.217  -2.876  1.00 20.00     0.071 C 
HETATM    8  C8  UNL     1     -34.836  17.683  -1.505  1.00 20.00     0.036 C 
HETATM    9  N9  UNL     1     -35.652  14.262  -3.912  1.00 20.00    -0.219 NA
HETATM   10  O10 UNL     1     -34.807  12.515  -5.129  1.00 20.00    -0.271 OA
ENDROOT
TORSDOF 0
ENDMDL
MODEL 2
REMARK VINA RESULT:      -4.7      2.466      2.735
REMARK  0 active torsions:
REMARK  status: ('A' for Active; 'I' for Inactive)
ROOT
HETATM    1  C1  UNL     1     -33.657  16.356  -4.857  1.00 20.00    -0.037 C 
HETATM    2  C2  UNL     1     -34.327  15.630  -5.983  1.00 20.00     0.040 C 
HETATM    3  C3  UNL     1     -34.646  13.693  -4.735  1.00 20.00     0.243 C 
HETATM    4  C4  UNL     1     -33.403  17.670  -4.905  1.00 20.00    -0.022 C 
HETATM    5  C5  UNL     1     -33.334  15.507  -3.667  1.00 20.00     0.049 C 
HETATM    6  C6  UNL     1     -34.437  14.486  -3.463  1.00 20.00     0.110 C 
HETATM    7  C7  UNL     1     -34.528  16.339  -7.305  1.00 20.00     0.071 C 
HETATM    8  C8  UNL     1     -33.749  18.545  -6.060  1.00 20.00     0.036 C 
HETATM    9  N9  UNL     1     -34.763  14.409  -5.908  1.00 20.00    -0.219 NA
HETATM   10  O10 UNL     1     -34.775  12.471  -4.686  1.00 20.00    -0.271 OA
ENDROOT
TORSDOF 0
ENDMDL
MODEL 3
REMARK VINA RESULT:      -4.4      2.855      4.196
REMARK  0 active torsions:
REMARK  status: ('A' for Active; 'I' for Inactive)
ROOT
HETATM    1  C1  UNL     1     -34.521  15.342  -3.214  1.00 20.00    -0.037 C 
HETATM    2  C2  UNL     1     -34.012  16.299  -4.249  1.00 20.00     0.040 C 
HETATM    3  C3  UNL     1     -33.774  18.043  -2.729  1.00 20.00     0.243 C 
HETATM    4  C4  UNL     1     -34.657  14.032  -3.455  1.00 20.00    -0.022 C 
HETATM    5  C5  UNL     1     -34.825  15.960  -1.884  1.00 20.00     0.049 C 
HETATM    6  C6  UNL     1     -33.808  17.047  -1.590  1.00 20.00     0.110 C 
HETATM    7  C7  UNL     1     -33.853  15.826  -5.678  1.00 20.00     0.071 C 
HETATM    8  C8  UNL     1     -34.325  13.385  -4.757  1.00 20.00     0.036 C 
HETATM    9  N9  UNL     1     -33.686  17.532  -4.006  1.00 20.00    -0.219 NA
HETATM   10  O10 UNL     1     -33.755  19.250  -2.491  1.00 20.00    -0.271 OA
ENDROOT
TORSDOF 0
ENDMDL
MODEL 4
REMARK VINA RESULT:      -4.4      1.775      3.253
REMARK  0 active torsions:
REMARK  status: ('A' for Active; 'I' for Inactive)
ROOT
HETATM    1  C1  UNL     1     -34.917  15.481  -3.162  1.00 20.00    -0.037 C 
HETATM    2  C2  UNL     1     -35.343  14.215  -3.841  1.00 20.00     0.040 C 
HETATM    3  C3  UNL     1     -37.603  14.758  -3.752  1.00 20.00     0.243 C 
HETATM    4  C4  UNL     1     -33.635  15.862  -3.100  1.00 20.00    -0.022 C 
HETATM    5  C5  UNL     1     -36.038  16.299  -2.599  1.00 20.00     0.049 C 
HETATM    6  C6  UNL     1     -37.240  16.208  -3.520  1.00 20.00     0.110 C 
HETATM    7  C7  UNL     1     -34.290  13.220  -4.279  1.00 20.00     0.071 C 
HETATM    8  C8  UNL     1     -32.505  15.087  -3.687  1.00 20.00     0.036 C 
HETATM    9  N9  UNL     1     -36.578  13.901  -4.092  1.00 20.00    -0.219 NA
HETATM   10  O10 UNL     1     -38.780  14.402  -3.703  1.00 20.00    -0.271 OA
ENDROOT
TORSDOF 0
ENDMDL
MODEL 5
REMARK VINA RESULT:      -4.4      1.644      2.065
REMARK  0 active torsions:
REMARK  status: ('A' for Active; 'I' for Inactive)
ROOT
HETATM    1  C1  UNL     1     -34.574  16.576  -4.524  1.00 20.00    -0.037 C 
HETATM    2  C2  UNL     1     -34.394  15.744  -3.290  1.00 20.00     0.040 C 
HETATM    3  C3  UNL     1     -34.719  13.738  -4.420  1.00 20.00     0.243 C 
HETATM    4  C4  UNL     1     -34.288  17.883  -4.553  1.00 20.00    -0.022 C 
HETATM    5  C5  UNL     1     -35.056  15.821  -5.724  1.00 20.00     0.049 C 
HETATM    6  C6  UNL     1     -34.435  14.437  -5.732  1.00 20.00     0.110 C 
HETATM    7  C7  UNL     1     -34.094  16.429  -1.974  1.00 20.00     0.071 C 
HETATM    8  C8  UNL     1     -33.769  18.650  -3.384  1.00 20.00     0.036 C 
HETATM    9  N9  UNL     1     -34.474  14.449  -3.265  1.00 20.00    -0.219 NA
HETATM   10  O10 UNL     1     -35.082  12.562  -4.415  1.00 20.00    -0.271 OA
ENDROOT
TORSDOF 0
ENDMDL
MODEL 6
REMARK VINA RESULT:      -4.3     11.609     12.758
REMARK  0 active torsions:
REMARK  status: ('A' for Active; 'I' for Inactive)
ROOT
HETATM    1  C1  UNL     1     -41.619   5.358  -1.863  1.00 20.00    -0.037 C 
HETATM    2  C2  UNL     1     -42.674   5.764  -2.847  1.00 20.00     0.040 C 
HETATM    3  C3  UNL     1     -43.062   3.581  -3.550  1.00 20.00     0.243 C 
HETATM    4  C4  UNL     1     -41.125   6.207  -0.952  1.00 20.00    -0.022 C 
HETATM    5  C5  UNL     1     -41.194   3.925  -1.954  1.00 20.00     0.049 C 
HETATM    6  C6  UNL     1     -42.397   3.064  -2.293  1.00 20.00     0.110 C 
HETATM    7  C7  UNL     1     -43.042   7.226  -2.974  1.00 20.00     0.071 C 
HETATM    8  C8  UNL     1     -41.559   7.627  -0.814  1.00 20.00     0.036 C 
HETATM    9  N9  UNL     1     -43.313   4.935  -3.614  1.00 20.00    -0.219 NA
HETATM   10  O10 UNL     1     -43.417   2.795  -4.427  1.00 20.00    -0.271 OA
ENDROOT
TORSDOF 0
ENDMDL
MODEL 7
REMARK VINA RESULT:      -4.2      1.889      2.303
REMARK  0 active torsions:
REMARK  status: ('A' for Active; 'I' for Inactive)
ROOT
HETATM    1  C1  UNL     1     -34.288  15.568  -3.212  1.00 20.00    -0.037 C 
HETATM    2  C2  UNL     1     -34.023  16.598  -4.268  1.00 20.00     0.040 C 
HETATM    3  C3  UNL     1     -34.419  15.115  -6.016  1.00 20.00     0.243 C 
HETATM    4  C4  UNL     1     -34.417  15.889  -1.918  1.00 20.00    -0.022 C 
HETATM    5  C5  UNL     1     -34.436  14.169  -3.723  1.00 20.00     0.049 C 
HETATM    6  C6  UNL     1     -35.149  14.194  -5.062  1.00 20.00     0.110 C 
HETATM    7  C7  UNL     1     -33.668  18.009  -3.853  1.00 20.00     0.071 C 
HETATM    8  C8  UNL     1     -34.313  17.278  -1.388  1.00 20.00     0.036 C 
HETATM    9  N9  UNL     1     -34.079  16.365  -5.544  1.00 20.00    -0.219 NA
HETATM   10  O10 UNL     1     -34.216  14.763  -7.177  1.00 20.00    -0.271 OA
ENDROOT
TORSDOF 0
ENDMDL
MODEL 8
REMARK VINA RESULT:      -4.2      2.655      3.952
REMARK  0 active torsions:
REMARK  status: ('A' for Active; 'I' for Inactive)
ROOT
HETATM    1  C1  UNL     1     -34.105  15.736  -5.399  1.00 20.00    -0.037 C 
HETATM    2  C2  UNL     1     -34.552  14.891  -4.245  1.00 20.00     0.040 C 
HETATM    3  C3  UNL     1     -33.963  16.489  -2.660  1.00 20.00     0.243 C 
HETATM    4  C4  UNL     1     -34.388  15.419  -6.669  1.00 20.00    -0.022 C 
HETATM    5  C5  UNL     1     -33.358  16.976  -5.016  1.00 20.00     0.049 C 
HETATM    6  C6  UNL     1     -33.949  17.548  -3.742  1.00 20.00     0.110 C 
HETATM    7  C7  UNL     1     -35.147  13.526  -4.515  1.00 20.00     0.071 C 
HETATM    8  C8  UNL     1     -35.164  14.213  -7.075  1.00 20.00     0.036 C 
HETATM    9  N9  UNL     1     -34.469  15.252  -3.000  1.00 20.00    -0.219 NA
HETATM   10  O10 UNL     1     -33.601  16.769  -1.519  1.00 20.00    -0.271 OA
ENDROOT
TORSDOF 0
ENDMDL
MODEL 9
REMARK VINA RESULT:      -4.2      2.678      3.443
REMARK  0 active torsions:
REMARK  status: ('A' for Active; 'I' for Inactive)
ROOT
HETATM    1  C1  UNL     1     -34.273  16.841  -1.634  1.00 20.00    -0.037 C 
HETATM    2  C2  UNL     1     -33.691  18.086  -2.231  1.00 20.00     0.040 C 
HETATM    3  C3  UNL     1     -33.751  17.247  -4.399  1.00 20.00     0.243 C 
HETATM    4  C4  UNL     1     -34.690  16.784  -0.363  1.00 20.00    -0.022 C 
HETATM    5  C5  UNL     1     -34.387  15.686  -2.580  1.00 20.00     0.049 C 
HETATM    6  C6  UNL     1     -34.750  16.199  -3.960  1.00 20.00     0.110 C 
HETATM    7  C7  UNL     1     -33.355  19.252  -1.326  1.00 20.00     0.071 C 
HETATM    8  C8  UNL     1     -34.625  17.930   0.588  1.00 20.00     0.036 C 
HETATM    9  N9  UNL     1     -33.452  18.246  -3.497  1.00 20.00    -0.219 NA
HETATM   10  O10 UNL     1     -33.296  17.225  -5.542  1.00 20.00    -0.271 OA
ENDROOT
TORSDOF 0
ENDMDL
