MODEL 1
REMARK VINA RESULT:      -3.5      0.000      0.000
REMARK  0 active torsions:
REMARK  status: ('A' for Active; 'I' for Inactive)
ROOT
HETATM    1  C1  UNL     1     -34.479  15.957  -5.723  1.00 20.00     0.011 C 
HETATM    2  C2  UNL     1     -33.261  16.211  -4.834  1.00 20.00     0.017 C 
HETATM    3  C3  UNL     1     -34.625  14.500  -6.139  1.00 20.00     0.074 C 
HETATM    4  C4  UNL     1     -33.378  13.877  -3.760  1.00 20.00     0.089 C 
HETATM    5  C5  UNL     1     -33.210  15.378  -3.556  1.00 20.00     0.067 C 
HETATM    6  S6  UNL     1     -34.862  13.415  -4.706  1.00 20.00    -0.168 SA
HETATM    7 BR7  UNL     1     -34.527  16.043  -2.260  1.00 20.00    -0.090 Br
ENDROOT
TORSDOF 0
ENDMDL
MODEL 2
REMARK VINA RESULT:      -3.3     12.070     12.635
REMARK  0 active torsions:
REMARK  status: ('A' for Active; 'I' for Inactive)
ROOT
HETATM    1  C1  UNL     1     -41.726   7.452  -1.155  1.00 20.00     0.011 C 
HETATM    2  C2  UNL     1     -40.834   6.421  -0.460  1.00 20.00     0.017 C 
HETATM    3  C3  UNL     1     -41.977   7.137  -2.622  1.00 20.00     0.074 C 
HETATM    4  C4  UNL     1     -41.689   4.486  -1.922  1.00 20.00     0.089 C 
HETATM    5  C5  UNL     1     -41.342   4.983  -0.524  1.00 20.00     0.067 C 
HETATM    6  S6  UNL     1     -42.845   5.560  -2.829  1.00 20.00    -0.168 SA
HETATM    7 BR7  UNL     1     -42.872   4.749   0.684  1.00 20.00    -0.090 Br
ENDROOT
TORSDOF 0
ENDMDL
MODEL 3
REMARK VINA RESULT:      -3.3      2.345      3.038
REMARK  0 active torsions:
REMARK  status: ('A' for Active; 'I' for Inactive)
ROOT
HETATM    1  C1  UNL     1     -33.111  15.302  -3.691  1.00 20.00     0.011 C 
HETATM    2  C2  UNL     1     -34.479  14.923  -3.120  1.00 20.00     0.017 C 
HETATM    3  C3  UNL     1     -33.193  16.316  -4.823  1.00 20.00     0.074 C 
HETATM    4  C4  UNL     1     -35.478  17.245  -3.592  1.00 20.00     0.089 C 
HETATM    5  C5  UNL     1     -35.310  16.096  -2.606  1.00 20.00     0.067 C 
HETATM    6  S6  UNL     1     -33.914  17.884  -4.267  1.00 20.00    -0.168 SA
HETATM    7 BR7  UNL     1     -34.576  16.753  -0.907  1.00 20.00    -0.090 Br
ENDROOT
TORSDOF 0
ENDMDL
MODEL 4
REMARK VINA RESULT:      -3.2      2.101      3.227
REMARK  0 active torsions:
REMARK  status: ('A' for Active; 'I' for Inactive)
ROOT
HETATM    1  C1  UNL     1     -34.162  13.918  -3.554  1.00 20.00     0.011 C 
HETATM    2  C2  UNL     1     -34.714  13.331  -4.854  1.00 20.00     0.017 C 
HETATM    3  C3  UNL     1     -32.987  14.861  -3.773  1.00 20.00     0.074 C 
HETATM    4  C4  UNL     1     -34.124  15.428  -6.220  1.00 20.00     0.089 C 
HETATM    5  C5  UNL     1     -35.160  14.362  -5.888  1.00 20.00     0.067 C 
HETATM    6  S6  UNL     1     -33.461  16.301  -4.768  1.00 20.00    -0.168 SA
HETATM    7 BR7  UNL     1     -36.847  15.197  -5.330  1.00 20.00    -0.090 Br
ENDROOT
TORSDOF 0
ENDMDL
MODEL 5
REMARK VINA RESULT:      -3.2      1.829      2.536
REMARK  0 active torsions:
REMARK  status: ('A' for Active; 'I' for Inactive)
ROOT
HETATM    1  C1  UNL     1     -33.795  13.903  -3.788  1.00 20.00     0.011 C 
HETATM    2  C2  UNL     1     -34.491  15.082  -3.108  1.00 20.00     0.017 C 
HETATM    3  C3  UNL     1     -34.674  13.193  -4.807  1.00 20.00     0.074 C 
HETATM    4  C4  UNL     1     -35.903  15.632  -5.185  1.00 20.00     0.089 C 
HETATM    5  C5  UNL     1     -35.021  16.153  -4.058  1.00 20.00     0.067 C 
HETATM    6  S6  UNL     1     -35.149  14.297  -6.165  1.00 20.00    -0.168 SA
HETATM    7 BR7  UNL     1     -33.534  17.210  -4.784  1.00 20.00    -0.090 Br
ENDROOT
TORSDOF 0
ENDMDL
MODEL 6
REMARK VINA RESULT:      -3.1      2.682      3.227
REMARK  0 active torsions:
REMARK  status: ('A' for Active; 'I' for Inactive)
ROOT
HETATM    1  C1  UNL     1     -36.011  15.628  -3.438  1.00 20.00     0.011 C 
HETATM    2  C2  UNL     1     -36.271  14.223  -3.984  1.00 20.00     0.017 C 
HETATM    3  C3  UNL     1     -34.751  15.718  -2.590  1.00 20.00     0.074 C 
HETATM    4  C4  UNL     1     -33.766  13.668  -4.147  1.00 20.00     0.089 C 
HETATM    5  C5  UNL     1     -35.134  13.634  -4.816  1.00 20.00     0.067 C 
HETATM    6  S6  UNL     1     -33.268  15.312  -3.550  1.00 20.00    -0.168 SA
HETATM    7 BR7  UNL     1     -35.058  14.505  -6.573  1.00 20.00    -0.090 Br
ENDROOT
TORSDOF 0
ENDMDL
MODEL 7
REMARK VINA RESULT:      -3.1      1.886      2.100
REMARK  0 active torsions:
REMARK  status: ('A' for Active; 'I' for Inactive)
ROOT
HETATM    1  C1  UNL     1     -36.362  14.684  -3.785  1.00 20.00     0.011 C 
HETATM    2  C2  UNL     1     -35.990  16.162  -3.915  1.00 20.00     0.017 C 
HETATM    3  C3  UNL     1     -35.380  13.755  -4.485  1.00 20.00     0.074 C 
HETATM    4  C4  UNL     1     -33.467  15.671  -3.968  1.00 20.00     0.089 C 
HETATM    5  C5  UNL     1     -34.597  16.524  -3.406  1.00 20.00     0.067 C 
HETATM    6  S6  UNL     1     -33.717  13.880  -3.774  1.00 20.00    -0.168 SA
HETATM    7 BR7  UNL     1     -34.565  16.497  -1.443  1.00 20.00    -0.090 Br
ENDROOT
TORSDOF 0
ENDMDL
MODEL 8
REMARK VINA RESULT:      -3.1      1.911      2.559
REMARK  0 active torsions:
REMARK  status: ('A' for Active; 'I' for Inactive)
ROOT
HETATM    1  C1  UNL     1     -33.969  16.345  -3.592  1.00 20.00     0.011 C 
HETATM    2  C2  UNL     1     -34.313  14.948  -3.074  1.00 20.00     0.017 C 
HETATM    3  C3  UNL     1     -33.276  16.329  -4.947  1.00 20.00     0.074 C 
HETATM    4  C4  UNL     1     -34.675  14.006  -5.439  1.00 20.00     0.089 C 
HETATM    5  C5  UNL     1     -35.186  14.112  -4.008  1.00 20.00     0.067 C 
HETATM    6  S6  UNL     1     -34.334  15.608  -6.230  1.00 20.00    -0.168 SA
HETATM    7 BR7  UNL     1     -37.032  14.779  -3.988  1.00 20.00    -0.090 Br
ENDROOT
TORSDOF 0
ENDMDL
MODEL 9
REMARK VINA RESULT:      -3.1     12.439     13.485
REMARK  0 active torsions:
REMARK  status: ('A' for Active; 'I' for Inactive)
ROOT
HETATM    1  C1  UNL     1     -33.832   5.762   6.424  1.00 20.00     0.011 C 
HETATM    2  C2  UNL     1     -34.030   6.938   5.467  1.00 20.00     0.017 C 
HETATM    3  C3  UNL     1     -34.923   4.708   6.314  1.00 20.00     0.074 C 
HETATM    4  C4  UNL     1     -35.155   5.475   3.676  1.00 20.00     0.089 C 
HETATM    5  C5  UNL     1     -34.130   6.558   3.992  1.00 20.00     0.067 C 
HETATM    6  S6  UNL     1     -34.965   3.959   4.663  1.00 20.00    -0.168 SA
HETATM    7 BR7  UNL     1     -32.364   6.051   3.300  1.00 20.00    -0.090 Br
ENDROOT
TORSDOF 0
ENDMDL
