MODEL 1
REMARK VINA RESULT:      -4.3      0.000      0.000
REMARK  0 active torsions:
REMARK  status: ('A' for Active; 'I' for Inactive)
ROOT
HETATM    1  C1  UNL     1     -33.544   5.701   2.617  1.00 20.00     0.034 A 
HETATM    2  C2  UNL     1     -33.665   6.464   6.050  1.00 20.00     0.027 A 
HETATM    3  C3  UNL     1     -32.547   6.758   2.841  1.00 20.00     0.118 A 
HETATM    4  C4  UNL     1     -35.030   4.666   4.387  1.00 20.00     0.124 A 
HETATM    5  C5  UNL     1     -34.001   5.562   3.857  1.00 20.00     0.011 A 
HETATM    6  C6  UNL     1     -33.344   6.453   4.757  1.00 20.00     0.066 A 
HETATM    7  C7  UNL     1     -34.728   5.540   6.593  1.00 20.00     0.178 A 
HETATM    8  N8  UNL     1     -32.427   7.194   4.062  1.00 20.00    -0.261 NA
HETATM    9  N9  UNL     1     -35.385   4.629   5.624  1.00 20.00    -0.297 NA
ENDROOT
TORSDOF 0
ENDMDL
MODEL 2
REMARK VINA RESULT:      -4.2      1.203      2.000
REMARK  0 active torsions:
REMARK  status: ('A' for Active; 'I' for Inactive)
ROOT
HETATM    1  C1  UNL     1     -32.584   7.073   3.921  1.00 20.00     0.034 A 
HETATM    2  C2  UNL     1     -35.045   4.641   4.560  1.00 20.00     0.027 A 
HETATM    3  C3  UNL     1     -32.849   6.405   2.638  1.00 20.00     0.118 A 
HETATM    4  C4  UNL     1     -33.707   6.541   6.127  1.00 20.00     0.124 A 
HETATM    5  C5  UNL     1     -33.431   6.404   4.697  1.00 20.00     0.011 A 
HETATM    6  C6  UNL     1     -34.147   5.417   3.956  1.00 20.00     0.066 A 
HETATM    7  C7  UNL     1     -35.327   4.784   6.037  1.00 20.00     0.178 A 
HETATM    8  N8  UNL     1     -33.740   5.456   2.649  1.00 20.00    -0.261 NA
HETATM    9  N9  UNL     1     -34.561   5.823   6.768  1.00 20.00    -0.297 NA
ENDROOT
TORSDOF 0
ENDMDL
MODEL 3
REMARK VINA RESULT:      -4.1     11.707     12.468
REMARK  0 active torsions:
REMARK  status: ('A' for Active; 'I' for Inactive)
ROOT
HETATM    1  C1  UNL     1     -33.792  16.441  -2.342  1.00 20.00     0.034 A 
HETATM    2  C2  UNL     1     -36.027  14.305  -4.024  1.00 20.00     0.027 A 
HETATM    3  C3  UNL     1     -35.122  17.057  -2.223  1.00 20.00     0.118 A 
HETATM    4  C4  UNL     1     -33.267  14.269  -3.532  1.00 20.00     0.124 A 
HETATM    5  C5  UNL     1     -34.112  15.358  -3.043  1.00 20.00     0.011 A 
HETATM    6  C6  UNL     1     -35.510  15.317  -3.327  1.00 20.00     0.066 A 
HETATM    7  C7  UNL     1     -35.152  13.183  -4.528  1.00 20.00     0.178 A 
HETATM    8  N8  UNL     1     -36.110  16.421  -2.785  1.00 20.00    -0.261 NA
HETATM    9  N9  UNL     1     -33.705  13.265  -4.209  1.00 20.00    -0.297 NA
ENDROOT
TORSDOF 0
ENDMDL
MODEL 4
REMARK VINA RESULT:      -4.0      9.907     10.933
REMARK  0 active torsions:
REMARK  status: ('A' for Active; 'I' for Inactive)
ROOT
HETATM    1  C1  UNL     1     -42.219   3.118  -2.574  1.00 20.00     0.034 A 
HETATM    2  C2  UNL     1     -42.240   6.628  -2.319  1.00 20.00     0.027 A 
HETATM    3  C3  UNL     1     -43.237   3.595  -3.521  1.00 20.00     0.118 A 
HETATM    4  C4  UNL     1     -40.788   4.576  -1.078  1.00 20.00     0.124 A 
HETATM    5  C5  UNL     1     -41.808   4.284  -2.086  1.00 20.00     0.011 A 
HETATM    6  C6  UNL     1     -42.511   5.374  -2.679  1.00 20.00     0.066 A 
HETATM    7  C7  UNL     1     -41.188   6.925  -1.278  1.00 20.00     0.178 A 
HETATM    8  N8  UNL     1     -43.412   4.884  -3.587  1.00 20.00    -0.261 NA
HETATM    9  N9  UNL     1     -40.480   5.763  -0.687  1.00 20.00    -0.297 NA
ENDROOT
TORSDOF 0
ENDMDL
MODEL 5
REMARK VINA RESULT:      -4.0     11.496     13.124
REMARK  0 active torsions:
REMARK  status: ('A' for Active; 'I' for Inactive)
ROOT
HETATM    1  C1  UNL     1     -33.792  16.044  -2.697  1.00 20.00     0.034 A 
HETATM    2  C2  UNL     1     -34.576  15.033  -5.976  1.00 20.00     0.027 A 
HETATM    3  C3  UNL     1     -33.711  17.251  -3.534  1.00 20.00     0.118 A 
HETATM    4  C4  UNL     1     -34.385  13.719  -3.506  1.00 20.00     0.124 A 
HETATM    5  C5  UNL     1     -34.130  15.155  -3.626  1.00 20.00     0.011 A 
HETATM    6  C6  UNL     1     -34.244  15.763  -4.911  1.00 20.00     0.066 A 
HETATM    7  C7  UNL     1     -34.837  13.551  -5.849  1.00 20.00     0.178 A 
HETATM    8  N8  UNL     1     -33.967  17.099  -4.801  1.00 20.00    -0.261 NA
HETATM    9  N9  UNL     1     -34.708  12.960  -4.494  1.00 20.00    -0.297 NA
ENDROOT
TORSDOF 0
ENDMDL
MODEL 6
REMARK VINA RESULT:      -4.0     11.926     13.416
REMARK  0 active torsions:
REMARK  status: ('A' for Active; 'I' for Inactive)
ROOT
HETATM    1  C1  UNL     1     -34.723  15.817  -6.877  1.00 20.00     0.034 A 
HETATM    2  C2  UNL     1     -33.376  14.994  -3.732  1.00 20.00     0.027 A 
HETATM    3  C3  UNL     1     -34.019  17.017  -6.401  1.00 20.00     0.118 A 
HETATM    4  C4  UNL     1     -34.900  13.615  -5.639  1.00 20.00     0.124 A 
HETATM    5  C5  UNL     1     -34.489  15.003  -5.852  1.00 20.00     0.011 A 
HETATM    6  C6  UNL     1     -33.715  15.648  -4.842  1.00 20.00     0.066 A 
HETATM    7  C7  UNL     1     -33.802  13.562  -3.514  1.00 20.00     0.178 A 
HETATM    8  N8  UNL     1     -33.441  16.929  -5.238  1.00 20.00    -0.261 NA
HETATM    9  N9  UNL     1     -34.605  12.930  -4.590  1.00 20.00    -0.297 NA
ENDROOT
TORSDOF 0
ENDMDL
MODEL 7
REMARK VINA RESULT:      -4.0      1.226      3.071
REMARK  0 active torsions:
REMARK  status: ('A' for Active; 'I' for Inactive)
ROOT
HETATM    1  C1  UNL     1     -35.286   4.540   5.109  1.00 20.00     0.034 A 
HETATM    2  C2  UNL     1     -32.846   7.014   4.551  1.00 20.00     0.027 A 
HETATM    3  C3  UNL     1     -35.032   5.172   6.412  1.00 20.00     0.118 A 
HETATM    4  C4  UNL     1     -34.162   5.149   2.923  1.00 20.00     0.124 A 
HETATM    5  C5  UNL     1     -34.444   5.241   4.356  1.00 20.00     0.011 A 
HETATM    6  C6  UNL     1     -33.739   6.211   5.129  1.00 20.00     0.066 A 
HETATM    7  C7  UNL     1     -32.557   6.917   3.072  1.00 20.00     0.178 A 
HETATM    8  N8  UNL     1     -34.148   6.129   6.432  1.00 20.00    -0.261 NA
HETATM    9  N9  UNL     1     -33.313   5.895   2.307  1.00 20.00    -0.297 NA
ENDROOT
TORSDOF 0
ENDMDL
MODEL 8
REMARK VINA RESULT:      -3.9     11.661     12.471
REMARK  0 active torsions:
REMARK  status: ('A' for Active; 'I' for Inactive)
ROOT
HETATM    1  C1  UNL     1     -37.132  14.700  -3.994  1.00 20.00     0.034 A 
HETATM    2  C2  UNL     1     -33.789  15.467  -3.207  1.00 20.00     0.027 A 
HETATM    3  C3  UNL     1     -37.142  16.053  -3.418  1.00 20.00     0.118 A 
HETATM    4  C4  UNL     1     -35.084  13.250  -4.332  1.00 20.00     0.124 A 
HETATM    5  C5  UNL     1     -35.830  14.441  -3.926  1.00 20.00     0.011 A 
HETATM    6  C6  UNL     1     -35.111  15.535  -3.359  1.00 20.00     0.066 A 
HETATM    7  C7  UNL     1     -33.022  14.235  -3.626  1.00 20.00     0.178 A 
HETATM    8  N8  UNL     1     -35.991  16.538  -3.052  1.00 20.00    -0.261 NA
HETATM    9  N9  UNL     1     -33.809  13.122  -4.211  1.00 20.00    -0.297 NA
ENDROOT
TORSDOF 0
ENDMDL
MODEL 9
REMARK VINA RESULT:      -3.9     11.965     13.817
REMARK  0 active torsions:
REMARK  status: ('A' for Active; 'I' for Inactive)
ROOT
HETATM    1  C1  UNL     1     -33.620  14.739  -3.673  1.00 20.00     0.034 A 
HETATM    2  C2  UNL     1     -35.197  14.188  -6.770  1.00 20.00     0.027 A 
HETATM    3  C3  UNL     1     -34.160  13.372  -3.625  1.00 20.00     0.118 A 
HETATM    4  C4  UNL     1     -33.814  16.340  -5.624  1.00 20.00     0.124 A 
HETATM    5  C5  UNL     1     -34.010  15.088  -4.895  1.00 20.00     0.011 A 
HETATM    6  C6  UNL     1     -34.723  14.030  -5.535  1.00 20.00     0.066 A 
HETATM    7  C7  UNL     1     -34.994  15.483  -7.520  1.00 20.00     0.178 A 
HETATM    8  N8  UNL     1     -34.793  12.959  -4.685  1.00 20.00    -0.261 NA
HETATM    9  N9  UNL     1     -34.246  16.555  -6.818  1.00 20.00    -0.297 NA
ENDROOT
TORSDOF 0
ENDMDL
