MODEL 1
REMARK VINA RESULT:      -4.7      0.000      0.000
REMARK  1 active torsions:
REMARK  status: ('A' for Active; 'I' for Inactive)
REMARK    1  A    between atoms: C2_2  and  C6_6 
ROOT
HETATM    1  C1  UNL     1     -35.192   4.812   6.042  1.00 20.00     0.119 A 
HETATM    2  C2  UNL     1     -34.003   5.984   4.581  1.00 20.00     0.043 A 
HETATM    3  C3  UNL     1     -34.907   4.812   4.584  1.00 20.00     0.105 A 
HETATM    4  N7  UNL     1     -34.589   5.757   6.688  1.00 20.00    -0.167 NA
HETATM    5  N8  UNL     1     -33.821   6.516   5.748  1.00 20.00    -0.159 NA
ENDROOT
BRANCH   2   6
HETATM    6  C6  UNL     1     -33.372   6.499   3.358  1.00 20.00     0.035 A 
HETATM    7  C4  UNL     1     -32.097   7.289   3.463  1.00 20.00     0.011 A 
HETATM    8  C5  UNL     1     -32.072   5.902   2.894  1.00 20.00     0.011 A 
ENDBRANCH   2   6
TORSDOF 1
ENDMDL
MODEL 2
REMARK VINA RESULT:      -4.6      1.198      1.354
REMARK  1 active torsions:
REMARK  status: ('A' for Active; 'I' for Inactive)
REMARK    1  A    between atoms: C2_2  and  C6_6 
ROOT
HETATM    1  C1  UNL     1     -34.782   5.294   6.514  1.00 20.00     0.119 A 
HETATM    2  C2  UNL     1     -34.056   5.930   4.517  1.00 20.00     0.043 A 
HETATM    3  C3  UNL     1     -33.910   6.345   5.930  1.00 20.00     0.105 A 
HETATM    4  N7  UNL     1     -35.288   4.492   5.634  1.00 20.00    -0.167 NA
HETATM    5  N8  UNL     1     -34.820   4.899   4.343  1.00 20.00    -0.159 NA
ENDROOT
BRANCH   2   6
HETATM    6  C6  UNL     1     -33.385   6.627   3.410  1.00 20.00     0.035 A 
HETATM    7  C4  UNL     1     -32.028   7.233   3.636  1.00 20.00     0.011 A 
HETATM    8  C5  UNL     1     -32.167   6.007   2.783  1.00 20.00     0.011 A 
ENDBRANCH   2   6
TORSDOF 1
ENDMDL
MODEL 3
REMARK VINA RESULT:      -4.3      1.299      3.460
REMARK  1 active torsions:
REMARK  status: ('A' for Active; 'I' for Inactive)
REMARK    1  A    between atoms: C2_2  and  C6_6 
ROOT
HETATM    1  C1  UNL     1     -32.393   6.467   2.691  1.00 20.00     0.119 A 
HETATM    2  C2  UNL     1     -33.815   6.004   4.331  1.00 20.00     0.043 A 
HETATM    3  C3  UNL     1     -33.575   5.598   2.927  1.00 20.00     0.105 A 
HETATM    4  N7  UNL     1     -32.061   7.180   3.718  1.00 20.00    -0.167 NA
HETATM    5  N8  UNL     1     -32.976   6.883   4.779  1.00 20.00    -0.159 NA
ENDROOT
BRANCH   2   6
HETATM    6  C6  UNL     1     -34.907   5.450   5.143  1.00 20.00     0.035 A 
HETATM    7  C4  UNL     1     -35.146   3.966   5.143  1.00 20.00     0.011 A 
HETATM    8  C5  UNL     1     -34.575   4.630   6.360  1.00 20.00     0.011 A 
ENDBRANCH   2   6
TORSDOF 1
ENDMDL
MODEL 4
REMARK VINA RESULT:      -4.2     12.014     12.582
REMARK  1 active torsions:
REMARK  status: ('A' for Active; 'I' for Inactive)
REMARK    1  A    between atoms: C2_2  and  C6_6 
ROOT
HETATM    1  C1  UNL     1     -34.912  13.674  -5.585  1.00 20.00     0.119 A 
HETATM    2  C2  UNL     1     -34.110  14.666  -3.769  1.00 20.00     0.043 A 
HETATM    3  C3  UNL     1     -34.544  15.041  -5.134  1.00 20.00     0.105 A 
HETATM    4  N7  UNL     1     -34.725  12.764  -4.685  1.00 20.00    -0.167 NA
HETATM    5  N8  UNL     1     -34.208  13.400  -3.511  1.00 20.00    -0.159 NA
ENDROOT
BRANCH   2   6
HETATM    6  C6  UNL     1     -33.615  15.647  -2.793  1.00 20.00     0.035 A 
HETATM    7  C4  UNL     1     -34.051  17.081  -2.906  1.00 20.00     0.011 A 
HETATM    8  C5  UNL     1     -34.571  16.229  -1.788  1.00 20.00     0.011 A 
ENDBRANCH   2   6
TORSDOF 1
ENDMDL
MODEL 5
REMARK VINA RESULT:      -3.7     12.413     13.497
REMARK  1 active torsions:
REMARK  status: ('A' for Active; 'I' for Inactive)
REMARK    1  A    between atoms: C2_2  and  C6_6 
ROOT
HETATM    1  C1  UNL     1     -34.089  13.930  -3.482  1.00 20.00     0.119 A 
HETATM    2  C2  UNL     1     -34.480  14.315  -5.632  1.00 20.00     0.043 A 
HETATM    3  C3  UNL     1     -33.861  15.007  -4.480  1.00 20.00     0.105 A 
HETATM    4  N7  UNL     1     -34.690  12.893  -3.969  1.00 20.00    -0.167 NA
HETATM    5  N8  UNL     1     -34.943  13.137  -5.356  1.00 20.00    -0.159 NA
ENDROOT
BRANCH   2   6
HETATM    6  C6  UNL     1     -34.556  14.913  -6.973  1.00 20.00     0.035 A 
HETATM    7  C4  UNL     1     -35.644  14.476  -7.913  1.00 20.00     0.011 A 
HETATM    8  C5  UNL     1     -35.692  15.843  -7.299  1.00 20.00     0.011 A 
ENDBRANCH   2   6
TORSDOF 1
ENDMDL
MODEL 6
REMARK VINA RESULT:      -3.7     12.229     13.337
REMARK  1 active torsions:
REMARK  status: ('A' for Active; 'I' for Inactive)
REMARK    1  A    between atoms: C2_2  and  C6_6 
ROOT
HETATM    1  C1  UNL     1     -33.244  14.330  -3.648  1.00 20.00     0.119 A 
HETATM    2  C2  UNL     1     -34.677  14.121  -5.329  1.00 20.00     0.043 A 
HETATM    3  C3  UNL     1     -33.895  15.190  -4.669  1.00 20.00     0.105 A 
HETATM    4  N7  UNL     1     -33.586  13.085  -3.726  1.00 20.00    -0.167 NA
HETATM    5  N8  UNL     1     -34.510  12.945  -4.811  1.00 20.00    -0.159 NA
ENDROOT
BRANCH   2   6
HETATM    6  C6  UNL     1     -35.562  14.373  -6.475  1.00 20.00     0.035 A 
HETATM    7  C4  UNL     1     -35.708  15.775  -6.997  1.00 20.00     0.011 A 
HETATM    8  C5  UNL     1     -34.958  14.754  -7.799  1.00 20.00     0.011 A 
ENDBRANCH   2   6
TORSDOF 1
ENDMDL
MODEL 7
REMARK VINA RESULT:      -3.6     11.710     12.568
REMARK  1 active torsions:
REMARK  status: ('A' for Active; 'I' for Inactive)
REMARK    1  A    between atoms: C2_2  and  C6_6 
ROOT
HETATM    1  C1  UNL     1     -33.163  14.035  -3.639  1.00 20.00     0.119 A 
HETATM    2  C2  UNL     1     -35.359  14.035  -3.960  1.00 20.00     0.043 A 
HETATM    3  C3  UNL     1     -34.326  14.921  -3.377  1.00 20.00     0.105 A 
HETATM    4  N7  UNL     1     -33.479  12.926  -4.226  1.00 20.00    -0.167 NA
HETATM    5  N8  UNL     1     -34.896  12.923  -4.436  1.00 20.00    -0.159 NA
ENDROOT
BRANCH   2   6
HETATM    6  C6  UNL     1     -36.784  14.393  -3.999  1.00 20.00     0.035 A 
HETATM    7  C4  UNL     1     -37.193  15.816  -3.741  1.00 20.00     0.011 A 
HETATM    8  C5  UNL     1     -37.296  15.248  -5.125  1.00 20.00     0.011 A 
ENDBRANCH   2   6
TORSDOF 1
ENDMDL
MODEL 8
REMARK VINA RESULT:      -3.6     12.139     12.892
REMARK  1 active torsions:
REMARK  status: ('A' for Active; 'I' for Inactive)
REMARK    1  A    between atoms: C2_2  and  C6_6 
ROOT
HETATM    1  C1  UNL     1     -34.703  13.393  -5.050  1.00 20.00     0.119 A 
HETATM    2  C2  UNL     1     -34.074  15.107  -3.789  1.00 20.00     0.043 A 
HETATM    3  C3  UNL     1     -34.350  13.661  -3.632  1.00 20.00     0.105 A 
HETATM    4  N7  UNL     1     -34.638  14.440  -5.807  1.00 20.00    -0.167 NA
HETATM    5  N8  UNL     1     -34.231  15.548  -4.997  1.00 20.00    -0.159 NA
ENDROOT
BRANCH   2   6
HETATM    6  C6  UNL     1     -33.654  15.963  -2.671  1.00 20.00     0.035 A 
HETATM    7  C4  UNL     1     -34.167  17.373  -2.589  1.00 20.00     0.011 A 
HETATM    8  C5  UNL     1     -34.659  16.342  -1.618  1.00 20.00     0.011 A 
ENDBRANCH   2   6
TORSDOF 1
ENDMDL
MODEL 9
REMARK VINA RESULT:      -3.6     11.793     12.631
REMARK  1 active torsions:
REMARK  status: ('A' for Active; 'I' for Inactive)
REMARK    1  A    between atoms: C2_2  and  C6_6 
ROOT
HETATM    1  C1  UNL     1     -38.177  15.634  -3.652  1.00 20.00     0.119 A 
HETATM    2  C2  UNL     1     -36.062  14.990  -3.456  1.00 20.00     0.043 A 
HETATM    3  C3  UNL     1     -36.856  16.234  -3.329  1.00 20.00     0.105 A 
HETATM    4  N7  UNL     1     -38.123  14.365  -3.897  1.00 20.00    -0.167 NA
HETATM    5  N8  UNL     1     -36.760  13.946  -3.770  1.00 20.00    -0.159 NA
ENDROOT
BRANCH   2   6
HETATM    6  C6  UNL     1     -34.609  14.949  -3.237  1.00 20.00     0.035 A 
HETATM    7  C4  UNL     1     -33.813  13.806  -3.801  1.00 20.00     0.011 A 
HETATM    8  C5  UNL     1     -33.685  15.174  -4.401  1.00 20.00     0.011 A 
ENDBRANCH   2   6
TORSDOF 1
ENDMDL
