MODEL 1
REMARK VINA RESULT:      -4.0      0.000      0.000
REMARK  0 active torsions:
REMARK  status: ('A' for Active; 'I' for Inactive)
ROOT
HETATM    1  C1  UNL     1     -33.956  16.641  -3.619  1.00 20.00     0.014 C 
HETATM    2  C2  UNL     1     -33.836  16.422  -5.096  1.00 20.00     0.085 C 
HETATM    3  C3  UNL     1     -34.798  16.332  -1.512  1.00 20.00     0.034 C 
HETATM    4  C4  UNL     1     -33.792  17.471  -1.583  1.00 20.00     0.149 C 
HETATM    5  C5  UNL     1     -35.071  15.679  -5.611  1.00 20.00     0.277 C 
HETATM    6  C6  UNL     1     -35.680  14.859  -3.410  1.00 20.00     0.282 C 
HETATM    7  C7  UNL     1     -34.476  15.532  -2.758  1.00 20.00     0.063 C 
HETATM    8  C8  UNL     1     -34.519  13.392  -4.975  1.00 20.00     0.309 C 
HETATM    9  N9  UNL     1     -33.567  17.726  -3.023  1.00 20.00    -0.298 NA
HETATM   10  N10 UNL     1     -35.459  14.499  -4.820  1.00 20.00     0.085 N 
ENDROOT
TORSDOF 0
ENDMDL
MODEL 2
REMARK VINA RESULT:      -4.0      1.316      3.782
REMARK  0 active torsions:
REMARK  status: ('A' for Active; 'I' for Inactive)
ROOT
HETATM    1  C1  UNL     1     -35.670  15.032  -3.634  1.00 20.00     0.014 C 
HETATM    2  C2  UNL     1     -36.521  16.158  -3.132  1.00 20.00     0.085 C 
HETATM    3  C3  UNL     1     -33.725  13.905  -4.075  1.00 20.00     0.034 C 
HETATM    4  C4  UNL     1     -34.951  13.217  -4.658  1.00 20.00     0.149 C 
HETATM    5  C5  UNL     1     -35.654  17.397  -2.895  1.00 20.00     0.277 C 
HETATM    6  C6  UNL     1     -33.592  16.120  -2.800  1.00 20.00     0.282 C 
HETATM    7  C7  UNL     1     -34.328  14.800  -3.011  1.00 20.00     0.063 C 
HETATM    8  C8  UNL     1     -34.666  16.850  -0.735  1.00 20.00     0.309 C 
HETATM    9  N9  UNL     1     -36.058  14.192  -4.543  1.00 20.00    -0.298 NA
HETATM   10  N10 UNL     1     -34.412  17.150  -2.141  1.00 20.00     0.085 N 
ENDROOT
TORSDOF 0
ENDMDL
MODEL 3
REMARK VINA RESULT:      -3.9      2.342      3.574
REMARK  0 active torsions:
REMARK  status: ('A' for Active; 'I' for Inactive)
ROOT
HETATM    1  C1  UNL     1     -34.739  14.101  -5.467  1.00 20.00     0.014 C 
HETATM    2  C2  UNL     1     -35.390  14.211  -6.812  1.00 20.00     0.085 C 
HETATM    3  C3  UNL     1     -33.388  14.736  -3.730  1.00 20.00     0.034 C 
HETATM    4  C4  UNL     1     -33.984  13.350  -3.537  1.00 20.00     0.149 C 
HETATM    5  C5  UNL     1     -34.663  15.262  -7.654  1.00 20.00     0.277 C 
HETATM    6  C6  UNL     1     -33.641  16.320  -5.724  1.00 20.00     0.282 C 
HETATM    7  C7  UNL     1     -34.315  15.351  -4.758  1.00 20.00     0.063 C 
HETATM    8  C8  UNL     1     -35.621  17.311  -6.746  1.00 20.00     0.309 C 
HETATM    9  N9  UNL     1     -34.578  12.977  -4.840  1.00 20.00    -0.298 NA
HETATM   10  N10 UNL     1     -34.402  16.537  -6.965  1.00 20.00     0.085 N 
ENDROOT
TORSDOF 0
ENDMDL
MODEL 4
REMARK VINA RESULT:      -3.9      1.182      3.500
REMARK  0 active torsions:
REMARK  status: ('A' for Active; 'I' for Inactive)
ROOT
HETATM    1  C1  UNL     1     -34.511  15.367  -5.170  1.00 20.00     0.014 C 
HETATM    2  C2  UNL     1     -34.438  16.742  -5.762  1.00 20.00     0.085 C 
HETATM    3  C3  UNL     1     -34.241  13.754  -3.567  1.00 20.00     0.034 C 
HETATM    4  C4  UNL     1     -34.710  13.188  -4.900  1.00 20.00     0.149 C 
HETATM    5  C5  UNL     1     -33.507  17.618  -4.920  1.00 20.00     0.277 C 
HETATM    6  C6  UNL     1     -33.661  16.175  -2.975  1.00 20.00     0.282 C 
HETATM    7  C7  UNL     1     -34.614  15.217  -3.684  1.00 20.00     0.063 C 
HETATM    8  C8  UNL     1     -34.991  18.217  -3.081  1.00 20.00     0.309 C 
HETATM    9  N9  UNL     1     -34.558  14.284  -5.883  1.00 20.00    -0.298 NA
HETATM   10  N10 UNL     1     -33.746  17.560  -3.467  1.00 20.00     0.085 N 
ENDROOT
TORSDOF 0
ENDMDL
MODEL 5
REMARK VINA RESULT:      -3.9      1.350      3.758
REMARK  0 active torsions:
REMARK  status: ('A' for Active; 'I' for Inactive)
ROOT
HETATM    1  C1  UNL     1     -34.437  14.845  -3.590  1.00 20.00     0.014 C 
HETATM    2  C2  UNL     1     -34.388  15.739  -2.388  1.00 20.00     0.085 C 
HETATM    3  C3  UNL     1     -34.883  14.269  -5.761  1.00 20.00     0.034 C 
HETATM    4  C4  UNL     1     -34.405  13.091  -4.925  1.00 20.00     0.149 C 
HETATM    5  C5  UNL     1     -35.285  16.958  -2.613  1.00 20.00     0.277 C 
HETATM    6  C6  UNL     1     -35.311  16.682  -5.024  1.00 20.00     0.282 C 
HETATM    7  C7  UNL     1     -34.402  15.458  -4.956  1.00 20.00     0.063 C 
HETATM    8  C8  UNL     1     -33.835  18.336  -4.006  1.00 20.00     0.309 C 
HETATM    9  N9  UNL     1     -34.440  13.550  -3.518  1.00 20.00    -0.298 NA
HETATM   10  N10 UNL     1     -35.108  17.627  -3.914  1.00 20.00     0.085 N 
ENDROOT
TORSDOF 0
ENDMDL
MODEL 6
REMARK VINA RESULT:      -3.8      1.860      3.490
REMARK  0 active torsions:
REMARK  status: ('A' for Active; 'I' for Inactive)
ROOT
HETATM    1  C1  UNL     1     -36.514  14.694  -3.917  1.00 20.00     0.014 C 
HETATM    2  C2  UNL     1     -35.354  13.786  -4.193  1.00 20.00     0.085 C 
HETATM    3  C3  UNL     1     -37.571  16.582  -3.165  1.00 20.00     0.034 C 
HETATM    4  C4  UNL     1     -38.543  15.504  -3.622  1.00 20.00     0.149 C 
HETATM    5  C5  UNL     1     -34.133  14.252  -3.398  1.00 20.00     0.277 C 
HETATM    6  C6  UNL     1     -35.015  16.488  -3.062  1.00 20.00     0.282 C 
HETATM    7  C7  UNL     1     -36.283  16.172  -3.850  1.00 20.00     0.063 C 
HETATM    8  C8  UNL     1     -33.352  16.086  -4.801  1.00 20.00     0.309 C 
HETATM    9  N9  UNL     1     -37.736  14.276  -3.797  1.00 20.00    -0.298 NA
HETATM   10  N10 UNL     1     -33.849  15.695  -3.484  1.00 20.00     0.085 N 
ENDROOT
TORSDOF 0
ENDMDL
MODEL 7
REMARK VINA RESULT:      -3.8      1.595      2.937
REMARK  0 active torsions:
REMARK  status: ('A' for Active; 'I' for Inactive)
ROOT
HETATM    1  C1  UNL     1     -33.701  16.546  -4.645  1.00 20.00     0.014 C 
HETATM    2  C2  UNL     1     -33.432  15.671  -3.459  1.00 20.00     0.085 C 
HETATM    3  C3  UNL     1     -34.288  17.035  -6.804  1.00 20.00     0.034 C 
HETATM    4  C4  UNL     1     -33.787  18.251  -6.040  1.00 20.00     0.149 C 
HETATM    5  C5  UNL     1     -33.304  14.214  -3.910  1.00 20.00     0.277 C 
HETATM    6  C6  UNL     1     -34.450  14.607  -6.012  1.00 20.00     0.282 C 
HETATM    7  C7  UNL     1     -34.668  16.082  -5.690  1.00 20.00     0.063 C 
HETATM    8  C8  UNL     1     -35.653  13.605  -4.142  1.00 20.00     0.309 C 
HETATM    9  N9  UNL     1     -33.189  17.729  -4.791  1.00 20.00    -0.298 NA
HETATM   10  N10 UNL     1     -34.367  13.750  -4.818  1.00 20.00     0.085 N 
ENDROOT
TORSDOF 0
ENDMDL
MODEL 8
REMARK VINA RESULT:      -3.8     12.232     14.227
REMARK  0 active torsions:
REMARK  status: ('A' for Active; 'I' for Inactive)
ROOT
HETATM    1  C1  UNL     1     -42.854   4.499  -2.892  1.00 20.00     0.014 C 
HETATM    2  C2  UNL     1     -43.045   5.918  -2.449  1.00 20.00     0.085 C 
HETATM    3  C3  UNL     1     -41.795   2.476  -3.058  1.00 20.00     0.034 C 
HETATM    4  C4  UNL     1     -43.026   2.571  -3.947  1.00 20.00     0.149 C 
HETATM    5  C5  UNL     1     -41.725   6.473  -1.909  1.00 20.00     0.277 C 
HETATM    6  C6  UNL     1     -40.774   4.270  -1.545  1.00 20.00     0.282 C 
HETATM    7  C7  UNL     1     -42.038   3.574  -2.044  1.00 20.00     0.063 C 
HETATM    8  C8  UNL     1     -41.715   5.512   0.332  1.00 20.00     0.309 C 
HETATM    9  N9  UNL     1     -43.417   3.998  -3.947  1.00 20.00    -0.298 NA
HETATM   10  N10 UNL     1     -41.027   5.594  -0.954  1.00 20.00     0.085 N 
ENDROOT
TORSDOF 0
ENDMDL
MODEL 9
REMARK VINA RESULT:      -3.8      1.869      3.385
REMARK  0 active torsions:
REMARK  status: ('A' for Active; 'I' for Inactive)
ROOT
HETATM    1  C1  UNL     1     -35.218  14.355  -3.816  1.00 20.00     0.014 C 
HETATM    2  C2  UNL     1     -36.701  14.467  -4.001  1.00 20.00     0.085 C 
HETATM    3  C3  UNL     1     -33.052  15.091  -3.723  1.00 20.00     0.034 C 
HETATM    4  C4  UNL     1     -33.166  13.579  -3.604  1.00 20.00     0.149 C 
HETATM    5  C5  UNL     1     -37.038  15.797  -4.681  1.00 20.00     0.277 C 
HETATM    6  C6  UNL     1     -34.913  16.809  -4.090  1.00 20.00     0.282 C 
HETATM    7  C7  UNL     1     -34.448  15.554  -3.358  1.00 20.00     0.063 C 
HETATM    8  C8  UNL     1     -36.907  17.321  -2.783  1.00 20.00     0.309 C 
HETATM    9  N9  UNL     1     -34.562  13.246  -3.967  1.00 20.00    -0.298 NA
HETATM   10  N10 UNL     1     -36.375  16.977  -4.098  1.00 20.00     0.085 N 
ENDROOT
TORSDOF 0
ENDMDL
