MODEL 1
REMARK VINA RESULT:      -4.7      0.000      0.000
REMARK  1 active torsions:
REMARK  status: ('A' for Active; 'I' for Inactive)
REMARK    1  A    between atoms: C4_4  and  C5_5 
ROOT
HETATM    1  C5  UNL     1     -34.584  15.547  -2.900  1.00 20.00     0.039 C 
HETATM    2  C6  UNL     1     -33.391  14.812  -3.491  1.00 20.00     0.060 C 
HETATM    3  C7  UNL     1     -33.774  13.512  -4.172  1.00 20.00     0.008 C 
HETATM    4  C8  UNL     1     -35.026  13.737  -4.995  1.00 20.00     0.022 C 
HETATM    5  C9  UNL     1     -36.155  14.156  -4.071  1.00 20.00     0.149 C 
HETATM    6  N10 UNL     1     -35.809  15.264  -3.186  1.00 20.00    -0.293 NA
ENDROOT
BRANCH   1   7
HETATM    7  C4  UNL     1     -34.313  16.682  -1.961  1.00 20.00    -0.005 A 
HETATM    8  C1  UNL     1     -34.647  16.706  -0.576  1.00 20.00     0.021 A 
HETATM    9  C2  UNL     1     -34.274  17.888   0.026  1.00 20.00     0.050 A 
HETATM   10  S11 UNL     1     -33.524  18.961  -1.078  1.00 20.00    -0.113 SA
HETATM   11  C3  UNL     1     -33.697  17.846  -2.365  1.00 20.00     0.063 A 
ENDBRANCH   1   7
TORSDOF 1
ENDMDL
MODEL 2
REMARK VINA RESULT:      -4.6      0.873      1.530
REMARK  1 active torsions:
REMARK  status: ('A' for Active; 'I' for Inactive)
REMARK    1  A    between atoms: C4_4  and  C5_5 
ROOT
HETATM    1  C5  UNL     1     -34.598  15.645  -2.830  1.00 20.00     0.039 C 
HETATM    2  C6  UNL     1     -36.051  15.328  -3.152  1.00 20.00     0.060 C 
HETATM    3  C7  UNL     1     -36.204  14.399  -4.342  1.00 20.00     0.008 C 
HETATM    4  C8  UNL     1     -35.177  13.290  -4.237  1.00 20.00     0.022 C 
HETATM    5  C9  UNL     1     -33.788  13.900  -4.269  1.00 20.00     0.149 C 
HETATM    6  N10 UNL     1     -33.600  14.986  -3.312  1.00 20.00    -0.293 NA
ENDROOT
BRANCH   1   7
HETATM    7  C4  UNL     1     -34.321  16.765  -1.874  1.00 20.00    -0.005 A 
HETATM    8  C1  UNL     1     -34.661  16.773  -0.490  1.00 20.00     0.021 A 
HETATM    9  C2  UNL     1     -34.279  17.944   0.129  1.00 20.00     0.050 A 
HETATM   10  S11 UNL     1     -33.514  19.024  -0.957  1.00 20.00    -0.113 SA
HETATM   11  C3  UNL     1     -33.692  17.928  -2.260  1.00 20.00     0.063 A 
ENDBRANCH   1   7
TORSDOF 1
ENDMDL
MODEL 3
REMARK VINA RESULT:      -4.5      2.318      4.831
REMARK  1 active torsions:
REMARK  status: ('A' for Active; 'I' for Inactive)
REMARK    1  A    between atoms: C4_4  and  C5_5 
ROOT
HETATM    1  C5  UNL     1     -34.163  16.794  -2.129  1.00 20.00     0.039 C 
HETATM    2  C6  UNL     1     -34.614  16.733  -0.677  1.00 20.00     0.060 C 
HETATM    3  C7  UNL     1     -34.101  17.895   0.151  1.00 20.00     0.008 C 
HETATM    4  C8  UNL     1     -34.246  19.173  -0.649  1.00 20.00     0.022 C 
HETATM    5  C9  UNL     1     -33.409  19.065  -1.909  1.00 20.00     0.149 C 
HETATM    6  N10 UNL     1     -33.652  17.845  -2.674  1.00 20.00    -0.293 NA
ENDROOT
BRANCH   1   7
HETATM    7  C4  UNL     1     -34.355  15.572  -2.974  1.00 20.00    -0.005 A 
HETATM    8  C1  UNL     1     -33.310  14.759  -3.501  1.00 20.00     0.021 A 
HETATM    9  C2  UNL     1     -33.799  13.706  -4.242  1.00 20.00     0.050 A 
HETATM   10  S11 UNL     1     -35.510  13.700  -4.300  1.00 20.00    -0.113 SA
HETATM   11  C3  UNL     1     -35.602  15.110  -3.332  1.00 20.00     0.063 A 
ENDBRANCH   1   7
TORSDOF 1
ENDMDL
MODEL 4
REMARK VINA RESULT:      -4.5     12.855     14.789
REMARK  1 active torsions:
REMARK  status: ('A' for Active; 'I' for Inactive)
REMARK    1  A    between atoms: C4_4  and  C5_5 
ROOT
HETATM    1  C5  UNL     1     -41.904   4.543  -2.062  1.00 20.00     0.039 C 
HETATM    2  C6  UNL     1     -41.154   4.718  -0.750  1.00 20.00     0.060 C 
HETATM    3  C7  UNL     1     -40.657   6.134  -0.536  1.00 20.00     0.008 C 
HETATM    4  C8  UNL     1     -41.749   7.106  -0.936  1.00 20.00     0.022 C 
HETATM    5  C9  UNL     1     -42.064   6.916  -2.408  1.00 20.00     0.149 C 
HETATM    6  N10 UNL     1     -42.328   5.528  -2.778  1.00 20.00    -0.293 NA
ENDROOT
BRANCH   1   7
HETATM    7  C4  UNL     1     -42.191   3.147  -2.524  1.00 20.00    -0.005 A 
HETATM    8  C1  UNL     1     -41.365   2.378  -3.393  1.00 20.00     0.021 A 
HETATM    9  C2  UNL     1     -41.893   1.130  -3.640  1.00 20.00     0.050 A 
HETATM   10  S11 UNL     1     -43.380   0.891  -2.826  1.00 20.00    -0.113 SA
HETATM   11  C3  UNL     1     -43.320   2.458  -2.140  1.00 20.00     0.063 A 
ENDBRANCH   1   7
TORSDOF 1
ENDMDL
MODEL 5
REMARK VINA RESULT:      -4.4      2.392      4.663
REMARK  1 active torsions:
REMARK  status: ('A' for Active; 'I' for Inactive)
REMARK    1  A    between atoms: C4_4  and  C5_5 
ROOT
HETATM    1  C5  UNL     1     -34.361  16.333  -2.667  1.00 20.00     0.039 C 
HETATM    2  C6  UNL     1     -33.680  17.643  -3.033  1.00 20.00     0.060 C 
HETATM    3  C7  UNL     1     -33.813  18.701  -1.954  1.00 20.00     0.008 C 
HETATM    4  C8  UNL     1     -33.576  18.060  -0.602  1.00 20.00     0.022 C 
HETATM    5  C9  UNL     1     -34.629  16.992  -0.372  1.00 20.00     0.149 C 
HETATM    6  N10 UNL     1     -34.755  16.043  -1.474  1.00 20.00    -0.293 NA
ENDROOT
BRANCH   1   7
HETATM    7  C4  UNL     1     -34.552  15.316  -3.750  1.00 20.00    -0.005 A 
HETATM    8  C1  UNL     1     -34.348  13.913  -3.611  1.00 20.00     0.021 A 
HETATM    9  C2  UNL     1     -34.602  13.234  -4.783  1.00 20.00     0.050 A 
HETATM   10  S11 UNL     1     -35.083  14.288  -6.043  1.00 20.00    -0.113 SA
HETATM   11  C3  UNL     1     -34.953  15.657  -5.023  1.00 20.00     0.063 A 
ENDBRANCH   1   7
TORSDOF 1
ENDMDL
MODEL 6
REMARK VINA RESULT:      -4.3      2.332      4.697
REMARK  1 active torsions:
REMARK  status: ('A' for Active; 'I' for Inactive)
REMARK    1  A    between atoms: C4_4  and  C5_5 
ROOT
HETATM    1  C5  UNL     1     -34.489  16.620  -1.976  1.00 20.00     0.039 C 
HETATM    2  C6  UNL     1     -33.671  17.743  -2.595  1.00 20.00     0.060 C 
HETATM    3  C7  UNL     1     -33.497  18.929  -1.667  1.00 20.00     0.008 C 
HETATM    4  C8  UNL     1     -33.182  18.424  -0.274  1.00 20.00     0.022 C 
HETATM    5  C9  UNL     1     -34.345  17.584   0.221  1.00 20.00     0.149 C 
HETATM    6  N10 UNL     1     -34.761  16.545  -0.718  1.00 20.00    -0.293 NA
ENDROOT
BRANCH   1   7
HETATM    7  C4  UNL     1     -34.975  15.527  -2.878  1.00 20.00    -0.005 A 
HETATM    8  C1  UNL     1     -36.318  15.359  -3.323  1.00 20.00     0.021 A 
HETATM    9  C2  UNL     1     -36.458  14.261  -4.143  1.00 20.00     0.050 A 
HETATM   10  S11 UNL     1     -34.974  13.439  -4.373  1.00 20.00    -0.113 SA
HETATM   11  C3  UNL     1     -34.140  14.551  -3.374  1.00 20.00     0.063 A 
ENDBRANCH   1   7
TORSDOF 1
ENDMDL
MODEL 7
REMARK VINA RESULT:      -4.3      1.423      1.664
REMARK  1 active torsions:
REMARK  status: ('A' for Active; 'I' for Inactive)
REMARK    1  A    between atoms: C4_4  and  C5_5 
ROOT
HETATM    1  C5  UNL     1     -34.405  15.750  -4.088  1.00 20.00     0.039 C 
HETATM    2  C6  UNL     1     -34.331  16.447  -5.438  1.00 20.00     0.060 C 
HETATM    3  C7  UNL     1     -34.181  15.479  -6.596  1.00 20.00     0.008 C 
HETATM    4  C8  UNL     1     -35.117  14.307  -6.383  1.00 20.00     0.022 C 
HETATM    5  C9  UNL     1     -34.733  13.595  -5.100  1.00 20.00     0.149 C 
HETATM    6  N10 UNL     1     -34.611  14.485  -3.948  1.00 20.00    -0.293 NA
ENDROOT
BRANCH   1   7
HETATM    7  C4  UNL     1     -34.263  16.592  -2.857  1.00 20.00    -0.005 A 
HETATM    8  C1  UNL     1     -34.625  16.194  -1.538  1.00 20.00     0.021 A 
HETATM    9  C2  UNL     1     -34.378  17.184  -0.612  1.00 20.00     0.050 A 
HETATM   10  S11 UNL     1     -33.712  18.586  -1.335  1.00 20.00    -0.113 SA
HETATM   11  C3  UNL     1     -33.753  17.870  -2.890  1.00 20.00     0.063 A 
ENDBRANCH   1   7
TORSDOF 1
ENDMDL
MODEL 8
REMARK VINA RESULT:      -4.1     13.157     14.670
REMARK  1 active torsions:
REMARK  status: ('A' for Active; 'I' for Inactive)
REMARK    1  A    between atoms: C4_4  and  C5_5 
ROOT
HETATM    1  C5  UNL     1     -42.094   2.922  -2.653  1.00 20.00     0.039 C 
HETATM    2  C6  UNL     1     -41.189   2.378  -3.749  1.00 20.00     0.060 C 
HETATM    3  C7  UNL     1     -41.366   0.890  -3.979  1.00 20.00     0.008 C 
HETATM    4  C8  UNL     1     -42.845   0.561  -3.966  1.00 20.00     0.022 C 
HETATM    5  C9  UNL     1     -43.417   0.917  -2.606  1.00 20.00     0.149 C 
HETATM    6  N10 UNL     1     -43.098   2.274  -2.171  1.00 20.00    -0.293 NA
ENDROOT
BRANCH   1   7
HETATM    7  C4  UNL     1     -41.815   4.299  -2.134  1.00 20.00    -0.005 A 
HETATM    8  C1  UNL     1     -40.885   4.621  -1.104  1.00 20.00     0.021 A 
HETATM    9  C2  UNL     1     -40.851   5.974  -0.842  1.00 20.00     0.050 A 
HETATM   10  S11 UNL     1     -41.938   6.847  -1.835  1.00 20.00    -0.113 SA
HETATM   11  C3  UNL     1     -42.457   5.417  -2.619  1.00 20.00     0.063 A 
ENDBRANCH   1   7
TORSDOF 1
ENDMDL
MODEL 9
REMARK VINA RESULT:      -4.0      2.841      4.922
REMARK  1 active torsions:
REMARK  status: ('A' for Active; 'I' for Inactive)
REMARK    1  A    between atoms: C4_4  and  C5_5 
ROOT
HETATM    1  C5  UNL     1     -34.363  16.715  -3.312  1.00 20.00     0.039 C 
HETATM    2  C6  UNL     1     -34.966  16.037  -2.091  1.00 20.00     0.060 C 
HETATM    3  C7  UNL     1     -34.513  16.660  -0.784  1.00 20.00     0.008 C 
HETATM    4  C8  UNL     1     -34.540  18.168  -0.921  1.00 20.00     0.022 C 
HETATM    5  C9  UNL     1     -33.577  18.581  -2.019  1.00 20.00     0.149 C 
HETATM    6  N10 UNL     1     -33.771  17.859  -3.273  1.00 20.00    -0.293 NA
ENDROOT
BRANCH   1   7
HETATM    7  C4  UNL     1     -34.497  16.024  -4.635  1.00 20.00    -0.005 A 
HETATM    8  C1  UNL     1     -33.836  16.407  -5.837  1.00 20.00     0.021 A 
HETATM    9  C2  UNL     1     -34.159  15.580  -6.891  1.00 20.00     0.050 A 
HETATM   10  S11 UNL     1     -35.255  14.349  -6.428  1.00 20.00    -0.113 SA
HETATM   11  C3  UNL     1     -35.300  14.920  -4.815  1.00 20.00     0.063 A 
ENDBRANCH   1   7
TORSDOF 1
ENDMDL
