MODEL 1
REMARK VINA RESULT:      -5.0      0.000      0.000
REMARK  0 active torsions:
REMARK  status: ('A' for Active; 'I' for Inactive)
ROOT
HETATM    1  C1  UNL     1     -33.389  17.302  -4.963  1.00 20.00     0.050 A 
HETATM    2  C2  UNL     1     -34.594  16.916  -7.047  1.00 20.00     0.062 A 
HETATM    3  C3  UNL     1     -34.293  15.145  -5.499  1.00 20.00     0.034 A 
HETATM    4  C4  UNL     1     -33.596  15.973  -4.628  1.00 20.00    -0.040 A 
HETATM    5  C5  UNL     1     -33.893  17.772  -6.180  1.00 20.00     0.118 A 
HETATM    6  C6  UNL     1     -34.802  15.579  -6.708  1.00 20.00     0.028 A 
HETATM    7  C7  UNL     1     -34.364  13.820  -4.904  1.00 20.00     0.161 A 
HETATM    8  C8  UNL     1     -33.149  15.269  -3.388  1.00 20.00     0.047 A 
HETATM    9  C9  UNL     1     -33.659  13.829  -3.569  1.00 20.00     0.088 A 
HETATM   10  O10 UNL     1     -34.904  12.845  -5.396  1.00 20.00    -0.292 OA
HETATM   11  F11 UNL     1     -33.705  19.053  -6.526  1.00 20.00    -0.206 F 
HETATM   12 BR12 UNL     1     -35.755  14.482  -7.914  1.00 20.00    -0.050 Br
ENDROOT
TORSDOF 0
ENDMDL
MODEL 2
REMARK VINA RESULT:      -4.8      7.500      8.672
REMARK  0 active torsions:
REMARK  status: ('A' for Active; 'I' for Inactive)
ROOT
HETATM    1  C1  UNL     1     -35.513  17.697   1.636  1.00 20.00     0.050 A 
HETATM    2  C2  UNL     1     -34.016  18.290   3.467  1.00 20.00     0.062 A 
HETATM    3  C3  UNL     1     -33.291  18.505   1.219  1.00 20.00     0.034 A 
HETATM    4  C4  UNL     1     -34.512  18.044   0.742  1.00 20.00    -0.040 A 
HETATM    5  C5  UNL     1     -35.258  17.823   3.006  1.00 20.00     0.118 A 
HETATM    6  C6  UNL     1     -33.010  18.639   2.565  1.00 20.00     0.028 A 
HETATM    7  C7  UNL     1     -32.438  18.793   0.078  1.00 20.00     0.161 A 
HETATM    8  C8  UNL     1     -34.570  17.988  -0.751  1.00 20.00     0.047 A 
HETATM    9  C9  UNL     1     -33.184  18.487  -1.199  1.00 20.00     0.088 A 
HETATM   10  O10 UNL     1     -31.296  19.213   0.128  1.00 20.00    -0.292 OA
HETATM   11  F11 UNL     1     -36.210  17.494   3.890  1.00 20.00    -0.206 F 
HETATM   12 BR12 UNL     1     -31.364  19.263   3.249  1.00 20.00    -0.050 Br
ENDROOT
TORSDOF 0
ENDMDL
MODEL 3
REMARK VINA RESULT:      -4.8      2.967      3.093
REMARK  0 active torsions:
REMARK  status: ('A' for Active; 'I' for Inactive)
ROOT
HETATM    1  C1  UNL     1     -33.783  16.785  -2.526  1.00 20.00     0.050 A 
HETATM    2  C2  UNL     1     -36.207  16.953  -2.725  1.00 20.00     0.062 A 
HETATM    3  C3  UNL     1     -35.084  14.998  -3.460  1.00 20.00     0.034 A 
HETATM    4  C4  UNL     1     -33.851  15.521  -3.091  1.00 20.00    -0.040 A 
HETATM    5  C5  UNL     1     -34.971  17.501  -2.344  1.00 20.00     0.118 A 
HETATM    6  C6  UNL     1     -36.274  15.681  -3.293  1.00 20.00     0.028 A 
HETATM    7  C7  UNL     1     -34.866  13.673  -4.019  1.00 20.00     0.161 A 
HETATM    8  C8  UNL     1     -32.716  14.590  -3.373  1.00 20.00     0.047 A 
HETATM    9  C9  UNL     1     -33.389  13.354  -3.995  1.00 20.00     0.088 A 
HETATM   10  O10 UNL     1     -35.728  12.926  -4.445  1.00 20.00    -0.292 OA
HETATM   11  F11 UNL     1     -34.931  18.725  -1.799  1.00 20.00    -0.206 F 
HETATM   12 BR12 UNL     1     -37.966  14.999  -3.781  1.00 20.00    -0.050 Br
ENDROOT
TORSDOF 0
ENDMDL
MODEL 4
REMARK VINA RESULT:      -4.8      2.653      3.405
REMARK  0 active torsions:
REMARK  status: ('A' for Active; 'I' for Inactive)
ROOT
HETATM    1  C1  UNL     1     -34.325  15.534  -2.238  1.00 20.00     0.050 A 
HETATM    2  C2  UNL     1     -33.834  17.724  -3.188  1.00 20.00     0.062 A 
HETATM    3  C3  UNL     1     -34.266  15.878  -4.612  1.00 20.00     0.034 A 
HETATM    4  C4  UNL     1     -34.449  15.033  -3.524  1.00 20.00    -0.040 A 
HETATM    5  C5  UNL     1     -34.015  16.888  -2.074  1.00 20.00     0.118 A 
HETATM    6  C6  UNL     1     -33.960  17.219  -4.482  1.00 20.00     0.028 A 
HETATM    7  C7  UNL     1     -34.454  15.100  -5.827  1.00 20.00     0.161 A 
HETATM    8  C8  UNL     1     -34.772  13.629  -3.925  1.00 20.00     0.047 A 
HETATM    9  C9  UNL     1     -34.775  13.670  -5.464  1.00 20.00     0.088 A 
HETATM   10  O10 UNL     1     -34.367  15.522  -6.965  1.00 20.00    -0.292 OA
HETATM   11  F11 UNL     1     -33.890  17.395  -0.840  1.00 20.00    -0.206 F 
HETATM   12 BR12 UNL     1     -33.706  18.396  -5.938  1.00 20.00    -0.050 Br
ENDROOT
TORSDOF 0
ENDMDL
MODEL 5
REMARK VINA RESULT:      -4.8      1.965      2.491
REMARK  0 active torsions:
REMARK  status: ('A' for Active; 'I' for Inactive)
ROOT
HETATM    1  C1  UNL     1     -33.828  16.117  -2.738  1.00 20.00     0.050 A 
HETATM    2  C2  UNL     1     -33.948  17.864  -4.434  1.00 20.00     0.062 A 
HETATM    3  C3  UNL     1     -34.342  15.601  -5.024  1.00 20.00     0.034 A 
HETATM    4  C4  UNL     1     -34.134  15.183  -3.716  1.00 20.00    -0.040 A 
HETATM    5  C5  UNL     1     -33.735  17.464  -3.104  1.00 20.00     0.118 A 
HETATM    6  C6  UNL     1     -34.257  16.923  -5.417  1.00 20.00     0.028 A 
HETATM    7  C7  UNL     1     -34.645  14.430  -5.831  1.00 20.00     0.161 A 
HETATM    8  C8  UNL     1     -34.283  13.705  -3.546  1.00 20.00     0.047 A 
HETATM    9  C9  UNL     1     -34.623  13.198  -4.958  1.00 20.00     0.088 A 
HETATM   10  O10 UNL     1     -34.881  14.427  -7.026  1.00 20.00    -0.292 OA
HETATM   11  F11 UNL     1     -33.439  18.384  -2.176  1.00 20.00    -0.206 F 
HETATM   12 BR12 UNL     1     -34.534  17.526  -7.185  1.00 20.00    -0.050 Br
ENDROOT
TORSDOF 0
ENDMDL
MODEL 6
REMARK VINA RESULT:      -4.8      3.084      3.866
REMARK  0 active torsions:
REMARK  status: ('A' for Active; 'I' for Inactive)
ROOT
HETATM    1  C1  UNL     1     -34.304  14.242  -3.419  1.00 20.00     0.050 A 
HETATM    2  C2  UNL     1     -34.455  14.755  -5.797  1.00 20.00     0.062 A 
HETATM    3  C3  UNL     1     -34.254  16.507  -4.210  1.00 20.00     0.034 A 
HETATM    4  C4  UNL     1     -34.220  15.601  -3.158  1.00 20.00    -0.040 A 
HETATM    5  C5  UNL     1     -34.422  13.822  -4.748  1.00 20.00     0.118 A 
HETATM    6  C6  UNL     1     -34.370  16.122  -5.533  1.00 20.00     0.028 A 
HETATM    7  C7  UNL     1     -34.148  17.848  -3.658  1.00 20.00     0.161 A 
HETATM    8  C8  UNL     1     -34.089  16.263  -1.824  1.00 20.00     0.047 A 
HETATM    9  C9  UNL     1     -34.043  17.765  -2.154  1.00 20.00     0.088 A 
HETATM   10  O10 UNL     1     -34.146  18.885  -4.296  1.00 20.00    -0.292 OA
HETATM   11  F11 UNL     1     -34.505  12.513  -5.024  1.00 20.00    -0.206 F 
HETATM   12 BR12 UNL     1     -34.418  17.326  -6.988  1.00 20.00    -0.050 Br
ENDROOT
TORSDOF 0
ENDMDL
MODEL 7
REMARK VINA RESULT:      -4.8      2.722      3.852
REMARK  0 active torsions:
REMARK  status: ('A' for Active; 'I' for Inactive)
ROOT
HETATM    1  C1  UNL     1     -34.111  17.527  -2.516  1.00 20.00     0.050 A 
HETATM    2  C2  UNL     1     -34.612  15.142  -2.573  1.00 20.00     0.062 A 
HETATM    3  C3  UNL     1     -34.159  16.311  -4.585  1.00 20.00     0.034 A 
HETATM    4  C4  UNL     1     -33.977  17.504  -3.896  1.00 20.00    -0.040 A 
HETATM    5  C5  UNL     1     -34.431  16.336  -1.855  1.00 20.00     0.118 A 
HETATM    6  C6  UNL     1     -34.476  15.120  -3.961  1.00 20.00     0.028 A 
HETATM    7  C7  UNL     1     -33.960  16.572  -6.002  1.00 20.00     0.161 A 
HETATM    8  C8  UNL     1     -33.642  18.650  -4.795  1.00 20.00     0.047 A 
HETATM    9  C9  UNL     1     -33.631  18.032  -6.204  1.00 20.00     0.088 A 
HETATM   10  O10 UNL     1     -34.044  15.751  -6.898  1.00 20.00    -0.292 OA
HETATM   11  F11 UNL     1     -34.566  16.333  -0.522  1.00 20.00    -0.206 F 
HETATM   12 BR12 UNL     1     -34.730  13.482  -4.866  1.00 20.00    -0.050 Br
ENDROOT
TORSDOF 0
ENDMDL
MODEL 8
REMARK VINA RESULT:      -4.7      3.729      4.326
REMARK  0 active torsions:
REMARK  status: ('A' for Active; 'I' for Inactive)
ROOT
HETATM    1  C1  UNL     1     -33.759  14.565  -3.520  1.00 20.00     0.050 A 
HETATM    2  C2  UNL     1     -35.973  13.924  -4.315  1.00 20.00     0.062 A 
HETATM    3  C3  UNL     1     -35.703  15.864  -2.977  1.00 20.00     0.034 A 
HETATM    4  C4  UNL     1     -34.332  15.657  -2.887  1.00 20.00    -0.040 A 
HETATM    5  C5  UNL     1     -34.588  13.697  -4.237  1.00 20.00     0.118 A 
HETATM    6  C6  UNL     1     -36.548  15.024  -3.677  1.00 20.00     0.028 A 
HETATM    7  C7  UNL     1     -36.030  17.067  -2.229  1.00 20.00     0.161 A 
HETATM    8  C8  UNL     1     -33.638  16.703  -2.074  1.00 20.00     0.047 A 
HETATM    9  C9  UNL     1     -34.770  17.647  -1.632  1.00 20.00     0.088 A 
HETATM   10  O10 UNL     1     -37.142  17.545  -2.096  1.00 20.00    -0.292 OA
HETATM   11  F11 UNL     1     -34.058  12.634  -4.858  1.00 20.00    -0.206 F 
HETATM   12 BR12 UNL     1     -38.414  15.275  -3.822  1.00 20.00    -0.050 Br
ENDROOT
TORSDOF 0
ENDMDL
MODEL 9
REMARK VINA RESULT:      -4.7      3.406      4.588
REMARK  0 active torsions:
REMARK  status: ('A' for Active; 'I' for Inactive)
ROOT
HETATM    1  C1  UNL     1     -34.459  14.730  -5.941  1.00 20.00     0.050 A 
HETATM    2  C2  UNL     1     -34.665  14.417  -3.532  1.00 20.00     0.062 A 
HETATM    3  C3  UNL     1     -34.287  16.582  -4.424  1.00 20.00     0.034 A 
HETATM    4  C4  UNL     1     -34.274  16.087  -5.722  1.00 20.00    -0.040 A 
HETATM    5  C5  UNL     1     -34.656  13.895  -4.836  1.00 20.00     0.118 A 
HETATM    6  C6  UNL     1     -34.478  15.782  -3.313  1.00 20.00     0.028 A 
HETATM    7  C7  UNL     1     -34.073  18.019  -4.485  1.00 20.00     0.161 A 
HETATM    8  C8  UNL     1     -34.050  17.150  -6.748  1.00 20.00     0.047 A 
HETATM    9  C9  UNL     1     -33.913  18.443  -5.925  1.00 20.00     0.088 A 
HETATM   10  O10 UNL     1     -34.024  18.775  -3.531  1.00 20.00    -0.292 OA
HETATM   11  F11 UNL     1     -34.837  12.580  -5.023  1.00 20.00    -0.206 F 
HETATM   12 BR12 UNL     1     -34.504  16.422  -1.536  1.00 20.00    -0.050 Br
ENDROOT
TORSDOF 0
ENDMDL
