MODEL 1
REMARK VINA RESULT:      -4.8      0.000      0.000
REMARK  1 active torsions:
REMARK  status: ('A' for Active; 'I' for Inactive)
REMARK    1  A    between atoms: C2_2  and  C3_3 
ROOT
HETATM    1  C1  UNL     1     -32.558   6.289   3.651  1.00 20.00     0.080 C 
HETATM    2  C2  UNL     1     -33.982   6.372   4.178  1.00 20.00     0.272 C 
HETATM    3  F4  UNL     1     -34.497   7.581   3.818  1.00 20.00    -0.216 F 
HETATM    4 CL8  UNL     1     -33.971   6.275   5.959  1.00 20.00    -0.073 Cl
ENDROOT
BRANCH   2   5
HETATM    5  C3  UNL     1     -34.873   5.291   3.601  1.00 20.00     0.437 C 
HETATM    6  F5  UNL     1     -36.128   5.749   3.394  1.00 20.00    -0.166 F 
HETATM    7  F6  UNL     1     -34.398   4.860   2.411  1.00 20.00    -0.166 F 
HETATM    8  F7  UNL     1     -34.952   4.220   4.420  1.00 20.00    -0.166 F 
ENDBRANCH   2   5
TORSDOF 1
ENDMDL
MODEL 2
REMARK VINA RESULT:      -4.5      1.557      2.444
REMARK  1 active torsions:
REMARK  status: ('A' for Active; 'I' for Inactive)
REMARK    1  A    between atoms: C2_2  and  C3_3 
ROOT
HETATM    1  C1  UNL     1     -33.287   5.716   4.007  1.00 20.00     0.080 C 
HETATM    2  C2  UNL     1     -34.403   5.701   5.039  1.00 20.00     0.272 C 
HETATM    3  F4  UNL     1     -35.530   6.191   4.451  1.00 20.00    -0.216 F 
HETATM    4 CL8  UNL     1     -33.975   6.766   6.404  1.00 20.00    -0.073 Cl
ENDROOT
BRANCH   2   5
HETATM    5  C3  UNL     1     -34.704   4.304   5.540  1.00 20.00     0.437 C 
HETATM    6  F5  UNL     1     -33.599   3.718   6.053  1.00 20.00    -0.166 F 
HETATM    7  F6  UNL     1     -35.637   4.333   6.518  1.00 20.00    -0.166 F 
HETATM    8  F7  UNL     1     -35.173   3.509   4.554  1.00 20.00    -0.166 F 
ENDBRANCH   2   5
TORSDOF 1
ENDMDL
MODEL 3
REMARK VINA RESULT:      -4.4      2.198      2.734
REMARK  1 active torsions:
REMARK  status: ('A' for Active; 'I' for Inactive)
REMARK    1  A    between atoms: C2_2  and  C3_3 
ROOT
HETATM    1  C1  UNL     1     -34.110   6.638   5.964  1.00 20.00     0.080 C 
HETATM    2  C2  UNL     1     -34.310   5.511   4.964  1.00 20.00     0.272 C 
HETATM    3  F4  UNL     1     -33.137   5.322   4.298  1.00 20.00    -0.216 F 
HETATM    4 CL8  UNL     1     -35.560   5.973   3.778  1.00 20.00    -0.073 Cl
ENDROOT
BRANCH   2   5
HETATM    5  C3  UNL     1     -34.684   4.206   5.636  1.00 20.00     0.437 C 
HETATM    6  F5  UNL     1     -35.164   3.313   4.741  1.00 20.00    -0.166 F 
HETATM    7  F6  UNL     1     -33.607   3.644   6.230  1.00 20.00    -0.166 F 
HETATM    8  F7  UNL     1     -35.626   4.385   6.587  1.00 20.00    -0.166 F 
ENDBRANCH   2   5
TORSDOF 1
ENDMDL
MODEL 4
REMARK VINA RESULT:      -4.4      2.206      2.932
REMARK  1 active torsions:
REMARK  status: ('A' for Active; 'I' for Inactive)
REMARK    1  A    between atoms: C2_2  and  C3_3 
ROOT
HETATM    1  C1  UNL     1     -34.128   6.634   6.039  1.00 20.00     0.080 C 
HETATM    2  C2  UNL     1     -34.307   5.525   5.016  1.00 20.00     0.272 C 
HETATM    3  F4  UNL     1     -33.125   5.360   4.359  1.00 20.00    -0.216 F 
HETATM    4 CL8  UNL     1     -35.549   5.998   3.826  1.00 20.00    -0.073 Cl
ENDROOT
BRANCH   2   5
HETATM    5  C3  UNL     1     -34.676   4.203   5.658  1.00 20.00     0.437 C 
HETATM    6  F5  UNL     1     -33.608   3.637   6.262  1.00 20.00    -0.166 F 
HETATM    7  F6  UNL     1     -35.630   4.375   6.600  1.00 20.00    -0.166 F 
HETATM    8  F7  UNL     1     -35.153   3.324   4.752  1.00 20.00    -0.166 F 
ENDBRANCH   2   5
TORSDOF 1
ENDMDL
MODEL 5
REMARK VINA RESULT:      -4.4      1.341      2.235
REMARK  1 active torsions:
REMARK  status: ('A' for Active; 'I' for Inactive)
REMARK    1  A    between atoms: C2_2  and  C3_3 
ROOT
HETATM    1  C1  UNL     1     -35.236   4.196   5.864  1.00 20.00     0.080 C 
HETATM    2  C2  UNL     1     -34.302   5.223   5.246  1.00 20.00     0.272 C 
HETATM    3  F4  UNL     1     -33.095   4.626   5.036  1.00 20.00    -0.216 F 
HETATM    4 CL8  UNL     1     -34.066   6.581   6.378  1.00 20.00    -0.073 Cl
ENDROOT
BRANCH   2   5
HETATM    5  C3  UNL     1     -34.810   5.736   3.914  1.00 20.00     0.437 C 
HETATM    6  F5  UNL     1     -34.566   7.057   3.772  1.00 20.00    -0.166 F 
HETATM    7  F6  UNL     1     -34.200   5.100   2.888  1.00 20.00    -0.166 F 
HETATM    8  F7  UNL     1     -36.139   5.543   3.779  1.00 20.00    -0.166 F 
ENDBRANCH   2   5
TORSDOF 1
ENDMDL
MODEL 6
REMARK VINA RESULT:      -4.4      1.729      2.482
REMARK  1 active torsions:
REMARK  status: ('A' for Active; 'I' for Inactive)
REMARK    1  A    between atoms: C2_2  and  C3_3 
ROOT
HETATM    1  C1  UNL     1     -34.441   5.969   6.223  1.00 20.00     0.080 C 
HETATM    2  C2  UNL     1     -34.709   5.232   4.921  1.00 20.00     0.272 C 
HETATM    3  F4  UNL     1     -36.031   5.369   4.622  1.00 20.00    -0.216 F 
HETATM    4 CL8  UNL     1     -34.357   3.496   5.128  1.00 20.00    -0.073 Cl
ENDROOT
BRANCH   2   5
HETATM    5  C3  UNL     1     -33.906   5.794   3.767  1.00 20.00     0.437 C 
HETATM    6  F5  UNL     1     -34.236   5.194   2.601  1.00 20.00    -0.166 F 
HETATM    7  F6  UNL     1     -34.135   7.119   3.619  1.00 20.00    -0.166 F 
HETATM    8  F7  UNL     1     -32.579   5.630   3.954  1.00 20.00    -0.166 F 
ENDBRANCH   2   5
TORSDOF 1
ENDMDL
MODEL 7
REMARK VINA RESULT:      -4.3      2.074      2.499
REMARK  1 active torsions:
REMARK  status: ('A' for Active; 'I' for Inactive)
REMARK    1  A    between atoms: C2_2  and  C3_3 
ROOT
HETATM    1  C1  UNL     1     -35.643   5.803   3.688  1.00 20.00     0.080 C 
HETATM    2  C2  UNL     1     -34.522   5.634   4.700  1.00 20.00     0.272 C 
HETATM    3  F4  UNL     1     -34.534   6.713   5.531  1.00 20.00    -0.216 F 
HETATM    4 CL8  UNL     1     -32.951   5.594   3.856  1.00 20.00    -0.073 Cl
ENDROOT
BRANCH   2   5
HETATM    5  C3  UNL     1     -34.693   4.388   5.545  1.00 20.00     0.437 C 
HETATM    6  F5  UNL     1     -35.605   4.580   6.523  1.00 20.00    -0.166 F 
HETATM    7  F6  UNL     1     -35.121   3.350   4.792  1.00 20.00    -0.166 F 
HETATM    8  F7  UNL     1     -33.533   4.017   6.128  1.00 20.00    -0.166 F 
ENDBRANCH   2   5
TORSDOF 1
ENDMDL
MODEL 8
REMARK VINA RESULT:      -4.3      2.258      3.126
REMARK  1 active torsions:
REMARK  status: ('A' for Active; 'I' for Inactive)
REMARK    1  A    between atoms: C2_2  and  C3_3 
ROOT
HETATM    1  C1  UNL     1     -34.755   3.660   4.583  1.00 20.00     0.080 C 
HETATM    2  C2  UNL     1     -34.707   5.159   4.831  1.00 20.00     0.272 C 
HETATM    3  F4  UNL     1     -35.878   5.698   4.390  1.00 20.00    -0.216 F 
HETATM    4 CL8  UNL     1     -33.370   5.882   3.897  1.00 20.00    -0.073 Cl
ENDROOT
BRANCH   2   5
HETATM    5  C3  UNL     1     -34.560   5.494   6.300  1.00 20.00     0.437 C 
HETATM    6  F5  UNL     1     -35.716   5.289   6.969  1.00 20.00    -0.166 F 
HETATM    7  F6  UNL     1     -33.615   4.719   6.879  1.00 20.00    -0.166 F 
HETATM    8  F7  UNL     1     -34.198   6.782   6.485  1.00 20.00    -0.166 F 
ENDBRANCH   2   5
TORSDOF 1
ENDMDL
MODEL 9
REMARK VINA RESULT:      -4.2      1.410      2.601
REMARK  1 active torsions:
REMARK  status: ('A' for Active; 'I' for Inactive)
REMARK    1  A    between atoms: C2_2  and  C3_3 
ROOT
HETATM    1  C1  UNL     1     -35.577   4.946   4.660  1.00 20.00     0.080 C 
HETATM    2  C2  UNL     1     -34.140   5.379   4.900  1.00 20.00     0.272 C 
HETATM    3  F4  UNL     1     -33.426   4.284   5.281  1.00 20.00    -0.216 F 
HETATM    4 CL8  UNL     1     -34.084   6.573   6.224  1.00 20.00    -0.073 Cl
ENDROOT
BRANCH   2   5
HETATM    5  C3  UNL     1     -33.496   5.950   3.654  1.00 20.00     0.437 C 
HETATM    6  F5  UNL     1     -33.958   5.341   2.539  1.00 20.00    -0.166 F 
HETATM    7  F6  UNL     1     -33.764   7.270   3.534  1.00 20.00    -0.166 F 
HETATM    8  F7  UNL     1     -32.153   5.808   3.676  1.00 20.00    -0.166 F 
ENDBRANCH   2   5
TORSDOF 1
ENDMDL
