MODEL 1
REMARK VINA RESULT:      -4.4      0.000      0.000
REMARK  0 active torsions:
REMARK  status: ('A' for Active; 'I' for Inactive)
ROOT
HETATM    1  C1  UNL     1     -34.696  16.949  -0.369  1.00 20.00     0.012 C 
HETATM    2  C2  UNL     1     -34.408  16.461  -1.429  1.00 20.00    -0.113 C 
HETATM    3  C3  UNL     1     -33.660  16.950  -3.732  1.00 20.00     0.047 C 
HETATM    4  C4  UNL     1     -35.226  15.045  -3.280  1.00 20.00     0.047 C 
HETATM    5  C5  UNL     1     -33.406  16.356  -5.120  1.00 20.00     0.273 C 
HETATM    6  C6  UNL     1     -34.921  14.515  -4.683  1.00 20.00     0.273 C 
HETATM    7  C7  UNL     1     -34.057  15.864  -2.727  1.00 20.00     0.067 C 
HETATM    8  C8  UNL     1     -34.337  15.094  -6.947  1.00 20.00     0.309 C 
HETATM    9  N9  UNL     1     -34.578  15.611  -5.600  1.00 20.00     0.084 N 
ENDROOT
TORSDOF 0
ENDMDL
MODEL 2
REMARK VINA RESULT:      -4.0     12.040     13.063
REMARK  0 active torsions:
REMARK  status: ('A' for Active; 'I' for Inactive)
ROOT
HETATM    1  C1  UNL     1     -31.993   8.394   1.798  1.00 20.00     0.012 C 
HETATM    2  C2  UNL     1     -32.332   7.533   2.564  1.00 20.00    -0.113 C 
HETATM    3  C3  UNL     1     -33.952   5.710   2.955  1.00 20.00     0.047 C 
HETATM    4  C4  UNL     1     -33.092   7.080   4.871  1.00 20.00     0.047 C 
HETATM    5  C5  UNL     1     -34.470   4.689   3.972  1.00 20.00     0.273 C 
HETATM    6  C6  UNL     1     -33.639   6.015   5.824  1.00 20.00     0.273 C 
HETATM    7  C7  UNL     1     -32.747   6.481   3.504  1.00 20.00     0.067 C 
HETATM    8  C8  UNL     1     -35.349   4.358   6.190  1.00 20.00     0.309 C 
HETATM    9  N9  UNL     1     -34.808   5.337   5.247  1.00 20.00     0.084 N 
ENDROOT
TORSDOF 0
ENDMDL
MODEL 3
REMARK VINA RESULT:      -3.9     12.522     14.041
REMARK  0 active torsions:
REMARK  status: ('A' for Active; 'I' for Inactive)
ROOT
HETATM    1  C1  UNL     1     -41.626   1.527  -3.802  1.00 20.00     0.012 C 
HETATM    2  C2  UNL     1     -41.837   2.494  -3.120  1.00 20.00    -0.113 C 
HETATM    3  C3  UNL     1     -42.702   4.808  -3.122  1.00 20.00     0.047 C 
HETATM    4  C4  UNL     1     -40.801   4.161  -1.621  1.00 20.00     0.047 C 
HETATM    5  C5  UNL     1     -42.865   6.086  -2.295  1.00 20.00     0.273 C 
HETATM    6  C6  UNL     1     -41.026   5.461  -0.844  1.00 20.00     0.273 C 
HETATM    7  C7  UNL     1     -42.093   3.678  -2.286  1.00 20.00     0.067 C 
HETATM    8  C8  UNL     1     -41.746   7.756  -0.969  1.00 20.00     0.309 C 
HETATM    9  N9  UNL     1     -41.583   6.507  -1.713  1.00 20.00     0.084 N 
ENDROOT
TORSDOF 0
ENDMDL
MODEL 4
REMARK VINA RESULT:      -3.9      1.071      1.719
REMARK  0 active torsions:
REMARK  status: ('A' for Active; 'I' for Inactive)
ROOT
HETATM    1  C1  UNL     1     -34.790  17.016  -0.024  1.00 20.00     0.012 C 
HETATM    2  C2  UNL     1     -34.798  16.794  -1.205  1.00 20.00    -0.113 C 
HETATM    3  C3  UNL     1     -36.047  15.711  -3.041  1.00 20.00     0.047 C 
HETATM    4  C4  UNL     1     -33.541  15.768  -3.067  1.00 20.00     0.047 C 
HETATM    5  C5  UNL     1     -36.012  15.319  -4.520  1.00 20.00     0.273 C 
HETATM    6  C6  UNL     1     -33.589  15.373  -4.545  1.00 20.00     0.273 C 
HETATM    7  C7  UNL     1     -34.807  16.522  -2.650  1.00 20.00     0.067 C 
HETATM    8  C8  UNL     1     -34.793  14.163  -6.245  1.00 20.00     0.309 C 
HETATM    9  N9  UNL     1     -34.786  14.575  -4.841  1.00 20.00     0.084 N 
ENDROOT
TORSDOF 0
ENDMDL
MODEL 5
REMARK VINA RESULT:      -3.6      1.255      4.414
REMARK  0 active torsions:
REMARK  status: ('A' for Active; 'I' for Inactive)
ROOT
HETATM    1  C1  UNL     1     -34.976  14.757  -7.918  1.00 20.00     0.012 C 
HETATM    2  C2  UNL     1     -34.836  14.770  -6.725  1.00 20.00    -0.113 C 
HETATM    3  C3  UNL     1     -35.978  15.159  -4.569  1.00 20.00     0.047 C 
HETATM    4  C4  UNL     1     -33.565  15.776  -4.860  1.00 20.00     0.047 C 
HETATM    5  C5  UNL     1     -35.787  15.297  -3.056  1.00 20.00     0.273 C 
HETATM    6  C6  UNL     1     -33.455  15.895  -3.338  1.00 20.00     0.273 C 
HETATM    7  C7  UNL     1     -34.664  14.789  -5.264  1.00 20.00     0.067 C 
HETATM    8  C8  UNL     1     -34.607  16.438  -1.294  1.00 20.00     0.309 C 
HETATM    9  N9  UNL     1     -34.741  16.280  -2.742  1.00 20.00     0.084 N 
ENDROOT
TORSDOF 0
ENDMDL
MODEL 6
REMARK VINA RESULT:      -3.5      4.600      7.497
REMARK  0 active torsions:
REMARK  status: ('A' for Active; 'I' for Inactive)
ROOT
HETATM    1  C1  UNL     1     -34.780  16.733  -1.144  1.00 20.00     0.012 C 
HETATM    2  C2  UNL     1     -34.760  17.380  -0.133  1.00 20.00    -0.113 C 
HETATM    3  C3  UNL     1     -33.297  18.540   1.486  1.00 20.00     0.047 C 
HETATM    4  C4  UNL     1     -35.394  17.401   2.255  1.00 20.00     0.047 C 
HETATM    5  C5  UNL     1     -33.244  19.262   2.835  1.00 20.00     0.273 C 
HETATM    6  C6  UNL     1     -35.272  18.160   3.578  1.00 20.00     0.273 C 
HETATM    7  C7  UNL     1     -34.735  18.172   1.107  1.00 20.00     0.067 C 
HETATM    8  C8  UNL     1     -33.762  19.134   5.183  1.00 20.00     0.309 C 
HETATM    9  N9  UNL     1     -33.867  18.454   3.892  1.00 20.00     0.084 N 
ENDROOT
TORSDOF 0
ENDMDL
MODEL 7
REMARK VINA RESULT:      -3.5      1.949      3.428
REMARK  0 active torsions:
REMARK  status: ('A' for Active; 'I' for Inactive)
ROOT
HETATM    1  C1  UNL     1     -33.827  18.597   2.050  1.00 20.00     0.012 C 
HETATM    2  C2  UNL     1     -34.113  18.383   0.903  1.00 20.00    -0.113 C 
HETATM    3  C3  UNL     1     -34.553  16.615  -0.765  1.00 20.00     0.047 C 
HETATM    4  C4  UNL     1     -33.430  18.751  -1.443  1.00 20.00     0.047 C 
HETATM    5  C5  UNL     1     -34.799  16.323  -2.247  1.00 20.00     0.273 C 
HETATM    6  C6  UNL     1     -33.713  18.388  -2.902  1.00 20.00     0.273 C 
HETATM    7  C7  UNL     1     -34.462  18.121  -0.502  1.00 20.00     0.067 C 
HETATM    8  C8  UNL     1     -33.979  16.600  -4.494  1.00 20.00     0.309 C 
HETATM    9  N9  UNL     1     -33.758  16.931  -3.087  1.00 20.00     0.084 N 
ENDROOT
TORSDOF 0
ENDMDL
MODEL 8
REMARK VINA RESULT:      -3.5      1.479      4.083
REMARK  0 active torsions:
REMARK  status: ('A' for Active; 'I' for Inactive)
ROOT
HETATM    1  C1  UNL     1     -34.473  14.861  -7.345  1.00 20.00     0.012 C 
HETATM    2  C2  UNL     1     -34.615  15.409  -6.285  1.00 20.00    -0.113 C 
HETATM    3  C3  UNL     1     -33.700  17.138  -4.775  1.00 20.00     0.047 C 
HETATM    4  C4  UNL     1     -34.752  15.061  -3.843  1.00 20.00     0.047 C 
HETATM    5  C5  UNL     1     -33.795  17.761  -3.380  1.00 20.00     0.273 C 
HETATM    6  C6  UNL     1     -34.811  15.753  -2.479  1.00 20.00     0.273 C 
HETATM    7  C7  UNL     1     -34.787  16.079  -4.986  1.00 20.00     0.067 C 
HETATM    8  C8  UNL     1     -33.765  17.348  -1.008  1.00 20.00     0.309 C 
HETATM    9  N9  UNL     1     -33.725  16.732  -2.334  1.00 20.00     0.084 N 
ENDROOT
TORSDOF 0
ENDMDL
MODEL 9
REMARK VINA RESULT:      -3.4      1.360      1.723
REMARK  0 active torsions:
REMARK  status: ('A' for Active; 'I' for Inactive)
ROOT
HETATM    1  C1  UNL     1     -34.470  16.315  -1.279  1.00 20.00     0.012 C 
HETATM    2  C2  UNL     1     -34.791  15.808  -2.320  1.00 20.00    -0.113 C 
HETATM    3  C3  UNL     1     -34.040  15.268  -4.611  1.00 20.00     0.047 C 
HETATM    4  C4  UNL     1     -36.433  15.867  -4.165  1.00 20.00     0.047 C 
HETATM    5  C5  UNL     1     -34.473  14.734  -5.979  1.00 20.00     0.273 C 
HETATM    6  C6  UNL     1     -36.786  15.315  -5.547  1.00 20.00     0.273 C 
HETATM    7  C7  UNL     1     -35.184  15.188  -3.596  1.00 20.00     0.067 C 
HETATM    8  C8  UNL     1     -36.025  14.963  -7.806  1.00 20.00     0.309 C 
HETATM    9  N9  UNL     1     -35.656  15.449  -6.476  1.00 20.00     0.084 N 
ENDROOT
TORSDOF 0
ENDMDL
