MODEL 1
REMARK VINA RESULT:      -4.8      0.000      0.000
REMARK  0 active torsions:
REMARK  status: ('A' for Active; 'I' for Inactive)
ROOT
HETATM    1  C1  UNL     1     -34.424  13.837  -4.416  1.00 20.00     0.223 A 
HETATM    2  C2  UNL     1     -33.577  15.923  -5.171  1.00 20.00     0.128 A 
HETATM    3  C3  UNL     1     -34.071  14.607  -3.196  1.00 20.00     0.092 A 
HETATM    4  C4  UNL     1     -33.548  15.943  -3.672  1.00 20.00     0.026 A 
HETATM    5  C5  UNL     1     -34.782  15.880  -2.789  1.00 20.00    -0.029 A 
HETATM    6  C6  UNL     1     -36.141  16.197  -3.359  1.00 20.00     0.016 C 
HETATM    7  C7  UNL     1     -34.620  16.327  -1.357  1.00 20.00     0.016 C 
HETATM    8  N8  UNL     1     -34.103  14.618  -5.512  1.00 20.00    -0.360 N 
HETATM    9  O9  UNL     1     -34.902  12.715  -4.388  1.00 20.00    -0.273 OA
HETATM   10  H20 UNL     1     -34.226  14.305  -6.469  1.00 20.00     0.162 HD
ENDROOT
TORSDOF 0
ENDMDL
MODEL 2
REMARK VINA RESULT:      -4.5      1.416      2.055
REMARK  0 active torsions:
REMARK  status: ('A' for Active; 'I' for Inactive)
ROOT
HETATM    1  C1  UNL     1     -34.456  13.511  -4.051  1.00 20.00     0.223 A 
HETATM    2  C2  UNL     1     -32.499  14.758  -3.546  1.00 20.00     0.128 A 
HETATM    3  C3  UNL     1     -34.910  14.894  -3.759  1.00 20.00     0.092 A 
HETATM    4  C4  UNL     1     -33.665  15.695  -3.455  1.00 20.00     0.026 A 
HETATM    5  C5  UNL     1     -34.551  16.080  -4.627  1.00 20.00    -0.029 A 
HETATM    6  C6  UNL     1     -34.076  15.862  -6.041  1.00 20.00     0.016 C 
HETATM    7  C7  UNL     1     -35.389  17.325  -4.468  1.00 20.00     0.016 C 
HETATM    8  N8  UNL     1     -33.082  13.479  -3.894  1.00 20.00    -0.360 N 
HETATM    9  O9  UNL     1     -35.213  12.606  -4.361  1.00 20.00    -0.273 OA
HETATM   10  H20 UNL     1     -32.532  12.634  -4.012  1.00 20.00     0.162 HD
ENDROOT
TORSDOF 0
ENDMDL
MODEL 3
REMARK VINA RESULT:      -4.4      1.594      2.121
REMARK  0 active torsions:
REMARK  status: ('A' for Active; 'I' for Inactive)
ROOT
HETATM    1  C1  UNL     1     -33.706  13.594  -3.893  1.00 20.00     0.223 A 
HETATM    2  C2  UNL     1     -35.981  14.174  -4.251  1.00 20.00     0.128 A 
HETATM    3  C3  UNL     1     -33.707  15.009  -4.344  1.00 20.00     0.092 A 
HETATM    4  C4  UNL     1     -35.155  15.387  -4.556  1.00 20.00     0.026 A 
HETATM    5  C5  UNL     1     -34.315  16.133  -3.532  1.00 20.00    -0.029 A 
HETATM    6  C6  UNL     1     -34.570  15.945  -2.059  1.00 20.00     0.016 C 
HETATM    7  C7  UNL     1     -33.897  17.538  -3.888  1.00 20.00     0.016 C 
HETATM    8  N8  UNL     1     -35.019  13.158  -3.879  1.00 20.00    -0.360 N 
HETATM    9  O9  UNL     1     -32.692  12.980  -3.607  1.00 20.00    -0.273 OA
HETATM   10  H20 UNL     1     -35.284  12.210  -3.630  1.00 20.00     0.162 HD
ENDROOT
TORSDOF 0
ENDMDL
MODEL 4
REMARK VINA RESULT:      -4.3      1.984      2.669
REMARK  0 active torsions:
REMARK  status: ('A' for Active; 'I' for Inactive)
ROOT
HETATM    1  C1  UNL     1     -33.268  15.942  -4.679  1.00 20.00     0.223 A 
HETATM    2  C2  UNL     1     -33.146  13.834  -3.592  1.00 20.00     0.128 A 
HETATM    3  C3  UNL     1     -34.654  15.409  -4.653  1.00 20.00     0.092 A 
HETATM    4  C4  UNL     1     -34.583  14.075  -3.945  1.00 20.00     0.026 A 
HETATM    5  C5  UNL     1     -35.432  15.197  -3.371  1.00 20.00    -0.029 A 
HETATM    6  C6  UNL     1     -35.007  15.900  -2.108  1.00 20.00     0.016 C 
HETATM    7  C7  UNL     1     -36.928  15.051  -3.495  1.00 20.00     0.016 C 
HETATM    8  N8  UNL     1     -32.446  15.001  -4.086  1.00 20.00    -0.360 N 
HETATM    9  O9  UNL     1     -32.973  17.023  -5.161  1.00 20.00    -0.273 OA
HETATM   10  H20 UNL     1     -31.441  15.118  -4.004  1.00 20.00     0.162 HD
ENDROOT
TORSDOF 0
ENDMDL
MODEL 5
REMARK VINA RESULT:      -4.3      1.900      3.358
REMARK  0 active torsions:
REMARK  status: ('A' for Active; 'I' for Inactive)
ROOT
HETATM    1  C1  UNL     1     -33.970  13.695  -3.970  1.00 20.00     0.223 A 
HETATM    2  C2  UNL     1     -35.783  15.202  -3.688  1.00 20.00     0.128 A 
HETATM    3  C3  UNL     1     -34.780  13.606  -5.212  1.00 20.00     0.092 A 
HETATM    4  C4  UNL     1     -35.925  14.578  -5.043  1.00 20.00     0.026 A 
HETATM    5  C5  UNL     1     -34.933  14.760  -6.180  1.00 20.00    -0.029 A 
HETATM    6  C6  UNL     1     -33.949  15.901  -6.154  1.00 20.00     0.016 C 
HETATM    7  C7  UNL     1     -35.421  14.428  -7.569  1.00 20.00     0.016 C 
HETATM    8  N8  UNL     1     -34.594  14.596  -3.126  1.00 20.00    -0.360 N 
HETATM    9  O9  UNL     1     -32.949  13.053  -3.786  1.00 20.00    -0.273 OA
HETATM   10  H20 UNL     1     -34.248  14.814  -2.198  1.00 20.00     0.162 HD
ENDROOT
TORSDOF 0
ENDMDL
MODEL 6
REMARK VINA RESULT:      -4.2      2.273      3.531
REMARK  0 active torsions:
REMARK  status: ('A' for Active; 'I' for Inactive)
ROOT
HETATM    1  C1  UNL     1     -37.136  14.796  -3.849  1.00 20.00     0.223 A 
HETATM    2  C2  UNL     1     -35.164  16.018  -3.340  1.00 20.00     0.128 A 
HETATM    3  C3  UNL     1     -36.488  15.098  -5.151  1.00 20.00     0.092 A 
HETATM    4  C4  UNL     1     -35.223  15.861  -4.830  1.00 20.00     0.026 A 
HETATM    5  C5  UNL     1     -35.145  14.528  -5.556  1.00 20.00    -0.029 A 
HETATM    6  C6  UNL     1     -34.601  13.311  -4.853  1.00 20.00     0.016 C 
HETATM    7  C7  UNL     1     -34.797  14.572  -7.024  1.00 20.00     0.016 C 
HETATM    8  N8  UNL     1     -36.358  15.359  -2.854  1.00 20.00    -0.360 N 
HETATM    9  O9  UNL     1     -38.174  14.164  -3.746  1.00 20.00    -0.273 OA
HETATM   10  H20 UNL     1     -36.603  15.314  -1.870  1.00 20.00     0.162 HD
ENDROOT
TORSDOF 0
ENDMDL
MODEL 7
REMARK VINA RESULT:      -4.1      2.102      2.751
REMARK  0 active torsions:
REMARK  status: ('A' for Active; 'I' for Inactive)
ROOT
HETATM    1  C1  UNL     1     -37.177  14.752  -4.205  1.00 20.00     0.223 A 
HETATM    2  C2  UNL     1     -35.858  16.310  -5.418  1.00 20.00     0.128 A 
HETATM    3  C3  UNL     1     -35.852  14.109  -4.400  1.00 20.00     0.092 A 
HETATM    4  C4  UNL     1     -35.004  15.105  -5.156  1.00 20.00     0.026 A 
HETATM    5  C5  UNL     1     -34.579  14.639  -3.774  1.00 20.00    -0.029 A 
HETATM    6  C6  UNL     1     -34.653  15.579  -2.599  1.00 20.00     0.016 C 
HETATM    7  C7  UNL     1     -33.406  13.693  -3.705  1.00 20.00     0.016 C 
HETATM    8  N8  UNL     1     -37.137  15.990  -4.822  1.00 20.00    -0.360 N 
HETATM    9  O9  UNL     1     -38.098  14.224  -3.604  1.00 20.00    -0.273 OA
HETATM   10  H20 UNL     1     -37.934  16.617  -4.852  1.00 20.00     0.162 HD
ENDROOT
TORSDOF 0
ENDMDL
MODEL 8
REMARK VINA RESULT:      -4.1      1.729      2.494
REMARK  0 active torsions:
REMARK  status: ('A' for Active; 'I' for Inactive)
ROOT
HETATM    1  C1  UNL     1     -34.523  14.945  -5.872  1.00 20.00     0.223 A 
HETATM    2  C2  UNL     1     -35.208  13.298  -4.305  1.00 20.00     0.128 A 
HETATM    3  C3  UNL     1     -34.701  15.653  -4.579  1.00 20.00     0.092 A 
HETATM    4  C4  UNL     1     -35.120  14.604  -3.574  1.00 20.00     0.026 A 
HETATM    5  C5  UNL     1     -33.834  15.386  -3.367  1.00 20.00    -0.029 A 
HETATM    6  C6  UNL     1     -32.498  14.709  -3.532  1.00 20.00     0.016 C 
HETATM    7  C7  UNL     1     -33.839  16.430  -2.277  1.00 20.00     0.016 C 
HETATM    8  N8  UNL     1     -34.846  13.615  -5.670  1.00 20.00    -0.360 N 
HETATM    9  O9  UNL     1     -34.162  15.499  -6.897  1.00 20.00    -0.273 OA
HETATM   10  H20 UNL     1     -34.829  12.924  -6.413  1.00 20.00     0.162 HD
ENDROOT
TORSDOF 0
ENDMDL
MODEL 9
REMARK VINA RESULT:      -4.0      2.411      3.069
REMARK  0 active torsions:
REMARK  status: ('A' for Active; 'I' for Inactive)
ROOT
HETATM    1  C1  UNL     1     -33.832  15.888  -5.603  1.00 20.00     0.223 A 
HETATM    2  C2  UNL     1     -35.081  14.629  -7.183  1.00 20.00     0.128 A 
HETATM    3  C3  UNL     1     -35.229  15.862  -5.100  1.00 20.00     0.092 A 
HETATM    4  C4  UNL     1     -36.024  15.046  -6.094  1.00 20.00     0.026 A 
HETATM    5  C5  UNL     1     -35.919  14.593  -4.648  1.00 20.00    -0.029 A 
HETATM    6  C6  UNL     1     -35.101  13.378  -4.290  1.00 20.00     0.016 C 
HETATM    7  C7  UNL     1     -37.152  14.750  -3.793  1.00 20.00     0.016 C 
HETATM    8  N8  UNL     1     -33.804  15.195  -6.800  1.00 20.00    -0.360 N 
HETATM    9  O9  UNL     1     -32.918  16.448  -5.020  1.00 20.00    -0.273 OA
HETATM   10  H20 UNL     1     -32.964  15.092  -7.359  1.00 20.00     0.162 HD
ENDROOT
TORSDOF 0
ENDMDL
