MODEL 1
REMARK VINA RESULT:      -5.8      0.000      0.000
REMARK  0 active torsions:
REMARK  status: ('A' for Active; 'I' for Inactive)
ROOT
HETATM    1  C1  UNL     1     -32.723   6.102   2.710  1.00 20.00    -0.002 C 
HETATM    2  C2  UNL     1     -32.686   6.760   3.997  1.00 20.00     0.009 C 
HETATM    3  C3  UNL     1     -33.831   5.345   2.607  1.00 20.00    -0.013 C 
HETATM    4  C4  UNL     1     -35.125   4.369   4.602  1.00 20.00     0.006 C 
HETATM    5  C5  UNL     1     -35.095   4.408   5.948  1.00 20.00     0.113 C 
HETATM    6  C6  UNL     1     -34.009   6.411   6.108  1.00 20.00     0.124 C 
HETATM    7  C7  UNL     1     -33.795   6.411   4.657  1.00 20.00    -0.029 C 
HETATM    8  C8  UNL     1     -34.699   5.568   3.813  1.00 20.00     0.066 C 
HETATM    9  N9  UNL     1     -34.647   5.463   6.727  1.00 20.00    -0.273 NA
ENDROOT
TORSDOF 0
ENDMDL
MODEL 2
REMARK VINA RESULT:      -5.4      1.626      3.589
REMARK  0 active torsions:
REMARK  status: ('A' for Active; 'I' for Inactive)
ROOT
HETATM    1  C1  UNL     1     -35.019   4.502   6.292  1.00 20.00    -0.002 C 
HETATM    2  C2  UNL     1     -35.170   4.220   4.882  1.00 20.00     0.009 C 
HETATM    3  C3  UNL     1     -34.429   5.698   6.466  1.00 20.00    -0.013 C 
HETATM    4  C4  UNL     1     -32.898   6.837   4.743  1.00 20.00     0.006 C 
HETATM    5  C5  UNL     1     -32.452   6.631   3.489  1.00 20.00     0.113 C 
HETATM    6  C6  UNL     1     -34.185   5.295   2.832  1.00 20.00     0.124 C 
HETATM    7  C7  UNL     1     -34.688   5.270   4.210  1.00 20.00    -0.029 C 
HETATM    8  C8  UNL     1     -34.266   6.371   5.132  1.00 20.00     0.066 C 
HETATM    9  N9  UNL     1     -33.126   5.961   2.480  1.00 20.00    -0.273 NA
ENDROOT
TORSDOF 0
ENDMDL
MODEL 3
REMARK VINA RESULT:      -4.3      9.727     10.557
REMARK  0 active torsions:
REMARK  status: ('A' for Active; 'I' for Inactive)
ROOT
HETATM    1  C1  UNL     1     -40.798   6.147   0.061  1.00 20.00    -0.002 C 
HETATM    2  C2  UNL     1     -41.283   7.062  -0.948  1.00 20.00     0.009 C 
HETATM    3  C3  UNL     1     -40.871   4.881  -0.387  1.00 20.00    -0.013 C 
HETATM    4  C4  UNL     1     -42.492   4.064  -2.207  1.00 20.00     0.006 C 
HETATM    5  C5  UNL     1     -43.416   4.573  -3.045  1.00 20.00     0.113 C 
HETATM    6  C6  UNL     1     -42.571   6.695  -3.077  1.00 20.00     0.124 C 
HETATM    7  C7  UNL     1     -41.624   6.335  -2.016  1.00 20.00    -0.029 C 
HETATM    8  C8  UNL     1     -41.300   4.886  -1.827  1.00 20.00     0.066 C 
HETATM    9  N9  UNL     1     -43.417   5.850  -3.585  1.00 20.00    -0.273 NA
ENDROOT
TORSDOF 0
ENDMDL
MODEL 4
REMARK VINA RESULT:      -4.3     12.668     13.490
REMARK  0 active torsions:
REMARK  status: ('A' for Active; 'I' for Inactive)
ROOT
HETATM    1  C1  UNL     1     -34.766  16.880  -0.479  1.00 20.00    -0.002 C 
HETATM    2  C2  UNL     1     -33.574  17.525  -0.985  1.00 20.00     0.009 C 
HETATM    3  C3  UNL     1     -35.102  17.399   0.716  1.00 20.00    -0.013 C 
HETATM    4  C4  UNL     1     -33.458  18.539   2.330  1.00 20.00     0.006 C 
HETATM    5  C5  UNL     1     -32.161  18.902   2.368  1.00 20.00     0.113 C 
HETATM    6  C6  UNL     1     -31.878  19.028   0.105  1.00 20.00     0.124 C 
HETATM    7  C7  UNL     1     -33.212  18.453  -0.094  1.00 20.00    -0.029 C 
HETATM    8  C8  UNL     1     -34.197  18.557   1.028  1.00 20.00     0.066 C 
HETATM    9  N9  UNL     1     -31.379  19.261   1.282  1.00 20.00    -0.273 NA
ENDROOT
TORSDOF 0
ENDMDL
MODEL 5
REMARK VINA RESULT:      -4.3     11.604     12.560
REMARK  0 active torsions:
REMARK  status: ('A' for Active; 'I' for Inactive)
ROOT
HETATM    1  C1  UNL     1     -34.990  16.650  -1.876  1.00 20.00    -0.002 C 
HETATM    2  C2  UNL     1     -35.966  15.869  -2.602  1.00 20.00     0.009 C 
HETATM    3  C3  UNL     1     -33.757  16.421  -2.364  1.00 20.00    -0.013 C 
HETATM    4  C4  UNL     1     -33.048  14.283  -3.602  1.00 20.00     0.006 C 
HETATM    5  C5  UNL     1     -33.602  13.140  -4.051  1.00 20.00     0.113 C 
HETATM    6  C6  UNL     1     -35.732  13.948  -4.209  1.00 20.00     0.124 C 
HETATM    7  C7  UNL     1     -35.312  15.188  -3.547  1.00 20.00    -0.029 C 
HETATM    8  C8  UNL     1     -33.858  15.542  -3.578  1.00 20.00     0.066 C 
HETATM    9  N9  UNL     1     -34.913  12.973  -4.468  1.00 20.00    -0.273 NA
ENDROOT
TORSDOF 0
ENDMDL
MODEL 6
REMARK VINA RESULT:      -4.2     12.609     13.737
REMARK  0 active torsions:
REMARK  status: ('A' for Active; 'I' for Inactive)
ROOT
HETATM    1  C1  UNL     1     -34.883  15.312  -7.647  1.00 20.00    -0.002 C 
HETATM    2  C2  UNL     1     -34.146  16.217  -6.794  1.00 20.00     0.009 C 
HETATM    3  C3  UNL     1     -35.369  14.286  -6.925  1.00 20.00    -0.013 C 
HETATM    4  C4  UNL     1     -34.369  13.456  -4.708  1.00 20.00     0.006 C 
HETATM    5  C5  UNL     1     -33.386  13.790  -3.849  1.00 20.00     0.113 C 
HETATM    6  C6  UNL     1     -33.290  15.995  -4.439  1.00 20.00     0.124 C 
HETATM    7  C7  UNL     1     -34.215  15.739  -5.548  1.00 20.00    -0.029 C 
HETATM    8  C8  UNL     1     -35.088  14.526  -5.469  1.00 20.00     0.066 C 
HETATM    9  N9  UNL     1     -32.905  15.069  -3.613  1.00 20.00    -0.273 NA
ENDROOT
TORSDOF 0
ENDMDL
MODEL 7
REMARK VINA RESULT:      -4.1      9.905     10.869
REMARK  0 active torsions:
REMARK  status: ('A' for Active; 'I' for Inactive)
ROOT
HETATM    1  C1  UNL     1     -40.465   5.240  -0.550  1.00 20.00    -0.002 C 
HETATM    2  C2  UNL     1     -41.310   4.492  -1.455  1.00 20.00     0.009 C 
HETATM    3  C3  UNL     1     -40.914   6.503  -0.434  1.00 20.00    -0.013 C 
HETATM    4  C4  UNL     1     -42.321   7.724  -2.205  1.00 20.00     0.006 C 
HETATM    5  C5  UNL     1     -42.905   7.465  -3.391  1.00 20.00     0.113 C 
HETATM    6  C6  UNL     1     -43.084   5.209  -3.087  1.00 20.00     0.124 C 
HETATM    7  C7  UNL     1     -42.285   5.310  -1.861  1.00 20.00    -0.029 C 
HETATM    8  C8  UNL     1     -42.212   6.640  -1.178  1.00 20.00     0.066 C 
HETATM    9  N9  UNL     1     -43.399   6.240  -3.811  1.00 20.00    -0.273 NA
ENDROOT
TORSDOF 0
ENDMDL
MODEL 8
REMARK VINA RESULT:      -4.1      1.647      3.080
REMARK  0 active torsions:
REMARK  status: ('A' for Active; 'I' for Inactive)
ROOT
HETATM    1  C1  UNL     1     -34.806   5.778   6.836  1.00 20.00    -0.002 C 
HETATM    2  C2  UNL     1     -33.734   6.594   6.312  1.00 20.00     0.009 C 
HETATM    3  C3  UNL     1     -35.118   4.804   5.962  1.00 20.00    -0.013 C 
HETATM    4  C4  UNL     1     -34.697   4.923   3.429  1.00 20.00     0.006 C 
HETATM    5  C5  UNL     1     -34.124   5.751   2.534  1.00 20.00     0.113 C 
HETATM    6  C6  UNL     1     -32.723   6.779   4.016  1.00 20.00     0.124 C 
HETATM    7  C7  UNL     1     -33.388   6.086   5.125  1.00 20.00    -0.029 C 
HETATM    8  C8  UNL     1     -34.145   4.833   4.817  1.00 20.00     0.066 C 
HETATM    9  N9  UNL     1     -33.060   6.606   2.773  1.00 20.00    -0.273 NA
ENDROOT
TORSDOF 0
ENDMDL
MODEL 9
REMARK VINA RESULT:      -4.1     12.246     13.420
REMARK  0 active torsions:
REMARK  status: ('A' for Active; 'I' for Inactive)
ROOT
HETATM    1  C1  UNL     1     -33.891  17.329  -3.157  1.00 20.00    -0.002 C 
HETATM    2  C2  UNL     1     -34.030  17.159  -4.587  1.00 20.00     0.009 C 
HETATM    3  C3  UNL     1     -33.656  16.142  -2.569  1.00 20.00    -0.013 C 
HETATM    4  C4  UNL     1     -34.343  13.865  -3.545  1.00 20.00     0.006 C 
HETATM    5  C5  UNL     1     -34.910  13.370  -4.662  1.00 20.00     0.113 C 
HETATM    6  C6  UNL     1     -34.336  15.114  -6.020  1.00 20.00     0.124 C 
HETATM    7  C7  UNL     1     -33.851  15.862  -4.854  1.00 20.00    -0.029 C 
HETATM    8  C8  UNL     1     -33.484  15.089  -3.627  1.00 20.00     0.066 C 
HETATM    9  N9  UNL     1     -34.826  13.914  -5.934  1.00 20.00    -0.273 NA
ENDROOT
TORSDOF 0
ENDMDL
