MODEL 1
REMARK VINA RESULT:      -5.3      0.000      0.000
REMARK  1 active torsions:
REMARK  status: ('A' for Active; 'I' for Inactive)
REMARK    1  A    between atoms: C3_3  and  C4_4 
ROOT
HETATM    1  C1  UNL     1     -34.005   5.594   3.944  1.00 20.00     0.067 A 
HETATM    2  C2  UNL     1     -33.495   6.349   4.969  1.00 20.00     0.080 A 
HETATM    3  C3  UNL     1     -32.677   6.986   3.116  1.00 20.00     0.208 A 
HETATM    4  C5  UNL     1     -34.997   4.518   4.153  1.00 20.00     0.062 C 
HETATM    5  C6  UNL     1     -33.768   6.232   6.410  1.00 20.00     0.067 C 
HETATM    6  C7  UNL     1     -35.048   4.125   5.649  1.00 20.00     0.006 C 
HETATM    7  C8  UNL     1     -35.024   5.350   6.597  1.00 20.00     0.007 C 
HETATM    8  N9  UNL     1     -33.484   6.007   2.753  1.00 20.00    -0.224 NA
HETATM    9  O11 UNL     1     -32.626   7.255   4.457  1.00 20.00    -0.292 OA
ENDROOT
BRANCH   3  10
HETATM   10  C4  UNL     1     -31.879   7.759   2.228  1.00 20.00     0.316 C 
HETATM   11  O10 UNL     1     -32.266   8.805   1.658  1.00 20.00    -0.298 OA
ENDBRANCH   3  10
TORSDOF 1
ENDMDL
MODEL 2
REMARK VINA RESULT:      -5.1      0.986      1.866
REMARK  1 active torsions:
REMARK  status: ('A' for Active; 'I' for Inactive)
REMARK    1  A    between atoms: C3_3  and  C4_4 
ROOT
HETATM    1  C1  UNL     1     -33.340   6.466   4.906  1.00 20.00     0.067 A 
HETATM    2  C2  UNL     1     -33.926   5.715   3.919  1.00 20.00     0.080 A 
HETATM    3  C3  UNL     1     -32.572   7.112   3.067  1.00 20.00     0.208 A 
HETATM    4  C5  UNL     1     -33.629   6.275   6.343  1.00 20.00     0.062 C 
HETATM    5  C6  UNL     1     -34.937   4.655   4.060  1.00 20.00     0.067 C 
HETATM    6  C7  UNL     1     -34.919   5.438   6.519  1.00 20.00     0.006 C 
HETATM    7  C8  UNL     1     -34.996   4.234   5.547  1.00 20.00     0.007 C 
HETATM    8  N9  UNL     1     -32.466   7.359   4.359  1.00 20.00    -0.224 NA
HETATM    9  O11 UNL     1     -33.448   6.119   2.717  1.00 20.00    -0.292 OA
ENDROOT
BRANCH   3  10
HETATM   10  C4  UNL     1     -31.855   7.789   2.043  1.00 20.00     0.316 C 
HETATM   11  O10 UNL     1     -32.203   8.881   1.539  1.00 20.00    -0.298 OA
ENDBRANCH   3  10
TORSDOF 1
ENDMDL
MODEL 3
REMARK VINA RESULT:      -4.6     11.827     12.736
REMARK  1 active torsions:
REMARK  status: ('A' for Active; 'I' for Inactive)
REMARK    1  A    between atoms: C3_3  and  C4_4 
ROOT
HETATM    1  C1  UNL     1     -33.962  16.862  -3.527  1.00 20.00     0.067 A 
HETATM    2  C2  UNL     1     -34.346  16.114  -2.444  1.00 20.00     0.080 A 
HETATM    3  C3  UNL     1     -34.233  14.888  -4.175  1.00 20.00     0.208 A 
HETATM    4  C5  UNL     1     -33.662  18.307  -3.443  1.00 20.00     0.062 C 
HETATM    5  C6  UNL     1     -34.573  16.562  -1.061  1.00 20.00     0.067 C 
HETATM    6  C7  UNL     1     -34.216  18.888  -2.120  1.00 20.00     0.006 C 
HETATM    7  C8  UNL     1     -33.955  17.971  -0.900  1.00 20.00     0.007 C 
HETATM    8  N9  UNL     1     -33.884  16.073  -4.638  1.00 20.00    -0.224 NA
HETATM    9  O11 UNL     1     -34.533  14.831  -2.840  1.00 20.00    -0.292 OA
ENDROOT
BRANCH   3  10
HETATM   10  C4  UNL     1     -34.313  13.699  -4.950  1.00 20.00     0.316 C 
HETATM   11  O10 UNL     1     -34.913  12.659  -4.590  1.00 20.00    -0.298 OA
ENDBRANCH   3  10
TORSDOF 1
ENDMDL
MODEL 4
REMARK VINA RESULT:      -4.5     11.705     12.789
REMARK  1 active torsions:
REMARK  status: ('A' for Active; 'I' for Inactive)
REMARK    1  A    between atoms: C3_3  and  C4_4 
ROOT
HETATM    1  C1  UNL     1     -34.409  16.017  -2.519  1.00 20.00     0.067 A 
HETATM    2  C2  UNL     1     -34.049  16.800  -3.585  1.00 20.00     0.080 A 
HETATM    3  C3  UNL     1     -34.523  14.839  -4.247  1.00 20.00     0.208 A 
HETATM    4  C5  UNL     1     -34.463  16.523  -1.131  1.00 20.00     0.062 C 
HETATM    5  C6  UNL     1     -33.622  18.209  -3.579  1.00 20.00     0.067 C 
HETATM    6  C7  UNL     1     -33.698  17.864  -1.023  1.00 20.00     0.006 C 
HETATM    7  C8  UNL     1     -33.986  18.821  -2.206  1.00 20.00     0.007 C 
HETATM    8  N9  UNL     1     -34.719  14.759  -2.945  1.00 20.00    -0.224 NA
HETATM    9  O11 UNL     1     -34.109  16.056  -4.717  1.00 20.00    -0.292 OA
ENDROOT
BRANCH   3  10
HETATM   10  C4  UNL     1     -34.710  13.773  -5.169  1.00 20.00     0.316 C 
HETATM   11  O10 UNL     1     -34.753  12.562  -4.852  1.00 20.00    -0.298 OA
ENDBRANCH   3  10
TORSDOF 1
ENDMDL
MODEL 5
REMARK VINA RESULT:      -4.5     10.715     11.772
REMARK  1 active torsions:
REMARK  status: ('A' for Active; 'I' for Inactive)
REMARK    1  A    between atoms: C3_3  and  C4_4 
ROOT
HETATM    1  C1  UNL     1     -41.781   4.290  -2.092  1.00 20.00     0.067 A 
HETATM    2  C2  UNL     1     -42.667   5.183  -2.638  1.00 20.00     0.080 A 
HETATM    3  C3  UNL     1     -42.834   3.302  -3.610  1.00 20.00     0.208 A 
HETATM    4  C5  UNL     1     -40.877   4.634  -0.974  1.00 20.00     0.062 C 
HETATM    5  C6  UNL     1     -42.870   6.597  -2.285  1.00 20.00     0.067 C 
HETATM    6  C7  UNL     1     -40.797   6.171  -0.808  1.00 20.00     0.006 C 
HETATM    7  C8  UNL     1     -42.177   6.864  -0.928  1.00 20.00     0.007 C 
HETATM    8  N9  UNL     1     -41.891   3.081  -2.713  1.00 20.00    -0.224 NA
HETATM    9  O11 UNL     1     -43.358   4.567  -3.628  1.00 20.00    -0.292 OA
ENDROOT
BRANCH   3  10
HETATM   10  C4  UNL     1     -43.327   2.339  -4.532  1.00 20.00     0.316 C 
HETATM   11  O10 UNL     1     -42.780   2.059  -5.623  1.00 20.00    -0.298 OA
ENDBRANCH   3  10
TORSDOF 1
ENDMDL
MODEL 6
REMARK VINA RESULT:      -4.3     11.568     12.742
REMARK  1 active torsions:
REMARK  status: ('A' for Active; 'I' for Inactive)
REMARK    1  A    between atoms: C3_3  and  C4_4 
ROOT
HETATM    1  C1  UNL     1     -36.007  15.831  -3.461  1.00 20.00     0.067 A 
HETATM    2  C2  UNL     1     -35.857  14.496  -3.734  1.00 20.00     0.080 A 
HETATM    3  C3  UNL     1     -37.911  15.027  -3.805  1.00 20.00     0.208 A 
HETATM    4  C5  UNL     1     -34.868  16.730  -3.185  1.00 20.00     0.062 C 
HETATM    5  C6  UNL     1     -34.614  13.707  -3.766  1.00 20.00     0.067 C 
HETATM    6  C7  UNL     1     -33.602  15.901  -2.861  1.00 20.00     0.006 C 
HETATM    7  C8  UNL     1     -33.418  14.686  -3.804  1.00 20.00     0.007 C 
HETATM    8  N9  UNL     1     -37.327  16.174  -3.512  1.00 20.00    -0.224 NA
HETATM    9  O11 UNL     1     -37.078  13.951  -3.955  1.00 20.00    -0.292 OA
ENDROOT
BRANCH   3  10
HETATM   10  C4  UNL     1     -39.311  14.842  -3.972  1.00 20.00     0.316 C 
HETATM   11  O10 UNL     1     -39.827  13.940  -4.670  1.00 20.00    -0.298 OA
ENDBRANCH   3  10
TORSDOF 1
ENDMDL
MODEL 7
REMARK VINA RESULT:      -4.3     10.460     11.212
REMARK  1 active torsions:
REMARK  status: ('A' for Active; 'I' for Inactive)
REMARK    1  A    between atoms: C3_3  and  C4_4 
ROOT
HETATM    1  C1  UNL     1     -42.342   5.848  -2.665  1.00 20.00     0.067 A 
HETATM    2  C2  UNL     1     -41.828   6.934  -2.002  1.00 20.00     0.080 A 
HETATM    3  C3  UNL     1     -42.859   7.565  -3.748  1.00 20.00     0.208 A 
HETATM    4  C5  UNL     1     -42.188   4.461  -2.178  1.00 20.00     0.062 C 
HETATM    5  C6  UNL     1     -41.026   6.952  -0.768  1.00 20.00     0.067 C 
HETATM    6  C7  UNL     1     -41.077   4.394  -1.104  1.00 20.00     0.006 C 
HETATM    7  C8  UNL     1     -41.142   5.566  -0.093  1.00 20.00     0.007 C 
HETATM    8  N9  UNL     1     -43.009   6.255  -3.783  1.00 20.00    -0.224 NA
HETATM    9  O11 UNL     1     -42.146   8.059  -2.689  1.00 20.00    -0.292 OA
ENDROOT
BRANCH   3  10
HETATM   10  C4  UNL     1     -43.378   8.474  -4.711  1.00 20.00     0.316 C 
HETATM   11  O10 UNL     1     -43.417   8.253  -5.943  1.00 20.00    -0.298 OA
ENDBRANCH   3  10
TORSDOF 1
ENDMDL
MODEL 8
REMARK VINA RESULT:      -4.3     11.710     12.663
REMARK  1 active torsions:
REMARK  status: ('A' for Active; 'I' for Inactive)
REMARK    1  A    between atoms: C3_3  and  C4_4 
ROOT
HETATM    1  C1  UNL     1     -35.795  14.656  -3.608  1.00 20.00     0.067 A 
HETATM    2  C2  UNL     1     -36.031  15.954  -3.236  1.00 20.00     0.080 A 
HETATM    3  C3  UNL     1     -37.855  15.005  -3.767  1.00 20.00     0.208 A 
HETATM    4  C5  UNL     1     -34.448  14.048  -3.602  1.00 20.00     0.062 C 
HETATM    5  C6  UNL     1     -35.055  16.974  -2.819  1.00 20.00     0.067 C 
HETATM    6  C7  UNL     1     -33.367  15.152  -3.518  1.00 20.00     0.006 C 
HETATM    7  C8  UNL     1     -33.718  16.265  -2.500  1.00 20.00     0.007 C 
HETATM    8  N9  UNL     1     -36.968  14.044  -3.944  1.00 20.00    -0.224 NA
HETATM    9  O11 UNL     1     -37.359  16.206  -3.336  1.00 20.00    -0.292 OA
ENDROOT
BRANCH   3  10
HETATM   10  C4  UNL     1     -39.254  14.877  -3.988  1.00 20.00     0.316 C 
HETATM   11  O10 UNL     1     -39.783  13.964  -4.661  1.00 20.00    -0.298 OA
ENDBRANCH   3  10
TORSDOF 1
ENDMDL
MODEL 9
REMARK VINA RESULT:      -4.3     11.972     13.161
REMARK  1 active torsions:
REMARK  status: ('A' for Active; 'I' for Inactive)
REMARK    1  A    between atoms: C3_3  and  C4_4 
ROOT
HETATM    1  C1  UNL     1     -34.548  14.944  -4.334  1.00 20.00     0.067 A 
HETATM    2  C2  UNL     1     -34.245  16.166  -4.875  1.00 20.00     0.080 A 
HETATM    3  C3  UNL     1     -34.140  16.261  -2.756  1.00 20.00     0.208 A 
HETATM    4  C5  UNL     1     -34.874  13.758  -5.154  1.00 20.00     0.062 C 
HETATM    5  C6  UNL     1     -34.221  16.554  -6.295  1.00 20.00     0.067 C 
HETATM    6  C7  UNL     1     -35.205  14.189  -6.603  1.00 20.00     0.006 C 
HETATM    7  C8  UNL     1     -34.235  15.265  -7.150  1.00 20.00     0.007 C 
HETATM    8  N9  UNL     1     -34.476  15.003  -2.973  1.00 20.00    -0.224 NA
HETATM    9  O11 UNL     1     -33.982  17.039  -3.872  1.00 20.00    -0.292 OA
ENDROOT
BRANCH   3  10
HETATM   10  C4  UNL     1     -33.937  16.844  -1.476  1.00 20.00     0.316 C 
HETATM   11  O10 UNL     1     -34.637  16.598  -0.467  1.00 20.00    -0.298 OA
ENDBRANCH   3  10
TORSDOF 1
ENDMDL
