MODEL 1
REMARK VINA RESULT:      -5.1      0.000      0.000
REMARK  3 active torsions:
REMARK  status: ('A' for Active; 'I' for Inactive)
REMARK    1  A    between atoms: C5_5  and  C8_8 
REMARK    2  A    between atoms: C7_7  and  N9_9 
REMARK    3  A    between atoms: C8_8  and  N9_9 
ROOT
HETATM    1  C1  UNL     1     -32.125   8.579   1.822  1.00 20.00     0.013 C 
HETATM    2  C2  UNL     1     -32.213   7.587   2.491  1.00 20.00    -0.087 C 
HETATM    3  C7  UNL     1     -32.316   6.377   3.311  1.00 20.00     0.362 C 
ENDROOT
BRANCH   3   4
HETATM    4  N9  UNL     1     -33.496   5.596   2.935  1.00 20.00     0.094 N 
HETATM    5  H22 UNL     1     -33.596   5.635   1.914  1.00 20.00     0.317 HD
BRANCH   4   6
HETATM    6  C8  UNL     1     -34.686   6.095   3.569  1.00 20.00     0.275 C 
BRANCH   6   7
HETATM    7  C5  UNL     1     -35.316   5.051   4.425  1.00 20.00     0.018 A 
HETATM    8  C3  UNL     1     -34.475   3.964   5.042  1.00 20.00     0.011 A 
HETATM    9  C4  UNL     1     -35.119   5.003   5.923  1.00 20.00    -0.013 A 
HETATM   10  C6  UNL     1     -34.279   5.996   6.651  1.00 20.00     0.010 C 
ENDBRANCH   6   7
ENDBRANCH   4   6
ENDBRANCH   3   4
TORSDOF 3
ENDMDL
MODEL 2
REMARK VINA RESULT:      -5.0      0.895      1.625
REMARK  3 active torsions:
REMARK  status: ('A' for Active; 'I' for Inactive)
REMARK    1  A    between atoms: C5_5  and  C8_8 
REMARK    2  A    between atoms: C7_7  and  N9_9 
REMARK    3  A    between atoms: C8_8  and  N9_9 
ROOT
HETATM    1  C1  UNL     1     -32.215   9.140   1.092  1.00 20.00     0.013 C 
HETATM    2  C2  UNL     1     -32.088   8.327   1.967  1.00 20.00    -0.087 C 
HETATM    3  C7  UNL     1     -31.930   7.338   3.035  1.00 20.00     0.362 C 
ENDROOT
BRANCH   3   4
HETATM    4  N9  UNL     1     -32.953   6.297   2.932  1.00 20.00     0.094 N 
HETATM    5  H22 UNL     1     -33.358   6.335   1.990  1.00 20.00     0.317 HD
BRANCH   4   6
HETATM    6  C8  UNL     1     -33.983   6.465   3.922  1.00 20.00     0.275 C 
BRANCH   6   7
HETATM    7  C5  UNL     1     -33.526   5.992   5.259  1.00 20.00     0.018 A 
HETATM    8  C3  UNL     1     -34.397   6.190   6.472  1.00 20.00     0.011 A 
HETATM    9  C4  UNL     1     -34.143   4.799   5.951  1.00 20.00    -0.013 A 
HETATM   10  C6  UNL     1     -35.253   4.010   5.346  1.00 20.00     0.010 C 
ENDBRANCH   6   7
ENDBRANCH   4   6
ENDBRANCH   3   4
TORSDOF 3
ENDMDL
MODEL 3
REMARK VINA RESULT:      -4.2      1.005      4.565
REMARK  3 active torsions:
REMARK  status: ('A' for Active; 'I' for Inactive)
REMARK    1  A    between atoms: C5_5  and  C8_8 
REMARK    2  A    between atoms: C7_7  and  N9_9 
REMARK    3  A    between atoms: C8_8  and  N9_9 
ROOT
HETATM    1  C1  UNL     1     -34.912   4.220   6.003  1.00 20.00     0.013 C 
HETATM    2  C2  UNL     1     -34.900   4.956   5.055  1.00 20.00    -0.087 C 
HETATM    3  C7  UNL     1     -34.888   5.857   3.900  1.00 20.00     0.362 C 
ENDROOT
BRANCH   3   4
HETATM    4  N9  UNL     1     -34.167   5.252   2.779  1.00 20.00     0.094 N 
HETATM    5  H22 UNL     1     -34.134   4.237   2.927  1.00 20.00     0.317 HD
BRANCH   4   6
HETATM    6  C8  UNL     1     -32.834   5.779   2.659  1.00 20.00     0.275 C 
BRANCH   6   7
HETATM    7  C5  UNL     1     -32.725   7.117   3.306  1.00 20.00     0.018 A 
HETATM    8  C3  UNL     1     -31.372   7.703   3.614  1.00 20.00     0.011 A 
HETATM    9  C4  UNL     1     -32.241   8.340   2.561  1.00 20.00    -0.013 A 
HETATM   10  C6  UNL     1     -31.838   8.295   1.127  1.00 20.00     0.010 C 
ENDBRANCH   6   7
ENDBRANCH   4   6
ENDBRANCH   3   4
TORSDOF 3
ENDMDL
MODEL 4
REMARK VINA RESULT:      -4.1     11.451     12.404
REMARK  3 active torsions:
REMARK  status: ('A' for Active; 'I' for Inactive)
REMARK    1  A    between atoms: C5_5  and  C8_8 
REMARK    2  A    between atoms: C7_7  and  N9_9 
REMARK    3  A    between atoms: C8_8  and  N9_9 
ROOT
HETATM    1  C1  UNL     1     -34.592  15.088  -6.803  1.00 20.00     0.013 C 
HETATM    2  C2  UNL     1     -34.649  14.234  -5.961  1.00 20.00    -0.087 C 
HETATM    3  C7  UNL     1     -34.720  13.189  -4.936  1.00 20.00     0.362 C 
ENDROOT
BRANCH   3   4
HETATM    4  N9  UNL     1     -33.990  13.593  -3.734  1.00 20.00     0.094 N 
HETATM    5  H22 UNL     1     -33.966  12.796  -3.088  1.00 20.00     0.317 HD
BRANCH   4   6
HETATM    6  C8  UNL     1     -34.602  14.729  -3.098  1.00 20.00     0.275 C 
BRANCH   6   7
HETATM    7  C5  UNL     1     -33.634  15.852  -2.955  1.00 20.00     0.018 A 
HETATM    8  C3  UNL     1     -34.072  17.270  -3.212  1.00 20.00     0.011 A 
HETATM    9  C4  UNL     1     -33.703  16.842  -1.815  1.00 20.00    -0.013 A 
HETATM   10  C6  UNL     1     -34.746  16.767  -0.753  1.00 20.00     0.010 C 
ENDBRANCH   6   7
ENDBRANCH   4   6
ENDBRANCH   3   4
TORSDOF 3
ENDMDL
MODEL 5
REMARK VINA RESULT:      -4.1     11.339     12.521
REMARK  3 active torsions:
REMARK  status: ('A' for Active; 'I' for Inactive)
REMARK    1  A    between atoms: C5_5  and  C8_8 
REMARK    2  A    between atoms: C7_7  and  N9_9 
REMARK    3  A    between atoms: C8_8  and  N9_9 
ROOT
HETATM    1  C1  UNL     1     -34.439  16.621  -1.171  1.00 20.00     0.013 C 
HETATM    2  C2  UNL     1     -34.107  16.930  -2.283  1.00 20.00    -0.087 C 
HETATM    3  C7  UNL     1     -33.703  17.310  -3.638  1.00 20.00     0.362 C 
ENDROOT
BRANCH   3   4
HETATM    4  N9  UNL     1     -33.142  16.163  -4.352  1.00 20.00     0.094 N 
HETATM    5  H22 UNL     1     -32.284  16.466  -4.827  1.00 20.00     0.317 HD
BRANCH   4   6
HETATM    6  C8  UNL     1     -34.074  15.625  -5.306  1.00 20.00     0.275 C 
BRANCH   6   7
HETATM    7  C5  UNL     1     -34.324  14.178  -5.057  1.00 20.00     0.018 A 
HETATM    8  C3  UNL     1     -34.220  13.618  -3.662  1.00 20.00     0.011 A 
HETATM    9  C4  UNL     1     -35.561  13.679  -4.346  1.00 20.00    -0.013 A 
HETATM   10  C6  UNL     1     -36.620  14.600  -3.844  1.00 20.00     0.010 C 
ENDBRANCH   6   7
ENDBRANCH   4   6
ENDBRANCH   3   4
TORSDOF 3
ENDMDL
MODEL 6
REMARK VINA RESULT:      -4.1     11.364     12.226
REMARK  3 active torsions:
REMARK  status: ('A' for Active; 'I' for Inactive)
REMARK    1  A    between atoms: C5_5  and  C8_8 
REMARK    2  A    between atoms: C7_7  and  N9_9 
REMARK    3  A    between atoms: C8_8  and  N9_9 
ROOT
HETATM    1  C1  UNL     1     -34.401  16.827  -0.768  1.00 20.00     0.013 C 
HETATM    2  C2  UNL     1     -35.246  16.914  -1.616  1.00 20.00    -0.087 C 
HETATM    3  C7  UNL     1     -36.278  17.024  -2.650  1.00 20.00     0.362 C 
ENDROOT
BRANCH   3   4
HETATM    4  N9  UNL     1     -36.742  15.698  -3.061  1.00 20.00     0.094 N 
HETATM    5  H22 UNL     1     -36.637  15.058  -2.266  1.00 20.00     0.317 HD
BRANCH   4   6
HETATM    6  C8  UNL     1     -36.006  15.206  -4.195  1.00 20.00     0.275 C 
BRANCH   6   7
HETATM    7  C5  UNL     1     -35.335  13.914  -3.881  1.00 20.00     0.018 A 
HETATM    8  C3  UNL     1     -34.466  13.240  -4.910  1.00 20.00     0.011 A 
HETATM    9  C4  UNL     1     -33.844  13.806  -3.660  1.00 20.00    -0.013 A 
HETATM   10  C6  UNL     1     -32.937  14.986  -3.741  1.00 20.00     0.010 C 
ENDBRANCH   6   7
ENDBRANCH   4   6
ENDBRANCH   3   4
TORSDOF 3
ENDMDL
MODEL 7
REMARK VINA RESULT:      -4.0     11.628     12.495
REMARK  3 active torsions:
REMARK  status: ('A' for Active; 'I' for Inactive)
REMARK    1  A    between atoms: C5_5  and  C8_8 
REMARK    2  A    between atoms: C7_7  and  N9_9 
REMARK    3  A    between atoms: C8_8  and  N9_9 
ROOT
HETATM    1  C1  UNL     1     -34.659  17.369   0.175  1.00 20.00     0.013 C 
HETATM    2  C2  UNL     1     -34.686  16.757  -0.858  1.00 20.00    -0.087 C 
HETATM    3  C7  UNL     1     -34.716  16.008  -2.117  1.00 20.00     0.362 C 
ENDROOT
BRANCH   3   4
HETATM    4  N9  UNL     1     -36.092  15.824  -2.577  1.00 20.00     0.094 N 
HETATM    5  H22 UNL     1     -36.664  15.530  -1.777  1.00 20.00     0.317 HD
BRANCH   4   6
HETATM    6  C8  UNL     1     -36.173  14.848  -3.631  1.00 20.00     0.275 C 
BRANCH   6   7
HETATM    7  C5  UNL     1     -34.819  14.493  -4.140  1.00 20.00     0.018 A 
HETATM    8  C3  UNL     1     -34.568  13.138  -4.748  1.00 20.00     0.011 A 
HETATM    9  C4  UNL     1     -34.515  14.369  -5.615  1.00 20.00    -0.013 A 
HETATM   10  C6  UNL     1     -35.548  14.592  -6.666  1.00 20.00     0.010 C 
ENDBRANCH   6   7
ENDBRANCH   4   6
ENDBRANCH   3   4
TORSDOF 3
ENDMDL
MODEL 8
REMARK VINA RESULT:      -3.9     11.864     13.088
REMARK  3 active torsions:
REMARK  status: ('A' for Active; 'I' for Inactive)
REMARK    1  A    between atoms: C5_5  and  C8_8 
REMARK    2  A    between atoms: C7_7  and  N9_9 
REMARK    3  A    between atoms: C8_8  and  N9_9 
ROOT
HETATM    1  C1  UNL     1     -34.655  16.157  -1.835  1.00 20.00     0.013 C 
HETATM    2  C2  UNL     1     -33.929  15.761  -2.706  1.00 20.00    -0.087 C 
HETATM    3  C7  UNL     1     -33.041  15.283  -3.768  1.00 20.00     0.362 C 
ENDROOT
BRANCH   3   4
HETATM    4  N9  UNL     1     -33.347  13.894  -4.112  1.00 20.00     0.094 N 
HETATM    5  H22 UNL     1     -32.548  13.504  -4.625  1.00 20.00     0.317 HD
BRANCH   4   6
HETATM    6  C8  UNL     1     -34.543  13.794  -4.904  1.00 20.00     0.275 C 
BRANCH   6   7
HETATM    7  C5  UNL     1     -34.458  14.656  -6.116  1.00 20.00     0.018 A 
HETATM    8  C3  UNL     1     -35.393  14.430  -7.276  1.00 20.00     0.011 A 
HETATM    9  C4  UNL     1     -35.511  15.687  -6.454  1.00 20.00    -0.013 A 
HETATM   10  C6  UNL     1     -36.710  15.914  -5.598  1.00 20.00     0.010 C 
ENDBRANCH   6   7
ENDBRANCH   4   6
ENDBRANCH   3   4
TORSDOF 3
ENDMDL
MODEL 9
REMARK VINA RESULT:      -3.9      1.369      4.478
REMARK  3 active torsions:
REMARK  status: ('A' for Active; 'I' for Inactive)
REMARK    1  A    between atoms: C5_5  and  C8_8 
REMARK    2  A    between atoms: C7_7  and  N9_9 
REMARK    3  A    between atoms: C8_8  and  N9_9 
ROOT
HETATM    1  C1  UNL     1     -35.074   3.803   5.317  1.00 20.00     0.013 C 
HETATM    2  C2  UNL     1     -34.815   4.817   5.905  1.00 20.00    -0.087 C 
HETATM    3  C7  UNL     1     -34.503   6.054   6.626  1.00 20.00     0.362 C 
ENDROOT
BRANCH   3   4
HETATM    4  N9  UNL     1     -33.442   6.797   5.944  1.00 20.00     0.094 N 
HETATM    5  H22 UNL     1     -33.423   7.751   6.321  1.00 20.00     0.317 HD
BRANCH   4   6
HETATM    6  C8  UNL     1     -33.647   6.828   4.521  1.00 20.00     0.275 C 
BRANCH   6   7
HETATM    7  C5  UNL     1     -32.412   6.432   3.790  1.00 20.00     0.018 A 
HETATM    8  C3  UNL     1     -32.493   5.948   2.366  1.00 20.00     0.011 A 
HETATM    9  C4  UNL     1     -31.828   7.265   2.672  1.00 20.00    -0.013 A 
HETATM   10  C6  UNL     1     -32.448   8.543   2.220  1.00 20.00     0.010 C 
ENDBRANCH   6   7
ENDBRANCH   4   6
ENDBRANCH   3   4
TORSDOF 3
ENDMDL
