MODEL 1
REMARK VINA RESULT:      -4.4      0.000      0.000
REMARK  0 active torsions:
REMARK  status: ('A' for Active; 'I' for Inactive)
ROOT
HETATM    1  C1  UNL     1     -34.227   6.220   5.107  1.00 20.00     0.075 C 
HETATM    2  C2  UNL     1     -34.561   5.515   6.419  1.00 20.00     0.273 C 
HETATM    3  C3  UNL     1     -34.895   3.957   4.707  1.00 20.00     0.312 C 
HETATM    4  C4  UNL     1     -34.797   5.310   4.028  1.00 20.00     0.127 C 
HETATM    5  C5  UNL     1     -34.001   5.299   2.738  1.00 20.00     0.053 C 
HETATM    6  N6  UNL     1     -35.332   4.327   6.054  1.00 20.00     0.086 N 
HETATM    7  F7  UNL     1     -36.063   5.732   3.735  1.00 20.00    -0.241 F 
HETATM    8  H17 UNL     1     -35.167   3.569   6.713  1.00 20.00     0.316 HD
ENDROOT
TORSDOF 0
ENDMDL
MODEL 2
REMARK VINA RESULT:      -3.6      2.177      2.844
REMARK  0 active torsions:
REMARK  status: ('A' for Active; 'I' for Inactive)
ROOT
HETATM    1  C1  UNL     1     -34.065   5.640   2.732  1.00 20.00     0.075 C 
HETATM    2  C2  UNL     1     -34.894   5.128   3.907  1.00 20.00     0.273 C 
HETATM    3  C3  UNL     1     -33.357   6.660   4.778  1.00 20.00     0.312 C 
HETATM    4  C4  UNL     1     -32.873   6.333   3.378  1.00 20.00     0.127 C 
HETATM    5  C5  UNL     1     -32.355   7.531   2.607  1.00 20.00     0.053 C 
HETATM    6  N6  UNL     1     -34.139   5.470   5.112  1.00 20.00     0.086 N 
HETATM    7  F7  UNL     1     -31.855   5.429   3.481  1.00 20.00    -0.241 F 
HETATM    8  H17 UNL     1     -34.766   5.652   5.895  1.00 20.00     0.316 HD
ENDROOT
TORSDOF 0
ENDMDL
MODEL 3
REMARK VINA RESULT:      -3.4     12.648     13.405
REMARK  0 active torsions:
REMARK  status: ('A' for Active; 'I' for Inactive)
ROOT
HETATM    1  C1  UNL     1     -34.226  15.332  -3.063  1.00 20.00     0.075 C 
HETATM    2  C2  UNL     1     -33.539  16.556  -3.663  1.00 20.00     0.273 C 
HETATM    3  C3  UNL     1     -33.924  15.065  -5.422  1.00 20.00     0.312 C 
HETATM    4  C4  UNL     1     -34.125  14.268  -4.147  1.00 20.00     0.127 C 
HETATM    5  C5  UNL     1     -35.301  13.312  -4.193  1.00 20.00     0.053 C 
HETATM    6  N6  UNL     1     -33.037  16.137  -4.971  1.00 20.00     0.086 N 
HETATM    7  F7  UNL     1     -32.996  13.533  -3.922  1.00 20.00    -0.241 F 
HETATM    8  H17 UNL     1     -33.039  16.915  -5.628  1.00 20.00     0.316 HD
ENDROOT
TORSDOF 0
ENDMDL
MODEL 4
REMARK VINA RESULT:      -3.4     12.563     12.992
REMARK  0 active torsions:
REMARK  status: ('A' for Active; 'I' for Inactive)
ROOT
HETATM    1  C1  UNL     1     -35.418  14.671  -3.687  1.00 20.00     0.075 C 
HETATM    2  C2  UNL     1     -35.187  13.281  -4.274  1.00 20.00     0.273 C 
HETATM    3  C3  UNL     1     -33.097  14.092  -3.609  1.00 20.00     0.312 C 
HETATM    4  C4  UNL     1     -34.029  15.289  -3.610  1.00 20.00     0.127 C 
HETATM    5  C5  UNL     1     -33.830  16.230  -2.439  1.00 20.00     0.053 C 
HETATM    6  N6  UNL     1     -33.755  13.197  -4.560  1.00 20.00     0.086 N 
HETATM    7  F7  UNL     1     -33.810  15.997  -4.758  1.00 20.00    -0.241 F 
HETATM    8  H17 UNL     1     -33.419  12.241  -4.457  1.00 20.00     0.316 HD
ENDROOT
TORSDOF 0
ENDMDL
MODEL 5
REMARK VINA RESULT:      -3.4     12.380     13.320
REMARK  0 active torsions:
REMARK  status: ('A' for Active; 'I' for Inactive)
ROOT
HETATM    1  C1  UNL     1     -33.941  15.658  -5.045  1.00 20.00     0.075 C 
HETATM    2  C2  UNL     1     -34.474  14.430  -5.778  1.00 20.00     0.273 C 
HETATM    3  C3  UNL     1     -34.402  13.885  -3.506  1.00 20.00     0.312 C 
HETATM    4  C4  UNL     1     -33.573  15.147  -3.659  1.00 20.00     0.127 C 
HETATM    5  C5  UNL     1     -33.774  16.158  -2.548  1.00 20.00     0.053 C 
HETATM    6  N6  UNL     1     -34.328  13.310  -4.849  1.00 20.00     0.086 N 
HETATM    7  F7  UNL     1     -32.255  14.792  -3.669  1.00 20.00    -0.241 F 
HETATM    8  H17 UNL     1     -35.063  12.620  -4.992  1.00 20.00     0.316 HD
ENDROOT
TORSDOF 0
ENDMDL
MODEL 6
REMARK VINA RESULT:      -3.3      1.672      2.725
REMARK  0 active torsions:
REMARK  status: ('A' for Active; 'I' for Inactive)
ROOT
HETATM    1  C1  UNL     1     -33.824   5.009   2.988  1.00 20.00     0.075 C 
HETATM    2  C2  UNL     1     -32.878   6.206   2.927  1.00 20.00     0.273 C 
HETATM    3  C3  UNL     1     -33.912   6.265   5.023  1.00 20.00     0.312 C 
HETATM    4  C4  UNL     1     -34.720   5.291   4.186  1.00 20.00     0.127 C 
HETATM    5  C5  UNL     1     -35.165   4.052   4.936  1.00 20.00     0.053 C 
HETATM    6  N6  UNL     1     -33.300   7.109   3.997  1.00 20.00     0.086 N 
HETATM    7  F7  UNL     1     -35.839   5.937   3.743  1.00 20.00    -0.241 F 
HETATM    8  H17 UNL     1     -32.506   7.625   4.373  1.00 20.00     0.316 HD
ENDROOT
TORSDOF 0
ENDMDL
MODEL 7
REMARK VINA RESULT:      -3.3      1.984      2.747
REMARK  0 active torsions:
REMARK  status: ('A' for Active; 'I' for Inactive)
ROOT
HETATM    1  C1  UNL     1     -33.587   6.185   5.194  1.00 20.00     0.075 C 
HETATM    2  C2  UNL     1     -33.596   6.407   3.683  1.00 20.00     0.273 C 
HETATM    3  C3  UNL     1     -35.405   5.010   4.174  1.00 20.00     0.312 C 
HETATM    4  C4  UNL     1     -34.529   5.009   5.413  1.00 20.00     0.127 C 
HETATM    5  C5  UNL     1     -35.300   5.064   6.717  1.00 20.00     0.053 C 
HETATM    6  N6  UNL     1     -34.446   5.355   3.126  1.00 20.00     0.086 N 
HETATM    7  F7  UNL     1     -33.790   3.861   5.411  1.00 20.00    -0.241 F 
HETATM    8  H17 UNL     1     -34.922   5.678   2.286  1.00 20.00     0.316 HD
ENDROOT
TORSDOF 0
ENDMDL
MODEL 8
REMARK VINA RESULT:      -3.3      8.723      9.276
REMARK  0 active torsions:
REMARK  status: ('A' for Active; 'I' for Inactive)
ROOT
HETATM    1  C1  UNL     1     -42.129   4.782  -2.210  1.00 20.00     0.075 C 
HETATM    2  C2  UNL     1     -43.076   3.669  -1.769  1.00 20.00     0.273 C 
HETATM    3  C3  UNL     1     -42.164   4.595   0.176  1.00 20.00     0.312 C 
HETATM    4  C4  UNL     1     -41.305   5.098  -0.969  1.00 20.00     0.127 C 
HETATM    5  C5  UNL     1     -40.899   6.553  -0.845  1.00 20.00     0.053 C 
HETATM    6  N6  UNL     1     -42.720   3.362  -0.383  1.00 20.00     0.086 N 
HETATM    7  F7  UNL     1     -40.166   4.346  -1.009  1.00 20.00    -0.241 F 
HETATM    8  H17 UNL     1     -43.536   3.057   0.143  1.00 20.00     0.316 HD
ENDROOT
TORSDOF 0
ENDMDL
MODEL 9
REMARK VINA RESULT:      -3.3     12.597     13.296
REMARK  0 active torsions:
REMARK  status: ('A' for Active; 'I' for Inactive)
ROOT
HETATM    1  C1  UNL     1     -34.563  16.215  -4.401  1.00 20.00     0.075 C 
HETATM    2  C2  UNL     1     -33.062  16.148  -4.673  1.00 20.00     0.273 C 
HETATM    3  C3  UNL     1     -33.707  14.034  -3.909  1.00 20.00     0.312 C 
HETATM    4  C4  UNL     1     -34.858  14.967  -3.581  1.00 20.00     0.127 C 
HETATM    5  C5  UNL     1     -36.229  14.369  -3.829  1.00 20.00     0.053 C 
HETATM    6  N6  UNL     1     -32.577  14.961  -3.970  1.00 20.00     0.086 N 
HETATM    7  F7  UNL     1     -34.777  15.294  -2.258  1.00 20.00    -0.241 F 
HETATM    8  H17 UNL     1     -31.788  14.544  -4.461  1.00 20.00     0.316 HD
ENDROOT
TORSDOF 0
ENDMDL
