MODEL 1
REMARK VINA RESULT:      -4.7      0.000      0.000
REMARK  3 active torsions:
REMARK  status: ('A' for Active; 'I' for Inactive)
REMARK    1  A    between atoms: C5_5  and  C8_8 
REMARK    2  A    between atoms: C7_7  and  N9_9 
REMARK    3  A    between atoms: C8_8  and  N9_9 
ROOT
HETATM    1  C1  UNL     1     -33.754   7.031   6.768  1.00 20.00     0.013 C 
HETATM    2  C2  UNL     1     -34.277   6.025   6.372  1.00 20.00    -0.087 C 
HETATM    3  C7  UNL     1     -34.917   4.798   5.893  1.00 20.00     0.362 C 
ENDROOT
BRANCH   3   4
HETATM    4  N9  UNL     1     -34.587   4.557   4.488  1.00 20.00     0.094 N 
HETATM    5  H22 UNL     1     -33.611   4.248   4.433  1.00 20.00     0.317 HD
BRANCH   4   6
HETATM    6  C8  UNL     1     -34.780   5.737   3.689  1.00 20.00     0.275 C 
BRANCH   6   7
HETATM    7  C5  UNL     1     -33.591   6.010   2.834  1.00 20.00     0.018 A 
HETATM    8  C3  UNL     1     -32.206   5.735   3.354  1.00 20.00     0.011 A 
HETATM    9  C4  UNL     1     -32.670   7.155   3.164  1.00 20.00    -0.013 A 
HETATM   10  C6  UNL     1     -32.095   7.991   2.073  1.00 20.00     0.010 C 
ENDBRANCH   6   7
ENDBRANCH   4   6
ENDBRANCH   3   4
TORSDOF 3
ENDMDL
MODEL 2
REMARK VINA RESULT:      -4.7      1.791      4.683
REMARK  3 active torsions:
REMARK  status: ('A' for Active; 'I' for Inactive)
REMARK    1  A    between atoms: C5_5  and  C8_8 
REMARK    2  A    between atoms: C7_7  and  N9_9 
REMARK    3  A    between atoms: C8_8  and  N9_9 
ROOT
HETATM    1  C1  UNL     1     -32.415   9.238   0.358  1.00 20.00     0.013 C 
HETATM    2  C2  UNL     1     -32.082   8.681   1.368  1.00 20.00    -0.087 C 
HETATM    3  C7  UNL     1     -31.673   8.004   2.600  1.00 20.00     0.362 C 
ENDROOT
BRANCH   3   4
HETATM    4  N9  UNL     1     -32.395   6.742   2.762  1.00 20.00     0.094 N 
HETATM    5  H22 UNL     1     -32.890   6.538   1.887  1.00 20.00     0.317 HD
BRANCH   4   6
HETATM    6  C8  UNL     1     -33.326   6.800   3.856  1.00 20.00     0.275 C 
BRANCH   6   7
HETATM    7  C5  UNL     1     -34.031   5.500   4.035  1.00 20.00     0.018 A 
HETATM    8  C3  UNL     1     -35.522   5.416   3.850  1.00 20.00     0.011 A 
HETATM    9  C4  UNL     1     -34.927   5.283   5.227  1.00 20.00    -0.013 A 
HETATM   10  C6  UNL     1     -34.938   3.967   5.924  1.00 20.00     0.010 C 
ENDBRANCH   6   7
ENDBRANCH   4   6
ENDBRANCH   3   4
TORSDOF 3
ENDMDL
MODEL 3
REMARK VINA RESULT:      -4.7      0.990      3.784
REMARK  3 active torsions:
REMARK  status: ('A' for Active; 'I' for Inactive)
REMARK    1  A    between atoms: C5_5  and  C8_8 
REMARK    2  A    between atoms: C7_7  and  N9_9 
REMARK    3  A    between atoms: C8_8  and  N9_9 
ROOT
HETATM    1  C1  UNL     1     -32.099   8.500   1.933  1.00 20.00     0.013 C 
HETATM    2  C2  UNL     1     -32.295   7.445   2.472  1.00 20.00    -0.087 C 
HETATM    3  C7  UNL     1     -32.529   6.158   3.131  1.00 20.00     0.362 C 
ENDROOT
BRANCH   3   4
HETATM    4  N9  UNL     1     -33.773   5.552   2.654  1.00 20.00     0.094 N 
HETATM    5  H22 UNL     1     -34.185   6.172   1.948  1.00 20.00     0.317 HD
BRANCH   4   6
HETATM    6  C8  UNL     1     -34.703   5.336   3.728  1.00 20.00     0.275 C 
BRANCH   6   7
HETATM    7  C5  UNL     1     -34.024   5.400   5.052  1.00 20.00     0.018 A 
HETATM    8  C3  UNL     1     -34.754   4.979   6.300  1.00 20.00     0.011 A 
HETATM    9  C4  UNL     1     -34.439   6.434   6.067  1.00 20.00    -0.013 A 
HETATM   10  C6  UNL     1     -33.413   7.120   6.899  1.00 20.00     0.010 C 
ENDBRANCH   6   7
ENDBRANCH   4   6
ENDBRANCH   3   4
TORSDOF 3
ENDMDL
MODEL 4
REMARK VINA RESULT:      -4.6      1.308      1.758
REMARK  3 active torsions:
REMARK  status: ('A' for Active; 'I' for Inactive)
REMARK    1  A    between atoms: C5_5  and  C8_8 
REMARK    2  A    between atoms: C7_7  and  N9_9 
REMARK    3  A    between atoms: C8_8  and  N9_9 
ROOT
HETATM    1  C1  UNL     1     -34.671   4.669   6.548  1.00 20.00     0.013 C 
HETATM    2  C2  UNL     1     -35.040   4.850   5.419  1.00 20.00    -0.087 C 
HETATM    3  C7  UNL     1     -35.494   5.068   4.044  1.00 20.00     0.362 C 
ENDROOT
BRANCH   3   4
HETATM    4  N9  UNL     1     -34.370   5.432   3.180  1.00 20.00     0.094 N 
HETATM    5  H22 UNL     1     -33.785   4.601   3.043  1.00 20.00     0.317 HD
BRANCH   4   6
HETATM    6  C8  UNL     1     -33.591   6.500   3.746  1.00 20.00     0.275 C 
BRANCH   6   7
HETATM    7  C5  UNL     1     -32.440   6.851   2.869  1.00 20.00     0.018 A 
HETATM    8  C3  UNL     1     -31.296   7.666   3.411  1.00 20.00     0.011 A 
HETATM    9  C4  UNL     1     -32.244   8.273   2.411  1.00 20.00    -0.013 A 
HETATM   10  C6  UNL     1     -31.787   8.555   1.022  1.00 20.00     0.010 C 
ENDBRANCH   6   7
ENDBRANCH   4   6
ENDBRANCH   3   4
TORSDOF 3
ENDMDL
MODEL 5
REMARK VINA RESULT:      -4.1     11.641     12.734
REMARK  3 active torsions:
REMARK  status: ('A' for Active; 'I' for Inactive)
REMARK    1  A    between atoms: C5_5  and  C8_8 
REMARK    2  A    between atoms: C7_7  and  N9_9 
REMARK    3  A    between atoms: C8_8  and  N9_9 
ROOT
HETATM    1  C1  UNL     1     -34.731  14.764  -7.158  1.00 20.00     0.013 C 
HETATM    2  C2  UNL     1     -34.784  14.145  -6.129  1.00 20.00    -0.087 C 
HETATM    3  C7  UNL     1     -34.852  13.391  -4.876  1.00 20.00     0.362 C 
ENDROOT
BRANCH   3   4
HETATM    4  N9  UNL     1     -33.569  13.437  -4.174  1.00 20.00     0.094 N 
HETATM    5  H22 UNL     1     -33.622  12.813  -3.362  1.00 20.00     0.317 HD
BRANCH   4   6
HETATM    6  C8  UNL     1     -33.242  14.772  -3.753  1.00 20.00     0.275 C 
BRANCH   6   7
HETATM    7  C5  UNL     1     -34.316  15.347  -2.897  1.00 20.00     0.018 A 
HETATM    8  C3  UNL     1     -34.945  16.667  -3.255  1.00 20.00     0.011 A 
HETATM    9  C4  UNL     1     -34.042  16.566  -2.054  1.00 20.00    -0.013 A 
HETATM   10  C6  UNL     1     -34.608  16.668  -0.681  1.00 20.00     0.010 C 
ENDBRANCH   6   7
ENDBRANCH   4   6
ENDBRANCH   3   4
TORSDOF 3
ENDMDL
MODEL 6
REMARK VINA RESULT:      -3.9     11.706     12.613
REMARK  3 active torsions:
REMARK  status: ('A' for Active; 'I' for Inactive)
REMARK    1  A    between atoms: C5_5  and  C8_8 
REMARK    2  A    between atoms: C7_7  and  N9_9 
REMARK    3  A    between atoms: C8_8  and  N9_9 
ROOT
HETATM    1  C1  UNL     1     -35.176  13.200  -4.494  1.00 20.00     0.013 C 
HETATM    2  C2  UNL     1     -34.160  13.731  -4.137  1.00 20.00    -0.087 C 
HETATM    3  C7  UNL     1     -32.920  14.375  -3.699  1.00 20.00     0.362 C 
ENDROOT
BRANCH   3   4
HETATM    4  N9  UNL     1     -32.815  15.726  -4.252  1.00 20.00     0.094 N 
HETATM    5  H22 UNL     1     -31.849  16.051  -4.131  1.00 20.00     0.317 HD
BRANCH   4   6
HETATM    6  C8  UNL     1     -33.728  16.634  -3.612  1.00 20.00     0.275 C 
BRANCH   6   7
HETATM    7  C5  UNL     1     -33.533  16.644  -2.136  1.00 20.00     0.018 A 
HETATM    8  C3  UNL     1     -34.717  16.514  -1.215  1.00 20.00     0.011 A 
HETATM    9  C4  UNL     1     -33.987  17.828  -1.321  1.00 20.00    -0.013 A 
HETATM   10  C6  UNL     1     -33.156  18.317  -0.186  1.00 20.00     0.010 C 
ENDBRANCH   6   7
ENDBRANCH   4   6
ENDBRANCH   3   4
TORSDOF 3
ENDMDL
MODEL 7
REMARK VINA RESULT:      -3.7     11.343     12.753
REMARK  3 active torsions:
REMARK  status: ('A' for Active; 'I' for Inactive)
REMARK    1  A    between atoms: C5_5  and  C8_8 
REMARK    2  A    between atoms: C7_7  and  N9_9 
REMARK    3  A    between atoms: C8_8  and  N9_9 
ROOT
HETATM    1  C1  UNL     1     -34.760  16.219  -1.958  1.00 20.00     0.013 C 
HETATM    2  C2  UNL     1     -34.285  15.327  -2.608  1.00 20.00    -0.087 C 
HETATM    3  C7  UNL     1     -33.702  14.242  -3.399  1.00 20.00     0.362 C 
ENDROOT
BRANCH   3   4
HETATM    4  N9  UNL     1     -34.736  13.299  -3.826  1.00 20.00     0.094 N 
HETATM    5  H22 UNL     1     -34.555  12.395  -3.376  1.00 20.00     0.317 HD
BRANCH   4   6
HETATM    6  C8  UNL     1     -34.757  13.146  -5.255  1.00 20.00     0.275 C 
BRANCH   6   7
HETATM    7  C5  UNL     1     -35.257  14.379  -5.923  1.00 20.00     0.018 A 
HETATM    8  C3  UNL     1     -35.512  14.386  -7.407  1.00 20.00     0.011 A 
HETATM    9  C4  UNL     1     -34.353  15.164  -6.839  1.00 20.00    -0.013 A 
HETATM   10  C6  UNL     1     -34.385  16.652  -6.825  1.00 20.00     0.010 C 
ENDBRANCH   6   7
ENDBRANCH   4   6
ENDBRANCH   3   4
TORSDOF 3
ENDMDL
MODEL 8
REMARK VINA RESULT:      -3.7      1.553      2.552
REMARK  3 active torsions:
REMARK  status: ('A' for Active; 'I' for Inactive)
REMARK    1  A    between atoms: C5_5  and  C8_8 
REMARK    2  A    between atoms: C7_7  and  N9_9 
REMARK    3  A    between atoms: C8_8  and  N9_9 
ROOT
HETATM    1  C1  UNL     1     -35.128   4.307   5.925  1.00 20.00     0.013 C 
HETATM    2  C2  UNL     1     -34.747   5.012   5.030  1.00 20.00    -0.087 C 
HETATM    3  C7  UNL     1     -34.286   5.870   3.936  1.00 20.00     0.362 C 
ENDROOT
BRANCH   3   4
HETATM    4  N9  UNL     1     -33.055   6.567   4.309  1.00 20.00     0.094 N 
HETATM    5  H22 UNL     1     -33.304   7.500   4.655  1.00 20.00     0.317 HD
BRANCH   4   6
HETATM    6  C8  UNL     1     -32.149   6.675   3.199  1.00 20.00     0.275 C 
BRANCH   6   7
HETATM    7  C5  UNL     1     -32.626   7.679   2.208  1.00 20.00     0.018 A 
HETATM    8  C3  UNL     1     -31.782   8.020   1.009  1.00 20.00     0.011 A 
HETATM    9  C4  UNL     1     -31.958   9.027   2.115  1.00 20.00    -0.013 A 
HETATM   10  C6  UNL     1     -32.775  10.252   1.889  1.00 20.00     0.010 C 
ENDBRANCH   6   7
ENDBRANCH   4   6
ENDBRANCH   3   4
TORSDOF 3
ENDMDL
MODEL 9
REMARK VINA RESULT:      -3.7     11.380     12.062
REMARK  3 active torsions:
REMARK  status: ('A' for Active; 'I' for Inactive)
REMARK    1  A    between atoms: C5_5  and  C8_8 
REMARK    2  A    between atoms: C7_7  and  N9_9 
REMARK    3  A    between atoms: C8_8  and  N9_9 
ROOT
HETATM    1  C1  UNL     1     -34.309  16.703  -0.943  1.00 20.00     0.013 C 
HETATM    2  C2  UNL     1     -35.115  16.684  -1.833  1.00 20.00    -0.087 C 
HETATM    3  C7  UNL     1     -36.097  16.665  -2.919  1.00 20.00     0.362 C 
ENDROOT
BRANCH   3   4
HETATM    4  N9  UNL     1     -36.924  15.460  -2.849  1.00 20.00     0.094 N 
HETATM    5  H22 UNL     1     -36.647  14.926  -2.017  1.00 20.00     0.317 HD
BRANCH   4   6
HETATM    6  C8  UNL     1     -36.782  14.650  -4.028  1.00 20.00     0.275 C 
BRANCH   6   7
HETATM    7  C5  UNL     1     -35.362  14.592  -4.475  1.00 20.00     0.018 A 
HETATM    8  C3  UNL     1     -34.869  13.419  -5.279  1.00 20.00     0.011 A 
HETATM    9  C4  UNL     1     -34.413  13.600  -3.855  1.00 20.00    -0.013 A 
HETATM   10  C6  UNL     1     -33.006  13.992  -3.564  1.00 20.00     0.010 C 
ENDBRANCH   6   7
ENDBRANCH   4   6
ENDBRANCH   3   4
TORSDOF 3
ENDMDL
