MODEL 1
REMARK VINA RESULT:      -4.9      0.000      0.000
REMARK  1 active torsions:
REMARK  status: ('A' for Active; 'I' for Inactive)
REMARK    1  A    between atoms: C1_1  and  C3_3 
ROOT
HETATM    1  C3  UNL     1     -34.818   4.865   5.930  1.00 20.00     0.408 C 
HETATM    2  F4  UNL     1     -33.705   4.095   6.025  1.00 20.00    -0.167 F 
HETATM    3  F5  UNL     1     -35.736   4.333   6.777  1.00 20.00    -0.167 F 
HETATM    4  F6  UNL     1     -34.494   6.087   6.421  1.00 20.00    -0.167 F 
ENDROOT
BRANCH   1   5
HETATM    5  C1  UNL     1     -35.331   4.907   4.533  1.00 20.00     0.096 C 
HETATM    6  C2  UNL     1     -34.683   5.477   3.512  1.00 20.00     0.060 C 
HETATM    7 BR7  UNL     1     -33.036   6.316   3.659  1.00 20.00    -0.064 Br
ENDBRANCH   1   5
TORSDOF 1
ENDMDL
MODEL 2
REMARK VINA RESULT:      -4.4      1.451      1.981
REMARK  1 active torsions:
REMARK  status: ('A' for Active; 'I' for Inactive)
REMARK    1  A    between atoms: C1_1  and  C3_3 
ROOT
HETATM    1  C3  UNL     1     -34.941   4.545   5.817  1.00 20.00     0.408 C 
HETATM    2  F4  UNL     1     -35.769   4.039   6.765  1.00 20.00    -0.167 F 
HETATM    3  F5  UNL     1     -33.961   3.626   5.620  1.00 20.00    -0.167 F 
HETATM    4  F6  UNL     1     -35.655   4.610   4.665  1.00 20.00    -0.167 F 
ENDROOT
BRANCH   1   5
HETATM    5  C1  UNL     1     -34.375   5.857   6.235  1.00 20.00     0.096 C 
HETATM    6  C2  UNL     1     -33.646   6.648   5.441  1.00 20.00     0.060 C 
HETATM    7 BR7  UNL     1     -33.212   6.248   3.683  1.00 20.00    -0.064 Br
ENDBRANCH   1   5
TORSDOF 1
ENDMDL
MODEL 3
REMARK VINA RESULT:      -4.3      2.558      3.280
REMARK  1 active torsions:
REMARK  status: ('A' for Active; 'I' for Inactive)
REMARK    1  A    between atoms: C1_1  and  C3_3 
ROOT
HETATM    1  C3  UNL     1     -33.211   6.384   3.707  1.00 20.00     0.408 C 
HETATM    2  F4  UNL     1     -32.981   7.478   2.938  1.00 20.00    -0.167 F 
HETATM    3  F5  UNL     1     -32.187   5.522   3.478  1.00 20.00    -0.167 F 
HETATM    4  F6  UNL     1     -33.107   6.783   4.999  1.00 20.00    -0.167 F 
ENDROOT
BRANCH   1   5
HETATM    5  C1  UNL     1     -34.525   5.761   3.386  1.00 20.00     0.096 C 
HETATM    6  C2  UNL     1     -35.208   4.975   4.224  1.00 20.00     0.060 C 
HETATM    7 BR7  UNL     1     -34.638   4.523   5.930  1.00 20.00    -0.064 Br
ENDBRANCH   1   5
TORSDOF 1
ENDMDL
MODEL 4
REMARK VINA RESULT:      -4.2      2.613      3.170
REMARK  1 active torsions:
REMARK  status: ('A' for Active; 'I' for Inactive)
REMARK    1  A    between atoms: C1_1  and  C3_3 
ROOT
HETATM    1  C3  UNL     1     -34.041   5.734   3.645  1.00 20.00     0.408 C 
HETATM    2  F4  UNL     1     -34.450   7.028   3.607  1.00 20.00    -0.167 F 
HETATM    3  F5  UNL     1     -34.330   5.196   2.432  1.00 20.00    -0.167 F 
HETATM    4  F6  UNL     1     -32.689   5.753   3.755  1.00 20.00    -0.167 F 
ENDROOT
BRANCH   1   5
HETATM    5  C1  UNL     1     -34.713   4.986   4.743  1.00 20.00     0.096 C 
HETATM    6  C2  UNL     1     -34.676   5.347   6.029  1.00 20.00     0.060 C 
HETATM    7 BR7  UNL     1     -33.783   6.841   6.670  1.00 20.00    -0.064 Br
ENDBRANCH   1   5
TORSDOF 1
ENDMDL
MODEL 5
REMARK VINA RESULT:      -4.1      2.617      3.096
REMARK  1 active torsions:
REMARK  status: ('A' for Active; 'I' for Inactive)
REMARK    1  A    between atoms: C1_1  and  C3_3 
ROOT
HETATM    1  C3  UNL     1     -34.069   5.739   3.612  1.00 20.00     0.408 C 
HETATM    2  F4  UNL     1     -34.333   5.217   2.388  1.00 20.00    -0.167 F 
HETATM    3  F5  UNL     1     -32.720   5.722   3.763  1.00 20.00    -0.167 F 
HETATM    4  F6  UNL     1     -34.442   7.043   3.572  1.00 20.00    -0.167 F 
ENDROOT
BRANCH   1   5
HETATM    5  C1  UNL     1     -34.744   4.965   4.690  1.00 20.00     0.096 C 
HETATM    6  C2  UNL     1     -34.714   5.297   5.984  1.00 20.00     0.060 C 
HETATM    7 BR7  UNL     1     -33.826   6.777   6.662  1.00 20.00    -0.064 Br
ENDBRANCH   1   5
TORSDOF 1
ENDMDL
MODEL 6
REMARK VINA RESULT:      -4.0      2.919      3.523
REMARK  1 active torsions:
REMARK  status: ('A' for Active; 'I' for Inactive)
REMARK    1  A    between atoms: C1_1  and  C3_3 
ROOT
HETATM    1  C3  UNL     1     -33.296   6.260   3.611  1.00 20.00     0.408 C 
HETATM    2  F4  UNL     1     -32.207   5.451   3.641  1.00 20.00    -0.167 F 
HETATM    3  F5  UNL     1     -32.957   7.348   2.873  1.00 20.00    -0.167 F 
HETATM    4  F6  UNL     1     -34.257   5.599   2.916  1.00 20.00    -0.167 F 
ENDROOT
BRANCH   1   5
HETATM    5  C1  UNL     1     -33.722   6.648   4.984  1.00 20.00     0.096 C 
HETATM    6  C2  UNL     1     -34.340   5.826   5.838  1.00 20.00     0.060 C 
HETATM    7 BR7  UNL     1     -34.776   4.064   5.462  1.00 20.00    -0.064 Br
ENDBRANCH   1   5
TORSDOF 1
ENDMDL
MODEL 7
REMARK VINA RESULT:      -4.0      2.179      2.499
REMARK  1 active torsions:
REMARK  status: ('A' for Active; 'I' for Inactive)
REMARK    1  A    between atoms: C1_1  and  C3_3 
ROOT
HETATM    1  C3  UNL     1     -35.047   5.000   4.117  1.00 20.00     0.408 C 
HETATM    2  F4  UNL     1     -36.291   5.483   3.870  1.00 20.00    -0.167 F 
HETATM    3  F5  UNL     1     -35.202   3.729   4.568  1.00 20.00    -0.167 F 
HETATM    4  F6  UNL     1     -34.413   4.917   2.920  1.00 20.00    -0.167 F 
ENDROOT
BRANCH   1   5
HETATM    5  C1  UNL     1     -34.325   5.842   5.110  1.00 20.00     0.096 C 
HETATM    6  C2  UNL     1     -33.250   6.584   4.825  1.00 20.00     0.060 C 
HETATM    7 BR7  UNL     1     -32.471   6.692   3.146  1.00 20.00    -0.064 Br
ENDBRANCH   1   5
TORSDOF 1
ENDMDL
MODEL 8
REMARK VINA RESULT:      -3.9      1.682      1.898
REMARK  1 active torsions:
REMARK  status: ('A' for Active; 'I' for Inactive)
REMARK    1  A    between atoms: C1_1  and  C3_3 
ROOT
HETATM    1  C3  UNL     1     -34.721   4.372   5.493  1.00 20.00     0.408 C 
HETATM    2  F4  UNL     1     -35.244   3.286   4.871  1.00 20.00    -0.167 F 
HETATM    3  F5  UNL     1     -35.669   4.827   6.352  1.00 20.00    -0.167 F 
HETATM    4  F6  UNL     1     -33.686   3.930   6.251  1.00 20.00    -0.167 F 
ENDROOT
BRANCH   1   5
HETATM    5  C1  UNL     1     -34.329   5.422   4.513  1.00 20.00     0.096 C 
HETATM    6  C2  UNL     1     -33.817   6.610   4.850  1.00 20.00     0.060 C 
HETATM    7 BR7  UNL     1     -33.506   7.156   6.595  1.00 20.00    -0.064 Br
ENDBRANCH   1   5
TORSDOF 1
ENDMDL
MODEL 9
REMARK VINA RESULT:      -3.5      9.001      9.419
REMARK  1 active torsions:
REMARK  status: ('A' for Active; 'I' for Inactive)
REMARK    1  A    between atoms: C1_1  and  C3_3 
ROOT
HETATM    1  C3  UNL     1     -40.867   5.940  -0.275  1.00 20.00     0.408 C 
HETATM    2  F4  UNL     1     -40.025   6.417   0.676  1.00 20.00    -0.167 F 
HETATM    3  F5  UNL     1     -40.252   4.870  -0.841  1.00 20.00    -0.167 F 
HETATM    4  F6  UNL     1     -41.962   5.467   0.371  1.00 20.00    -0.167 F 
ENDROOT
BRANCH   1   5
HETATM    5  C1  UNL     1     -41.183   6.982  -1.291  1.00 20.00     0.096 C 
HETATM    6  C2  UNL     1     -41.972   6.780  -2.351  1.00 20.00     0.060 C 
HETATM    7 BR7  UNL     1     -42.805   5.171  -2.743  1.00 20.00    -0.064 Br
ENDBRANCH   1   5
TORSDOF 1
ENDMDL
