MODEL 1
REMARK VINA RESULT:      -5.1      0.000      0.000
REMARK  0 active torsions:
REMARK  status: ('A' for Active; 'I' for Inactive)
ROOT
HETATM    1  C1  UNL     1     -34.466  13.553  -4.327  1.00 20.00     0.136 C 
HETATM    2  C2  UNL     1     -33.116  13.828  -3.670  1.00 20.00     0.084 C 
HETATM    3  C3  UNL     1     -36.991  16.180  -3.345  1.00 20.00     0.002 C 
HETATM    4  C4  UNL     1     -35.626  16.603  -2.761  1.00 20.00     0.006 C 
HETATM    5  C5  UNL     1     -33.248  16.143  -4.661  1.00 20.00     0.006 C 
HETATM    6  C6  UNL     1     -36.749  14.935  -4.228  1.00 20.00     0.018 C 
HETATM    7  C7  UNL     1     -34.565  15.765  -5.362  1.00 20.00     0.018 C 
HETATM    8  C8  UNL     1     -33.302  15.344  -3.346  1.00 20.00    -0.002 C 
HETATM    9  C9  UNL     1     -34.778  15.365  -2.965  1.00 20.00     0.006 C 
HETATM   10  C10 UNL     1     -35.252  14.845  -4.331  1.00 20.00     0.024 C 
HETATM   11  O11 UNL     1     -34.829  12.487  -4.791  1.00 20.00    -0.297 OA
ENDROOT
TORSDOF 0
ENDMDL
MODEL 2
REMARK VINA RESULT:      -5.1      1.487      2.784
REMARK  0 active torsions:
REMARK  status: ('A' for Active; 'I' for Inactive)
ROOT
HETATM    1  C1  UNL     1     -36.313  14.577  -3.943  1.00 20.00     0.136 C 
HETATM    2  C2  UNL     1     -35.502  15.239  -2.832  1.00 20.00     0.084 C 
HETATM    3  C3  UNL     1     -34.762  15.257  -7.316  1.00 20.00     0.002 C 
HETATM    4  C4  UNL     1     -33.814  15.831  -6.242  1.00 20.00     0.006 C 
HETATM    5  C5  UNL     1     -33.488  14.038  -3.760  1.00 20.00     0.006 C 
HETATM    6  C6  UNL     1     -35.887  14.496  -6.579  1.00 20.00     0.018 C 
HETATM    7  C7  UNL     1     -34.385  13.344  -4.800  1.00 20.00     0.018 C 
HETATM    8  C8  UNL     1     -34.147  15.418  -3.587  1.00 20.00    -0.002 C 
HETATM    9  C9  UNL     1     -34.654  15.761  -4.984  1.00 20.00     0.006 C 
HETATM   10  C10 UNL     1     -35.415  14.438  -5.152  1.00 20.00     0.024 C 
HETATM   11  O11 UNL     1     -37.469  14.204  -3.856  1.00 20.00    -0.297 OA
ENDROOT
TORSDOF 0
ENDMDL
MODEL 3
REMARK VINA RESULT:      -4.9      1.684      2.680
REMARK  0 active torsions:
REMARK  status: ('A' for Active; 'I' for Inactive)
ROOT
HETATM    1  C1  UNL     1     -34.221  15.473  -5.564  1.00 20.00     0.136 C 
HETATM    2  C2  UNL     1     -34.913  14.118  -5.446  1.00 20.00     0.084 C 
HETATM    3  C3  UNL     1     -34.153  17.234  -2.226  1.00 20.00     0.002 C 
HETATM    4  C4  UNL     1     -34.735  15.823  -1.998  1.00 20.00     0.006 C 
HETATM    5  C5  UNL     1     -33.302  13.600  -3.576  1.00 20.00     0.006 C 
HETATM    6  C6  UNL     1     -33.686  17.308  -3.697  1.00 20.00     0.018 C 
HETATM    7  C7  UNL     1     -32.602  14.950  -3.809  1.00 20.00     0.018 C 
HETATM    8  C8  UNL     1     -34.775  13.903  -3.906  1.00 20.00    -0.002 C 
HETATM    9  C9  UNL     1     -34.978  15.329  -3.409  1.00 20.00     0.006 C 
HETATM   10  C10 UNL     1     -33.771  15.886  -4.180  1.00 20.00     0.024 C 
HETATM   11  O11 UNL     1     -34.040  16.094  -6.596  1.00 20.00    -0.297 OA
ENDROOT
TORSDOF 0
ENDMDL
MODEL 4
REMARK VINA RESULT:      -4.9      1.350      1.994
REMARK  0 active torsions:
REMARK  status: ('A' for Active; 'I' for Inactive)
ROOT
HETATM    1  C1  UNL     1     -36.311  14.357  -3.916  1.00 20.00     0.136 C 
HETATM    2  C2  UNL     1     -35.212  13.383  -4.334  1.00 20.00     0.084 C 
HETATM    3  C3  UNL     1     -34.869  17.233  -1.944  1.00 20.00     0.002 C 
HETATM    4  C4  UNL     1     -33.689  16.375  -2.449  1.00 20.00     0.006 C 
HETATM    5  C5  UNL     1     -34.016  15.363  -5.338  1.00 20.00     0.006 C 
HETATM    6  C6  UNL     1     -36.158  16.662  -2.576  1.00 20.00     0.018 C 
HETATM    7  C7  UNL     1     -35.200  16.268  -4.959  1.00 20.00     0.018 C 
HETATM    8  C8  UNL     1     -33.978  14.329  -4.198  1.00 20.00    -0.002 C 
HETATM    9  C9  UNL     1     -34.379  15.129  -2.964  1.00 20.00     0.006 C 
HETATM   10  C10 UNL     1     -35.659  15.686  -3.605  1.00 20.00     0.024 C 
HETATM   11  O11 UNL     1     -37.503  14.110  -3.871  1.00 20.00    -0.297 OA
ENDROOT
TORSDOF 0
ENDMDL
MODEL 5
REMARK VINA RESULT:      -4.8      1.105      2.832
REMARK  0 active torsions:
REMARK  status: ('A' for Active; 'I' for Inactive)
ROOT
HETATM    1  C1  UNL     1     -33.905  13.729  -4.050  1.00 20.00     0.136 C 
HETATM    2  C2  UNL     1     -35.268  13.130  -4.388  1.00 20.00     0.084 C 
HETATM    3  C3  UNL     1     -33.629  17.253  -5.374  1.00 20.00     0.002 C 
HETATM    4  C4  UNL     1     -35.073  16.770  -5.627  1.00 20.00     0.006 C 
HETATM    5  C5  UNL     1     -36.290  15.162  -3.300  1.00 20.00     0.006 C 
HETATM    6  C6  UNL     1     -32.918  16.162  -4.541  1.00 20.00     0.018 C 
HETATM    7  C7  UNL     1     -34.885  15.661  -2.920  1.00 20.00     0.018 C 
HETATM    8  C8  UNL     1     -36.061  14.449  -4.645  1.00 20.00    -0.002 C 
HETATM    9  C9  UNL     1     -34.988  15.288  -5.328  1.00 20.00     0.006 C 
HETATM   10  C10 UNL     1     -34.028  15.234  -4.130  1.00 20.00     0.024 C 
HETATM   11  O11 UNL     1     -32.906  13.102  -3.743  1.00 20.00    -0.297 OA
ENDROOT
TORSDOF 0
ENDMDL
MODEL 6
REMARK VINA RESULT:      -4.8      1.868      3.136
REMARK  0 active torsions:
REMARK  status: ('A' for Active; 'I' for Inactive)
ROOT
HETATM    1  C1  UNL     1     -34.788  16.966  -4.727  1.00 20.00     0.136 C 
HETATM    2  C2  UNL     1     -33.807  17.549  -3.713  1.00 20.00     0.084 C 
HETATM    3  C3  UNL     1     -34.494  13.205  -4.860  1.00 20.00     0.002 C 
HETATM    4  C4  UNL     1     -33.581  13.705  -3.720  1.00 20.00     0.006 C 
HETATM    5  C5  UNL     1     -34.806  15.965  -2.025  1.00 20.00     0.006 C 
HETATM    6  C6  UNL     1     -35.282  14.425  -5.388  1.00 20.00     0.018 C 
HETATM    7  C7  UNL     1     -35.820  15.485  -3.079  1.00 20.00     0.018 C 
HETATM    8  C8  UNL     1     -33.547  16.270  -2.856  1.00 20.00    -0.002 C 
HETATM    9  C9  UNL     1     -33.557  15.203  -3.944  1.00 20.00     0.006 C 
HETATM   10  C10 UNL     1     -34.997  15.508  -4.384  1.00 20.00     0.024 C 
HETATM   11  O11 UNL     1     -35.326  17.578  -5.632  1.00 20.00    -0.297 OA
ENDROOT
TORSDOF 0
ENDMDL
MODEL 7
REMARK VINA RESULT:      -4.8      1.152      2.509
REMARK  0 active torsions:
REMARK  status: ('A' for Active; 'I' for Inactive)
ROOT
HETATM    1  C1  UNL     1     -34.825  13.794  -5.182  1.00 20.00     0.136 C 
HETATM    2  C2  UNL     1     -34.721  14.221  -6.643  1.00 20.00     0.084 C 
HETATM    3  C3  UNL     1     -33.697  16.576  -2.894  1.00 20.00     0.002 C 
HETATM    4  C4  UNL     1     -33.699  17.128  -4.335  1.00 20.00     0.006 C 
HETATM    5  C5  UNL     1     -36.112  16.231  -6.024  1.00 20.00     0.006 C 
HETATM    6  C6  UNL     1     -34.306  15.157  -2.943  1.00 20.00     0.018 C 
HETATM    7  C7  UNL     1     -36.243  15.694  -4.588  1.00 20.00     0.018 C 
HETATM    8  C8  UNL     1     -34.706  15.769  -6.449  1.00 20.00    -0.002 C 
HETATM    9  C9  UNL     1     -33.882  15.879  -5.171  1.00 20.00     0.006 C 
HETATM   10  C10 UNL     1     -34.865  15.047  -4.335  1.00 20.00     0.024 C 
HETATM   11  O11 UNL     1     -34.893  12.647  -4.776  1.00 20.00    -0.297 OA
ENDROOT
TORSDOF 0
ENDMDL
MODEL 8
REMARK VINA RESULT:      -4.8      1.767      3.236
REMARK  0 active torsions:
REMARK  status: ('A' for Active; 'I' for Inactive)
ROOT
HETATM    1  C1  UNL     1     -33.553  14.905  -4.111  1.00 20.00     0.136 C 
HETATM    2  C2  UNL     1     -34.085  13.564  -3.615  1.00 20.00     0.084 C 
HETATM    3  C3  UNL     1     -34.870  15.672  -7.564  1.00 20.00     0.002 C 
HETATM    4  C4  UNL     1     -35.560  14.380  -7.077  1.00 20.00     0.006 C 
HETATM    5  C5  UNL     1     -36.396  14.439  -4.114  1.00 20.00     0.006 C 
HETATM    6  C6  UNL     1     -34.035  16.221  -6.385  1.00 20.00     0.018 C 
HETATM    7  C7  UNL     1     -35.792  15.795  -4.520  1.00 20.00     0.018 C 
HETATM    8  C8  UNL     1     -35.324  13.426  -4.554  1.00 20.00    -0.002 C 
HETATM    9  C9  UNL     1     -34.763  14.021  -5.840  1.00 20.00     0.006 C 
HETATM   10  C10 UNL     1     -34.472  15.391  -5.210  1.00 20.00     0.024 C 
HETATM   11  O11 UNL     1     -32.577  15.491  -3.676  1.00 20.00    -0.297 OA
ENDROOT
TORSDOF 0
ENDMDL
MODEL 9
REMARK VINA RESULT:      -4.7     11.015     12.114
REMARK  0 active torsions:
REMARK  status: ('A' for Active; 'I' for Inactive)
ROOT
HETATM    1  C1  UNL     1     -42.961   6.491  -2.858  1.00 20.00     0.136 C 
HETATM    2  C2  UNL     1     -43.005   7.965  -2.466  1.00 20.00     0.084 C 
HETATM    3  C3  UNL     1     -40.439   4.624  -0.760  1.00 20.00     0.002 C 
HETATM    4  C4  UNL     1     -40.528   6.065  -0.212  1.00 20.00     0.006 C 
HETATM    5  C5  UNL     1     -43.391   7.194  -0.097  1.00 20.00     0.006 C 
HETATM    6  C6  UNL     1     -41.529   4.476  -1.846  1.00 20.00     0.018 C 
HETATM    7  C7  UNL     1     -43.417   5.733  -0.580  1.00 20.00     0.018 C 
HETATM    8  C8  UNL     1     -42.375   7.862  -1.042  1.00 20.00    -0.002 C 
HETATM    9  C9  UNL     1     -41.329   6.779  -1.281  1.00 20.00     0.006 C 
HETATM   10  C10 UNL     1     -42.359   5.722  -1.703  1.00 20.00     0.024 C 
HETATM   11  O11 UNL     1     -43.367   6.018  -3.906  1.00 20.00    -0.297 OA
ENDROOT
TORSDOF 0
ENDMDL
