MODEL 1
REMARK VINA RESULT:      -5.0      0.000      0.000
REMARK  0 active torsions:
REMARK  status: ('A' for Active; 'I' for Inactive)
ROOT
HETATM    1  C1  UNL     1     -33.823  15.901  -4.834  1.00 20.00     0.136 C 
HETATM    2  C2  UNL     1     -34.750  15.398  -5.917  1.00 20.00     0.084 C 
HETATM    3  C3  UNL     1     -35.364  16.791  -2.272  1.00 20.00     0.002 C 
HETATM    4  C4  UNL     1     -36.274  16.211  -3.375  1.00 20.00     0.006 C 
HETATM    5  C5  UNL     1     -34.442  13.163  -4.798  1.00 20.00     0.006 C 
HETATM    6  C6  UNL     1     -34.050  15.978  -2.276  1.00 20.00     0.018 C 
HETATM    7  C7  UNL     1     -33.527  13.770  -3.694  1.00 20.00     0.018 C 
HETATM    8  C8  UNL     1     -35.466  14.300  -5.105  1.00 20.00    -0.002 C 
HETATM    9  C9  UNL     1     -35.628  14.877  -3.702  1.00 20.00     0.006 C 
HETATM   10  C10 UNL     1     -34.133  15.159  -3.533  1.00 20.00     0.024 C 
HETATM   11  O11 UNL     1     -32.954  16.745  -4.988  1.00 20.00    -0.297 OA
ENDROOT
TORSDOF 0
ENDMDL
MODEL 2
REMARK VINA RESULT:      -4.9      1.789      2.747
REMARK  0 active torsions:
REMARK  status: ('A' for Active; 'I' for Inactive)
ROOT
HETATM    1  C1  UNL     1     -35.010  13.727  -5.152  1.00 20.00     0.136 C 
HETATM    2  C2  UNL     1     -35.206  14.183  -6.579  1.00 20.00     0.084 C 
HETATM    3  C3  UNL     1     -33.211  15.682  -3.516  1.00 20.00     0.002 C 
HETATM    4  C4  UNL     1     -33.486  16.150  -4.960  1.00 20.00     0.006 C 
HETATM    5  C5  UNL     1     -37.185  15.432  -5.648  1.00 20.00     0.006 C 
HETATM    6  C6  UNL     1     -34.503  15.017  -2.988  1.00 20.00     0.018 C 
HETATM    7  C7  UNL     1     -36.889  14.948  -4.198  1.00 20.00     0.018 C 
HETATM    8  C8  UNL     1     -35.771  15.589  -6.289  1.00 20.00    -0.002 C 
HETATM    9  C9  UNL     1     -34.999  16.090  -5.071  1.00 20.00     0.006 C 
HETATM   10  C10 UNL     1     -35.366  14.879  -4.210  1.00 20.00     0.024 C 
HETATM   11  O11 UNL     1     -34.651  12.611  -4.813  1.00 20.00    -0.297 OA
ENDROOT
TORSDOF 0
ENDMDL
MODEL 3
REMARK VINA RESULT:      -4.8      1.664      2.932
REMARK  0 active torsions:
REMARK  status: ('A' for Active; 'I' for Inactive)
ROOT
HETATM    1  C1  UNL     1     -34.460  13.782  -4.617  1.00 20.00     0.136 C 
HETATM    2  C2  UNL     1     -33.366  14.223  -3.672  1.00 20.00     0.084 C 
HETATM    3  C3  UNL     1     -37.237  14.985  -3.861  1.00 20.00     0.002 C 
HETATM    4  C4  UNL     1     -36.084  15.466  -2.956  1.00 20.00     0.006 C 
HETATM    5  C5  UNL     1     -33.108  16.156  -5.266  1.00 20.00     0.006 C 
HETATM    6  C6  UNL     1     -36.684  14.872  -5.300  1.00 20.00     0.018 C 
HETATM    7  C7  UNL     1     -34.275  15.653  -6.165  1.00 20.00     0.018 C 
HETATM    8  C8  UNL     1     -33.541  15.748  -3.823  1.00 20.00    -0.002 C 
HETATM    9  C9  UNL     1     -35.046  15.971  -3.942  1.00 20.00     0.006 C 
HETATM   10  C10 UNL     1     -35.199  15.020  -5.131  1.00 20.00     0.024 C 
HETATM   11  O11 UNL     1     -34.693  12.626  -4.933  1.00 20.00    -0.297 OA
ENDROOT
TORSDOF 0
ENDMDL
MODEL 4
REMARK VINA RESULT:      -4.8      1.678      3.091
REMARK  0 active torsions:
REMARK  status: ('A' for Active; 'I' for Inactive)
ROOT
HETATM    1  C1  UNL     1     -35.847  14.896  -3.655  1.00 20.00     0.136 C 
HETATM    2  C2  UNL     1     -34.812  15.441  -2.699  1.00 20.00     0.084 C 
HETATM    3  C3  UNL     1     -35.794  16.345  -6.417  1.00 20.00     0.002 C 
HETATM    4  C4  UNL     1     -34.706  16.832  -5.438  1.00 20.00     0.006 C 
HETATM    5  C5  UNL     1     -33.306  13.704  -3.728  1.00 20.00     0.006 C 
HETATM    6  C6  UNL     1     -35.948  14.820  -6.222  1.00 20.00     0.018 C 
HETATM    7  C7  UNL     1     -34.419  13.228  -4.708  1.00 20.00     0.018 C 
HETATM    8  C8  UNL     1     -33.564  15.236  -3.581  1.00 20.00    -0.002 C 
HETATM    9  C9  UNL     1     -34.019  15.550  -5.004  1.00 20.00     0.006 C 
HETATM   10  C10 UNL     1     -35.162  14.532  -4.973  1.00 20.00     0.024 C 
HETATM   11  O11 UNL     1     -37.032  14.749  -3.399  1.00 20.00    -0.297 OA
ENDROOT
TORSDOF 0
ENDMDL
MODEL 5
REMARK VINA RESULT:      -4.8      1.830      2.757
REMARK  0 active torsions:
REMARK  status: ('A' for Active; 'I' for Inactive)
ROOT
HETATM    1  C1  UNL     1     -36.331  14.372  -4.092  1.00 20.00     0.136 C 
HETATM    2  C2  UNL     1     -35.249  13.333  -4.271  1.00 20.00     0.084 C 
HETATM    3  C3  UNL     1     -35.427  16.722  -2.250  1.00 20.00     0.002 C 
HETATM    4  C4  UNL     1     -34.325  15.674  -2.508  1.00 20.00     0.006 C 
HETATM    5  C5  UNL     1     -34.542  14.761  -6.221  1.00 20.00     0.006 C 
HETATM    6  C6  UNL     1     -36.232  16.884  -3.560  1.00 20.00     0.018 C 
HETATM    7  C7  UNL     1     -35.662  15.806  -5.942  1.00 20.00     0.018 C 
HETATM    8  C8  UNL     1     -34.135  14.258  -4.800  1.00 20.00    -0.002 C 
HETATM    9  C9  UNL     1     -34.289  15.561  -4.021  1.00 20.00     0.006 C 
HETATM   10  C10 UNL     1     -35.753  15.750  -4.422  1.00 20.00     0.024 C 
HETATM   11  O11 UNL     1     -37.483  14.139  -3.762  1.00 20.00    -0.297 OA
ENDROOT
TORSDOF 0
ENDMDL
MODEL 6
REMARK VINA RESULT:      -4.8      0.860      3.145
REMARK  0 active torsions:
REMARK  status: ('A' for Active; 'I' for Inactive)
ROOT
HETATM    1  C1  UNL     1     -33.690  16.220  -4.245  1.00 20.00     0.136 C 
HETATM    2  C2  UNL     1     -33.567  16.223  -2.740  1.00 20.00     0.084 C 
HETATM    3  C3  UNL     1     -34.727  13.492  -5.347  1.00 20.00     0.002 C 
HETATM    4  C4  UNL     1     -34.650  13.553  -3.807  1.00 20.00     0.006 C 
HETATM    5  C5  UNL     1     -35.961  17.005  -2.791  1.00 20.00     0.006 C 
HETATM    6  C6  UNL     1     -35.189  14.880  -5.846  1.00 20.00     0.018 C 
HETATM    7  C7  UNL     1     -36.016  16.936  -4.346  1.00 20.00     0.018 C 
HETATM    8  C8  UNL     1     -35.017  15.826  -2.396  1.00 20.00    -0.002 C 
HETATM    9  C9  UNL     1     -35.422  14.814  -3.463  1.00 20.00     0.006 C 
HETATM   10  C10 UNL     1     -35.097  15.753  -4.626  1.00 20.00     0.024 C 
HETATM   11  O11 UNL     1     -32.814  16.562  -5.023  1.00 20.00    -0.297 OA
ENDROOT
TORSDOF 0
ENDMDL
MODEL 7
REMARK VINA RESULT:      -4.8      1.213      3.060
REMARK  0 active torsions:
REMARK  status: ('A' for Active; 'I' for Inactive)
ROOT
HETATM    1  C1  UNL     1     -34.841  16.342  -4.637  1.00 20.00     0.136 C 
HETATM    2  C2  UNL     1     -33.368  16.628  -4.464  1.00 20.00     0.084 C 
HETATM    3  C3  UNL     1     -35.475  13.289  -4.562  1.00 20.00     0.002 C 
HETATM    4  C4  UNL     1     -33.988  13.621  -4.324  1.00 20.00     0.006 C 
HETATM    5  C5  UNL     1     -33.916  16.670  -2.006  1.00 20.00     0.006 C 
HETATM    6  C6  UNL     1     -36.315  14.384  -3.866  1.00 20.00     0.018 C 
HETATM    7  C7  UNL     1     -35.413  16.333  -2.270  1.00 20.00     0.018 C 
HETATM    8  C8  UNL     1     -33.153  15.894  -3.125  1.00 20.00    -0.002 C 
HETATM    9  C9  UNL     1     -34.028  14.646  -3.205  1.00 20.00     0.006 C 
HETATM   10  C10 UNL     1     -35.307  15.435  -3.496  1.00 20.00     0.024 C 
HETATM   11  O11 UNL     1     -35.544  16.788  -5.530  1.00 20.00    -0.297 OA
ENDROOT
TORSDOF 0
ENDMDL
MODEL 8
REMARK VINA RESULT:      -4.7      1.600      2.461
REMARK  0 active torsions:
REMARK  status: ('A' for Active; 'I' for Inactive)
ROOT
HETATM    1  C1  UNL     1     -34.807  14.385  -5.707  1.00 20.00     0.136 C 
HETATM    2  C2  UNL     1     -34.454  13.210  -4.825  1.00 20.00     0.084 C 
HETATM    3  C3  UNL     1     -37.181  16.056  -4.564  1.00 20.00     0.002 C 
HETATM    4  C4  UNL     1     -36.751  14.885  -3.657  1.00 20.00     0.006 C 
HETATM    5  C5  UNL     1     -32.921  14.845  -3.678  1.00 20.00     0.006 C 
HETATM    6  C6  UNL     1     -35.901  16.653  -5.193  1.00 20.00     0.018 C 
HETATM    7  C7  UNL     1     -33.370  16.013  -4.604  1.00 20.00     0.018 C 
HETATM    8  C8  UNL     1     -34.210  13.980  -3.512  1.00 20.00    -0.002 C 
HETATM    9  C9  UNL     1     -35.256  15.091  -3.495  1.00 20.00     0.006 C 
HETATM   10  C10 UNL     1     -34.830  15.655  -4.853  1.00 20.00     0.024 C 
HETATM   11  O11 UNL     1     -35.012  14.327  -6.909  1.00 20.00    -0.297 OA
ENDROOT
TORSDOF 0
ENDMDL
MODEL 9
REMARK VINA RESULT:      -4.6     11.863     12.990
REMARK  0 active torsions:
REMARK  status: ('A' for Active; 'I' for Inactive)
ROOT
HETATM    1  C1  UNL     1     -42.555   5.258  -0.113  1.00 20.00     0.136 C 
HETATM    2  C2  UNL     1     -43.417   6.459  -0.423  1.00 20.00     0.084 C 
HETATM    3  C3  UNL     1     -41.899   3.579  -2.660  1.00 20.00     0.002 C 
HETATM    4  C4  UNL     1     -42.725   4.850  -2.948  1.00 20.00     0.006 C 
HETATM    5  C5  UNL     1     -41.220   7.633  -0.790  1.00 20.00     0.006 C 
HETATM    6  C6  UNL     1     -40.888   3.923  -1.543  1.00 20.00     0.018 C 
HETATM    7  C7  UNL     1     -40.407   6.339  -0.496  1.00 20.00     0.018 C 
HETATM    8  C8  UNL     1     -42.515   7.114  -1.489  1.00 20.00    -0.002 C 
HETATM    9  C9  UNL     1     -41.922   5.953  -2.283  1.00 20.00     0.006 C 
HETATM   10  C10 UNL     1     -41.341   5.267  -1.045  1.00 20.00     0.024 C 
HETATM   11  O11 UNL     1     -42.784   4.433   0.757  1.00 20.00    -0.297 OA
ENDROOT
TORSDOF 0
ENDMDL
