MODEL 1
REMARK VINA RESULT:      -4.1      0.000      0.000
REMARK  2 active torsions:
REMARK  status: ('A' for Active; 'I' for Inactive)
REMARK    1  A    between atoms: C1_1  and  C8_8 
REMARK    2  A    between atoms: C8_8  and  O9_9 
ROOT
HETATM    1  C1  UNL     1     -35.202  14.915  -4.231  1.00 20.00     0.026 A 
HETATM    2  C2  UNL     1     -34.051  15.565  -3.475  1.00 20.00    -0.034 A 
HETATM    3  C3  UNL     1     -34.676  16.263  -4.704  1.00 20.00    -0.034 A 
HETATM    4  C4  UNL     1     -34.353  16.097  -2.090  1.00 20.00     0.016 C 
HETATM    5  C5  UNL     1     -32.654  14.995  -3.561  1.00 20.00     0.016 C 
HETATM    6  C6  UNL     1     -33.891  16.374  -5.991  1.00 20.00     0.016 C 
HETATM    7  C7  UNL     1     -35.576  17.463  -4.494  1.00 20.00     0.016 C 
ENDROOT
BRANCH   1   8
HETATM    8  C8  UNL     1     -35.055  13.657  -5.018  1.00 20.00     0.170 C 
BRANCH   8   9
HETATM    9  O9  UNL     1     -35.152  12.527  -4.151  1.00 20.00    -0.400 OA
HETATM   10  H25 UNL     1     -34.329  12.028  -4.260  1.00 20.00     0.209 HD
ENDBRANCH   8   9
ENDBRANCH   1   8
TORSDOF 2
ENDMDL
MODEL 2
REMARK VINA RESULT:      -4.0      1.711      3.217
REMARK  2 active torsions:
REMARK  status: ('A' for Active; 'I' for Inactive)
REMARK    1  A    between atoms: C1_1  and  C8_8 
REMARK    2  A    between atoms: C8_8  and  O9_9 
ROOT
HETATM    1  C1  UNL     1     -35.928  14.513  -4.248  1.00 20.00     0.026 A 
HETATM    2  C2  UNL     1     -35.029  15.367  -5.131  1.00 20.00    -0.034 A 
HETATM    3  C3  UNL     1     -34.508  14.810  -3.788  1.00 20.00    -0.034 A 
HETATM    4  C4  UNL     1     -34.549  14.748  -6.426  1.00 20.00     0.016 C 
HETATM    5  C5  UNL     1     -35.286  16.850  -5.285  1.00 20.00     0.016 C 
HETATM    6  C6  UNL     1     -34.255  15.746  -2.628  1.00 20.00     0.016 C 
HETATM    7  C7  UNL     1     -33.526  13.656  -3.799  1.00 20.00     0.016 C 
ENDROOT
BRANCH   1   8
HETATM    8  C8  UNL     1     -37.139  15.042  -3.559  1.00 20.00     0.170 C 
BRANCH   8   9
HETATM    9  O9  UNL     1     -38.241  14.159  -3.768  1.00 20.00    -0.400 OA
HETATM   10  H25 UNL     1     -37.864  13.311  -4.045  1.00 20.00     0.209 HD
ENDBRANCH   8   9
ENDBRANCH   1   8
TORSDOF 2
ENDMDL
MODEL 3
REMARK VINA RESULT:      -3.9      1.707      2.561
REMARK  2 active torsions:
REMARK  status: ('A' for Active; 'I' for Inactive)
REMARK    1  A    between atoms: C1_1  and  C8_8 
REMARK    2  A    between atoms: C8_8  and  O9_9 
ROOT
HETATM    1  C1  UNL     1     -35.819  14.738  -3.486  1.00 20.00     0.026 A 
HETATM    2  C2  UNL     1     -34.552  14.593  -4.317  1.00 20.00    -0.034 A 
HETATM    3  C3  UNL     1     -34.841  15.903  -3.551  1.00 20.00    -0.034 A 
HETATM    4  C4  UNL     1     -33.492  13.647  -3.793  1.00 20.00     0.016 C 
HETATM    5  C5  UNL     1     -34.620  14.570  -5.828  1.00 20.00     0.016 C 
HETATM    6  C6  UNL     1     -35.192  17.161  -4.311  1.00 20.00     0.016 C 
HETATM    7  C7  UNL     1     -34.055  16.211  -2.294  1.00 20.00     0.016 C 
ENDROOT
BRANCH   1   8
HETATM    8  C8  UNL     1     -37.186  14.784  -4.080  1.00 20.00     0.170 C 
BRANCH   8   9
HETATM    9  O9  UNL     1     -38.167  14.763  -3.043  1.00 20.00    -0.400 OA
HETATM   10  H25 UNL     1     -38.390  13.832  -2.896  1.00 20.00     0.209 HD
ENDBRANCH   8   9
ENDBRANCH   1   8
TORSDOF 2
ENDMDL
MODEL 4
REMARK VINA RESULT:      -3.9      1.077      2.461
REMARK  2 active torsions:
REMARK  status: ('A' for Active; 'I' for Inactive)
REMARK    1  A    between atoms: C1_1  and  C8_8 
REMARK    2  A    between atoms: C8_8  and  O9_9 
ROOT
HETATM    1  C1  UNL     1     -34.249  14.685  -4.415  1.00 20.00     0.026 A 
HETATM    2  C2  UNL     1     -34.533  16.111  -4.865  1.00 20.00    -0.034 A 
HETATM    3  C3  UNL     1     -35.097  15.584  -3.527  1.00 20.00    -0.034 A 
HETATM    4  C4  UNL     1     -33.370  17.082  -4.847  1.00 20.00     0.016 C 
HETATM    5  C5  UNL     1     -35.466  16.382  -6.023  1.00 20.00     0.016 C 
HETATM    6  C6  UNL     1     -36.581  15.339  -3.376  1.00 20.00     0.016 C 
HETATM    7  C7  UNL     1     -34.474  16.052  -2.227  1.00 20.00     0.016 C 
ENDROOT
BRANCH   1   8
HETATM    8  C8  UNL     1     -34.787  13.485  -5.116  1.00 20.00     0.170 C 
BRANCH   8   9
HETATM    9  O9  UNL     1     -35.118  12.474  -4.163  1.00 20.00    -0.400 OA
HETATM   10  H25 UNL     1     -34.341  11.898  -4.095  1.00 20.00     0.209 HD
ENDBRANCH   8   9
ENDBRANCH   1   8
TORSDOF 2
ENDMDL
MODEL 5
REMARK VINA RESULT:      -3.9      1.480      2.582
REMARK  2 active torsions:
REMARK  status: ('A' for Active; 'I' for Inactive)
REMARK    1  A    between atoms: C1_1  and  C8_8 
REMARK    2  A    between atoms: C8_8  and  O9_9 
ROOT
HETATM    1  C1  UNL     1     -35.673  15.486  -4.624  1.00 20.00     0.026 A 
HETATM    2  C2  UNL     1     -34.177  15.767  -4.598  1.00 20.00    -0.034 A 
HETATM    3  C3  UNL     1     -34.733  14.556  -5.378  1.00 20.00    -0.034 A 
HETATM    4  C4  UNL     1     -33.694  16.981  -5.363  1.00 20.00     0.016 C 
HETATM    5  C5  UNL     1     -33.375  15.549  -3.335  1.00 20.00     0.016 C 
HETATM    6  C6  UNL     1     -34.475  13.152  -4.879  1.00 20.00     0.016 C 
HETATM    7  C7  UNL     1     -34.780  14.609  -6.891  1.00 20.00     0.016 C 
ENDROOT
BRANCH   1   8
HETATM    8  C8  UNL     1     -36.447  15.067  -3.421  1.00 20.00     0.170 C 
BRANCH   8   9
HETATM    9  O9  UNL     1     -37.551  14.251  -3.813  1.00 20.00    -0.400 OA
HETATM   10  H25 UNL     1     -37.180  13.389  -4.055  1.00 20.00     0.209 HD
ENDBRANCH   8   9
ENDBRANCH   1   8
TORSDOF 2
ENDMDL
MODEL 6
REMARK VINA RESULT:      -3.9      1.518      2.466
REMARK  2 active torsions:
REMARK  status: ('A' for Active; 'I' for Inactive)
REMARK    1  A    between atoms: C1_1  and  C8_8 
REMARK    2  A    between atoms: C8_8  and  O9_9 
ROOT
HETATM    1  C1  UNL     1     -35.002  14.388  -5.571  1.00 20.00     0.026 A 
HETATM    2  C2  UNL     1     -35.822  15.577  -5.090  1.00 20.00    -0.034 A 
HETATM    3  C3  UNL     1     -34.474  15.795  -5.811  1.00 20.00    -0.034 A 
HETATM    4  C4  UNL     1     -37.112  15.866  -5.829  1.00 20.00     0.016 C 
HETATM    5  C5  UNL     1     -35.946  15.881  -3.614  1.00 20.00     0.016 C 
HETATM    6  C6  UNL     1     -33.279  16.311  -5.042  1.00 20.00     0.016 C 
HETATM    7  C7  UNL     1     -34.474  16.293  -7.242  1.00 20.00     0.016 C 
ENDROOT
BRANCH   1   8
HETATM    8  C8  UNL     1     -34.352  13.416  -4.646  1.00 20.00     0.170 C 
BRANCH   8   9
HETATM    9  O9  UNL     1     -35.324  12.504  -4.137  1.00 20.00    -0.400 OA
HETATM   10  H25 UNL     1     -36.172  12.973  -4.148  1.00 20.00     0.209 HD
ENDBRANCH   8   9
ENDBRANCH   1   8
TORSDOF 2
ENDMDL
MODEL 7
REMARK VINA RESULT:      -3.8      2.249      3.524
REMARK  2 active torsions:
REMARK  status: ('A' for Active; 'I' for Inactive)
REMARK    1  A    between atoms: C1_1  and  C8_8 
REMARK    2  A    between atoms: C8_8  and  O9_9 
ROOT
HETATM    1  C1  UNL     1     -34.818  15.522  -2.298  1.00 20.00     0.026 A 
HETATM    2  C2  UNL     1     -35.628  15.677  -3.578  1.00 20.00    -0.034 A 
HETATM    3  C3  UNL     1     -34.197  15.097  -3.621  1.00 20.00    -0.034 A 
HETATM    4  C4  UNL     1     -36.809  14.747  -3.759  1.00 20.00     0.016 C 
HETATM    5  C5  UNL     1     -35.904  17.048  -4.153  1.00 20.00     0.016 C 
HETATM    6  C6  UNL     1     -33.074  15.900  -4.238  1.00 20.00     0.016 C 
HETATM    7  C7  UNL     1     -34.008  13.611  -3.846  1.00 20.00     0.016 C 
ENDROOT
BRANCH   1   8
HETATM    8  C8  UNL     1     -34.325  16.679  -1.497  1.00 20.00     0.170 C 
BRANCH   8   9
HETATM    9  O9  UNL     1     -34.924  16.663  -0.201  1.00 20.00    -0.400 OA
HETATM   10  H25 UNL     1     -34.402  16.047   0.334  1.00 20.00     0.209 HD
ENDBRANCH   8   9
ENDBRANCH   1   8
TORSDOF 2
ENDMDL
MODEL 8
REMARK VINA RESULT:      -3.8      1.736      3.051
REMARK  2 active torsions:
REMARK  status: ('A' for Active; 'I' for Inactive)
REMARK    1  A    between atoms: C1_1  and  C8_8 
REMARK    2  A    between atoms: C8_8  and  O9_9 
ROOT
HETATM    1  C1  UNL     1     -33.945  15.689  -4.662  1.00 20.00     0.026 A 
HETATM    2  C2  UNL     1     -34.679  14.657  -5.506  1.00 20.00    -0.034 A 
HETATM    3  C3  UNL     1     -35.467  15.711  -4.697  1.00 20.00    -0.034 A 
HETATM    4  C4  UNL     1     -34.578  14.801  -7.010  1.00 20.00     0.016 C 
HETATM    5  C5  UNL     1     -34.714  13.204  -5.087  1.00 20.00     0.016 C 
HETATM    6  C6  UNL     1     -36.271  15.292  -3.488  1.00 20.00     0.016 C 
HETATM    7  C7  UNL     1     -36.120  16.866  -5.429  1.00 20.00     0.016 C 
ENDROOT
BRANCH   1   8
HETATM    8  C8  UNL     1     -33.160  15.341  -3.444  1.00 20.00     0.170 C 
BRANCH   8   9
HETATM    9  O9  UNL     1     -31.893  14.802  -3.821  1.00 20.00    -0.400 OA
HETATM   10  H25 UNL     1     -31.688  15.168  -4.694  1.00 20.00     0.209 HD
ENDBRANCH   8   9
ENDBRANCH   1   8
TORSDOF 2
ENDMDL
MODEL 9
REMARK VINA RESULT:      -3.8      1.586      3.060
REMARK  2 active torsions:
REMARK  status: ('A' for Active; 'I' for Inactive)
REMARK    1  A    between atoms: C1_1  and  C8_8 
REMARK    2  A    between atoms: C8_8  and  O9_9 
ROOT
HETATM    1  C1  UNL     1     -34.812  14.607  -5.105  1.00 20.00     0.026 A 
HETATM    2  C2  UNL     1     -35.357  15.233  -6.381  1.00 20.00    -0.034 A 
HETATM    3  C3  UNL     1     -34.789  16.122  -5.253  1.00 20.00    -0.034 A 
HETATM    4  C4  UNL     1     -34.547  15.034  -7.645  1.00 20.00     0.016 C 
HETATM    5  C5  UNL     1     -36.842  15.231  -6.666  1.00 20.00     0.016 C 
HETATM    6  C6  UNL     1     -35.718  16.989  -4.434  1.00 20.00     0.016 C 
HETATM    7  C7  UNL     1     -33.435  16.775  -5.438  1.00 20.00     0.016 C 
ENDROOT
BRANCH   1   8
HETATM    8  C8  UNL     1     -35.666  13.894  -4.114  1.00 20.00     0.170 C 
BRANCH   8   9
HETATM    9  O9  UNL     1     -35.356  12.501  -4.118  1.00 20.00    -0.400 OA
HETATM   10  H25 UNL     1     -35.866  12.105  -3.396  1.00 20.00     0.209 HD
ENDBRANCH   8   9
ENDBRANCH   1   8
TORSDOF 2
ENDMDL
