MODEL 1
REMARK VINA RESULT:      -4.4      0.000      0.000
REMARK  1 active torsions:
REMARK  status: ('A' for Active; 'I' for Inactive)
REMARK    1  A    between atoms: C3_3  and  C5_5 
ROOT
HETATM    1  C1  UNL     1     -32.600   7.055   3.202  1.00 20.00     0.221 A 
HETATM    2  C4  UNL     1     -33.972   7.512   3.730  1.00 20.00     0.138 A 
HETATM    3  C5  UNL     1     -34.161   6.032   4.171  1.00 20.00     0.060 A 
HETATM    4  C7  UNL     1     -35.200   5.232   3.405  1.00 20.00     0.044 C 
HETATM    5  N8  UNL     1     -32.820   5.789   3.644  1.00 20.00    -0.348 N 
HETATM    6  O9  UNL     1     -31.668   7.569   2.625  1.00 20.00    -0.273 OA
HETATM    7  H20 UNL     1     -32.238   4.965   3.574  1.00 20.00     0.163 HD
ENDROOT
BRANCH   3   8
HETATM    8  C3  UNL     1     -34.214   5.818   5.634  1.00 20.00    -0.065 C 
HETATM    9  C2  UNL     1     -33.787   6.746   6.503  1.00 20.00     0.016 C 
HETATM   10  C6  UNL     1     -34.772   4.502   6.090  1.00 20.00     0.045 C 
ENDBRANCH   3   8
TORSDOF 1
ENDMDL
MODEL 2
REMARK VINA RESULT:      -4.3     11.621     12.595
REMARK  1 active torsions:
REMARK  status: ('A' for Active; 'I' for Inactive)
REMARK    1  A    between atoms: C3_3  and  C5_5 
ROOT
HETATM    1  C1  UNL     1     -34.571  13.806  -4.176  1.00 20.00     0.221 A 
HETATM    2  C4  UNL     1     -33.241  14.391  -3.668  1.00 20.00     0.138 A 
HETATM    3  C5  UNL     1     -33.862  15.779  -3.997  1.00 20.00     0.060 A 
HETATM    4  C7  UNL     1     -33.251  16.526  -5.169  1.00 20.00     0.044 C 
HETATM    5  N8  UNL     1     -35.062  15.052  -4.409  1.00 20.00    -0.348 N 
HETATM    6  O9  UNL     1     -35.042  12.701  -4.326  1.00 20.00    -0.273 OA
HETATM    7  H20 UNL     1     -35.956  15.340  -4.784  1.00 20.00     0.163 HD
ENDROOT
BRANCH   3   8
HETATM    8  C3  UNL     1     -34.127  16.640  -2.824  1.00 20.00    -0.065 C 
HETATM    9  C2  UNL     1     -34.626  16.147  -1.681  1.00 20.00     0.016 C 
HETATM   10  C6  UNL     1     -33.806  18.096  -2.986  1.00 20.00     0.045 C 
ENDBRANCH   3   8
TORSDOF 1
ENDMDL
MODEL 3
REMARK VINA RESULT:      -4.1     12.026     13.085
REMARK  1 active torsions:
REMARK  status: ('A' for Active; 'I' for Inactive)
REMARK    1  A    between atoms: C3_3  and  C5_5 
ROOT
HETATM    1  C1  UNL     1     -36.548  14.360  -4.239  1.00 20.00     0.221 A 
HETATM    2  C4  UNL     1     -35.241  13.581  -4.478  1.00 20.00     0.138 A 
HETATM    3  C5  UNL     1     -34.765  14.848  -5.244  1.00 20.00     0.060 A 
HETATM    4  C7  UNL     1     -34.622  14.707  -6.749  1.00 20.00     0.044 C 
HETATM    5  N8  UNL     1     -36.053  15.444  -4.894  1.00 20.00    -0.348 N 
HETATM    6  O9  UNL     1     -37.608  14.146  -3.697  1.00 20.00    -0.273 OA
HETATM    7  H20 UNL     1     -36.483  16.338  -5.091  1.00 20.00     0.163 HD
ENDROOT
BRANCH   3   8
HETATM    8  C3  UNL     1     -33.643  15.577  -4.612  1.00 20.00    -0.065 C 
HETATM    9  C2  UNL     1     -32.923  15.043  -3.614  1.00 20.00     0.016 C 
HETATM   10  C6  UNL     1     -33.357  16.947  -5.152  1.00 20.00     0.045 C 
ENDBRANCH   3   8
TORSDOF 1
ENDMDL
MODEL 4
REMARK VINA RESULT:      -4.1     11.585     13.027
REMARK  1 active torsions:
REMARK  status: ('A' for Active; 'I' for Inactive)
REMARK    1  A    between atoms: C3_3  and  C5_5 
ROOT
HETATM    1  C1  UNL     1     -36.614  14.411  -3.959  1.00 20.00     0.221 A 
HETATM    2  C4  UNL     1     -35.539  15.375  -3.425  1.00 20.00     0.138 A 
HETATM    3  C5  UNL     1     -34.579  14.668  -4.425  1.00 20.00     0.060 A 
HETATM    4  C7  UNL     1     -33.494  13.799  -3.812  1.00 20.00     0.044 C 
HETATM    5  N8  UNL     1     -35.728  13.861  -4.831  1.00 20.00    -0.348 N 
HETATM    6  O9  UNL     1     -37.782  14.190  -3.733  1.00 20.00    -0.273 OA
HETATM    7  H20 UNL     1     -35.851  13.111  -5.499  1.00 20.00     0.163 HD
ENDROOT
BRANCH   3   8
HETATM    8  C3  UNL     1     -34.095  15.517  -5.535  1.00 20.00    -0.065 C 
HETATM    9  C2  UNL     1     -34.336  15.211  -6.819  1.00 20.00     0.016 C 
HETATM   10  C6  UNL     1     -33.319  16.739  -5.143  1.00 20.00     0.045 C 
ENDBRANCH   3   8
TORSDOF 1
ENDMDL
MODEL 5
REMARK VINA RESULT:      -4.1      1.008      2.070
REMARK  1 active torsions:
REMARK  status: ('A' for Active; 'I' for Inactive)
REMARK    1  A    between atoms: C3_3  and  C5_5 
ROOT
HETATM    1  C1  UNL     1     -32.752   7.059   3.131  1.00 20.00     0.221 A 
HETATM    2  C4  UNL     1     -32.468   5.807   3.980  1.00 20.00     0.138 A 
HETATM    3  C5  UNL     1     -33.756   6.190   4.763  1.00 20.00     0.060 A 
HETATM    4  C7  UNL     1     -33.554   6.678   6.187  1.00 20.00     0.044 C 
HETATM    5  N8  UNL     1     -33.884   7.315   3.838  1.00 20.00    -0.348 N 
HETATM    6  O9  UNL     1     -32.222   7.627   2.203  1.00 20.00    -0.273 OA
HETATM    7  H20 UNL     1     -34.550   8.071   3.750  1.00 20.00     0.163 HD
ENDROOT
BRANCH   3   8
HETATM    8  C3  UNL     1     -34.882   5.241   4.619  1.00 20.00    -0.065 C 
HETATM    9  C2  UNL     1     -35.816   5.388   3.668  1.00 20.00     0.016 C 
HETATM   10  C6  UNL     1     -34.918   4.106   5.599  1.00 20.00     0.045 C 
ENDBRANCH   3   8
TORSDOF 1
ENDMDL
MODEL 6
REMARK VINA RESULT:      -4.1     11.655     13.210
REMARK  1 active torsions:
REMARK  status: ('A' for Active; 'I' for Inactive)
REMARK    1  A    between atoms: C3_3  and  C5_5 
ROOT
HETATM    1  C1  UNL     1     -34.726  13.645  -4.365  1.00 20.00     0.221 A 
HETATM    2  C4  UNL     1     -35.527  14.935  -4.108  1.00 20.00     0.138 A 
HETATM    3  C5  UNL     1     -34.148  15.655  -4.138  1.00 20.00     0.060 A 
HETATM    4  C7  UNL     1     -33.653  16.208  -2.814  1.00 20.00     0.044 C 
HETATM    5  N8  UNL     1     -33.562  14.344  -4.411  1.00 20.00    -0.348 N 
HETATM    6  O9  UNL     1     -34.978  12.468  -4.487  1.00 20.00    -0.273 OA
HETATM    7  H20 UNL     1     -32.613  14.022  -4.549  1.00 20.00     0.163 HD
ENDROOT
BRANCH   3   8
HETATM    8  C3  UNL     1     -33.951  16.583  -5.274  1.00 20.00    -0.065 C 
HETATM    9  C2  UNL     1     -34.154  16.201  -6.544  1.00 20.00     0.016 C 
HETATM   10  C6  UNL     1     -33.512  17.973  -4.924  1.00 20.00     0.045 C 
ENDBRANCH   3   8
TORSDOF 1
ENDMDL
MODEL 7
REMARK VINA RESULT:      -4.0     11.823     12.584
REMARK  1 active torsions:
REMARK  status: ('A' for Active; 'I' for Inactive)
REMARK    1  A    between atoms: C3_3  and  C5_5 
ROOT
HETATM    1  C1  UNL     1     -34.429  14.678  -6.354  1.00 20.00     0.221 A 
HETATM    2  C4  UNL     1     -35.016  13.657  -5.362  1.00 20.00     0.138 A 
HETATM    3  C5  UNL     1     -34.267  14.470  -4.267  1.00 20.00     0.060 A 
HETATM    4  C7  UNL     1     -33.082  13.780  -3.615  1.00 20.00     0.044 C 
HETATM    5  N8  UNL     1     -33.829  15.358  -5.342  1.00 20.00    -0.348 N 
HETATM    6  O9  UNL     1     -34.459  14.853  -7.552  1.00 20.00    -0.273 OA
HETATM    7  H20 UNL     1     -33.243  16.182  -5.369  1.00 20.00     0.163 HD
ENDROOT
BRANCH   3   8
HETATM    8  C3  UNL     1     -35.141  15.176  -3.304  1.00 20.00    -0.065 C 
HETATM    9  C2  UNL     1     -36.478  15.139  -3.401  1.00 20.00     0.016 C 
HETATM   10  C6  UNL     1     -34.445  15.936  -2.214  1.00 20.00     0.045 C 
ENDBRANCH   3   8
TORSDOF 1
ENDMDL
MODEL 8
REMARK VINA RESULT:      -4.0     12.026     12.769
REMARK  1 active torsions:
REMARK  status: ('A' for Active; 'I' for Inactive)
REMARK    1  A    between atoms: C3_3  and  C5_5 
ROOT
HETATM    1  C1  UNL     1     -37.311  14.898  -3.722  1.00 20.00     0.221 A 
HETATM    2  C4  UNL     1     -36.000  15.053  -4.516  1.00 20.00     0.138 A 
HETATM    3  C5  UNL     1     -35.702  16.244  -3.561  1.00 20.00     0.060 A 
HETATM    4  C7  UNL     1     -35.743  17.629  -4.184  1.00 20.00     0.044 C 
HETATM    5  N8  UNL     1     -36.969  15.929  -2.904  1.00 20.00    -0.348 N 
HETATM    6  O9  UNL     1     -38.279  14.174  -3.764  1.00 20.00    -0.273 OA
HETATM    7  H20 UNL     1     -37.474  16.340  -2.130  1.00 20.00     0.163 HD
ENDROOT
BRANCH   3   8
HETATM    8  C3  UNL     1     -34.555  16.043  -2.649  1.00 20.00    -0.065 C 
HETATM    9  C2  UNL     1     -34.621  16.360  -1.347  1.00 20.00     0.016 C 
HETATM   10  C6  UNL     1     -33.315  15.464  -3.263  1.00 20.00     0.045 C 
ENDBRANCH   3   8
TORSDOF 1
ENDMDL
MODEL 9
REMARK VINA RESULT:      -4.0      9.197     10.560
REMARK  1 active torsions:
REMARK  status: ('A' for Active; 'I' for Inactive)
REMARK    1  A    between atoms: C3_3  and  C5_5 
ROOT
HETATM    1  C1  UNL     1     -41.579   3.188  -2.675  1.00 20.00     0.221 A 
HETATM    2  C4  UNL     1     -42.795   4.108  -2.458  1.00 20.00     0.138 A 
HETATM    3  C5  UNL     1     -41.981   4.706  -1.275  1.00 20.00     0.060 A 
HETATM    4  C7  UNL     1     -42.502   4.402   0.118  1.00 20.00     0.044 C 
HETATM    5  N8  UNL     1     -40.913   3.780  -1.649  1.00 20.00    -0.348 N 
HETATM    6  O9  UNL     1     -41.283   2.292  -3.433  1.00 20.00    -0.273 OA
HETATM    7  H20 UNL     1     -39.996   3.586  -1.270  1.00 20.00     0.163 HD
ENDROOT
BRANCH   3   8
HETATM    8  C3  UNL     1     -41.562   6.114  -1.453  1.00 20.00    -0.065 C 
HETATM    9  C2  UNL     1     -41.940   6.837  -2.517  1.00 20.00     0.016 C 
HETATM   10  C6  UNL     1     -40.691   6.686  -0.374  1.00 20.00     0.045 C 
ENDBRANCH   3   8
TORSDOF 1
ENDMDL
