MODEL 1
REMARK VINA RESULT:      -4.9      0.000      0.000
REMARK  0 active torsions:
REMARK  status: ('A' for Active; 'I' for Inactive)
ROOT
HETATM    1  C1  UNL     1     -34.567  13.772  -4.479  1.00 20.00     0.272 A 
HETATM    2  C2  UNL     1     -33.893  15.772  -5.285  1.00 20.00     0.272 A 
HETATM    3  C3  UNL     1     -34.162  14.539  -3.284  1.00 20.00     0.109 A 
HETATM    4  C4  UNL     1     -33.711  15.877  -3.823  1.00 20.00     0.109 A 
HETATM    5  C5  UNL     1     -34.860  15.806  -2.843  1.00 20.00    -0.021 A 
HETATM    6  C6  UNL     1     -36.265  16.090  -3.312  1.00 20.00     0.016 C 
HETATM    7  C7  UNL     1     -34.594  16.282  -1.437  1.00 20.00     0.016 C 
HETATM    8  O8  UNL     1     -35.001  12.632  -4.444  1.00 20.00    -0.264 OA
HETATM    9  O9  UNL     1     -33.641  16.671  -6.071  1.00 20.00    -0.264 OA
HETATM   10  O10 UNL     1     -34.370  14.528  -5.606  1.00 20.00    -0.244 OA
ENDROOT
TORSDOF 0
ENDMDL
MODEL 2
REMARK VINA RESULT:      -4.8      1.872      2.507
REMARK  0 active torsions:
REMARK  status: ('A' for Active; 'I' for Inactive)
ROOT
HETATM    1  C1  UNL     1     -33.602  13.669  -3.809  1.00 20.00     0.272 A 
HETATM    2  C2  UNL     1     -35.800  14.150  -4.007  1.00 20.00     0.272 A 
HETATM    3  C3  UNL     1     -33.637  15.072  -4.265  1.00 20.00     0.109 A 
HETATM    4  C4  UNL     1     -35.108  15.394  -4.398  1.00 20.00     0.109 A 
HETATM    5  C5  UNL     1     -34.243  16.190  -3.446  1.00 20.00    -0.021 A 
HETATM    6  C6  UNL     1     -34.414  16.020  -1.958  1.00 20.00     0.016 C 
HETATM    7  C7  UNL     1     -33.897  17.601  -3.849  1.00 20.00     0.016 C 
HETATM    8  O8  UNL     1     -32.574  13.051  -3.580  1.00 20.00    -0.264 OA
HETATM    9  O9  UNL     1     -37.014  14.022  -3.979  1.00 20.00    -0.264 OA
HETATM   10  O10 UNL     1     -34.879  13.183  -3.697  1.00 20.00    -0.244 OA
ENDROOT
TORSDOF 0
ENDMDL
MODEL 3
REMARK VINA RESULT:      -4.7      2.066      2.949
REMARK  0 active torsions:
REMARK  status: ('A' for Active; 'I' for Inactive)
ROOT
HETATM    1  C1  UNL     1     -35.981  14.110  -4.045  1.00 20.00     0.272 A 
HETATM    2  C2  UNL     1     -33.796  13.551  -3.909  1.00 20.00     0.272 A 
HETATM    3  C3  UNL     1     -35.258  15.386  -4.217  1.00 20.00     0.109 A 
HETATM    4  C4  UNL     1     -33.796  15.012  -4.126  1.00 20.00     0.109 A 
HETATM    5  C5  UNL     1     -34.333  15.658  -5.382  1.00 20.00    -0.021 A 
HETATM    6  C6  UNL     1     -34.463  14.847  -6.647  1.00 20.00     0.016 C 
HETATM    7  C7  UNL     1     -33.951  17.096  -5.633  1.00 20.00     0.016 C 
HETATM    8  O8  UNL     1     -37.197  14.006  -4.067  1.00 20.00    -0.264 OA
HETATM    9  O9  UNL     1     -32.785  12.877  -3.793  1.00 20.00    -0.264 OA
HETATM   10  O10 UNL     1     -35.086  13.090  -3.851  1.00 20.00    -0.244 OA
ENDROOT
TORSDOF 0
ENDMDL
MODEL 4
REMARK VINA RESULT:      -4.6      2.086      3.383
REMARK  0 active torsions:
REMARK  status: ('A' for Active; 'I' for Inactive)
ROOT
HETATM    1  C1  UNL     1     -33.939  13.656  -3.954  1.00 20.00     0.272 A 
HETATM    2  C2  UNL     1     -35.665  15.079  -3.638  1.00 20.00     0.272 A 
HETATM    3  C3  UNL     1     -34.727  13.569  -5.199  1.00 20.00     0.109 A 
HETATM    4  C4  UNL     1     -35.882  14.521  -4.988  1.00 20.00     0.109 A 
HETATM    5  C5  UNL     1     -34.921  14.742  -6.134  1.00 20.00    -0.021 A 
HETATM    6  C6  UNL     1     -33.958  15.901  -6.093  1.00 20.00     0.016 C 
HETATM    7  C7  UNL     1     -35.426  14.436  -7.522  1.00 20.00     0.016 C 
HETATM    8  O8  UNL     1     -32.912  13.029  -3.750  1.00 20.00    -0.264 OA
HETATM    9  O9  UNL     1     -36.398  15.902  -3.112  1.00 20.00    -0.264 OA
HETATM   10  O10 UNL     1     -34.540  14.527  -3.082  1.00 20.00    -0.244 OA
ENDROOT
TORSDOF 0
ENDMDL
MODEL 5
REMARK VINA RESULT:      -4.6      0.926      2.775
REMARK  0 active torsions:
REMARK  status: ('A' for Active; 'I' for Inactive)
ROOT
HETATM    1  C1  UNL     1     -34.477  15.603  -5.841  1.00 20.00     0.272 A 
HETATM    2  C2  UNL     1     -34.926  13.691  -4.725  1.00 20.00     0.272 A 
HETATM    3  C3  UNL     1     -34.758  16.035  -4.458  1.00 20.00     0.109 A 
HETATM    4  C4  UNL     1     -35.058  14.756  -3.711  1.00 20.00     0.109 A 
HETATM    5  C5  UNL     1     -33.902  15.630  -3.279  1.00 20.00    -0.021 A 
HETATM    6  C6  UNL     1     -32.485  15.165  -3.506  1.00 20.00     0.016 C 
HETATM    7  C7  UNL     1     -34.074  16.416  -2.003  1.00 20.00     0.016 C 
HETATM    8  O8  UNL     1     -34.183  16.364  -6.748  1.00 20.00    -0.264 OA
HETATM    9  O9  UNL     1     -35.088  12.503  -4.494  1.00 20.00    -0.264 OA
HETATM   10  O10 UNL     1     -34.610  14.242  -5.940  1.00 20.00    -0.244 OA
ENDROOT
TORSDOF 0
ENDMDL
MODEL 6
REMARK VINA RESULT:      -4.5      2.097      3.142
REMARK  0 active torsions:
REMARK  status: ('A' for Active; 'I' for Inactive)
ROOT
HETATM    1  C1  UNL     1     -34.393  16.332  -2.108  1.00 20.00     0.272 A 
HETATM    2  C2  UNL     1     -33.695  16.883  -4.185  1.00 20.00     0.272 A 
HETATM    3  C3  UNL     1     -35.079  15.375  -2.998  1.00 20.00     0.109 A 
HETATM    4  C4  UNL     1     -34.613  15.743  -4.388  1.00 20.00     0.109 A 
HETATM    5  C5  UNL     1     -34.341  14.360  -3.842  1.00 20.00    -0.021 A 
HETATM    6  C6  UNL     1     -32.934  13.961  -3.474  1.00 20.00     0.016 C 
HETATM    7  C7  UNL     1     -35.151  13.224  -4.414  1.00 20.00     0.016 C 
HETATM    8  O8  UNL     1     -34.515  16.344  -0.894  1.00 20.00    -0.264 OA
HETATM    9  O9  UNL     1     -33.106  17.455  -5.088  1.00 20.00    -0.264 OA
HETATM   10  O10 UNL     1     -33.624  17.191  -2.851  1.00 20.00    -0.244 OA
ENDROOT
TORSDOF 0
ENDMDL
MODEL 7
REMARK VINA RESULT:      -4.4      1.887      2.716
REMARK  0 active torsions:
REMARK  status: ('A' for Active; 'I' for Inactive)
ROOT
HETATM    1  C1  UNL     1     -35.525  13.713  -4.315  1.00 20.00     0.272 A 
HETATM    2  C2  UNL     1     -37.115  15.260  -3.885  1.00 20.00     0.272 A 
HETATM    3  C3  UNL     1     -34.921  14.995  -4.729  1.00 20.00     0.109 A 
HETATM    4  C4  UNL     1     -35.984  16.030  -4.441  1.00 20.00     0.109 A 
HETATM    5  C5  UNL     1     -34.637  16.123  -3.761  1.00 20.00    -0.021 A 
HETATM    6  C6  UNL     1     -34.521  15.832  -2.286  1.00 20.00     0.016 C 
HETATM    7  C7  UNL     1     -33.704  17.211  -4.229  1.00 20.00     0.016 C 
HETATM    8  O8  UNL     1     -34.958  12.635  -4.389  1.00 20.00    -0.264 OA
HETATM    9  O9  UNL     1     -38.168  15.758  -3.521  1.00 20.00    -0.264 OA
HETATM   10  O10 UNL     1     -36.800  13.926  -3.856  1.00 20.00    -0.244 OA
ENDROOT
TORSDOF 0
ENDMDL
MODEL 8
REMARK VINA RESULT:      -4.4      1.907      3.758
REMARK  0 active torsions:
REMARK  status: ('A' for Active; 'I' for Inactive)
ROOT
HETATM    1  C1  UNL     1     -33.617  15.670  -5.162  1.00 20.00     0.272 A 
HETATM    2  C2  UNL     1     -34.630  13.672  -4.867  1.00 20.00     0.272 A 
HETATM    3  C3  UNL     1     -34.320  15.415  -6.435  1.00 20.00     0.109 A 
HETATM    4  C4  UNL     1     -34.997  14.078  -6.238  1.00 20.00     0.109 A 
HETATM    5  C5  UNL     1     -35.825  15.308  -6.539  1.00 20.00    -0.021 A 
HETATM    6  C6  UNL     1     -36.694  15.908  -5.463  1.00 20.00     0.016 C 
HETATM    7  C7  UNL     1     -36.427  15.410  -7.918  1.00 20.00     0.016 C 
HETATM    8  O8  UNL     1     -32.956  16.670  -4.935  1.00 20.00    -0.264 OA
HETATM    9  O9  UNL     1     -35.001  12.636  -4.338  1.00 20.00    -0.264 OA
HETATM   10  O10 UNL     1     -33.816  14.619  -4.303  1.00 20.00    -0.244 OA
ENDROOT
TORSDOF 0
ENDMDL
MODEL 9
REMARK VINA RESULT:      -4.4      1.924      2.525
REMARK  0 active torsions:
REMARK  status: ('A' for Active; 'I' for Inactive)
ROOT
HETATM    1  C1  UNL     1     -37.036  14.615  -4.230  1.00 20.00     0.272 A 
HETATM    2  C2  UNL     1     -35.765  15.962  -5.523  1.00 20.00     0.272 A 
HETATM    3  C3  UNL     1     -35.740  13.917  -4.334  1.00 20.00     0.109 A 
HETATM    4  C4  UNL     1     -34.889  14.818  -5.200  1.00 20.00     0.109 A 
HETATM    5  C5  UNL     1     -34.450  14.489  -3.791  1.00 20.00    -0.021 A 
HETATM    6  C6  UNL     1     -34.494  15.554  -2.724  1.00 20.00     0.016 C 
HETATM    7  C7  UNL     1     -33.288  13.539  -3.637  1.00 20.00     0.016 C 
HETATM    8  O8  UNL     1     -37.990  14.193  -3.595  1.00 20.00    -0.264 OA
HETATM    9  O9  UNL     1     -35.423  16.914  -6.206  1.00 20.00    -0.264 OA
HETATM   10  O10 UNL     1     -36.998  15.779  -4.953  1.00 20.00    -0.244 OA
ENDROOT
TORSDOF 0
ENDMDL
