MODEL 1
REMARK VINA RESULT:      -3.6      0.000      0.000
REMARK  0 active torsions:
REMARK  status: ('A' for Active; 'I' for Inactive)
ROOT
HETATM    1  C1  UNL     1     -35.115   4.618   4.944  1.00 20.00    -0.019 C 
HETATM    2  C2  UNL     1     -34.750   5.037   6.158  1.00 20.00     0.080 C 
HETATM    3  C3  UNL     1     -34.929   5.426   3.703  1.00 20.00     0.037 C 
HETATM    4 CL4  UNL     1     -34.019   6.561   6.438  1.00 20.00    -0.097 Cl
ENDROOT
TORSDOF 0
ENDMDL
MODEL 2
REMARK VINA RESULT:      -3.6      1.811      2.388
REMARK  0 active torsions:
REMARK  status: ('A' for Active; 'I' for Inactive)
ROOT
HETATM    1  C1  UNL     1     -34.746   5.017   6.144  1.00 20.00    -0.019 C 
HETATM    2  C2  UNL     1     -35.114   4.545   4.950  1.00 20.00     0.080 C 
HETATM    3  C3  UNL     1     -34.101   6.348   6.341  1.00 20.00     0.037 C 
HETATM    4 CL4  UNL     1     -34.887   5.416   3.492  1.00 20.00    -0.097 Cl
ENDROOT
TORSDOF 0
ENDMDL
MODEL 3
REMARK VINA RESULT:      -3.4      1.433      2.266
REMARK  0 active torsions:
REMARK  status: ('A' for Active; 'I' for Inactive)
ROOT
HETATM    1  C1  UNL     1     -35.267   4.876   4.665  1.00 20.00    -0.019 C 
HETATM    2  C2  UNL     1     -34.647   5.432   3.621  1.00 20.00     0.080 C 
HETATM    3  C3  UNL     1     -34.751   4.945   6.064  1.00 20.00     0.037 C 
HETATM    4 CL4  UNL     1     -33.175   6.297   3.763  1.00 20.00    -0.097 Cl
ENDROOT
TORSDOF 0
ENDMDL
MODEL 4
REMARK VINA RESULT:      -3.3      1.177      1.616
REMARK  0 active torsions:
REMARK  status: ('A' for Active; 'I' for Inactive)
ROOT
HETATM    1  C1  UNL     1     -34.681   5.396   3.578  1.00 20.00    -0.019 C 
HETATM    2  C2  UNL     1     -35.273   4.907   4.670  1.00 20.00     0.080 C 
HETATM    3  C3  UNL     1     -33.435   6.217   3.615  1.00 20.00     0.037 C 
HETATM    4 CL4  UNL     1     -34.672   5.162   6.253  1.00 20.00    -0.097 Cl
ENDROOT
TORSDOF 0
ENDMDL
MODEL 5
REMARK VINA RESULT:      -3.3      1.994      2.464
REMARK  0 active torsions:
REMARK  status: ('A' for Active; 'I' for Inactive)
ROOT
HETATM    1  C1  UNL     1     -34.345   5.617   5.882  1.00 20.00    -0.019 C 
HETATM    2  C2  UNL     1     -33.957   6.212   4.751  1.00 20.00     0.080 C 
HETATM    3  C3  UNL     1     -35.021   4.287   5.923  1.00 20.00     0.037 C 
HETATM    4 CL4  UNL     1     -34.191   5.517   3.203  1.00 20.00    -0.097 Cl
ENDROOT
TORSDOF 0
ENDMDL
MODEL 6
REMARK VINA RESULT:      -3.2      1.846      1.959
REMARK  0 active torsions:
REMARK  status: ('A' for Active; 'I' for Inactive)
ROOT
HETATM    1  C1  UNL     1     -33.920   6.408   5.408  1.00 20.00    -0.019 C 
HETATM    2  C2  UNL     1     -34.494   5.551   6.255  1.00 20.00     0.080 C 
HETATM    3  C3  UNL     1     -33.662   6.099   3.970  1.00 20.00     0.037 C 
HETATM    4 CL4  UNL     1     -35.005   3.983   5.792  1.00 20.00    -0.097 Cl
ENDROOT
TORSDOF 0
ENDMDL
MODEL 7
REMARK VINA RESULT:      -2.8      2.150      2.260
REMARK  0 active torsions:
REMARK  status: ('A' for Active; 'I' for Inactive)
ROOT
HETATM    1  C1  UNL     1     -34.536   5.778   5.216  1.00 20.00    -0.019 C 
HETATM    2  C2  UNL     1     -33.426   6.367   4.764  1.00 20.00     0.080 C 
HETATM    3  C3  UNL     1     -35.404   4.900   4.376  1.00 20.00     0.037 C 
HETATM    4 CL4  UNL     1     -32.861   6.184   3.157  1.00 20.00    -0.097 Cl
ENDROOT
TORSDOF 0
ENDMDL
MODEL 8
REMARK VINA RESULT:      -2.6      3.549      3.988
REMARK  0 active torsions:
REMARK  status: ('A' for Active; 'I' for Inactive)
ROOT
HETATM    1  C1  UNL     1     -31.901   7.311   3.344  1.00 20.00    -0.019 C 
HETATM    2  C2  UNL     1     -32.633   6.260   3.720  1.00 20.00     0.080 C 
HETATM    3  C3  UNL     1     -32.135   8.068   2.079  1.00 20.00     0.037 C 
HETATM    4 CL4  UNL     1     -33.938   5.651   2.793  1.00 20.00    -0.097 Cl
ENDROOT
TORSDOF 0
ENDMDL
MODEL 9
REMARK VINA RESULT:      -2.6      3.475      3.912
REMARK  0 active torsions:
REMARK  status: ('A' for Active; 'I' for Inactive)
ROOT
HETATM    1  C1  UNL     1     -32.610   6.274   3.701  1.00 20.00    -0.019 C 
HETATM    2  C2  UNL     1     -31.838   7.292   3.315  1.00 20.00     0.080 C 
HETATM    3  C3  UNL     1     -33.800   5.803   2.932  1.00 20.00     0.037 C 
HETATM    4 CL4  UNL     1     -32.121   8.187   1.882  1.00 20.00    -0.097 Cl
ENDROOT
TORSDOF 0
ENDMDL
