MODEL 1
REMARK VINA RESULT:      -4.0      0.000      0.000
REMARK  1 active torsions:
REMARK  status: ('A' for Active; 'I' for Inactive)
REMARK    1  A    between atoms: C7_7  and  N9_9 
ROOT
HETATM    1  C1  UNL     1     -34.057  13.659  -4.190  1.00 20.00     0.031 C 
HETATM    2  C4  UNL     1     -34.781  13.958  -5.498  1.00 20.00     0.019 C 
HETATM    3  C5  UNL     1     -33.857  14.930  -3.363  1.00 20.00     0.273 C 
HETATM    4  C6  UNL     1     -35.804  15.972  -4.368  1.00 20.00     0.288 C 
HETATM    5  C8  UNL     1     -36.065  14.728  -5.216  1.00 20.00     0.086 C 
HETATM    6  N9  UNL     1     -35.134  15.613  -3.109  1.00 20.00     0.094 N 
HETATM    7 BR10 UNL     1     -36.885  15.258  -6.909  1.00 20.00    -0.089 Br
ENDROOT
BRANCH   6   8
HETATM    8  C7  UNL     1     -34.950  16.800  -2.234  1.00 20.00     0.223 A 
HETATM    9  C2  UNL     1     -34.794  16.631  -0.747  1.00 20.00     0.038 A 
HETATM   10  C3  UNL     1     -33.624  17.068  -1.579  1.00 20.00     0.038 A 
ENDBRANCH   6   8
TORSDOF 1
ENDMDL
MODEL 2
REMARK VINA RESULT:      -3.9      2.838      4.475
REMARK  1 active torsions:
REMARK  status: ('A' for Active; 'I' for Inactive)
REMARK    1  A    between atoms: C7_7  and  N9_9 
ROOT
HETATM    1  C1  UNL     1     -33.811  17.968  -3.876  1.00 20.00     0.031 C 
HETATM    2  C4  UNL     1     -33.785  18.368  -2.404  1.00 20.00     0.019 C 
HETATM    3  C5  UNL     1     -33.608  16.462  -4.047  1.00 20.00     0.273 C 
HETATM    4  C6  UNL     1     -34.529  16.019  -1.846  1.00 20.00     0.288 C 
HETATM    5  C8  UNL     1     -34.768  17.511  -1.616  1.00 20.00     0.086 C 
HETATM    6  N9  UNL     1     -34.599  15.695  -3.279  1.00 20.00     0.094 N 
HETATM    7 BR10 UNL     1     -34.591  17.911   0.288  1.00 20.00    -0.089 Br
ENDROOT
BRANCH   6   8
HETATM    8  C7  UNL     1     -34.455  14.234  -3.512  1.00 20.00     0.223 A 
HETATM    9  C2  UNL     1     -35.535  13.468  -4.226  1.00 20.00     0.038 A 
HETATM   10  C3  UNL     1     -34.214  13.702  -4.898  1.00 20.00     0.038 A 
ENDBRANCH   6   8
TORSDOF 1
ENDMDL
MODEL 3
REMARK VINA RESULT:      -3.9      2.813      4.648
REMARK  1 active torsions:
REMARK  status: ('A' for Active; 'I' for Inactive)
REMARK    1  A    between atoms: C7_7  and  N9_9 
ROOT
HETATM    1  C1  UNL     1     -33.724  18.487  -4.574  1.00 20.00     0.031 C 
HETATM    2  C4  UNL     1     -33.744  18.258  -3.067  1.00 20.00     0.019 C 
HETATM    3  C5  UNL     1     -33.534  17.174  -5.334  1.00 20.00     0.273 C 
HETATM    4  C6  UNL     1     -34.537  15.904  -3.525  1.00 20.00     0.288 C 
HETATM    5  C8  UNL     1     -34.764  17.182  -2.719  1.00 20.00     0.086 C 
HETATM    6  N9  UNL     1     -34.561  16.187  -4.968  1.00 20.00     0.094 N 
HETATM    7 BR10 UNL     1     -34.647  16.774  -0.812  1.00 20.00    -0.089 Br
ENDROOT
BRANCH   6   8
HETATM    8  C7  UNL     1     -34.427  14.942  -5.769  1.00 20.00     0.223 A 
HETATM    9  C2  UNL     1     -35.579  14.444  -6.598  1.00 20.00     0.038 A 
HETATM   10  C3  UNL     1     -34.358  15.002  -7.270  1.00 20.00     0.038 A 
ENDBRANCH   6   8
TORSDOF 1
ENDMDL
MODEL 4
REMARK VINA RESULT:      -3.8      1.450      2.047
REMARK  1 active torsions:
REMARK  status: ('A' for Active; 'I' for Inactive)
REMARK    1  A    between atoms: C7_7  and  N9_9 
ROOT
HETATM    1  C1  UNL     1     -37.358  15.606  -4.256  1.00 20.00     0.031 C 
HETATM    2  C4  UNL     1     -36.749  15.117  -5.566  1.00 20.00     0.019 C 
HETATM    3  C5  UNL     1     -36.356  15.505  -3.105  1.00 20.00     0.273 C 
HETATM    4  C6  UNL     1     -34.481  15.714  -4.631  1.00 20.00     0.288 C 
HETATM    5  C8  UNL     1     -35.429  15.831  -5.823  1.00 20.00     0.086 C 
HETATM    6  N9  UNL     1     -35.115  16.231  -3.408  1.00 20.00     0.094 N 
HETATM    7 BR10 UNL     1     -34.577  15.065  -7.406  1.00 20.00    -0.089 Br
ENDROOT
BRANCH   6   8
HETATM    8  C7  UNL     1     -34.176  16.205  -2.256  1.00 20.00     0.223 A 
HETATM    9  C2  UNL     1     -33.728  17.487  -1.611  1.00 20.00     0.038 A 
HETATM   10  C3  UNL     1     -34.651  16.561  -0.875  1.00 20.00     0.038 A 
ENDBRANCH   6   8
TORSDOF 1
ENDMDL
MODEL 5
REMARK VINA RESULT:      -3.8      2.025      2.525
REMARK  1 active torsions:
REMARK  status: ('A' for Active; 'I' for Inactive)
REMARK    1  A    between atoms: C7_7  and  N9_9 
ROOT
HETATM    1  C1  UNL     1     -33.422  17.271  -4.974  1.00 20.00     0.031 C 
HETATM    2  C4  UNL     1     -33.987  15.914  -5.379  1.00 20.00     0.019 C 
HETATM    3  C5  UNL     1     -33.986  17.729  -3.629  1.00 20.00     0.273 C 
HETATM    4  C6  UNL     1     -34.356  15.436  -2.927  1.00 20.00     0.288 C 
HETATM    5  C8  UNL     1     -33.794  14.913  -4.248  1.00 20.00     0.086 C 
HETATM    6  N9  UNL     1     -33.749  16.729  -2.578  1.00 20.00     0.094 N 
HETATM    7 BR10 UNL     1     -34.682  13.235  -4.711  1.00 20.00    -0.089 Br
ENDROOT
BRANCH   6   8
HETATM    8  C7  UNL     1     -34.220  17.211  -1.253  1.00 20.00     0.223 A 
HETATM    9  C2  UNL     1     -33.293  17.975  -0.348  1.00 20.00     0.038 A 
HETATM   10  C3  UNL     1     -34.443  18.678  -1.008  1.00 20.00     0.038 A 
ENDBRANCH   6   8
TORSDOF 1
ENDMDL
MODEL 6
REMARK VINA RESULT:      -3.7      2.560      4.311
REMARK  1 active torsions:
REMARK  status: ('A' for Active; 'I' for Inactive)
REMARK    1  A    between atoms: C7_7  and  N9_9 
ROOT
HETATM    1  C1  UNL     1     -34.030  13.474  -4.511  1.00 20.00     0.031 C 
HETATM    2  C4  UNL     1     -34.201  14.115  -3.138  1.00 20.00     0.019 C 
HETATM    3  C5  UNL     1     -35.073  13.994  -5.501  1.00 20.00     0.273 C 
HETATM    4  C6  UNL     1     -35.276  16.088  -4.291  1.00 20.00     0.288 C 
HETATM    5  C8  UNL     1     -34.233  15.632  -3.273  1.00 20.00     0.086 C 
HETATM    6  N9  UNL     1     -35.037  15.460  -5.600  1.00 20.00     0.094 N 
HETATM    7 BR10 UNL     1     -34.633  16.427  -1.534  1.00 20.00    -0.089 Br
ENDROOT
BRANCH   6   8
HETATM    8  C7  UNL     1     -35.991  15.960  -6.625  1.00 20.00     0.223 A 
HETATM    9  C2  UNL     1     -35.485  16.545  -7.914  1.00 20.00     0.038 A 
HETATM   10  C3  UNL     1     -36.182  15.216  -7.917  1.00 20.00     0.038 A 
ENDBRANCH   6   8
TORSDOF 1
ENDMDL
MODEL 7
REMARK VINA RESULT:      -3.7     13.187     14.317
REMARK  1 active torsions:
REMARK  status: ('A' for Active; 'I' for Inactive)
REMARK    1  A    between atoms: C7_7  and  N9_9 
ROOT
HETATM    1  C1  UNL     1     -43.068   3.968   0.343  1.00 20.00     0.031 C 
HETATM    2  C4  UNL     1     -42.749   5.454   0.221  1.00 20.00     0.019 C 
HETATM    3  C5  UNL     1     -43.320   3.338  -1.028  1.00 20.00     0.273 C 
HETATM    4  C6  UNL     1     -41.919   4.992  -2.119  1.00 20.00     0.288 C 
HETATM    5  C8  UNL     1     -41.619   5.662  -0.780  1.00 20.00     0.086 C 
HETATM    6  N9  UNL     1     -42.185   3.557  -1.937  1.00 20.00     0.094 N 
HETATM    7 BR10 UNL     1     -41.348   7.577  -1.059  1.00 20.00    -0.089 Br
ENDROOT
BRANCH   6   8
HETATM    8  C7  UNL     1     -42.394   2.873  -3.240  1.00 20.00     0.223 A 
HETATM    9  C2  UNL     1     -41.377   1.891  -3.754  1.00 20.00     0.038 A 
HETATM   10  C3  UNL     1     -42.718   1.405  -3.289  1.00 20.00     0.038 A 
ENDBRANCH   6   8
TORSDOF 1
ENDMDL
MODEL 8
REMARK VINA RESULT:      -3.7      2.663      4.544
REMARK  1 active torsions:
REMARK  status: ('A' for Active; 'I' for Inactive)
REMARK    1  A    between atoms: C7_7  and  N9_9 
ROOT
HETATM    1  C1  UNL     1     -36.788  16.981  -3.035  1.00 20.00     0.031 C 
HETATM    2  C4  UNL     1     -35.957  17.756  -2.018  1.00 20.00     0.019 C 
HETATM    3  C5  UNL     1     -35.899  16.283  -4.065  1.00 20.00     0.273 C 
HETATM    4  C6  UNL     1     -34.057  16.160  -2.489  1.00 20.00     0.288 C 
HETATM    5  C8  UNL     1     -34.896  16.846  -1.413  1.00 20.00     0.086 C 
HETATM    6  N9  UNL     1     -34.913  15.405  -3.417  1.00 20.00     0.094 N 
HETATM    7 BR10 UNL     1     -33.729  17.897  -0.251  1.00 20.00    -0.089 Br
ENDROOT
BRANCH   6   8
HETATM    8  C7  UNL     1     -34.106  14.662  -4.419  1.00 20.00     0.223 A 
HETATM    9  C2  UNL     1     -34.389  13.212  -4.699  1.00 20.00     0.038 A 
HETATM   10  C3  UNL     1     -34.710  14.251  -5.733  1.00 20.00     0.038 A 
ENDBRANCH   6   8
TORSDOF 1
ENDMDL
MODEL 9
REMARK VINA RESULT:      -3.6     12.066     13.230
REMARK  1 active torsions:
REMARK  status: ('A' for Active; 'I' for Inactive)
REMARK    1  A    between atoms: C7_7  and  N9_9 
ROOT
HETATM    1  C1  UNL     1     -40.817   5.966  -0.768  1.00 20.00     0.031 C 
HETATM    2  C4  UNL     1     -41.700   7.118  -1.236  1.00 20.00     0.019 C 
HETATM    3  C5  UNL     1     -41.497   4.615  -1.000  1.00 20.00     0.273 C 
HETATM    4  C6  UNL     1     -42.793   5.509  -2.847  1.00 20.00     0.288 C 
HETATM    5  C8  UNL     1     -42.144   6.880  -2.674  1.00 20.00     0.086 C 
HETATM    6  N9  UNL     1     -41.881   4.441  -2.408  1.00 20.00     0.094 N 
HETATM    7 BR10 UNL     1     -43.415   8.270  -3.195  1.00 20.00    -0.089 Br
ENDROOT
BRANCH   6   8
HETATM    8  C7  UNL     1     -42.464   3.095  -2.650  1.00 20.00     0.223 A 
HETATM    9  C2  UNL     1     -42.829   2.664  -4.043  1.00 20.00     0.038 A 
HETATM   10  C3  UNL     1     -41.662   2.030  -3.345  1.00 20.00     0.038 A 
ENDBRANCH   6   8
TORSDOF 1
ENDMDL
