MODEL 1
REMARK VINA RESULT:      -3.7      0.000      0.000
REMARK  1 active torsions:
REMARK  status: ('A' for Active; 'I' for Inactive)
REMARK    1  A    between atoms: C5_5  and  O7_7 
ROOT
HETATM    1  C1  UNL     1     -34.653  16.220  -1.600  1.00 20.00     0.015 C 
HETATM    2  C2  UNL     1     -34.609  15.620  -2.640  1.00 20.00    -0.075 C 
HETATM    3  C3  UNL     1     -33.732  13.603  -3.865  1.00 20.00     0.221 A 
HETATM    4  C4  UNL     1     -35.745  13.966  -4.160  1.00 20.00     0.221 A 
HETATM    5  C5  UNL     1     -34.555  14.899  -3.891  1.00 20.00     0.162 A 
HETATM    6  O6  UNL     1     -34.888  12.802  -4.196  1.00 20.00    -0.383 OA
ENDROOT
BRANCH   5   7
HETATM    7  O7  UNL     1     -34.232  15.827  -4.945  1.00 20.00    -0.373 OA
HETATM    8  H13 UNL     1     -34.540  15.412  -5.761  1.00 20.00     0.212 HD
ENDBRANCH   5   7
TORSDOF 1
ENDMDL
MODEL 2
REMARK VINA RESULT:      -3.7      1.668      3.134
REMARK  1 active torsions:
REMARK  status: ('A' for Active; 'I' for Inactive)
REMARK    1  A    between atoms: C5_5  and  O7_7 
ROOT
HETATM    1  C1  UNL     1     -35.084  14.434  -6.985  1.00 20.00     0.015 C 
HETATM    2  C2  UNL     1     -35.013  14.185  -5.813  1.00 20.00    -0.075 C 
HETATM    3  C3  UNL     1     -33.599  14.272  -3.731  1.00 20.00     0.221 A 
HETATM    4  C4  UNL     1     -35.535  14.944  -3.470  1.00 20.00     0.221 A 
HETATM    5  C5  UNL     1     -34.925  13.886  -4.402  1.00 20.00     0.162 A 
HETATM    6  O6  UNL     1     -34.260  15.193  -2.836  1.00 20.00    -0.383 OA
ENDROOT
BRANCH   5   7
HETATM    7  O7  UNL     1     -35.366  12.530  -4.189  1.00 20.00    -0.373 OA
HETATM    8  H13 UNL     1     -34.750  11.976  -4.685  1.00 20.00     0.212 HD
ENDBRANCH   5   7
TORSDOF 1
ENDMDL
MODEL 3
REMARK VINA RESULT:      -3.7      1.443      1.606
REMARK  1 active torsions:
REMARK  status: ('A' for Active; 'I' for Inactive)
REMARK    1  A    between atoms: C5_5  and  O7_7 
ROOT
HETATM    1  C1  UNL     1     -34.022  16.596  -1.865  1.00 20.00     0.015 C 
HETATM    2  C2  UNL     1     -33.691  15.896  -2.783  1.00 20.00    -0.075 C 
HETATM    3  C3  UNL     1     -33.926  13.653  -3.904  1.00 20.00     0.221 A 
HETATM    4  C4  UNL     1     -34.079  15.265  -5.189  1.00 20.00     0.221 A 
HETATM    5  C5  UNL     1     -33.292  15.052  -3.886  1.00 20.00     0.162 A 
HETATM    6  O6  UNL     1     -34.572  13.906  -5.172  1.00 20.00    -0.383 OA
ENDROOT
BRANCH   5   7
HETATM    7  O7  UNL     1     -31.857  15.094  -4.004  1.00 20.00    -0.373 OA
HETATM    8  H13 UNL     1     -31.563  15.763  -3.373  1.00 20.00     0.212 HD
ENDBRANCH   5   7
TORSDOF 1
ENDMDL
MODEL 4
REMARK VINA RESULT:      -3.7     11.915     12.736
REMARK  1 active torsions:
REMARK  status: ('A' for Active; 'I' for Inactive)
REMARK    1  A    between atoms: C5_5  and  O7_7 
ROOT
HETATM    1  C1  UNL     1     -32.593   6.185   3.170  1.00 20.00     0.015 C 
HETATM    2  C2  UNL     1     -33.572   5.793   3.744  1.00 20.00    -0.075 C 
HETATM    3  C3  UNL     1     -34.727   3.837   4.833  1.00 20.00     0.221 A 
HETATM    4  C4  UNL     1     -34.767   5.575   5.950  1.00 20.00     0.221 A 
HETATM    5  C5  UNL     1     -34.751   5.320   4.435  1.00 20.00     0.162 A 
HETATM    6  O6  UNL     1     -34.820   4.159   6.238  1.00 20.00    -0.383 OA
ENDROOT
BRANCH   5   7
HETATM    7  O7  UNL     1     -35.917   5.758   3.710  1.00 20.00    -0.373 OA
HETATM    8  H13 UNL     1     -36.635   5.768   4.355  1.00 20.00     0.212 HD
ENDBRANCH   5   7
TORSDOF 1
ENDMDL
MODEL 5
REMARK VINA RESULT:      -3.6      1.803      3.257
REMARK  1 active torsions:
REMARK  status: ('A' for Active; 'I' for Inactive)
REMARK    1  A    between atoms: C5_5  and  O7_7 
ROOT
HETATM    1  C1  UNL     1     -34.869  13.216  -4.492  1.00 20.00     0.015 C 
HETATM    2  C2  UNL     1     -34.115  14.104  -4.203  1.00 20.00    -0.075 C 
HETATM    3  C3  UNL     1     -33.270  16.408  -4.768  1.00 20.00     0.221 A 
HETATM    4  C4  UNL     1     -33.712  16.134  -2.769  1.00 20.00     0.221 A 
HETATM    5  C5  UNL     1     -33.207  15.174  -3.857  1.00 20.00     0.162 A 
HETATM    6  O6  UNL     1     -33.670  17.261  -3.673  1.00 20.00    -0.383 OA
ENDROOT
BRANCH   5   7
HETATM    7  O7  UNL     1     -31.896  14.616  -3.645  1.00 20.00    -0.373 OA
HETATM    8  H13 UNL     1     -32.021  13.885  -3.026  1.00 20.00     0.212 HD
ENDBRANCH   5   7
TORSDOF 1
ENDMDL
MODEL 6
REMARK VINA RESULT:      -3.6     11.941     12.743
REMARK  1 active torsions:
REMARK  status: ('A' for Active; 'I' for Inactive)
REMARK    1  A    between atoms: C5_5  and  O7_7 
ROOT
HETATM    1  C1  UNL     1     -32.386   6.483   3.326  1.00 20.00     0.015 C 
HETATM    2  C2  UNL     1     -33.209   6.095   4.109  1.00 20.00    -0.075 C 
HETATM    3  C3  UNL     1     -35.516   5.136   4.430  1.00 20.00     0.221 A 
HETATM    4  C4  UNL     1     -34.039   4.169   5.503  1.00 20.00     0.221 A 
HETATM    5  C5  UNL     1     -34.201   5.628   5.052  1.00 20.00     0.162 A 
HETATM    6  O6  UNL     1     -35.326   3.804   4.956  1.00 20.00    -0.383 OA
ENDROOT
BRANCH   5   7
HETATM    7  O7  UNL     1     -34.330   6.602   6.106  1.00 20.00    -0.373 OA
HETATM    8  H13 UNL     1     -35.056   6.291   6.661  1.00 20.00     0.212 HD
ENDBRANCH   5   7
TORSDOF 1
ENDMDL
MODEL 7
REMARK VINA RESULT:      -3.5      1.773      2.634
REMARK  1 active torsions:
REMARK  status: ('A' for Active; 'I' for Inactive)
REMARK    1  A    between atoms: C5_5  and  O7_7 
ROOT
HETATM    1  C1  UNL     1     -32.762  14.736  -3.591  1.00 20.00     0.015 C 
HETATM    2  C2  UNL     1     -33.856  14.381  -3.935  1.00 20.00    -0.075 C 
HETATM    3  C3  UNL     1     -36.336  14.801  -3.812  1.00 20.00     0.221 A 
HETATM    4  C4  UNL     1     -35.626  14.466  -5.724  1.00 20.00     0.221 A 
HETATM    5  C5  UNL     1     -35.173  13.953  -4.348  1.00 20.00     0.162 A 
HETATM    6  O6  UNL     1     -36.745  15.176  -5.146  1.00 20.00    -0.383 OA
ENDROOT
BRANCH   5   7
HETATM    7  O7  UNL     1     -35.283  12.531  -4.138  1.00 20.00    -0.373 OA
HETATM    8  H13 UNL     1     -35.888  12.214  -4.821  1.00 20.00     0.212 HD
ENDBRANCH   5   7
TORSDOF 1
ENDMDL
MODEL 8
REMARK VINA RESULT:      -3.4      1.216      2.774
REMARK  1 active torsions:
REMARK  status: ('A' for Active; 'I' for Inactive)
REMARK    1  A    between atoms: C5_5  and  O7_7 
ROOT
HETATM    1  C1  UNL     1     -37.765  14.777  -3.958  1.00 20.00     0.015 C 
HETATM    2  C2  UNL     1     -36.621  14.431  -4.068  1.00 20.00    -0.075 C 
HETATM    3  C3  UNL     1     -34.472  14.663  -5.361  1.00 20.00     0.221 A 
HETATM    4  C4  UNL     1     -34.243  14.764  -3.310  1.00 20.00     0.221 A 
HETATM    5  C5  UNL     1     -35.244  14.013  -4.203  1.00 20.00     0.162 A 
HETATM    6  O6  UNL     1     -33.525  15.272  -4.457  1.00 20.00    -0.383 OA
ENDROOT
BRANCH   5   7
HETATM    7  O7  UNL     1     -35.189  12.575  -4.139  1.00 20.00    -0.373 OA
HETATM    8  H13 UNL     1     -35.887  12.261  -4.727  1.00 20.00     0.212 HD
ENDBRANCH   5   7
TORSDOF 1
ENDMDL
MODEL 9
REMARK VINA RESULT:      -3.4     18.194     19.096
REMARK  1 active torsions:
REMARK  status: ('A' for Active; 'I' for Inactive)
REMARK    1  A    between atoms: C5_5  and  O7_7 
ROOT
HETATM    1  C1  UNL     1     -23.399  15.063  12.172  1.00 20.00     0.015 C 
HETATM    2  C2  UNL     1     -23.815  16.179  12.023  1.00 20.00    -0.075 C 
HETATM    3  C3  UNL     1     -23.380  18.641  12.332  1.00 20.00     0.221 A 
HETATM    4  C4  UNL     1     -24.076  18.131  10.454  1.00 20.00     0.221 A 
HETATM    5  C5  UNL     1     -24.315  17.524  11.845  1.00 20.00     0.162 A 
HETATM    6  O6  UNL     1     -23.268  19.197  11.003  1.00 20.00    -0.383 OA
ENDROOT
BRANCH   5   7
HETATM    7  O7  UNL     1     -25.670  17.580  12.332  1.00 20.00    -0.373 OA
HETATM    8  H13 UNL     1     -25.613  17.965  13.216  1.00 20.00     0.212 HD
ENDBRANCH   5   7
TORSDOF 1
ENDMDL
