MODEL 1
REMARK VINA RESULT:      -4.2      0.000      0.000
REMARK  2 active torsions:
REMARK  status: ('A' for Active; 'I' for Inactive)
REMARK    1  A    between atoms: C1_1  and  C7_7 
REMARK    2  A    between atoms: C2_2  and  C3_3 
ROOT
HETATM    1  C1  UNL     1     -33.241   6.573   4.479  1.00 20.00    -0.013 C 
HETATM    2  C3  UNL     1     -34.182   5.891   5.155  1.00 20.00    -0.028 C 
HETATM    3  C4  UNL     1     -34.471   5.938   6.622  1.00 20.00     0.051 C 
ENDROOT
BRANCH   1   4
HETATM    4  C7  UNL     1     -32.954   6.512   2.997  1.00 20.00     0.000 C 
HETATM    5  C5  UNL     1     -32.247   7.790   2.547  1.00 20.00     0.013 C 
HETATM    6  C6  UNL     1     -32.095   5.285   2.681  1.00 20.00     0.013 C 
ENDBRANCH   1   4
BRANCH   2   7
HETATM    7  C2  UNL     1     -35.028   4.975   4.339  1.00 20.00     0.265 C 
HETATM    8  O8  UNL     1     -35.235   3.807   4.647  1.00 20.00    -0.302 OA
ENDBRANCH   2   7
TORSDOF 2
ENDMDL
MODEL 2
REMARK VINA RESULT:      -4.0     11.561     12.241
REMARK  2 active torsions:
REMARK  status: ('A' for Active; 'I' for Inactive)
REMARK    1  A    between atoms: C1_1  and  C7_7 
REMARK    2  A    between atoms: C2_2  and  C3_3 
ROOT
HETATM    1  C1  UNL     1     -35.136  15.799  -2.613  1.00 20.00    -0.013 C 
HETATM    2  C3  UNL     1     -34.907  14.763  -3.439  1.00 20.00    -0.028 C 
HETATM    3  C4  UNL     1     -35.909  13.975  -4.221  1.00 20.00     0.051 C 
ENDROOT
BRANCH   1   4
HETATM    4  C7  UNL     1     -34.116  16.583  -1.823  1.00 20.00     0.000 C 
HETATM    5  C5  UNL     1     -33.782  17.887  -2.546  1.00 20.00     0.013 C 
HETATM    6  C6  UNL     1     -34.651  16.871  -0.418  1.00 20.00     0.013 C 
ENDBRANCH   1   4
BRANCH   2   7
HETATM    7  C2  UNL     1     -33.481  14.353  -3.580  1.00 20.00     0.265 C 
HETATM    8  O8  UNL     1     -33.135  13.188  -3.737  1.00 20.00    -0.302 OA
ENDBRANCH   2   7
TORSDOF 2
ENDMDL
MODEL 3
REMARK VINA RESULT:      -4.0     11.542     12.401
REMARK  2 active torsions:
REMARK  status: ('A' for Active; 'I' for Inactive)
REMARK    1  A    between atoms: C1_1  and  C7_7 
REMARK    2  A    between atoms: C2_2  and  C3_3 
ROOT
HETATM    1  C1  UNL     1     -34.485  15.381  -2.893  1.00 20.00    -0.013 C 
HETATM    2  C3  UNL     1     -35.286  14.555  -3.588  1.00 20.00    -0.028 C 
HETATM    3  C4  UNL     1     -34.918  13.263  -4.247  1.00 20.00     0.051 C 
ENDROOT
BRANCH   1   4
HETATM    4  C7  UNL     1     -34.867  16.688  -2.238  1.00 20.00     0.000 C 
HETATM    5  C5  UNL     1     -34.642  16.602  -0.728  1.00 20.00     0.013 C 
HETATM    6  C6  UNL     1     -34.048  17.832  -2.837  1.00 20.00     0.013 C 
ENDBRANCH   1   4
BRANCH   2   7
HETATM    7  C2  UNL     1     -36.705  14.988  -3.719  1.00 20.00     0.265 C 
HETATM    8  O8  UNL     1     -37.646  14.203  -3.713  1.00 20.00    -0.302 OA
ENDBRANCH   2   7
TORSDOF 2
ENDMDL
MODEL 4
REMARK VINA RESULT:      -3.9     11.872     12.736
REMARK  2 active torsions:
REMARK  status: ('A' for Active; 'I' for Inactive)
REMARK    1  A    between atoms: C1_1  and  C7_7 
REMARK    2  A    between atoms: C2_2  and  C3_3 
ROOT
HETATM    1  C1  UNL     1     -34.843  15.662  -2.369  1.00 20.00    -0.013 C 
HETATM    2  C3  UNL     1     -34.248  14.883  -3.289  1.00 20.00    -0.028 C 
HETATM    3  C4  UNL     1     -34.789  13.643  -3.927  1.00 20.00     0.051 C 
ENDROOT
BRANCH   1   4
HETATM    4  C7  UNL     1     -34.283  16.909  -1.726  1.00 20.00     0.000 C 
HETATM    5  C5  UNL     1     -34.769  18.148  -2.478  1.00 20.00     0.013 C 
HETATM    6  C6  UNL     1     -34.704  16.975  -0.257  1.00 20.00     0.013 C 
ENDBRANCH   1   4
BRANCH   2   7
HETATM    7  C2  UNL     1     -32.886  15.310  -3.715  1.00 20.00     0.265 C 
HETATM    8  O8  UNL     1     -32.687  16.056  -4.667  1.00 20.00    -0.302 OA
ENDBRANCH   2   7
TORSDOF 2
ENDMDL
MODEL 5
REMARK VINA RESULT:      -3.7     11.958     12.873
REMARK  2 active torsions:
REMARK  status: ('A' for Active; 'I' for Inactive)
REMARK    1  A    between atoms: C1_1  and  C7_7 
REMARK    2  A    between atoms: C2_2  and  C3_3 
ROOT
HETATM    1  C1  UNL     1     -35.151  15.370  -2.841  1.00 20.00    -0.013 C 
HETATM    2  C3  UNL     1     -34.237  16.353  -2.768  1.00 20.00    -0.028 C 
HETATM    3  C4  UNL     1     -33.709  17.023  -1.539  1.00 20.00     0.051 C 
ENDROOT
BRANCH   1   4
HETATM    4  C7  UNL     1     -35.683  14.706  -4.089  1.00 20.00     0.000 C 
HETATM    5  C5  UNL     1     -35.059  13.320  -4.252  1.00 20.00     0.013 C 
HETATM    6  C6  UNL     1     -37.208  14.602  -4.017  1.00 20.00     0.013 C 
ENDBRANCH   1   4
BRANCH   2   7
HETATM    7  C2  UNL     1     -33.697  16.832  -4.071  1.00 20.00     0.265 C 
HETATM    8  O8  UNL     1     -32.750  16.299  -4.637  1.00 20.00    -0.302 OA
ENDBRANCH   2   7
TORSDOF 2
ENDMDL
MODEL 6
REMARK VINA RESULT:      -3.6      1.224      1.746
REMARK  2 active torsions:
REMARK  status: ('A' for Active; 'I' for Inactive)
REMARK    1  A    between atoms: C1_1  and  C7_7 
REMARK    2  A    between atoms: C2_2  and  C3_3 
ROOT
HETATM    1  C1  UNL     1     -33.534   6.648   4.776  1.00 20.00    -0.013 C 
HETATM    2  C3  UNL     1     -33.915   6.375   6.036  1.00 20.00    -0.028 C 
HETATM    3  C4  UNL     1     -34.067   7.332   7.176  1.00 20.00     0.051 C 
ENDROOT
BRANCH   1   4
HETATM    4  C7  UNL     1     -33.377   5.671   3.635  1.00 20.00     0.000 C 
HETATM    5  C5  UNL     1     -34.697   5.534   2.877  1.00 20.00     0.013 C 
HETATM    6  C6  UNL     1     -32.265   6.140   2.694  1.00 20.00     0.013 C 
ENDBRANCH   1   4
BRANCH   2   7
HETATM    7  C2  UNL     1     -34.212   4.944   6.325  1.00 20.00     0.265 C 
HETATM    8  O8  UNL     1     -35.329   4.455   6.201  1.00 20.00    -0.302 OA
ENDBRANCH   2   7
TORSDOF 2
ENDMDL
MODEL 7
REMARK VINA RESULT:      -3.6      9.587     10.860
REMARK  2 active torsions:
REMARK  status: ('A' for Active; 'I' for Inactive)
REMARK    1  A    between atoms: C1_1  and  C7_7 
REMARK    2  A    between atoms: C2_2  and  C3_3 
ROOT
HETATM    1  C1  UNL     1     -41.326   4.318  -1.502  1.00 20.00    -0.013 C 
HETATM    2  C3  UNL     1     -41.924   3.662  -2.511  1.00 20.00    -0.028 C 
HETATM    3  C4  UNL     1     -41.402   2.488  -3.278  1.00 20.00     0.051 C 
ENDROOT
BRANCH   1   4
HETATM    4  C7  UNL     1     -41.861   5.507  -0.739  1.00 20.00     0.000 C 
HETATM    5  C5  UNL     1     -42.410   5.057   0.615  1.00 20.00     0.013 C 
HETATM    6  C6  UNL     1     -40.755   6.547  -0.550  1.00 20.00     0.013 C 
ENDBRANCH   1   4
BRANCH   2   7
HETATM    7  C2  UNL     1     -43.264   4.176  -2.913  1.00 20.00     0.265 C 
HETATM    8  O8  UNL     1     -43.415   5.077  -3.729  1.00 20.00    -0.302 OA
ENDBRANCH   2   7
TORSDOF 2
ENDMDL
MODEL 8
REMARK VINA RESULT:      -3.6     11.425     12.792
REMARK  2 active torsions:
REMARK  status: ('A' for Active; 'I' for Inactive)
REMARK    1  A    between atoms: C1_1  and  C7_7 
REMARK    2  A    between atoms: C2_2  and  C3_3 
ROOT
HETATM    1  C1  UNL     1     -35.096  15.126  -4.708  1.00 20.00    -0.013 C 
HETATM    2  C3  UNL     1     -36.422  15.217  -4.907  1.00 20.00    -0.028 C 
HETATM    3  C4  UNL     1     -37.136  15.579  -6.171  1.00 20.00     0.051 C 
ENDROOT
BRANCH   1   4
HETATM    4  C7  UNL     1     -34.386  14.767  -3.424  1.00 20.00     0.000 C 
HETATM    5  C5  UNL     1     -33.302  13.726  -3.698  1.00 20.00     0.013 C 
HETATM    6  C6  UNL     1     -33.777  16.022  -2.794  1.00 20.00     0.013 C 
ENDBRANCH   1   4
BRANCH   2   7
HETATM    7  C2  UNL     1     -37.276  14.929  -3.720  1.00 20.00     0.265 C 
HETATM    8  O8  UNL     1     -38.242  14.177  -3.760  1.00 20.00    -0.302 OA
ENDBRANCH   2   7
TORSDOF 2
ENDMDL
MODEL 9
REMARK VINA RESULT:      -3.6     11.656     13.334
REMARK  2 active torsions:
REMARK  status: ('A' for Active; 'I' for Inactive)
REMARK    1  A    between atoms: C1_1  and  C7_7 
REMARK    2  A    between atoms: C2_2  and  C3_3 
ROOT
HETATM    1  C1  UNL     1     -34.486  15.466  -5.684  1.00 20.00    -0.013 C 
HETATM    2  C3  UNL     1     -34.170  14.810  -4.554  1.00 20.00    -0.028 C 
HETATM    3  C4  UNL     1     -32.963  15.000  -3.691  1.00 20.00     0.051 C 
ENDROOT
BRANCH   1   4
HETATM    4  C7  UNL     1     -35.705  15.260  -6.552  1.00 20.00     0.000 C 
HETATM    5  C5  UNL     1     -36.411  16.594  -6.789  1.00 20.00     0.013 C 
HETATM    6  C6  UNL     1     -35.298  14.625  -7.883  1.00 20.00     0.013 C 
ENDBRANCH   1   4
BRANCH   2   7
HETATM    7  C2  UNL     1     -35.139  13.764  -4.121  1.00 20.00     0.265 C 
HETATM    8  O8  UNL     1     -35.006  12.577  -4.394  1.00 20.00    -0.302 OA
ENDBRANCH   2   7
TORSDOF 2
ENDMDL
