MODEL 1
REMARK VINA RESULT:      -4.2      0.000      0.000
REMARK  2 active torsions:
REMARK  status: ('A' for Active; 'I' for Inactive)
REMARK    1  A    between atoms: C6_6  and  C7_7 
REMARK    2  A    between atoms: C7_7  and  C8_8 
ROOT
HETATM    1  C1  UNL     1     -35.167  13.617  -4.177  1.00 20.00     0.059 C 
HETATM    2  C6  UNL     1     -35.557  14.850  -3.471  1.00 20.00     0.129 C 
HETATM    3  N9  UNL     1     -34.863  12.646  -4.736  1.00 20.00    -0.197 NA
ENDROOT
BRANCH   2   4
HETATM    4  C7  UNL     1     -34.370  15.484  -2.705  1.00 20.00     0.002 C 
HETATM    5  C2  UNL     1     -33.146  15.568  -3.640  1.00 20.00     0.011 C 
BRANCH   4   6
HETATM    6  C8  UNL     1     -34.736  16.864  -2.037  1.00 20.00    -0.047 C 
HETATM    7  C3  UNL     1     -34.681  16.804  -0.498  1.00 20.00     0.015 C 
HETATM    8  C4  UNL     1     -36.160  17.300  -2.454  1.00 20.00     0.015 C 
HETATM    9  C5  UNL     1     -33.771  17.974  -2.510  1.00 20.00     0.015 C 
ENDBRANCH   4   6
ENDBRANCH   2   4
TORSDOF 2
ENDMDL
MODEL 2
REMARK VINA RESULT:      -4.2      0.029      1.438
REMARK  2 active torsions:
REMARK  status: ('A' for Active; 'I' for Inactive)
REMARK    1  A    between atoms: C6_6  and  C7_7 
REMARK    2  A    between atoms: C7_7  and  C8_8 
ROOT
HETATM    1  C1  UNL     1     -35.145  13.621  -4.178  1.00 20.00     0.059 C 
HETATM    2  C6  UNL     1     -35.555  14.846  -3.470  1.00 20.00     0.129 C 
HETATM    3  N9  UNL     1     -34.824  12.657  -4.738  1.00 20.00    -0.197 NA
ENDROOT
BRANCH   2   4
HETATM    4  C7  UNL     1     -34.380  15.498  -2.701  1.00 20.00     0.002 C 
HETATM    5  C2  UNL     1     -33.150  15.588  -3.628  1.00 20.00     0.011 C 
BRANCH   4   6
HETATM    6  C8  UNL     1     -34.764  16.880  -2.046  1.00 20.00    -0.047 C 
HETATM    7  C3  UNL     1     -36.190  17.330  -2.420  1.00 20.00     0.015 C 
HETATM    8  C4  UNL     1     -33.775  17.980  -2.496  1.00 20.00     0.015 C 
HETATM    9  C5  UNL     1     -34.673  16.799  -0.505  1.00 20.00     0.015 C 
ENDBRANCH   4   6
ENDBRANCH   2   4
TORSDOF 2
ENDMDL
MODEL 3
REMARK VINA RESULT:      -4.2      0.021      1.442
REMARK  2 active torsions:
REMARK  status: ('A' for Active; 'I' for Inactive)
REMARK    1  A    between atoms: C6_6  and  C7_7 
REMARK    2  A    between atoms: C7_7  and  C8_8 
ROOT
HETATM    1  C1  UNL     1     -35.173  13.623  -4.180  1.00 20.00     0.059 C 
HETATM    2  C6  UNL     1     -35.559  14.858  -3.475  1.00 20.00     0.129 C 
HETATM    3  N9  UNL     1     -34.871  12.651  -4.738  1.00 20.00    -0.197 NA
ENDROOT
BRANCH   2   4
HETATM    4  C7  UNL     1     -34.370  15.490  -2.710  1.00 20.00     0.002 C 
HETATM    5  C2  UNL     1     -33.140  15.550  -3.638  1.00 20.00     0.011 C 
BRANCH   4   6
HETATM    6  C8  UNL     1     -34.727  16.882  -2.061  1.00 20.00    -0.047 C 
HETATM    7  C3  UNL     1     -33.767  18.001  -2.508  1.00 20.00     0.015 C 
HETATM    8  C4  UNL     1     -34.672  16.784  -0.519  1.00 20.00     0.015 C 
HETATM    9  C5  UNL     1     -36.166  17.305  -2.432  1.00 20.00     0.015 C 
ENDBRANCH   4   6
ENDBRANCH   2   4
TORSDOF 2
ENDMDL
MODEL 4
REMARK VINA RESULT:      -4.1      1.962      3.129
REMARK  2 active torsions:
REMARK  status: ('A' for Active; 'I' for Inactive)
REMARK    1  A    between atoms: C6_6  and  C7_7 
REMARK    2  A    between atoms: C7_7  and  C8_8 
ROOT
HETATM    1  C1  UNL     1     -37.403  14.726  -4.107  1.00 20.00     0.059 C 
HETATM    2  C6  UNL     1     -36.104  15.218  -4.600  1.00 20.00     0.129 C 
HETATM    3  N9  UNL     1     -38.427  14.340  -3.723  1.00 20.00    -0.197 NA
ENDROOT
BRANCH   2   4
HETATM    4  C7  UNL     1     -34.912  14.504  -3.916  1.00 20.00     0.002 C 
HETATM    5  C2  UNL     1     -34.567  13.221  -4.700  1.00 20.00     0.011 C 
BRANCH   4   6
HETATM    6  C8  UNL     1     -33.671  15.451  -3.698  1.00 20.00    -0.047 C 
HETATM    7  C3  UNL     1     -33.463  16.426  -4.873  1.00 20.00     0.015 C 
HETATM    8  C4  UNL     1     -32.381  14.614  -3.530  1.00 20.00     0.015 C 
HETATM    9  C5  UNL     1     -33.836  16.282  -2.406  1.00 20.00     0.015 C 
ENDBRANCH   4   6
ENDBRANCH   2   4
TORSDOF 2
ENDMDL
MODEL 5
REMARK VINA RESULT:      -4.1      1.963      2.882
REMARK  2 active torsions:
REMARK  status: ('A' for Active; 'I' for Inactive)
REMARK    1  A    between atoms: C6_6  and  C7_7 
REMARK    2  A    between atoms: C7_7  and  C8_8 
ROOT
HETATM    1  C1  UNL     1     -37.420  14.741  -4.102  1.00 20.00     0.059 C 
HETATM    2  C6  UNL     1     -36.119  15.249  -4.570  1.00 20.00     0.129 C 
HETATM    3  N9  UNL     1     -38.446  14.341  -3.736  1.00 20.00    -0.197 NA
ENDROOT
BRANCH   2   4
HETATM    4  C7  UNL     1     -34.930  14.509  -3.908  1.00 20.00     0.002 C 
HETATM    5  C2  UNL     1     -34.598  13.245  -4.726  1.00 20.00     0.011 C 
BRANCH   4   6
HETATM    6  C8  UNL     1     -33.681  15.441  -3.670  1.00 20.00    -0.047 C 
HETATM    7  C3  UNL     1     -33.826  16.305  -2.402  1.00 20.00     0.015 C 
HETATM    8  C4  UNL     1     -33.480  16.385  -4.878  1.00 20.00     0.015 C 
HETATM    9  C5  UNL     1     -32.390  14.602  -3.537  1.00 20.00     0.015 C 
ENDBRANCH   4   6
ENDBRANCH   2   4
TORSDOF 2
ENDMDL
MODEL 6
REMARK VINA RESULT:      -3.9      1.191      1.569
REMARK  2 active torsions:
REMARK  status: ('A' for Active; 'I' for Inactive)
REMARK    1  A    between atoms: C6_6  and  C7_7 
REMARK    2  A    between atoms: C7_7  and  C8_8 
ROOT
HETATM    1  C1  UNL     1     -34.077  13.598  -4.139  1.00 20.00     0.059 C 
HETATM    2  C6  UNL     1     -33.090  14.575  -3.650  1.00 20.00     0.129 C 
HETATM    3  N9  UNL     1     -34.855  12.825  -4.521  1.00 20.00    -0.197 NA
ENDROOT
BRANCH   2   4
HETATM    4  C7  UNL     1     -33.362  16.000  -4.191  1.00 20.00     0.002 C 
HETATM    5  C2  UNL     1     -33.881  15.905  -5.641  1.00 20.00     0.011 C 
BRANCH   4   6
HETATM    6  C8  UNL     1     -34.303  16.847  -3.251  1.00 20.00    -0.047 C 
HETATM    7  C3  UNL     1     -34.318  16.315  -1.804  1.00 20.00     0.015 C 
HETATM    8  C4  UNL     1     -35.753  16.830  -3.788  1.00 20.00     0.015 C 
HETATM    9  C5  UNL     1     -33.855  18.325  -3.216  1.00 20.00     0.015 C 
ENDBRANCH   4   6
ENDBRANCH   2   4
TORSDOF 2
ENDMDL
MODEL 7
REMARK VINA RESULT:      -3.9      2.495      4.161
REMARK  2 active torsions:
REMARK  status: ('A' for Active; 'I' for Inactive)
REMARK    1  A    between atoms: C6_6  and  C7_7 
REMARK    2  A    between atoms: C7_7  and  C8_8 
ROOT
HETATM    1  C1  UNL     1     -34.517  16.856  -0.699  1.00 20.00     0.059 C 
HETATM    2  C6  UNL     1     -33.980  16.474  -2.017  1.00 20.00     0.129 C 
HETATM    3  N9  UNL     1     -34.939  17.160   0.338  1.00 20.00    -0.197 NA
ENDROOT
BRANCH   2   4
HETATM    4  C7  UNL     1     -34.874  15.432  -2.732  1.00 20.00     0.002 C 
HETATM    5  C2  UNL     1     -36.203  16.098  -3.145  1.00 20.00     0.011 C 
BRANCH   4   6
HETATM    6  C8  UNL     1     -34.143  14.713  -3.930  1.00 20.00    -0.047 C 
HETATM    7  C3  UNL     1     -34.791  13.361  -4.286  1.00 20.00     0.015 C 
HETATM    8  C4  UNL     1     -32.659  14.461  -3.576  1.00 20.00     0.015 C 
HETATM    9  C5  UNL     1     -34.157  15.602  -5.193  1.00 20.00     0.015 C 
ENDBRANCH   4   6
ENDBRANCH   2   4
TORSDOF 2
ENDMDL
MODEL 8
REMARK VINA RESULT:      -3.9      1.336      2.436
REMARK  2 active torsions:
REMARK  status: ('A' for Active; 'I' for Inactive)
REMARK    1  A    between atoms: C6_6  and  C7_7 
REMARK    2  A    between atoms: C7_7  and  C8_8 
ROOT
HETATM    1  C1  UNL     1     -34.420  13.658  -4.044  1.00 20.00     0.059 C 
HETATM    2  C6  UNL     1     -33.716  14.793  -3.423  1.00 20.00     0.129 C 
HETATM    3  N9  UNL     1     -34.973  12.761  -4.532  1.00 20.00    -0.197 NA
ENDROOT
BRANCH   2   4
HETATM    4  C7  UNL     1     -34.675  15.960  -3.083  1.00 20.00     0.002 C 
HETATM    5  C2  UNL     1     -34.575  16.280  -1.578  1.00 20.00     0.011 C 
BRANCH   4   6
HETATM    6  C8  UNL     1     -34.456  17.223  -4.002  1.00 20.00    -0.047 C 
HETATM    7  C3  UNL     1     -33.384  16.984  -5.083  1.00 20.00     0.015 C 
HETATM    8  C4  UNL     1     -34.020  18.437  -3.148  1.00 20.00     0.015 C 
HETATM    9  C5  UNL     1     -35.772  17.621  -4.707  1.00 20.00     0.015 C 
ENDBRANCH   4   6
ENDBRANCH   2   4
TORSDOF 2
ENDMDL
MODEL 9
REMARK VINA RESULT:      -3.8      2.313      3.988
REMARK  2 active torsions:
REMARK  status: ('A' for Active; 'I' for Inactive)
REMARK    1  A    between atoms: C6_6  and  C7_7 
REMARK    2  A    between atoms: C7_7  and  C8_8 
ROOT
HETATM    1  C1  UNL     1     -34.221  16.307  -1.790  1.00 20.00     0.059 C 
HETATM    2  C6  UNL     1     -33.466  15.876  -2.979  1.00 20.00     0.129 C 
HETATM    3  N9  UNL     1     -34.813  16.647  -0.851  1.00 20.00    -0.197 NA
ENDROOT
BRANCH   2   4
HETATM    4  C7  UNL     1     -34.308  15.982  -4.275  1.00 20.00     0.002 C 
HETATM    5  C2  UNL     1     -33.479  16.693  -5.365  1.00 20.00     0.011 C 
BRANCH   4   6
HETATM    6  C8  UNL     1     -34.890  14.594  -4.745  1.00 20.00    -0.047 C 
HETATM    7  C3  UNL     1     -36.307  14.337  -4.197  1.00 20.00     0.015 C 
HETATM    8  C4  UNL     1     -33.973  13.442  -4.275  1.00 20.00     0.015 C 
HETATM    9  C5  UNL     1     -34.949  14.519  -6.287  1.00 20.00     0.015 C 
ENDBRANCH   4   6
ENDBRANCH   2   4
TORSDOF 2
ENDMDL
