MODEL 1
REMARK VINA RESULT:      -3.8      0.000      0.000
REMARK  1 active torsions:
REMARK  status: ('A' for Active; 'I' for Inactive)
REMARK    1  A    between atoms: C1_1  and  C5_5 
ROOT
HETATM    1  C2  UNL     1     -33.934  15.983  -2.603  1.00 20.00     0.029 C 
HETATM    2  C3  UNL     1     -33.289  15.786  -3.956  1.00 20.00     0.047 C 
HETATM    3  C4  UNL     1     -35.398  16.093  -2.967  1.00 20.00     0.169 C 
HETATM    4  C5  UNL     1     -34.325  14.945  -4.690  1.00 20.00     0.110 C 
HETATM    5  C6  UNL     1     -34.361  15.209  -6.187  1.00 20.00     0.053 C 
HETATM    6  O8  UNL     1     -35.601  15.250  -4.111  1.00 20.00    -0.373 OA
ENDROOT
BRANCH   4   7
HETATM    7  C1  UNL     1     -34.112  13.475  -4.460  1.00 20.00     0.268 C 
HETATM    8  O7  UNL     1     -35.029  12.665  -4.380  1.00 20.00    -0.304 OA
ENDBRANCH   4   7
TORSDOF 1
ENDMDL
MODEL 2
REMARK VINA RESULT:      -3.6      1.380      2.974
REMARK  1 active torsions:
REMARK  status: ('A' for Active; 'I' for Inactive)
REMARK    1  A    between atoms: C1_1  and  C5_5 
ROOT
HETATM    1  C2  UNL     1     -34.829  14.355  -5.954  1.00 20.00     0.029 C 
HETATM    2  C3  UNL     1     -34.786  15.554  -5.035  1.00 20.00     0.047 C 
HETATM    3  C4  UNL     1     -34.534  13.219  -5.000  1.00 20.00     0.169 C 
HETATM    4  C5  UNL     1     -35.374  14.996  -3.746  1.00 20.00     0.110 C 
HETATM    5  C6  UNL     1     -34.801  15.643  -2.495  1.00 20.00     0.053 C 
HETATM    6  O8  UNL     1     -35.102  13.589  -3.734  1.00 20.00    -0.373 OA
ENDROOT
BRANCH   4   7
HETATM    7  C1  UNL     1     -36.872  15.123  -3.717  1.00 20.00     0.268 C 
HETATM    8  O7  UNL     1     -37.631  14.160  -3.722  1.00 20.00    -0.304 OA
ENDBRANCH   4   7
TORSDOF 1
ENDMDL
MODEL 3
REMARK VINA RESULT:      -3.6      1.520      2.943
REMARK  1 active torsions:
REMARK  status: ('A' for Active; 'I' for Inactive)
REMARK    1  A    between atoms: C1_1  and  C5_5 
ROOT
HETATM    1  C2  UNL     1     -34.532  13.429  -4.551  1.00 20.00     0.029 C 
HETATM    2  C3  UNL     1     -33.736  14.125  -3.472  1.00 20.00     0.047 C 
HETATM    3  C4  UNL     1     -35.933  13.926  -4.277  1.00 20.00     0.169 C 
HETATM    4  C5  UNL     1     -34.444  15.469  -3.363  1.00 20.00     0.110 C 
HETATM    5  C6  UNL     1     -34.410  16.054  -1.960  1.00 20.00     0.053 C 
HETATM    6  O8  UNL     1     -35.803  15.263  -3.770  1.00 20.00    -0.373 OA
ENDROOT
BRANCH   4   7
HETATM    7  C1  UNL     1     -33.877  16.476  -4.324  1.00 20.00     0.268 C 
HETATM    8  O7  UNL     1     -32.787  16.349  -4.870  1.00 20.00    -0.304 OA
ENDBRANCH   4   7
TORSDOF 1
ENDMDL
MODEL 4
REMARK VINA RESULT:      -3.6      1.271      2.508
REMARK  1 active torsions:
REMARK  status: ('A' for Active; 'I' for Inactive)
REMARK    1  A    between atoms: C1_1  and  C5_5 
ROOT
HETATM    1  C2  UNL     1     -34.425  15.818  -6.034  1.00 20.00     0.029 C 
HETATM    2  C3  UNL     1     -35.365  15.527  -4.887  1.00 20.00     0.047 C 
HETATM    3  C4  UNL     1     -33.258  16.468  -5.326  1.00 20.00     0.169 C 
HETATM    4  C5  UNL     1     -34.403  15.172  -3.762  1.00 20.00     0.110 C 
HETATM    5  C6  UNL     1     -34.918  15.562  -2.385  1.00 20.00     0.053 C 
HETATM    6  O8  UNL     1     -33.171  15.854  -4.031  1.00 20.00    -0.373 OA
ENDROOT
BRANCH   4   7
HETATM    7  C1  UNL     1     -34.067  13.707  -3.758  1.00 20.00     0.268 C 
HETATM    8  O7  UNL     1     -34.841  12.835  -4.138  1.00 20.00    -0.304 OA
ENDBRANCH   4   7
TORSDOF 1
ENDMDL
MODEL 5
REMARK VINA RESULT:      -3.5     12.116     13.218
REMARK  1 active torsions:
REMARK  status: ('A' for Active; 'I' for Inactive)
REMARK    1  A    between atoms: C1_1  and  C5_5 
ROOT
HETATM    1  C2  UNL     1     -34.510   5.609   2.823  1.00 20.00     0.029 C 
HETATM    2  C3  UNL     1     -35.215   5.973   4.109  1.00 20.00     0.047 C 
HETATM    3  C4  UNL     1     -33.086   6.021   3.119  1.00 20.00     0.169 C 
HETATM    4  C5  UNL     1     -34.157   5.661   5.158  1.00 20.00     0.110 C 
HETATM    5  C6  UNL     1     -34.233   6.569   6.376  1.00 20.00     0.053 C 
HETATM    6  O8  UNL     1     -32.880   5.805   4.524  1.00 20.00    -0.373 OA
ENDROOT
BRANCH   4   7
HETATM    7  C1  UNL     1     -34.229   4.231   5.614  1.00 20.00     0.268 C 
HETATM    8  O7  UNL     1     -35.101   3.449   5.250  1.00 20.00    -0.304 OA
ENDBRANCH   4   7
TORSDOF 1
ENDMDL
MODEL 6
REMARK VINA RESULT:      -3.5      1.323      1.892
REMARK  1 active torsions:
REMARK  status: ('A' for Active; 'I' for Inactive)
REMARK    1  A    between atoms: C1_1  and  C5_5 
ROOT
HETATM    1  C2  UNL     1     -35.096  16.690  -3.478  1.00 20.00     0.029 C 
HETATM    2  C3  UNL     1     -34.481  15.554  -2.694  1.00 20.00     0.047 C 
HETATM    3  C4  UNL     1     -34.231  16.720  -4.717  1.00 20.00     0.169 C 
HETATM    4  C5  UNL     1     -34.072  14.585  -3.794  1.00 20.00     0.110 C 
HETATM    5  C6  UNL     1     -32.830  13.778  -3.453  1.00 20.00     0.053 C 
HETATM    6  O8  UNL     1     -33.836  15.364  -4.975  1.00 20.00    -0.373 OA
ENDROOT
BRANCH   4   7
HETATM    7  C1  UNL     1     -35.186  13.638  -4.145  1.00 20.00     0.268 C 
HETATM    8  O7  UNL     1     -35.005  12.557  -4.694  1.00 20.00    -0.304 OA
ENDBRANCH   4   7
TORSDOF 1
ENDMDL
MODEL 7
REMARK VINA RESULT:      -3.5      1.693      2.348
REMARK  1 active torsions:
REMARK  status: ('A' for Active; 'I' for Inactive)
REMARK    1  A    between atoms: C1_1  and  C5_5 
ROOT
HETATM    1  C2  UNL     1     -33.959  13.760  -3.604  1.00 20.00     0.029 C 
HETATM    2  C3  UNL     1     -34.865  13.329  -4.734  1.00 20.00     0.047 C 
HETATM    3  C4  UNL     1     -33.493  15.118  -4.078  1.00 20.00     0.169 C 
HETATM    4  C5  UNL     1     -35.504  14.644  -5.157  1.00 20.00     0.110 C 
HETATM    5  C6  UNL     1     -35.833  14.702  -6.641  1.00 20.00     0.053 C 
HETATM    6  O8  UNL     1     -34.579  15.688  -4.824  1.00 20.00    -0.373 OA
ENDROOT
BRANCH   4   7
HETATM    7  C1  UNL     1     -36.751  14.937  -4.371  1.00 20.00     0.268 C 
HETATM    8  O7  UNL     1     -37.429  14.068  -3.833  1.00 20.00    -0.304 OA
ENDBRANCH   4   7
TORSDOF 1
ENDMDL
MODEL 8
REMARK VINA RESULT:      -3.4      1.587      2.076
REMARK  1 active torsions:
REMARK  status: ('A' for Active; 'I' for Inactive)
REMARK    1  A    between atoms: C1_1  and  C5_5 
ROOT
HETATM    1  C2  UNL     1     -33.837  16.372  -3.072  1.00 20.00     0.029 C 
HETATM    2  C3  UNL     1     -34.229  14.921  -2.910  1.00 20.00     0.047 C 
HETATM    3  C4  UNL     1     -33.568  16.460  -4.557  1.00 20.00     0.169 C 
HETATM    4  C5  UNL     1     -34.986  14.645  -4.201  1.00 20.00     0.110 C 
HETATM    5  C6  UNL     1     -34.847  13.209  -4.683  1.00 20.00     0.053 C 
HETATM    6  O8  UNL     1     -34.471  15.542  -5.193  1.00 20.00    -0.373 OA
ENDROOT
BRANCH   4   7
HETATM    7  C1  UNL     1     -36.447  14.974  -4.071  1.00 20.00     0.268 C 
HETATM    8  O7  UNL     1     -37.302  14.147  -3.776  1.00 20.00    -0.304 OA
ENDBRANCH   4   7
TORSDOF 1
ENDMDL
MODEL 9
REMARK VINA RESULT:      -3.4     11.731     12.830
REMARK  1 active torsions:
REMARK  status: ('A' for Active; 'I' for Inactive)
REMARK    1  A    between atoms: C1_1  and  C5_5 
ROOT
HETATM    1  C2  UNL     1     -42.187   5.758   0.372  1.00 20.00     0.029 C 
HETATM    2  C3  UNL     1     -42.605   4.531  -0.405  1.00 20.00     0.047 C 
HETATM    3  C4  UNL     1     -40.794   6.006  -0.160  1.00 20.00     0.169 C 
HETATM    4  C5  UNL     1     -41.952   4.768  -1.760  1.00 20.00     0.110 C 
HETATM    5  C6  UNL     1     -41.540   3.482  -2.461  1.00 20.00     0.053 C 
HETATM    6  O8  UNL     1     -40.799   5.589  -1.533  1.00 20.00    -0.373 OA
ENDROOT
BRANCH   4   7
HETATM    7  C1  UNL     1     -42.842   5.558  -2.677  1.00 20.00     0.268 C 
HETATM    8  O7  UNL     1     -43.400   5.076  -3.657  1.00 20.00    -0.304 OA
ENDBRANCH   4   7
TORSDOF 1
ENDMDL
