MODEL 1
REMARK VINA RESULT:      -5.0      0.000      0.000
REMARK  3 active torsions:
REMARK  status: ('A' for Active; 'I' for Inactive)
REMARK    1  A    between atoms: C3_3  and  C8_8 
REMARK    2  A    between atoms: C3_3  and  O10_10 
REMARK    3  A    between atoms: C6_6  and  C8_8 
ROOT
HETATM    1  C1  UNL     1     -34.410   6.063   6.215  1.00 20.00    -0.026 C 
HETATM    2  C2  UNL     1     -33.495   6.677   5.457  1.00 20.00    -0.025 C 
HETATM    3  C4  UNL     1     -34.758   5.304   4.005  1.00 20.00     0.017 C 
HETATM    4  C5  UNL     1     -35.140   4.994   5.461  1.00 20.00     0.004 C 
HETATM    5  C6  UNL     1     -33.453   6.114   4.070  1.00 20.00     0.018 C 
HETATM    6  C7  UNL     1     -34.709   3.599   5.899  1.00 20.00     0.014 C 
ENDROOT
BRANCH   5   7
HETATM    7  C8  UNL     1     -33.384   7.184   2.991  1.00 20.00     0.118 C 
BRANCH   7   8
HETATM    8  C3  UNL     1     -31.986   7.722   2.822  1.00 20.00     0.140 C 
HETATM    9  O9  UNL     1     -31.092   7.682   3.652  1.00 20.00    -0.650 OA
BRANCH   8  10
HETATM   10  O10 UNL     1     -31.849   8.274   1.589  1.00 20.00    -0.776 OA
HETATM   11  H22 UNL     1     -31.248   7.748   1.018  1.00 20.00     0.167 HD
ENDBRANCH   8  10
ENDBRANCH   7   8
ENDBRANCH   5   7
TORSDOF 3
ENDMDL
MODEL 2
REMARK VINA RESULT:      -5.0     10.940     12.283
REMARK  3 active torsions:
REMARK  status: ('A' for Active; 'I' for Inactive)
REMARK    1  A    between atoms: C3_3  and  C8_8 
REMARK    2  A    between atoms: C3_3  and  O10_10 
REMARK    3  A    between atoms: C6_6  and  C8_8 
ROOT
HETATM    1  C1  UNL     1     -33.785  18.054  -2.863  1.00 20.00    -0.026 C 
HETATM    2  C2  UNL     1     -33.732  16.895  -3.529  1.00 20.00    -0.025 C 
HETATM    3  C4  UNL     1     -34.844  16.448  -1.491  1.00 20.00     0.017 C 
HETATM    4  C5  UNL     1     -34.271  17.873  -1.458  1.00 20.00     0.004 C 
HETATM    5  C6  UNL     1     -34.162  15.743  -2.676  1.00 20.00     0.018 C 
HETATM    6  C7  UNL     1     -33.142  18.030  -0.445  1.00 20.00     0.014 C 
ENDROOT
BRANCH   5   7
HETATM    7  C8  UNL     1     -35.100  14.783  -3.394  1.00 20.00     0.118 C 
BRANCH   7   8
HETATM    8  C3  UNL     1     -34.409  13.498  -3.769  1.00 20.00     0.140 C 
HETATM    9  O9  UNL     1     -33.207  13.287  -3.734  1.00 20.00    -0.650 OA
BRANCH   8  10
HETATM   10  O10 UNL     1     -35.326  12.578  -4.165  1.00 20.00    -0.776 OA
HETATM   11  H22 UNL     1     -35.644  12.749  -5.077  1.00 20.00     0.167 HD
ENDBRANCH   8  10
ENDBRANCH   7   8
ENDBRANCH   5   7
TORSDOF 3
ENDMDL
MODEL 3
REMARK VINA RESULT:      -4.7     11.161     12.278
REMARK  3 active torsions:
REMARK  status: ('A' for Active; 'I' for Inactive)
REMARK    1  A    between atoms: C3_3  and  C8_8 
REMARK    2  A    between atoms: C3_3  and  O10_10 
REMARK    3  A    between atoms: C6_6  and  C8_8 
ROOT
HETATM    1  C1  UNL     1     -35.037  16.110  -1.886  1.00 20.00    -0.026 C 
HETATM    2  C2  UNL     1     -35.596  15.587  -2.982  1.00 20.00    -0.025 C 
HETATM    3  C4  UNL     1     -33.410  16.244  -3.593  1.00 20.00     0.017 C 
HETATM    4  C5  UNL     1     -33.724  16.767  -2.183  1.00 20.00     0.004 C 
HETATM    5  C6  UNL     1     -34.756  15.817  -4.199  1.00 20.00     0.018 C 
HETATM    6  C7  UNL     1     -33.828  18.287  -2.129  1.00 20.00     0.014 C 
ENDROOT
BRANCH   5   7
HETATM    7  C8  UNL     1     -34.628  14.583  -5.081  1.00 20.00     0.118 C 
BRANCH   7   8
HETATM    8  C3  UNL     1     -34.298  13.351  -4.279  1.00 20.00     0.140 C 
HETATM    9  O9  UNL     1     -33.224  13.095  -3.758  1.00 20.00    -0.650 OA
BRANCH   8  10
HETATM   10  O10 UNL     1     -35.383  12.539  -4.210  1.00 20.00    -0.776 OA
HETATM   11  H22 UNL     1     -36.053  12.876  -3.577  1.00 20.00     0.167 HD
ENDBRANCH   8  10
ENDBRANCH   7   8
ENDBRANCH   5   7
TORSDOF 3
ENDMDL
MODEL 4
REMARK VINA RESULT:      -4.7      0.911      1.810
REMARK  3 active torsions:
REMARK  status: ('A' for Active; 'I' for Inactive)
REMARK    1  A    between atoms: C3_3  and  C8_8 
REMARK    2  A    between atoms: C3_3  and  O10_10 
REMARK    3  A    between atoms: C6_6  and  C8_8 
ROOT
HETATM    1  C1  UNL     1     -35.560   4.845   4.244  1.00 20.00    -0.026 C 
HETATM    2  C2  UNL     1     -34.974   5.747   3.448  1.00 20.00    -0.025 C 
HETATM    3  C4  UNL     1     -33.340   5.077   5.020  1.00 20.00     0.017 C 
HETATM    4  C5  UNL     1     -34.705   4.495   5.422  1.00 20.00     0.004 C 
HETATM    5  C6  UNL     1     -33.633   6.160   3.969  1.00 20.00     0.018 C 
HETATM    6  C7  UNL     1     -35.245   5.101   6.712  1.00 20.00     0.014 C 
ENDROOT
BRANCH   5   7
HETATM    7  C8  UNL     1     -32.563   6.220   2.888  1.00 20.00     0.118 C 
BRANCH   7   8
HETATM    8  C3  UNL     1     -31.967   7.598   2.763  1.00 20.00     0.140 C 
HETATM    9  O9  UNL     1     -32.104   8.362   1.820  1.00 20.00    -0.650 OA
BRANCH   8  10
HETATM   10  O10 UNL     1     -31.235   7.888   3.869  1.00 20.00    -0.776 OA
HETATM   11  H22 UNL     1     -30.940   8.824   3.877  1.00 20.00     0.167 HD
ENDBRANCH   8  10
ENDBRANCH   7   8
ENDBRANCH   5   7
TORSDOF 3
ENDMDL
MODEL 5
REMARK VINA RESULT:      -4.6     11.352     12.729
REMARK  3 active torsions:
REMARK  status: ('A' for Active; 'I' for Inactive)
REMARK    1  A    between atoms: C3_3  and  C8_8 
REMARK    2  A    between atoms: C3_3  and  O10_10 
REMARK    3  A    between atoms: C6_6  and  C8_8 
ROOT
HETATM    1  C1  UNL     1     -34.112  17.238  -1.521  1.00 20.00    -0.026 C 
HETATM    2  C2  UNL     1     -34.528  15.992  -1.772  1.00 20.00    -0.025 C 
HETATM    3  C4  UNL     1     -33.657  16.831  -3.803  1.00 20.00     0.017 C 
HETATM    4  C5  UNL     1     -33.735  17.969  -2.773  1.00 20.00     0.004 C 
HETATM    5  C6  UNL     1     -34.510  15.685  -3.237  1.00 20.00     0.018 C 
HETATM    6  C7  UNL     1     -34.769  19.027  -3.142  1.00 20.00     0.014 C 
ENDROOT
BRANCH   5   7
HETATM    7  C8  UNL     1     -33.924  14.317  -3.555  1.00 20.00     0.118 C 
BRANCH   7   8
HETATM    8  C3  UNL     1     -34.704  13.607  -4.632  1.00 20.00     0.140 C 
HETATM    9  O9  UNL     1     -34.747  13.913  -5.813  1.00 20.00    -0.650 OA
BRANCH   8  10
HETATM   10  O10 UNL     1     -35.372  12.552  -4.100  1.00 20.00    -0.776 OA
HETATM   11  H22 UNL     1     -35.051  11.698  -4.458  1.00 20.00     0.167 HD
ENDBRANCH   8  10
ENDBRANCH   7   8
ENDBRANCH   5   7
TORSDOF 3
ENDMDL
MODEL 6
REMARK VINA RESULT:      -4.6     11.190     12.547
REMARK  3 active torsions:
REMARK  status: ('A' for Active; 'I' for Inactive)
REMARK    1  A    between atoms: C3_3  and  C8_8 
REMARK    2  A    between atoms: C3_3  and  O10_10 
REMARK    3  A    between atoms: C6_6  and  C8_8 
ROOT
HETATM    1  C1  UNL     1     -33.861  17.148  -4.216  1.00 20.00    -0.026 C 
HETATM    2  C2  UNL     1     -33.084  16.082  -4.433  1.00 20.00    -0.025 C 
HETATM    3  C4  UNL     1     -34.522  15.509  -2.647  1.00 20.00     0.017 C 
HETATM    4  C5  UNL     1     -34.674  17.005  -2.966  1.00 20.00     0.004 C 
HETATM    5  C6  UNL     1     -33.239  15.051  -3.359  1.00 20.00     0.018 C 
HETATM    6  C7  UNL     1     -34.155  17.901  -1.848  1.00 20.00     0.014 C 
ENDROOT
BRANCH   5   7
HETATM    7  C8  UNL     1     -33.354  13.634  -3.900  1.00 20.00     0.118 C 
BRANCH   7   8
HETATM    8  C3  UNL     1     -34.608  13.443  -4.714  1.00 20.00     0.140 C 
HETATM    9  O9  UNL     1     -34.859  13.965  -5.788  1.00 20.00    -0.650 OA
BRANCH   8  10
HETATM   10  O10 UNL     1     -35.447  12.588  -4.075  1.00 20.00    -0.776 OA
HETATM   11  H22 UNL     1     -36.335  12.567  -4.493  1.00 20.00     0.167 HD
ENDBRANCH   8  10
ENDBRANCH   7   8
ENDBRANCH   5   7
TORSDOF 3
ENDMDL
MODEL 7
REMARK VINA RESULT:      -4.4     11.109     13.405
REMARK  3 active torsions:
REMARK  status: ('A' for Active; 'I' for Inactive)
REMARK    1  A    between atoms: C3_3  and  C8_8 
REMARK    2  A    between atoms: C3_3  and  O10_10 
REMARK    3  A    between atoms: C6_6  and  C8_8 
ROOT
HETATM    1  C1  UNL     1     -33.429  16.976  -5.507  1.00 20.00    -0.026 C 
HETATM    2  C2  UNL     1     -34.050  16.749  -4.344  1.00 20.00    -0.025 C 
HETATM    3  C4  UNL     1     -34.918  15.181  -5.885  1.00 20.00     0.017 C 
HETATM    4  C5  UNL     1     -34.039  16.197  -6.631  1.00 20.00     0.004 C 
HETATM    5  C6  UNL     1     -35.188  15.788  -4.499  1.00 20.00     0.018 C 
HETATM    6  C7  UNL     1     -34.841  17.092  -7.569  1.00 20.00     0.014 C 
ENDROOT
BRANCH   5   7
HETATM    7  C8  UNL     1     -35.232  14.732  -3.405  1.00 20.00     0.118 C 
BRANCH   7   8
HETATM    8  C3  UNL     1     -34.477  13.487  -3.793  1.00 20.00     0.140 C 
HETATM    9  O9  UNL     1     -33.265  13.342  -3.775  1.00 20.00    -0.650 OA
BRANCH   8  10
HETATM   10  O10 UNL     1     -35.348  12.519  -4.178  1.00 20.00    -0.776 OA
HETATM   11  H22 UNL     1     -35.974  12.842  -4.861  1.00 20.00     0.167 HD
ENDBRANCH   8  10
ENDBRANCH   7   8
ENDBRANCH   5   7
TORSDOF 3
ENDMDL
MODEL 8
REMARK VINA RESULT:      -4.4      2.969      4.307
REMARK  3 active torsions:
REMARK  status: ('A' for Active; 'I' for Inactive)
REMARK    1  A    between atoms: C3_3  and  C8_8 
REMARK    2  A    between atoms: C3_3  and  O10_10 
REMARK    3  A    between atoms: C6_6  and  C8_8 
ROOT
HETATM    1  C1  UNL     1     -32.437   6.868   4.510  1.00 20.00    -0.026 C 
HETATM    2  C2  UNL     1     -33.695   6.662   4.916  1.00 20.00    -0.025 C 
HETATM    3  C4  UNL     1     -33.546   5.788   2.724  1.00 20.00     0.017 C 
HETATM    4  C5  UNL     1     -32.258   6.559   3.055  1.00 20.00     0.004 C 
HETATM    5  C6  UNL     1     -34.571   6.191   3.796  1.00 20.00     0.018 C 
HETATM    6  C7  UNL     1     -32.102   7.827   2.224  1.00 20.00     0.014 C 
ENDROOT
BRANCH   5   7
HETATM    7  C8  UNL     1     -35.479   5.036   4.191  1.00 20.00     0.118 C 
BRANCH   7   8
HETATM    8  C3  UNL     1     -35.096   4.451   5.526  1.00 20.00     0.140 C 
HETATM    9  O9  UNL     1     -35.285   4.960   6.619  1.00 20.00    -0.650 OA
BRANCH   8  10
HETATM   10  O10 UNL     1     -34.494   3.247   5.348  1.00 20.00    -0.776 OA
HETATM   11  H22 UNL     1     -35.144   2.512   5.332  1.00 20.00     0.167 HD
ENDBRANCH   8  10
ENDBRANCH   7   8
ENDBRANCH   5   7
TORSDOF 3
ENDMDL
MODEL 9
REMARK VINA RESULT:      -4.4      2.776      4.479
REMARK  3 active torsions:
REMARK  status: ('A' for Active; 'I' for Inactive)
REMARK    1  A    between atoms: C3_3  and  C8_8 
REMARK    2  A    between atoms: C3_3  and  O10_10 
REMARK    3  A    between atoms: C6_6  and  C8_8 
ROOT
HETATM    1  C1  UNL     1     -31.453   7.705   4.059  1.00 20.00    -0.026 C 
HETATM    2  C2  UNL     1     -32.419   7.399   4.932  1.00 20.00    -0.025 C 
HETATM    3  C4  UNL     1     -32.911   6.218   2.944  1.00 20.00     0.017 C 
HETATM    4  C5  UNL     1     -31.756   7.197   2.683  1.00 20.00     0.004 C 
HETATM    5  C6  UNL     1     -33.537   6.645   4.282  1.00 20.00     0.018 C 
HETATM    6  C7  UNL     1     -32.146   8.327   1.737  1.00 20.00     0.014 C 
ENDROOT
BRANCH   5   7
HETATM    7  C8  UNL     1     -34.013   5.455   5.103  1.00 20.00     0.118 C 
BRANCH   7   8
HETATM    8  C3  UNL     1     -35.286   4.866   4.553  1.00 20.00     0.140 C 
HETATM    9  O9  UNL     1     -36.050   5.403   3.766  1.00 20.00    -0.650 OA
BRANCH   8  10
HETATM   10  O10 UNL     1     -35.479   3.622   5.063  1.00 20.00    -0.776 OA
HETATM   11  H22 UNL     1     -34.832   2.977   4.705  1.00 20.00     0.167 HD
ENDBRANCH   8  10
ENDBRANCH   7   8
ENDBRANCH   5   7
TORSDOF 3
ENDMDL
