MODEL 1
REMARK VINA RESULT:      -4.0      0.000      0.000
REMARK  2 active torsions:
REMARK  status: ('A' for Active; 'I' for Inactive)
REMARK    1  A    between atoms: C1_1  and  C2_2 
REMARK    2  A    between atoms: C3_3  and  C7_7 
ROOT
HETATM    1  C1  UNL     1     -34.524  14.592  -3.288  1.00 20.00     0.061 C 
HETATM    2  C3  UNL     1     -34.191  15.891  -3.389  1.00 20.00     0.022 C 
HETATM    3 CL9  UNL     1     -33.170  16.443  -4.700  1.00 20.00    -0.088 Cl
ENDROOT
BRANCH   2   4
HETATM    4  C7  UNL     1     -34.641  16.998  -2.414  1.00 20.00    -0.013 C 
HETATM    5  C4  UNL     1     -36.100  17.411  -2.710  1.00 20.00     0.020 C 
HETATM    6  C5  UNL     1     -34.592  16.561  -0.930  1.00 20.00     0.020 C 
HETATM    7  C6  UNL     1     -33.726  18.235  -2.547  1.00 20.00     0.020 C 
ENDBRANCH   2   4
BRANCH   1   8
HETATM    8  C2  UNL     1     -34.096  13.519  -4.218  1.00 20.00     0.260 C 
HETATM    9  O8  UNL     1     -34.867  12.637  -4.578  1.00 20.00    -0.302 OA
ENDBRANCH   1   8
TORSDOF 2
ENDMDL
MODEL 2
REMARK VINA RESULT:      -3.9      2.443      3.046
REMARK  2 active torsions:
REMARK  status: ('A' for Active; 'I' for Inactive)
REMARK    1  A    between atoms: C1_1  and  C2_2 
REMARK    2  A    between atoms: C3_3  and  C7_7 
ROOT
HETATM    1  C1  UNL     1     -36.309  15.558  -4.093  1.00 20.00     0.061 C 
HETATM    2  C3  UNL     1     -35.129  14.915  -4.039  1.00 20.00     0.022 C 
HETATM    3 CL9  UNL     1     -35.040  13.200  -4.381  1.00 20.00    -0.088 Cl
ENDROOT
BRANCH   2   4
HETATM    4  C7  UNL     1     -33.779  15.572  -3.686  1.00 20.00    -0.013 C 
HETATM    5  C4  UNL     1     -33.882  16.314  -2.335  1.00 20.00     0.020 C 
HETATM    6  C5  UNL     1     -32.622  14.553  -3.550  1.00 20.00     0.020 C 
HETATM    7  C6  UNL     1     -33.367  16.574  -4.786  1.00 20.00     0.020 C 
ENDBRANCH   2   4
BRANCH   1   8
HETATM    8  C2  UNL     1     -37.613  14.937  -4.430  1.00 20.00     0.260 C 
HETATM    9  O8  UNL     1     -38.213  14.229  -3.630  1.00 20.00    -0.302 OA
ENDBRANCH   1   8
TORSDOF 2
ENDMDL
MODEL 3
REMARK VINA RESULT:      -3.9      2.421      3.046
REMARK  2 active torsions:
REMARK  status: ('A' for Active; 'I' for Inactive)
REMARK    1  A    between atoms: C1_1  and  C2_2 
REMARK    2  A    between atoms: C3_3  and  C7_7 
ROOT
HETATM    1  C1  UNL     1     -36.301  15.561  -4.054  1.00 20.00     0.061 C 
HETATM    2  C3  UNL     1     -35.109  14.940  -4.005  1.00 20.00     0.022 C 
HETATM    3 CL9  UNL     1     -34.985  13.234  -4.378  1.00 20.00    -0.088 Cl
ENDROOT
BRANCH   2   4
HETATM    4  C7  UNL     1     -33.775  15.616  -3.632  1.00 20.00    -0.013 C 
HETATM    5  C4  UNL     1     -33.388  16.661  -4.701  1.00 20.00     0.020 C 
HETATM    6  C5  UNL     1     -33.826  16.361  -2.276  1.00 20.00     0.020 C 
HETATM    7  C6  UNL     1     -32.652  14.562  -3.522  1.00 20.00     0.020 C 
ENDBRANCH   2   4
BRANCH   1   8
HETATM    8  C2  UNL     1     -37.592  14.921  -4.409  1.00 20.00     0.260 C 
HETATM    9  O8  UNL     1     -38.212  14.236  -3.604  1.00 20.00    -0.302 OA
ENDBRANCH   1   8
TORSDOF 2
ENDMDL
MODEL 4
REMARK VINA RESULT:      -3.9     12.033     12.986
REMARK  2 active torsions:
REMARK  status: ('A' for Active; 'I' for Inactive)
REMARK    1  A    between atoms: C1_1  and  C2_2 
REMARK    2  A    between atoms: C3_3  and  C7_7 
ROOT
HETATM    1  C1  UNL     1     -32.991   6.242   3.622  1.00 20.00     0.061 C 
HETATM    2  C3  UNL     1     -33.629   6.079   4.795  1.00 20.00     0.022 C 
HETATM    3 CL9  UNL     1     -33.191   7.053   6.182  1.00 20.00    -0.088 Cl
ENDROOT
BRANCH   2   4
HETATM    4  C7  UNL     1     -34.763   5.066   5.051  1.00 20.00    -0.013 C 
HETATM    5  C4  UNL     1     -35.940   5.325   4.085  1.00 20.00     0.020 C 
HETATM    6  C5  UNL     1     -34.326   3.595   4.843  1.00 20.00     0.020 C 
HETATM    7  C6  UNL     1     -35.266   5.182   6.507  1.00 20.00     0.020 C 
ENDBRANCH   2   4
BRANCH   1   8
HETATM    8  C2  UNL     1     -31.898   7.211   3.363  1.00 20.00     0.260 C 
HETATM    9  O8  UNL     1     -31.928   7.971   2.402  1.00 20.00    -0.302 OA
ENDBRANCH   1   8
TORSDOF 2
ENDMDL
MODEL 5
REMARK VINA RESULT:      -3.8     11.614     12.546
REMARK  2 active torsions:
REMARK  status: ('A' for Active; 'I' for Inactive)
REMARK    1  A    between atoms: C1_1  and  C2_2 
REMARK    2  A    between atoms: C3_3  and  C7_7 
ROOT
HETATM    1  C1  UNL     1     -32.622   6.860   3.971  1.00 20.00     0.061 C 
HETATM    2  C3  UNL     1     -33.535   5.888   3.794  1.00 20.00     0.022 C 
HETATM    3 CL9  UNL     1     -33.740   5.143   2.223  1.00 20.00    -0.088 Cl
ENDROOT
BRANCH   2   4
HETATM    4  C7  UNL     1     -34.466   5.339   4.894  1.00 20.00    -0.013 C 
HETATM    5  C4  UNL     1     -35.928   5.318   4.396  1.00 20.00     0.020 C 
HETATM    6  C5  UNL     1     -34.117   3.892   5.322  1.00 20.00     0.020 C 
HETATM    7  C6  UNL     1     -34.373   6.215   6.162  1.00 20.00     0.020 C 
ENDBRANCH   2   4
BRANCH   1   8
HETATM    8  C2  UNL     1     -31.722   7.397   2.922  1.00 20.00     0.260 C 
HETATM    9  O8  UNL     1     -32.105   8.238   2.116  1.00 20.00    -0.302 OA
ENDBRANCH   1   8
TORSDOF 2
ENDMDL
MODEL 6
REMARK VINA RESULT:      -3.8      2.539      3.941
REMARK  2 active torsions:
REMARK  status: ('A' for Active; 'I' for Inactive)
REMARK    1  A    between atoms: C1_1  and  C2_2 
REMARK    2  A    between atoms: C3_3  and  C7_7 
ROOT
HETATM    1  C1  UNL     1     -35.056  15.976  -2.322  1.00 20.00     0.061 C 
HETATM    2  C3  UNL     1     -34.514  15.298  -3.350  1.00 20.00     0.022 C 
HETATM    3 CL9  UNL     1     -32.775  15.171  -3.505  1.00 20.00    -0.088 Cl
ENDROOT
BRANCH   2   4
HETATM    4  C7  UNL     1     -35.314  14.588  -4.460  1.00 20.00    -0.013 C 
HETATM    5  C4  UNL     1     -35.212  15.378  -5.783  1.00 20.00     0.020 C 
HETATM    6  C5  UNL     1     -34.807  13.154  -4.755  1.00 20.00     0.020 C 
HETATM    7  C6  UNL     1     -36.799  14.463  -4.056  1.00 20.00     0.020 C 
ENDBRANCH   2   4
BRANCH   1   8
HETATM    8  C2  UNL     1     -34.298  16.665  -1.249  1.00 20.00     0.260 C 
HETATM    9  O8  UNL     1     -34.762  16.803  -0.123  1.00 20.00    -0.302 OA
ENDBRANCH   1   8
TORSDOF 2
ENDMDL
MODEL 7
REMARK VINA RESULT:      -3.8      2.570      3.904
REMARK  2 active torsions:
REMARK  status: ('A' for Active; 'I' for Inactive)
REMARK    1  A    between atoms: C1_1  and  C2_2 
REMARK    2  A    between atoms: C3_3  and  C7_7 
ROOT
HETATM    1  C1  UNL     1     -35.095  16.014  -2.235  1.00 20.00     0.061 C 
HETATM    2  C3  UNL     1     -34.588  15.341  -3.283  1.00 20.00     0.022 C 
HETATM    3 CL9  UNL     1     -32.855  15.219  -3.500  1.00 20.00    -0.088 Cl
ENDROOT
BRANCH   2   4
HETATM    4  C7  UNL     1     -35.424  14.632  -4.368  1.00 20.00    -0.013 C 
HETATM    5  C4  UNL     1     -34.922  13.185  -4.569  1.00 20.00     0.020 C 
HETATM    6  C5  UNL     1     -36.928  14.539  -4.014  1.00 20.00     0.020 C 
HETATM    7  C6  UNL     1     -35.324  15.395  -5.706  1.00 20.00     0.020 C 
ENDBRANCH   2   4
BRANCH   1   8
HETATM    8  C2  UNL     1     -34.303  16.701  -1.187  1.00 20.00     0.260 C 
HETATM    9  O8  UNL     1     -34.748  16.881  -0.059  1.00 20.00    -0.302 OA
ENDBRANCH   1   8
TORSDOF 2
ENDMDL
MODEL 8
REMARK VINA RESULT:      -3.7      2.486      3.917
REMARK  2 active torsions:
REMARK  status: ('A' for Active; 'I' for Inactive)
REMARK    1  A    between atoms: C1_1  and  C2_2 
REMARK    2  A    between atoms: C3_3  and  C7_7 
ROOT
HETATM    1  C1  UNL     1     -34.635  15.906  -1.920  1.00 20.00     0.061 C 
HETATM    2  C3  UNL     1     -34.334  15.927  -3.230  1.00 20.00     0.022 C 
HETATM    3 CL9  UNL     1     -33.635  17.361  -3.953  1.00 20.00    -0.088 Cl
ENDROOT
BRANCH   2   4
HETATM    4  C7  UNL     1     -34.555  14.756  -4.208  1.00 20.00    -0.013 C 
HETATM    5  C4  UNL     1     -36.006  14.236  -4.102  1.00 20.00     0.020 C 
HETATM    6  C5  UNL     1     -34.325  15.145  -5.689  1.00 20.00     0.020 C 
HETATM    7  C6  UNL     1     -33.578  13.602  -3.891  1.00 20.00     0.020 C 
ENDBRANCH   2   4
BRANCH   1   8
HETATM    8  C2  UNL     1     -34.429  17.026  -0.970  1.00 20.00     0.260 C 
HETATM    9  O8  UNL     1     -34.889  16.998   0.166  1.00 20.00    -0.302 OA
ENDBRANCH   1   8
TORSDOF 2
ENDMDL
MODEL 9
REMARK VINA RESULT:      -3.7      2.518      3.902
REMARK  2 active torsions:
REMARK  status: ('A' for Active; 'I' for Inactive)
REMARK    1  A    between atoms: C1_1  and  C2_2 
REMARK    2  A    between atoms: C3_3  and  C7_7 
ROOT
HETATM    1  C1  UNL     1     -34.570  15.930  -1.860  1.00 20.00     0.061 C 
HETATM    2  C3  UNL     1     -34.290  15.977  -3.174  1.00 20.00     0.022 C 
HETATM    3 CL9  UNL     1     -33.628  17.434  -3.885  1.00 20.00    -0.088 Cl
ENDROOT
BRANCH   2   4
HETATM    4  C7  UNL     1     -34.506  14.817  -4.167  1.00 20.00    -0.013 C 
HETATM    5  C4  UNL     1     -33.523  13.664  -3.865  1.00 20.00     0.020 C 
HETATM    6  C5  UNL     1     -35.932  14.218  -4.104  1.00 20.00     0.020 C 
HETATM    7  C6  UNL     1     -34.288  15.304  -5.616  1.00 20.00     0.020 C 
ENDBRANCH   2   4
BRANCH   1   8
HETATM    8  C2  UNL     1     -34.368  17.038  -0.896  1.00 20.00     0.260 C 
HETATM    9  O8  UNL     1     -34.928  17.052   0.194  1.00 20.00    -0.302 OA
ENDBRANCH   1   8
TORSDOF 2
ENDMDL
