MODEL 1
REMARK VINA RESULT:      -4.5      0.000      0.000
REMARK  0 active torsions:
REMARK  status: ('A' for Active; 'I' for Inactive)
ROOT
HETATM    1  C1  UNL     1     -33.070   6.228   3.473  1.00 20.00     0.069 C 
HETATM    2  C2  UNL     1     -34.905   3.955   5.877  1.00 20.00     0.002 C 
HETATM    3  C3  UNL     1     -34.976   5.297   6.605  1.00 20.00     0.002 C 
HETATM    4  C4  UNL     1     -34.081   4.199   4.613  1.00 20.00     0.024 C 
HETATM    5  C5  UNL     1     -34.191   6.290   5.748  1.00 20.00     0.024 C 
HETATM    6  C6  UNL     1     -34.217   5.700   4.333  1.00 20.00     0.045 C 
HETATM    7  C7  UNL     1     -35.503   5.996   3.664  1.00 20.00     0.031 C 
HETATM    8  N8  UNL     1     -32.198   6.628   2.820  1.00 20.00    -0.196 NA
ENDROOT
TORSDOF 0
ENDMDL
MODEL 2
REMARK VINA RESULT:      -4.2     12.069     12.971
REMARK  0 active torsions:
REMARK  status: ('A' for Active; 'I' for Inactive)
ROOT
HETATM    1  C1  UNL     1     -37.067  14.529  -3.937  1.00 20.00     0.069 C 
HETATM    2  C2  UNL     1     -33.414  15.299  -3.320  1.00 20.00     0.002 C 
HETATM    3  C3  UNL     1     -33.347  13.851  -3.805  1.00 20.00     0.002 C 
HETATM    4  C4  UNL     1     -34.899  15.661  -3.262  1.00 20.00     0.024 C 
HETATM    5  C5  UNL     1     -34.793  13.405  -4.018  1.00 20.00     0.024 C 
HETATM    6  C6  UNL     1     -35.580  14.701  -4.245  1.00 20.00     0.045 C 
HETATM    7  C7  UNL     1     -35.423  15.176  -5.637  1.00 20.00     0.031 C 
HETATM    8  N8  UNL     1     -38.195  14.397  -3.702  1.00 20.00    -0.196 NA
ENDROOT
TORSDOF 0
ENDMDL
MODEL 3
REMARK VINA RESULT:      -4.1     12.111     13.226
REMARK  0 active torsions:
REMARK  status: ('A' for Active; 'I' for Inactive)
ROOT
HETATM    1  C1  UNL     1     -34.508  13.697  -4.150  1.00 20.00     0.069 C 
HETATM    2  C2  UNL     1     -33.689  17.391  -4.125  1.00 20.00     0.002 C 
HETATM    3  C3  UNL     1     -33.978  17.128  -2.647  1.00 20.00     0.002 C 
HETATM    4  C4  UNL     1     -33.947  16.070  -4.851  1.00 20.00     0.024 C 
HETATM    5  C5  UNL     1     -34.398  15.662  -2.548  1.00 20.00     0.024 C 
HETATM    6  C6  UNL     1     -33.779  14.988  -3.779  1.00 20.00     0.045 C 
HETATM    7  C7  UNL     1     -32.348  14.691  -3.551  1.00 20.00     0.031 C 
HETATM    8  N8  UNL     1     -35.062  12.717  -4.433  1.00 20.00    -0.196 NA
ENDROOT
TORSDOF 0
ENDMDL
MODEL 4
REMARK VINA RESULT:      -4.1     12.344     13.285
REMARK  0 active torsions:
REMARK  status: ('A' for Active; 'I' for Inactive)
ROOT
HETATM    1  C1  UNL     1     -36.825  14.454  -3.964  1.00 20.00     0.069 C 
HETATM    2  C2  UNL     1     -33.549  16.044  -4.993  1.00 20.00     0.002 C 
HETATM    3  C3  UNL     1     -33.288  15.723  -3.521  1.00 20.00     0.002 C 
HETATM    4  C4  UNL     1     -34.997  15.635  -5.268  1.00 20.00     0.024 C 
HETATM    5  C5  UNL     1     -34.589  15.135  -2.975  1.00 20.00     0.024 C 
HETATM    6  C6  UNL     1     -35.321  14.580  -4.203  1.00 20.00     0.045 C 
HETATM    7  C7  UNL     1     -34.776  13.260  -4.588  1.00 20.00     0.031 C 
HETATM    8  N8  UNL     1     -37.967  14.358  -3.782  1.00 20.00    -0.196 NA
ENDROOT
TORSDOF 0
ENDMDL
MODEL 5
REMARK VINA RESULT:      -4.0     12.126     13.150
REMARK  0 active torsions:
REMARK  status: ('A' for Active; 'I' for Inactive)
ROOT
HETATM    1  C1  UNL     1     -36.568  14.758  -3.620  1.00 20.00     0.069 C 
HETATM    2  C2  UNL     1     -32.789  14.840  -3.775  1.00 20.00     0.002 C 
HETATM    3  C3  UNL     1     -33.156  16.132  -4.505  1.00 20.00     0.002 C 
HETATM    4  C4  UNL     1     -34.111  14.154  -3.431  1.00 20.00     0.024 C 
HETATM    5  C5  UNL     1     -34.683  16.168  -4.568  1.00 20.00     0.024 C 
HETATM    6  C6  UNL     1     -35.149  15.282  -3.406  1.00 20.00     0.045 C 
HETATM    7  C7  UNL     1     -35.092  16.021  -2.126  1.00 20.00     0.031 C 
HETATM    8  N8  UNL     1     -37.646  14.359  -3.784  1.00 20.00    -0.196 NA
ENDROOT
TORSDOF 0
ENDMDL
MODEL 6
REMARK VINA RESULT:      -3.9      1.328      2.378
REMARK  0 active torsions:
REMARK  status: ('A' for Active; 'I' for Inactive)
ROOT
HETATM    1  C1  UNL     1     -32.610   7.530   2.645  1.00 20.00     0.069 C 
HETATM    2  C2  UNL     1     -34.329   5.574   5.390  1.00 20.00     0.002 C 
HETATM    3  C3  UNL     1     -35.048   5.056   4.145  1.00 20.00     0.002 C 
HETATM    4  C4  UNL     1     -33.357   6.650   4.904  1.00 20.00     0.024 C 
HETATM    5  C5  UNL     1     -34.478   5.842   2.964  1.00 20.00     0.024 C 
HETATM    6  C6  UNL     1     -33.095   6.313   3.431  1.00 20.00     0.045 C 
HETATM    7  C7  UNL     1     -32.100   5.226   3.309  1.00 20.00     0.031 C 
HETATM    8  N8  UNL     1     -32.243   8.455   2.048  1.00 20.00    -0.196 NA
ENDROOT
TORSDOF 0
ENDMDL
MODEL 7
REMARK VINA RESULT:      -3.9     12.378     12.970
REMARK  0 active torsions:
REMARK  status: ('A' for Active; 'I' for Inactive)
ROOT
HETATM    1  C1  UNL     1     -34.698  13.725  -4.494  1.00 20.00     0.069 C 
HETATM    2  C2  UNL     1     -35.228  16.637  -2.138  1.00 20.00     0.002 C 
HETATM    3  C3  UNL     1     -33.705  16.615  -2.264  1.00 20.00     0.002 C 
HETATM    4  C4  UNL     1     -35.741  15.448  -2.952  1.00 20.00     0.024 C 
HETATM    5  C5  UNL     1     -33.367  15.414  -3.147  1.00 20.00     0.024 C 
HETATM    6  C6  UNL     1     -34.634  15.160  -3.973  1.00 20.00     0.045 C 
HETATM    7  C7  UNL     1     -34.714  16.096  -5.115  1.00 20.00     0.031 C 
HETATM    8  N8  UNL     1     -34.747  12.635  -4.889  1.00 20.00    -0.196 NA
ENDROOT
TORSDOF 0
ENDMDL
MODEL 8
REMARK VINA RESULT:      -3.9      9.034     10.262
REMARK  0 active torsions:
REMARK  status: ('A' for Active; 'I' for Inactive)
ROOT
HETATM    1  C1  UNL     1     -41.698   3.212  -2.664  1.00 20.00     0.069 C 
HETATM    2  C2  UNL     1     -40.818   6.165  -0.469  1.00 20.00     0.002 C 
HETATM    3  C3  UNL     1     -41.778   6.802  -1.472  1.00 20.00     0.002 C 
HETATM    4  C4  UNL     1     -40.650   4.709  -0.904  1.00 20.00     0.024 C 
HETATM    5  C5  UNL     1     -42.147   5.702  -2.468  1.00 20.00     0.024 C 
HETATM    6  C6  UNL     1     -41.913   4.388  -1.712  1.00 20.00     0.045 C 
HETATM    7  C7  UNL     1     -43.049   4.087  -0.815  1.00 20.00     0.031 C 
HETATM    8  N8  UNL     1     -41.534   2.320  -3.387  1.00 20.00    -0.196 NA
ENDROOT
TORSDOF 0
ENDMDL
MODEL 9
REMARK VINA RESULT:      -3.9     11.970     13.030
REMARK  0 active torsions:
REMARK  status: ('A' for Active; 'I' for Inactive)
ROOT
HETATM    1  C1  UNL     1     -34.419  15.764  -2.336  1.00 20.00     0.069 C 
HETATM    2  C2  UNL     1     -34.742  13.384  -5.260  1.00 20.00     0.002 C 
HETATM    3  C3  UNL     1     -34.553  14.724  -5.971  1.00 20.00     0.002 C 
HETATM    4  C4  UNL     1     -34.778  13.698  -3.764  1.00 20.00     0.024 C 
HETATM    5  C5  UNL     1     -34.484  15.785  -4.873  1.00 20.00     0.024 C 
HETATM    6  C6  UNL     1     -34.031  15.028  -3.618  1.00 20.00     0.045 C 
HETATM    7  C7  UNL     1     -32.567  14.814  -3.633  1.00 20.00     0.031 C 
HETATM    8  N8  UNL     1     -34.714  16.323  -1.363  1.00 20.00    -0.196 NA
ENDROOT
TORSDOF 0
ENDMDL
