MODEL 1
REMARK VINA RESULT:      -4.8      0.000      0.000
REMARK  3 active torsions:
REMARK  status: ('A' for Active; 'I' for Inactive)
REMARK    1  A    between atoms: C6_6  and  C7_7 
REMARK    2  A    between atoms: C7_7  and  C8_8 
REMARK    3  A    between atoms: C8_8  and  C9_9 
ROOT
HETATM    1  C1  UNL     1     -36.922  14.651  -3.753  1.00 20.00     0.069 C 
HETATM    2  C2  UNL     1     -34.454  13.255  -4.928  1.00 20.00     0.002 C 
HETATM    3  C3  UNL     1     -34.782  14.358  -5.934  1.00 20.00     0.002 C 
HETATM    4  C4  UNL     1     -34.570  13.891  -3.544  1.00 20.00     0.024 C 
HETATM    5  C5  UNL     1     -35.080  15.611  -5.110  1.00 20.00     0.024 C 
HETATM    6  C6  UNL     1     -35.509  15.088  -3.733  1.00 20.00     0.049 C 
HETATM    7  N10 UNL     1     -38.030  14.308  -3.770  1.00 20.00    -0.196 NA
ENDROOT
BRANCH   6   8
HETATM    8  C7  UNL     1     -35.322  16.140  -2.640  1.00 20.00     0.026 C 
BRANCH   8   9
HETATM    9  C8  UNL     1     -33.844  16.377  -2.346  1.00 20.00     0.017 C 
BRANCH   9  10
HETATM   10  C9  UNL     1     -33.671  17.353  -1.191  1.00 20.00     0.114 C 
HETATM   11 CL11 UNL     1     -34.885  17.043   0.071  1.00 20.00    -0.130 Cl
ENDBRANCH   9  10
ENDBRANCH   8   9
ENDBRANCH   6   8
TORSDOF 3
ENDMDL
MODEL 2
REMARK VINA RESULT:      -4.6      2.092      2.572
REMARK  3 active torsions:
REMARK  status: ('A' for Active; 'I' for Inactive)
REMARK    1  A    between atoms: C6_6  and  C7_7 
REMARK    2  A    between atoms: C7_7  and  C8_8 
REMARK    3  A    between atoms: C8_8  and  C9_9 
ROOT
HETATM    1  C1  UNL     1     -33.890  16.403  -4.737  1.00 20.00     0.069 C 
HETATM    2  C2  UNL     1     -35.649  13.918  -4.350  1.00 20.00     0.002 C 
HETATM    3  C3  UNL     1     -34.228  13.365  -4.457  1.00 20.00     0.002 C 
HETATM    4  C4  UNL     1     -35.567  15.131  -3.424  1.00 20.00     0.024 C 
HETATM    5  C5  UNL     1     -33.353  14.270  -3.590  1.00 20.00     0.024 C 
HETATM    6  C6  UNL     1     -34.111  15.602  -3.513  1.00 20.00     0.049 C 
HETATM    7  N10 UNL     1     -33.717  17.031  -5.697  1.00 20.00    -0.196 NA
ENDROOT
BRANCH   6   8
HETATM    8  C7  UNL     1     -33.699  16.423  -2.292  1.00 20.00     0.026 C 
BRANCH   8   9
HETATM    9  C8  UNL     1     -34.772  16.378  -1.208  1.00 20.00     0.017 C 
BRANCH   9  10
HETATM   10  C9  UNL     1     -34.491  17.410  -0.124  1.00 20.00     0.114 C 
HETATM   11 CL11 UNL     1     -32.964  18.260  -0.458  1.00 20.00    -0.130 Cl
ENDBRANCH   9  10
ENDBRANCH   8   9
ENDBRANCH   6   8
TORSDOF 3
ENDMDL
MODEL 3
REMARK VINA RESULT:      -4.6      1.727      2.502
REMARK  3 active torsions:
REMARK  status: ('A' for Active; 'I' for Inactive)
REMARK    1  A    between atoms: C6_6  and  C7_7 
REMARK    2  A    between atoms: C7_7  and  C8_8 
REMARK    3  A    between atoms: C8_8  and  C9_9 
ROOT
HETATM    1  C1  UNL     1     -34.711  13.697  -5.013  1.00 20.00     0.069 C 
HETATM    2  C2  UNL     1     -35.615  14.825  -7.720  1.00 20.00     0.002 C 
HETATM    3  C3  UNL     1     -36.699  15.273  -6.740  1.00 20.00     0.002 C 
HETATM    4  C4  UNL     1     -34.278  15.081  -7.025  1.00 20.00     0.024 C 
HETATM    5  C5  UNL     1     -35.967  15.780  -5.498  1.00 20.00     0.024 C 
HETATM    6  C6  UNL     1     -34.602  15.079  -5.526  1.00 20.00     0.049 C 
HETATM    7  N10 UNL     1     -34.796  12.612  -4.610  1.00 20.00    -0.196 NA
ENDROOT
BRANCH   6   8
HETATM    8  C7  UNL     1     -33.554  15.838  -4.714  1.00 20.00     0.026 C 
BRANCH   8   9
HETATM    9  C8  UNL     1     -33.698  15.555  -3.222  1.00 20.00     0.017 C 
BRANCH   9  10
HETATM   10  C9  UNL     1     -33.890  16.848  -2.440  1.00 20.00     0.114 C 
HETATM   11 CL11 UNL     1     -34.597  16.509  -0.844  1.00 20.00    -0.130 Cl
ENDBRANCH   9  10
ENDBRANCH   8   9
ENDBRANCH   6   8
TORSDOF 3
ENDMDL
MODEL 4
REMARK VINA RESULT:      -4.5      1.971      2.535
REMARK  3 active torsions:
REMARK  status: ('A' for Active; 'I' for Inactive)
REMARK    1  A    between atoms: C6_6  and  C7_7 
REMARK    2  A    between atoms: C7_7  and  C8_8 
REMARK    3  A    between atoms: C8_8  and  C9_9 
ROOT
HETATM    1  C1  UNL     1     -33.654  14.287  -3.804  1.00 20.00     0.069 C 
HETATM    2  C2  UNL     1     -34.037  16.083  -6.263  1.00 20.00     0.002 C 
HETATM    3  C3  UNL     1     -35.458  15.783  -5.786  1.00 20.00     0.002 C 
HETATM    4  C4  UNL     1     -33.227  16.412  -5.009  1.00 20.00     0.024 C 
HETATM    5  C5  UNL     1     -35.440  15.945  -4.267  1.00 20.00     0.024 C 
HETATM    6  C6  UNL     1     -33.977  15.729  -3.860  1.00 20.00     0.049 C 
HETATM    7  N10 UNL     1     -33.401  13.155  -3.760  1.00 20.00    -0.196 NA
ENDROOT
BRANCH   6   8
HETATM    8  C7  UNL     1     -33.660  16.370  -2.509  1.00 20.00     0.026 C 
BRANCH   8   9
HETATM    9  C8  UNL     1     -34.822  16.211  -1.534  1.00 20.00     0.017 C 
BRANCH   9  10
HETATM   10  C9  UNL     1     -34.629  17.097  -0.311  1.00 20.00     0.114 C 
HETATM   11 CL11 UNL     1     -33.159  18.083  -0.485  1.00 20.00    -0.130 Cl
ENDBRANCH   9  10
ENDBRANCH   8   9
ENDBRANCH   6   8
TORSDOF 3
ENDMDL
MODEL 5
REMARK VINA RESULT:      -4.4     11.163     12.224
REMARK  3 active torsions:
REMARK  status: ('A' for Active; 'I' for Inactive)
REMARK    1  A    between atoms: C6_6  and  C7_7 
REMARK    2  A    between atoms: C7_7  and  C8_8 
REMARK    3  A    between atoms: C8_8  and  C9_9 
ROOT
HETATM    1  C1  UNL     1     -35.640   5.835   3.610  1.00 20.00     0.069 C 
HETATM    2  C2  UNL     1     -34.688   5.628   6.520  1.00 20.00     0.002 C 
HETATM    3  C3  UNL     1     -34.797   4.177   6.051  1.00 20.00     0.002 C 
HETATM    4  C4  UNL     1     -34.003   6.392   5.388  1.00 20.00     0.024 C 
HETATM    5  C5  UNL     1     -34.172   4.131   4.657  1.00 20.00     0.024 C 
HETATM    6  C6  UNL     1     -34.280   5.567   4.126  1.00 20.00     0.049 C 
HETATM    7  N10 UNL     1     -36.707   6.045   3.205  1.00 20.00    -0.196 NA
ENDROOT
BRANCH   6   8
HETATM    8  C7  UNL     1     -33.259   5.846   3.024  1.00 20.00     0.026 C 
BRANCH   8   9
HETATM    9  C8  UNL     1     -32.430   7.087   3.338  1.00 20.00     0.017 C 
BRANCH   9  10
HETATM   10  C9  UNL     1     -31.915   7.733   2.059  1.00 20.00     0.114 C 
HETATM   11 CL11 UNL     1     -32.562   9.382   1.893  1.00 20.00    -0.130 Cl
ENDBRANCH   9  10
ENDBRANCH   8   9
ENDBRANCH   6   8
TORSDOF 3
ENDMDL
MODEL 6
REMARK VINA RESULT:      -4.3      2.025      2.506
REMARK  3 active torsions:
REMARK  status: ('A' for Active; 'I' for Inactive)
REMARK    1  A    between atoms: C6_6  and  C7_7 
REMARK    2  A    between atoms: C7_7  and  C8_8 
REMARK    3  A    between atoms: C8_8  and  C9_9 
ROOT
HETATM    1  C1  UNL     1     -34.259  15.584  -6.022  1.00 20.00     0.069 C 
HETATM    2  C2  UNL     1     -34.777  13.491  -3.838  1.00 20.00     0.002 C 
HETATM    3  C3  UNL     1     -33.273  13.756  -3.763  1.00 20.00     0.002 C 
HETATM    4  C4  UNL     1     -35.446  14.859  -3.968  1.00 20.00     0.024 C 
HETATM    5  C5  UNL     1     -33.104  15.273  -3.849  1.00 20.00     0.024 C 
HETATM    6  C6  UNL     1     -34.368  15.775  -4.559  1.00 20.00     0.049 C 
HETATM    7  N10 UNL     1     -34.174  15.435  -7.169  1.00 20.00    -0.196 NA
ENDROOT
BRANCH   6   8
HETATM    8  C7  UNL     1     -34.642  17.248  -4.261  1.00 20.00     0.026 C 
BRANCH   8   9
HETATM    9  C8  UNL     1     -33.823  17.734  -3.069  1.00 20.00     0.017 C 
BRANCH   9  10
HETATM   10  C9  UNL     1     -34.711  17.939  -1.849  1.00 20.00     0.114 C 
HETATM   11 CL11 UNL     1     -34.654  16.509  -0.794  1.00 20.00    -0.130 Cl
ENDBRANCH   9  10
ENDBRANCH   8   9
ENDBRANCH   6   8
TORSDOF 3
ENDMDL
MODEL 7
REMARK VINA RESULT:      -4.2      2.756      4.159
REMARK  3 active torsions:
REMARK  status: ('A' for Active; 'I' for Inactive)
REMARK    1  A    between atoms: C6_6  and  C7_7 
REMARK    2  A    between atoms: C7_7  and  C8_8 
REMARK    3  A    between atoms: C8_8  and  C9_9 
ROOT
HETATM    1  C1  UNL     1     -34.622  13.831  -4.790  1.00 20.00     0.069 C 
HETATM    2  C2  UNL     1     -35.246  16.195  -2.934  1.00 20.00     0.002 C 
HETATM    3  C3  UNL     1     -33.745  15.962  -2.762  1.00 20.00     0.002 C 
HETATM    4  C4  UNL     1     -35.521  16.115  -4.436  1.00 20.00     0.024 C 
HETATM    5  C5  UNL     1     -33.183  15.754  -4.168  1.00 20.00     0.024 C 
HETATM    6  C6  UNL     1     -34.374  15.273  -5.007  1.00 20.00     0.049 C 
HETATM    7  N10 UNL     1     -34.816  12.700  -4.620  1.00 20.00    -0.196 NA
ENDROOT
BRANCH   6   8
HETATM    8  C7  UNL     1     -34.163  15.530  -6.498  1.00 20.00     0.026 C 
BRANCH   8   9
HETATM    9  C8  UNL     1     -35.200  16.507  -7.044  1.00 20.00     0.017 C 
BRANCH   9  10
HETATM   10  C9  UNL     1     -34.526  17.738  -7.636  1.00 20.00     0.114 C 
HETATM   11 CL11 UNL     1     -33.648  18.632  -6.373  1.00 20.00    -0.130 Cl
ENDBRANCH   9  10
ENDBRANCH   8   9
ENDBRANCH   6   8
TORSDOF 3
ENDMDL
MODEL 8
REMARK VINA RESULT:      -4.2      3.063      4.537
REMARK  3 active torsions:
REMARK  status: ('A' for Active; 'I' for Inactive)
REMARK    1  A    between atoms: C6_6  and  C7_7 
REMARK    2  A    between atoms: C7_7  and  C8_8 
REMARK    3  A    between atoms: C8_8  and  C9_9 
ROOT
HETATM    1  C1  UNL     1     -33.911  14.243  -3.807  1.00 20.00     0.069 C 
HETATM    2  C2  UNL     1     -34.788  16.175  -1.589  1.00 20.00     0.002 C 
HETATM    3  C3  UNL     1     -33.526  16.812  -2.171  1.00 20.00     0.002 C 
HETATM    4  C4  UNL     1     -35.624  15.716  -2.783  1.00 20.00     0.024 C 
HETATM    5  C5  UNL     1     -33.659  16.708  -3.690  1.00 20.00     0.024 C 
HETATM    6  C6  UNL     1     -34.619  15.536  -3.927  1.00 20.00     0.049 C 
HETATM    7  N10 UNL     1     -33.355  13.229  -3.712  1.00 20.00    -0.196 NA
ENDROOT
BRANCH   6   8
HETATM    8  C7  UNL     1     -35.292  15.616  -5.297  1.00 20.00     0.026 C 
BRANCH   8   9
HETATM    9  C8  UNL     1     -34.259  15.653  -6.419  1.00 20.00     0.017 C 
BRANCH   9  10
HETATM   10  C9  UNL     1     -34.712  14.807  -7.601  1.00 20.00     0.114 C 
HETATM   11 CL11 UNL     1     -36.488  14.778  -7.698  1.00 20.00    -0.130 Cl
ENDBRANCH   9  10
ENDBRANCH   8   9
ENDBRANCH   6   8
TORSDOF 3
ENDMDL
MODEL 9
REMARK VINA RESULT:      -4.1     12.695     14.135
REMARK  3 active torsions:
REMARK  status: ('A' for Active; 'I' for Inactive)
REMARK    1  A    between atoms: C6_6  and  C7_7 
REMARK    2  A    between atoms: C7_7  and  C8_8 
REMARK    3  A    between atoms: C8_8  and  C9_9 
ROOT
HETATM    1  C1  UNL     1     -42.816   5.288  -2.790  1.00 20.00     0.069 C 
HETATM    2  C2  UNL     1     -40.850   5.504  -0.443  1.00 20.00     0.002 C 
HETATM    3  C3  UNL     1     -42.229   5.492   0.216  1.00 20.00     0.002 C 
HETATM    4  C4  UNL     1     -40.878   4.413  -1.513  1.00 20.00     0.024 C 
HETATM    5  C5  UNL     1     -43.027   4.393  -0.486  1.00 20.00     0.024 C 
HETATM    6  C6  UNL     1     -42.361   4.233  -1.859  1.00 20.00     0.049 C 
HETATM    7  N10 UNL     1     -43.173   6.116  -3.520  1.00 20.00    -0.196 NA
ENDROOT
BRANCH   6   8
HETATM    8  C7  UNL     1     -42.642   2.862  -2.474  1.00 20.00     0.026 C 
BRANCH   8   9
HETATM    9  C8  UNL     1     -41.467   2.384  -3.320  1.00 20.00     0.017 C 
BRANCH   9  10
HETATM   10  C9  UNL     1     -41.937   1.425  -4.406  1.00 20.00     0.114 C 
HETATM   11 CL11 UNL     1     -41.423  -0.236  -4.031  1.00 20.00    -0.130 Cl
ENDBRANCH   9  10
ENDBRANCH   8   9
ENDBRANCH   6   8
TORSDOF 3
ENDMDL
