MODEL 1
REMARK VINA RESULT:      -3.5      0.000      0.000
REMARK  2 active torsions:
REMARK  status: ('A' for Active; 'I' for Inactive)
REMARK    1  A    between atoms: C3_3  and  C4_4 
REMARK    2  A    between atoms: C3_3  and  O6_6 
ROOT
HETATM    1  C1  UNL     1     -34.832   4.707   4.956  1.00 20.00     0.081 C 
HETATM    2  C4  UNL     1     -34.366   6.056   4.614  1.00 20.00     0.212 C 
HETATM    3  N5  UNL     1     -35.204   3.642   5.229  1.00 20.00    -0.196 NA
HETATM    4 CL7  UNL     1     -33.660   6.790   6.079  1.00 20.00    -0.107 Cl
ENDROOT
BRANCH   2   5
HETATM    5  C3  UNL     1     -33.354   6.045   3.473  1.00 20.00     0.202 C 
BRANCH   5   6
HETATM    6  O6  UNL     1     -32.288   6.954   3.725  1.00 20.00    -0.394 OA
HETATM    7  C2  UNL     1     -32.010   7.759   2.588  1.00 20.00     0.201 C 
ENDBRANCH   5   6
ENDBRANCH   2   5
TORSDOF 2
ENDMDL
MODEL 2
REMARK VINA RESULT:      -3.3     11.996     12.673
REMARK  2 active torsions:
REMARK  status: ('A' for Active; 'I' for Inactive)
REMARK    1  A    between atoms: C3_3  and  C4_4 
REMARK    2  A    between atoms: C3_3  and  O6_6 
ROOT
HETATM    1  C1  UNL     1     -34.767  13.925  -4.065  1.00 20.00     0.081 C 
HETATM    2  C4  UNL     1     -34.461  15.333  -3.787  1.00 20.00     0.212 C 
HETATM    3  N5  UNL     1     -35.014  12.812  -4.284  1.00 20.00    -0.196 NA
HETATM    4 CL7  UNL     1     -34.912  15.678  -2.096  1.00 20.00    -0.107 Cl
ENDROOT
BRANCH   2   5
HETATM    5  C3  UNL     1     -32.993  15.664  -4.034  1.00 20.00     0.202 C 
BRANCH   5   6
HETATM    6  O6  UNL     1     -32.844  16.529  -5.155  1.00 20.00    -0.394 OA
HETATM    7  C2  UNL     1     -33.571  17.736  -4.980  1.00 20.00     0.201 C 
ENDBRANCH   5   6
ENDBRANCH   2   5
TORSDOF 2
ENDMDL
MODEL 3
REMARK VINA RESULT:      -3.3      2.724      3.670
REMARK  2 active torsions:
REMARK  status: ('A' for Active; 'I' for Inactive)
REMARK    1  A    between atoms: C3_3  and  C4_4 
REMARK    2  A    between atoms: C3_3  and  O6_6 
ROOT
HETATM    1  C1  UNL     1     -32.708   6.850   3.328  1.00 20.00     0.081 C 
HETATM    2  C4  UNL     1     -33.415   5.956   4.253  1.00 20.00     0.212 C 
HETATM    3  N5  UNL     1     -32.145   7.556   2.599  1.00 20.00    -0.196 NA
HETATM    4 CL7  UNL     1     -33.674   6.833   5.786  1.00 20.00    -0.107 Cl
ENDROOT
BRANCH   2   5
HETATM    5  C3  UNL     1     -34.740   5.464   3.681  1.00 20.00     0.202 C 
BRANCH   5   6
HETATM    6  O6  UNL     1     -35.582   4.950   4.708  1.00 20.00    -0.394 OA
HETATM    7  C2  UNL     1     -34.959   3.879   5.403  1.00 20.00     0.201 C 
ENDBRANCH   5   6
ENDBRANCH   2   5
TORSDOF 2
ENDMDL
MODEL 4
REMARK VINA RESULT:      -3.3      2.024      2.118
REMARK  2 active torsions:
REMARK  status: ('A' for Active; 'I' for Inactive)
REMARK    1  A    between atoms: C3_3  and  C4_4 
REMARK    2  A    between atoms: C3_3  and  O6_6 
ROOT
HETATM    1  C1  UNL     1     -33.845   6.390   5.819  1.00 20.00     0.081 C 
HETATM    2  C4  UNL     1     -33.882   5.487   4.662  1.00 20.00     0.212 C 
HETATM    3  N5  UNL     1     -33.815   7.100   6.736  1.00 20.00    -0.196 NA
HETATM    4 CL7  UNL     1     -35.504   4.746   4.586  1.00 20.00    -0.107 Cl
ENDROOT
BRANCH   2   5
HETATM    5  C3  UNL     1     -33.555   6.206   3.358  1.00 20.00     0.202 C 
BRANCH   5   6
HETATM    6  O6  UNL     1     -32.206   6.659   3.348  1.00 20.00    -0.394 OA
HETATM    7  C2  UNL     1     -32.044   7.793   2.507  1.00 20.00     0.201 C 
ENDBRANCH   5   6
ENDBRANCH   2   5
TORSDOF 2
ENDMDL
MODEL 5
REMARK VINA RESULT:      -3.3     11.948     12.208
REMARK  2 active torsions:
REMARK  status: ('A' for Active; 'I' for Inactive)
REMARK    1  A    between atoms: C3_3  and  C4_4 
REMARK    2  A    between atoms: C3_3  and  O6_6 
ROOT
HETATM    1  C1  UNL     1     -34.331  13.781  -3.958  1.00 20.00     0.081 C 
HETATM    2  C4  UNL     1     -33.716  15.009  -3.440  1.00 20.00     0.212 C 
HETATM    3  N5  UNL     1     -34.812  12.808  -4.368  1.00 20.00    -0.196 NA
HETATM    4 CL7  UNL     1     -33.275  16.039  -4.829  1.00 20.00    -0.107 Cl
ENDROOT
BRANCH   2   5
HETATM    5  C3  UNL     1     -34.639  15.758  -2.484  1.00 20.00     0.202 C 
BRANCH   5   6
HETATM    6  O6  UNL     1     -33.893  16.551  -1.568  1.00 20.00    -0.394 OA
HETATM    7  C2  UNL     1     -34.681  16.934  -0.449  1.00 20.00     0.201 C 
ENDBRANCH   5   6
ENDBRANCH   2   5
TORSDOF 2
ENDMDL
MODEL 6
REMARK VINA RESULT:      -3.3      2.298      2.400
REMARK  2 active torsions:
REMARK  status: ('A' for Active; 'I' for Inactive)
REMARK    1  A    between atoms: C3_3  and  C4_4 
REMARK    2  A    between atoms: C3_3  and  O6_6 
ROOT
HETATM    1  C1  UNL     1     -33.918   6.430   6.176  1.00 20.00     0.081 C 
HETATM    2  C4  UNL     1     -34.052   5.332   5.211  1.00 20.00     0.212 C 
HETATM    3  N5  UNL     1     -33.810   7.295   6.941  1.00 20.00    -0.196 NA
HETATM    4 CL7  UNL     1     -35.206   4.144   5.875  1.00 20.00    -0.107 Cl
ENDROOT
BRANCH   2   5
HETATM    5  C3  UNL     1     -34.507   5.820   3.840  1.00 20.00     0.202 C 
BRANCH   5   6
HETATM    6  O6  UNL     1     -33.453   5.730   2.888  1.00 20.00    -0.394 OA
HETATM    7  C2  UNL     1     -32.559   6.829   2.996  1.00 20.00     0.201 C 
ENDBRANCH   5   6
ENDBRANCH   2   5
TORSDOF 2
ENDMDL
MODEL 7
REMARK VINA RESULT:      -3.2     11.948     12.416
REMARK  2 active torsions:
REMARK  status: ('A' for Active; 'I' for Inactive)
REMARK    1  A    between atoms: C3_3  and  C4_4 
REMARK    2  A    between atoms: C3_3  and  O6_6 
ROOT
HETATM    1  C1  UNL     1     -34.900  13.561  -4.185  1.00 20.00     0.081 C 
HETATM    2  C4  UNL     1     -35.129  14.707  -3.297  1.00 20.00     0.212 C 
HETATM    3  N5  UNL     1     -34.715  12.654  -4.885  1.00 20.00    -0.196 NA
HETATM    4 CL7  UNL     1     -33.921  15.961  -3.683  1.00 20.00    -0.107 Cl
ENDROOT
BRANCH   2   5
HETATM    5  C3  UNL     1     -36.544  15.261  -3.423  1.00 20.00     0.202 C 
BRANCH   5   6
HETATM    6  O6  UNL     1     -37.480  14.221  -3.685  1.00 20.00    -0.394 OA
HETATM    7  C2  UNL     1     -38.742  14.743  -4.076  1.00 20.00     0.201 C 
ENDBRANCH   5   6
ENDBRANCH   2   5
TORSDOF 2
ENDMDL
MODEL 8
REMARK VINA RESULT:      -3.1     12.212     12.741
REMARK  2 active torsions:
REMARK  status: ('A' for Active; 'I' for Inactive)
REMARK    1  A    between atoms: C3_3  and  C4_4 
REMARK    2  A    between atoms: C3_3  and  O6_6 
ROOT
HETATM    1  C1  UNL     1     -33.337  16.437  -4.450  1.00 20.00     0.081 C 
HETATM    2  C4  UNL     1     -33.224  15.545  -3.290  1.00 20.00     0.212 C 
HETATM    3  N5  UNL     1     -33.425  17.146  -5.364  1.00 20.00    -0.196 NA
HETATM    4 CL7  UNL     1     -34.674  15.766  -2.275  1.00 20.00    -0.107 Cl
ENDROOT
BRANCH   2   5
HETATM    5  C3  UNL     1     -33.068  14.083  -3.698  1.00 20.00     0.202 C 
BRANCH   5   6
HETATM    6  O6  UNL     1     -34.284  13.367  -3.514  1.00 20.00    -0.394 OA
HETATM    7  C2  UNL     1     -34.945  13.137  -4.750  1.00 20.00     0.201 C 
ENDBRANCH   5   6
ENDBRANCH   2   5
TORSDOF 2
ENDMDL
MODEL 9
REMARK VINA RESULT:      -3.1     11.776     12.244
REMARK  2 active torsions:
REMARK  status: ('A' for Active; 'I' for Inactive)
REMARK    1  A    between atoms: C3_3  and  C4_4 
REMARK    2  A    between atoms: C3_3  and  O6_6 
ROOT
HETATM    1  C1  UNL     1     -34.495  15.826  -2.300  1.00 20.00     0.081 C 
HETATM    2  C4  UNL     1     -34.281  15.206  -3.614  1.00 20.00     0.212 C 
HETATM    3  N5  UNL     1     -34.667  16.319  -1.264  1.00 20.00    -0.196 NA
HETATM    4 CL7  UNL     1     -33.047  16.158  -4.483  1.00 20.00    -0.107 Cl
ENDROOT
BRANCH   2   5
HETATM    5  C3  UNL     1     -33.857  13.746  -3.501  1.00 20.00     0.202 C 
BRANCH   5   6
HETATM    6  O6  UNL     1     -34.768  12.894  -4.186  1.00 20.00    -0.394 OA
HETATM    7  C2  UNL     1     -35.111  13.417  -5.462  1.00 20.00     0.201 C 
ENDBRANCH   5   6
ENDBRANCH   2   5
TORSDOF 2
ENDMDL
