MODEL 1
REMARK VINA RESULT:      -4.5      0.000      0.000
REMARK  0 active torsions:
REMARK  status: ('A' for Active; 'I' for Inactive)
ROOT
HETATM    1  C1  UNL     1     -33.015   6.235   3.663  1.00 20.00     0.095 C 
HETATM    2  C2  UNL     1     -35.293   4.184   4.719  1.00 20.00    -0.026 C 
HETATM    3  C3  UNL     1     -34.632   4.193   5.884  1.00 20.00    -0.001 C 
HETATM    4  C4  UNL     1     -35.361   5.402   3.842  1.00 20.00     0.077 C 
HETATM    5  C5  UNL     1     -33.946   5.423   6.401  1.00 20.00     0.298 C 
HETATM    6  C6  UNL     1     -34.350   6.495   4.236  1.00 20.00     0.329 C 
HETATM    7  N7  UNL     1     -31.966   6.030   3.213  1.00 20.00    -0.195 NA
HETATM    8  N8  UNL     1     -34.288   6.667   5.696  1.00 20.00     0.105 N 
HETATM    9  H16 UNL     1     -35.192   7.003   6.043  1.00 20.00     0.318 HD
ENDROOT
TORSDOF 0
ENDMDL
MODEL 2
REMARK VINA RESULT:      -4.1     12.482     13.517
REMARK  0 active torsions:
REMARK  status: ('A' for Active; 'I' for Inactive)
ROOT
HETATM    1  C1  UNL     1     -35.894  13.973  -4.361  1.00 20.00     0.095 C 
HETATM    2  C2  UNL     1     -33.917  16.018  -5.919  1.00 20.00    -0.026 C 
HETATM    3  C3  UNL     1     -33.330  16.211  -4.730  1.00 20.00    -0.001 C 
HETATM    4  C4  UNL     1     -34.498  14.687  -6.304  1.00 20.00     0.077 C 
HETATM    5  C5  UNL     1     -33.187  15.108  -3.723  1.00 20.00     0.298 C 
HETATM    6  C6  UNL     1     -34.650  13.720  -5.114  1.00 20.00     0.329 C 
HETATM    7  N7  UNL     1     -36.872  14.172  -3.770  1.00 20.00    -0.195 NA
HETATM    8  N8  UNL     1     -33.469  13.759  -4.237  1.00 20.00     0.105 N 
HETATM    9  H16 UNL     1     -32.647  13.424  -4.749  1.00 20.00     0.318 HD
ENDROOT
TORSDOF 0
ENDMDL
MODEL 3
REMARK VINA RESULT:      -4.0     12.138     13.291
REMARK  0 active torsions:
REMARK  status: ('A' for Active; 'I' for Inactive)
ROOT
HETATM    1  C1  UNL     1     -34.015  15.850  -2.762  1.00 20.00     0.095 C 
HETATM    2  C2  UNL     1     -34.429  13.391  -4.834  1.00 20.00    -0.026 C 
HETATM    3  C3  UNL     1     -34.788  14.324  -5.727  1.00 20.00    -0.001 C 
HETATM    4  C4  UNL     1     -33.388  13.662  -3.786  1.00 20.00     0.077 C 
HETATM    5  C5  UNL     1     -34.152  15.683  -5.758  1.00 20.00     0.298 C 
HETATM    6  C6  UNL     1     -33.049  15.157  -3.635  1.00 20.00     0.329 C 
HETATM    7  N7  UNL     1     -34.776  16.394  -2.075  1.00 20.00    -0.195 NA
HETATM    8  N8  UNL     1     -32.934  15.816  -4.945  1.00 20.00     0.105 N 
HETATM    9  H16 UNL     1     -32.147  15.416  -5.466  1.00 20.00     0.318 HD
ENDROOT
TORSDOF 0
ENDMDL
MODEL 4
REMARK VINA RESULT:      -3.9     12.147     13.168
REMARK  0 active torsions:
REMARK  status: ('A' for Active; 'I' for Inactive)
ROOT
HETATM    1  C1  UNL     1     -37.177  14.878  -3.880  1.00 20.00     0.095 C 
HETATM    2  C2  UNL     1     -34.140  13.796  -3.536  1.00 20.00    -0.026 C 
HETATM    3  C3  UNL     1     -34.274  13.300  -4.773  1.00 20.00    -0.001 C 
HETATM    4  C4  UNL     1     -34.807  15.078  -3.125  1.00 20.00     0.077 C 
HETATM    5  C5  UNL     1     -35.068  14.004  -5.833  1.00 20.00     0.298 C 
HETATM    6  C6  UNL     1     -35.885  15.551  -4.118  1.00 20.00     0.329 C 
HETATM    7  N7  UNL     1     -38.192  14.349  -3.693  1.00 20.00    -0.195 NA
HETATM    8  N8  UNL     1     -35.439  15.391  -5.510  1.00 20.00     0.105 N 
HETATM    9  H16 UNL     1     -34.631  15.996  -5.687  1.00 20.00     0.318 HD
ENDROOT
TORSDOF 0
ENDMDL
MODEL 5
REMARK VINA RESULT:      -3.9     12.311     13.123
REMARK  0 active torsions:
REMARK  status: ('A' for Active; 'I' for Inactive)
ROOT
HETATM    1  C1  UNL     1     -35.228  13.798  -4.465  1.00 20.00     0.095 C 
HETATM    2  C2  UNL     1     -34.870  16.014  -2.125  1.00 20.00    -0.026 C 
HETATM    3  C3  UNL     1     -33.642  16.209  -2.624  1.00 20.00    -0.001 C 
HETATM    4  C4  UNL     1     -36.032  15.659  -3.009  1.00 20.00     0.077 C 
HETATM    5  C5  UNL     1     -33.354  16.117  -4.093  1.00 20.00     0.298 C 
HETATM    6  C6  UNL     1     -35.611  15.223  -4.425  1.00 20.00     0.329 C 
HETATM    7  N7  UNL     1     -34.927  12.678  -4.496  1.00 20.00    -0.195 NA
HETATM    8  N8  UNL     1     -34.544  16.085  -4.957  1.00 20.00     0.105 N 
HETATM    9  H16 UNL     1     -34.895  17.042  -5.067  1.00 20.00     0.318 HD
ENDROOT
TORSDOF 0
ENDMDL
MODEL 6
REMARK VINA RESULT:      -3.9     12.165     12.881
REMARK  0 active torsions:
REMARK  status: ('A' for Active; 'I' for Inactive)
ROOT
HETATM    1  C1  UNL     1     -33.268  15.901  -4.361  1.00 20.00     0.095 C 
HETATM    2  C2  UNL     1     -36.227  15.151  -3.268  1.00 20.00    -0.026 C 
HETATM    3  C3  UNL     1     -36.230  14.194  -4.205  1.00 20.00    -0.001 C 
HETATM    4  C4  UNL     1     -34.965  15.559  -2.563  1.00 20.00     0.077 C 
HETATM    5  C5  UNL     1     -34.986  13.448  -4.587  1.00 20.00     0.298 C 
HETATM    6  C6  UNL     1     -33.687  15.032  -3.244  1.00 20.00     0.329 C 
HETATM    7  N7  UNL     1     -32.938  16.584  -5.239  1.00 20.00    -0.195 NA
HETATM    8  N8  UNL     1     -33.847  13.635  -3.676  1.00 20.00     0.105 N 
HETATM    9  H16 UNL     1     -33.979  13.032  -2.857  1.00 20.00     0.318 HD
ENDROOT
TORSDOF 0
ENDMDL
MODEL 7
REMARK VINA RESULT:      -3.9     12.129     13.395
REMARK  0 active torsions:
REMARK  status: ('A' for Active; 'I' for Inactive)
ROOT
HETATM    1  C1  UNL     1     -35.283  13.720  -4.154  1.00 20.00     0.095 C 
HETATM    2  C2  UNL     1     -33.624  16.226  -2.939  1.00 20.00    -0.026 C 
HETATM    3  C3  UNL     1     -33.436  16.600  -4.212  1.00 20.00    -0.001 C 
HETATM    4  C4  UNL     1     -34.887  15.544  -2.497  1.00 20.00     0.077 C 
HETATM    5  C5  UNL     1     -34.482  16.392  -5.267  1.00 20.00     0.298 C 
HETATM    6  C6  UNL     1     -35.747  15.034  -3.669  1.00 20.00     0.329 C 
HETATM    7  N7  UNL     1     -34.918  12.687  -4.535  1.00 20.00    -0.195 NA
HETATM    8  N8  UNL     1     -35.811  16.021  -4.757  1.00 20.00     0.105 N 
HETATM    9  H16 UNL     1     -36.284  16.869  -4.429  1.00 20.00     0.318 HD
ENDROOT
TORSDOF 0
ENDMDL
MODEL 8
REMARK VINA RESULT:      -3.8     12.176     13.475
REMARK  0 active torsions:
REMARK  status: ('A' for Active; 'I' for Inactive)
ROOT
HETATM    1  C1  UNL     1     -34.668  13.591  -4.051  1.00 20.00     0.095 C 
HETATM    2  C2  UNL     1     -33.252  16.382  -4.899  1.00 20.00    -0.026 C 
HETATM    3  C3  UNL     1     -34.478  16.790  -5.253  1.00 20.00    -0.001 C 
HETATM    4  C4  UNL     1     -33.035  15.453  -3.739  1.00 20.00     0.077 C 
HETATM    5  C5  UNL     1     -35.706  16.374  -4.497  1.00 20.00     0.298 C 
HETATM    6  C6  UNL     1     -34.330  14.780  -3.245  1.00 20.00     0.329 C 
HETATM    7  N7  UNL     1     -34.933  12.656  -4.685  1.00 20.00    -0.195 NA
HETATM    8  N8  UNL     1     -35.447  15.737  -3.197  1.00 20.00     0.105 N 
HETATM    9  H16 UNL     1     -35.247  16.468  -2.507  1.00 20.00     0.318 HD
ENDROOT
TORSDOF 0
ENDMDL
MODEL 9
REMARK VINA RESULT:      -3.8      8.750      9.751
REMARK  0 active torsions:
REMARK  status: ('A' for Active; 'I' for Inactive)
ROOT
HETATM    1  C1  UNL     1     -41.252   4.499  -1.526  1.00 20.00     0.095 C 
HETATM    2  C2  UNL     1     -42.468   7.446  -0.934  1.00 20.00    -0.026 C 
HETATM    3  C3  UNL     1     -43.377   6.818  -0.177  1.00 20.00    -0.001 C 
HETATM    4  C4  UNL     1     -41.057   6.942  -1.053  1.00 20.00     0.077 C 
HETATM    5  C5  UNL     1     -43.040   5.595   0.624  1.00 20.00     0.298 C 
HETATM    6  C6  UNL     1     -40.874   5.509  -0.518  1.00 20.00     0.329 C 
HETATM    7  N7  UNL     1     -41.548   3.706  -2.319  1.00 20.00    -0.195 NA
HETATM    8  N8  UNL     1     -41.602   5.311   0.745  1.00 20.00     0.105 N 
HETATM    9  H16 UNL     1     -41.207   5.917   1.471  1.00 20.00     0.318 HD
ENDROOT
TORSDOF 0
ENDMDL
