MODEL 1
REMARK VINA RESULT:      -3.4      0.000      0.000
REMARK  2 active torsions:
REMARK  status: ('A' for Active; 'I' for Inactive)
REMARK    1  A    between atoms: C3_3  and  C4_4 
REMARK    2  A    between atoms: C3_3  and  O6_6 
ROOT
HETATM    1  C1  UNL     1     -34.020   6.425   5.652  1.00 20.00     0.081 C 
HETATM    2  C4  UNL     1     -34.467   5.859   4.374  1.00 20.00     0.212 C 
HETATM    3  N5  UNL     1     -33.666   6.878   6.661  1.00 20.00    -0.196 NA
HETATM    4 CL7  UNL     1     -35.096   4.218   4.683  1.00 20.00    -0.107 Cl
ENDROOT
BRANCH   2   5
HETATM    5  C3  UNL     1     -33.351   5.827   3.336  1.00 20.00     0.202 C 
BRANCH   5   6
HETATM    6  O6  UNL     1     -32.351   6.797   3.628  1.00 20.00    -0.394 OA
HETATM    7  C2  UNL     1     -32.155   7.684   2.536  1.00 20.00     0.201 C 
ENDBRANCH   5   6
ENDBRANCH   2   5
TORSDOF 2
ENDMDL
MODEL 2
REMARK VINA RESULT:      -3.4      2.106      2.168
REMARK  2 active torsions:
REMARK  status: ('A' for Active; 'I' for Inactive)
REMARK    1  A    between atoms: C3_3  and  C4_4 
REMARK    2  A    between atoms: C3_3  and  O6_6 
ROOT
HETATM    1  C1  UNL     1     -34.580   4.624   5.256  1.00 20.00     0.081 C 
HETATM    2  C4  UNL     1     -33.680   5.778   5.148  1.00 20.00     0.212 C 
HETATM    3  N5  UNL     1     -35.289   3.708   5.338  1.00 20.00    -0.196 NA
HETATM    4 CL7  UNL     1     -33.965   6.838   6.555  1.00 20.00    -0.107 Cl
ENDROOT
BRANCH   2   5
HETATM    5  C3  UNL     1     -33.876   6.542   3.843  1.00 20.00     0.202 C 
BRANCH   5   6
HETATM    6  O6  UNL     1     -32.770   6.353   2.968  1.00 20.00    -0.394 OA
HETATM    7  C2  UNL     1     -32.161   7.590   2.626  1.00 20.00     0.201 C 
ENDBRANCH   5   6
ENDBRANCH   2   5
TORSDOF 2
ENDMDL
MODEL 3
REMARK VINA RESULT:      -3.4      2.520      3.415
REMARK  2 active torsions:
REMARK  status: ('A' for Active; 'I' for Inactive)
REMARK    1  A    between atoms: C3_3  and  C4_4 
REMARK    2  A    between atoms: C3_3  and  O6_6 
ROOT
HETATM    1  C1  UNL     1     -32.902   6.594   3.456  1.00 20.00     0.081 C 
HETATM    2  C4  UNL     1     -33.836   5.759   4.220  1.00 20.00     0.212 C 
HETATM    3  N5  UNL     1     -32.159   7.253   2.855  1.00 20.00    -0.196 NA
HETATM    4 CL7  UNL     1     -35.390   5.719   3.344  1.00 20.00    -0.107 Cl
ENDROOT
BRANCH   2   5
HETATM    5  C3  UNL     1     -34.029   6.265   5.646  1.00 20.00     0.202 C 
BRANCH   5   6
HETATM    6  O6  UNL     1     -34.913   5.420   6.374  1.00 20.00    -0.394 OA
HETATM    7  C2  UNL     1     -34.697   4.051   6.063  1.00 20.00     0.201 C 
ENDBRANCH   5   6
ENDBRANCH   2   5
TORSDOF 2
ENDMDL
MODEL 4
REMARK VINA RESULT:      -3.3     11.944     12.420
REMARK  2 active torsions:
REMARK  status: ('A' for Active; 'I' for Inactive)
REMARK    1  A    between atoms: C3_3  and  C4_4 
REMARK    2  A    between atoms: C3_3  and  O6_6 
ROOT
HETATM    1  C1  UNL     1     -35.021  13.717  -4.378  1.00 20.00     0.081 C 
HETATM    2  C4  UNL     1     -35.334  15.082  -3.937  1.00 20.00     0.212 C 
HETATM    3  N5  UNL     1     -34.777  12.638  -4.729  1.00 20.00    -0.196 NA
HETATM    4 CL7  UNL     1     -34.062  15.605  -2.801  1.00 20.00    -0.107 Cl
ENDROOT
BRANCH   2   5
HETATM    5  C3  UNL     1     -36.712  15.178  -3.291  1.00 20.00     0.202 C 
BRANCH   5   6
HETATM    6  O6  UNL     1     -37.590  14.184  -3.807  1.00 20.00    -0.394 OA
HETATM    7  C2  UNL     1     -38.852  14.735  -4.154  1.00 20.00     0.201 C 
ENDBRANCH   5   6
ENDBRANCH   2   5
TORSDOF 2
ENDMDL
MODEL 5
REMARK VINA RESULT:      -3.3     11.778     12.019
REMARK  2 active torsions:
REMARK  status: ('A' for Active; 'I' for Inactive)
REMARK    1  A    between atoms: C3_3  and  C4_4 
REMARK    2  A    between atoms: C3_3  and  O6_6 
ROOT
HETATM    1  C1  UNL     1     -34.450  13.636  -4.411  1.00 20.00     0.081 C 
HETATM    2  C4  UNL     1     -33.927  14.930  -3.956  1.00 20.00     0.212 C 
HETATM    3  N5  UNL     1     -34.868  12.615  -4.772  1.00 20.00    -0.196 NA
HETATM    4 CL7  UNL     1     -32.209  14.714  -3.526  1.00 20.00    -0.107 Cl
ENDROOT
BRANCH   2   5
HETATM    5  C3  UNL     1     -34.716  15.489  -2.777  1.00 20.00     0.202 C 
BRANCH   5   6
HETATM    6  O6  UNL     1     -33.898  16.320  -1.961  1.00 20.00    -0.394 OA
HETATM    7  C2  UNL     1     -34.567  16.693  -0.765  1.00 20.00     0.201 C 
ENDBRANCH   5   6
ENDBRANCH   2   5
TORSDOF 2
ENDMDL
MODEL 6
REMARK VINA RESULT:      -3.2     12.494     12.879
REMARK  2 active torsions:
REMARK  status: ('A' for Active; 'I' for Inactive)
REMARK    1  A    between atoms: C3_3  and  C4_4 
REMARK    2  A    between atoms: C3_3  and  O6_6 
ROOT
HETATM    1  C1  UNL     1     -34.654  13.853  -4.879  1.00 20.00     0.081 C 
HETATM    2  C4  UNL     1     -34.455  15.250  -5.284  1.00 20.00     0.212 C 
HETATM    3  N5  UNL     1     -34.813  12.750  -4.553  1.00 20.00    -0.196 NA
HETATM    4 CL7  UNL     1     -34.189  15.284  -7.048  1.00 20.00    -0.107 Cl
ENDROOT
BRANCH   2   5
HETATM    5  C3  UNL     1     -33.292  15.904  -4.547  1.00 20.00     0.202 C 
BRANCH   5   6
HETATM    6  O6  UNL     1     -33.258  15.501  -3.183  1.00 20.00    -0.394 OA
HETATM    7  C2  UNL     1     -33.851  16.477  -2.338  1.00 20.00     0.201 C 
ENDBRANCH   5   6
ENDBRANCH   2   5
TORSDOF 2
ENDMDL
MODEL 7
REMARK VINA RESULT:      -3.2     12.033     12.271
REMARK  2 active torsions:
REMARK  status: ('A' for Active; 'I' for Inactive)
REMARK    1  A    between atoms: C3_3  and  C4_4 
REMARK    2  A    between atoms: C3_3  and  O6_6 
ROOT
HETATM    1  C1  UNL     1     -36.971  14.478  -4.083  1.00 20.00     0.081 C 
HETATM    2  C4  UNL     1     -35.617  14.562  -4.642  1.00 20.00     0.212 C 
HETATM    3  N5  UNL     1     -38.041  14.412  -3.637  1.00 20.00    -0.196 NA
HETATM    4 CL7  UNL     1     -35.745  15.134  -6.327  1.00 20.00    -0.107 Cl
ENDROOT
BRANCH   2   5
HETATM    5  C3  UNL     1     -34.883  13.227  -4.577  1.00 20.00     0.202 C 
BRANCH   5   6
HETATM    6  O6  UNL     1     -33.781  13.291  -3.678  1.00 20.00    -0.394 OA
HETATM    7  C2  UNL     1     -33.174  14.575  -3.691  1.00 20.00     0.201 C 
ENDBRANCH   5   6
ENDBRANCH   2   5
TORSDOF 2
ENDMDL
MODEL 8
REMARK VINA RESULT:      -3.2     11.912     12.794
REMARK  2 active torsions:
REMARK  status: ('A' for Active; 'I' for Inactive)
REMARK    1  A    between atoms: C3_3  and  C4_4 
REMARK    2  A    between atoms: C3_3  and  O6_6 
ROOT
HETATM    1  C1  UNL     1     -34.279  13.818  -3.931  1.00 20.00     0.081 C 
HETATM    2  C4  UNL     1     -33.585  15.018  -3.450  1.00 20.00     0.212 C 
HETATM    3  N5  UNL     1     -34.823  12.866  -4.315  1.00 20.00    -0.196 NA
HETATM    4 CL7  UNL     1     -34.606  15.788  -2.205  1.00 20.00    -0.107 Cl
ENDROOT
BRANCH   2   5
HETATM    5  C3  UNL     1     -33.274  15.996  -4.578  1.00 20.00     0.202 C 
BRANCH   5   6
HETATM    6  O6  UNL     1     -33.580  17.332  -4.196  1.00 20.00    -0.394 OA
HETATM    7  C2  UNL     1     -33.534  18.213  -5.309  1.00 20.00     0.201 C 
ENDBRANCH   5   6
ENDBRANCH   2   5
TORSDOF 2
ENDMDL
MODEL 9
REMARK VINA RESULT:      -3.2     12.064     12.603
REMARK  2 active torsions:
REMARK  status: ('A' for Active; 'I' for Inactive)
REMARK    1  A    between atoms: C3_3  and  C4_4 
REMARK    2  A    between atoms: C3_3  and  O6_6 
ROOT
HETATM    1  C1  UNL     1     -33.609  16.747  -4.377  1.00 20.00     0.081 C 
HETATM    2  C4  UNL     1     -34.096  15.637  -3.549  1.00 20.00     0.212 C 
HETATM    3  N5  UNL     1     -33.226  17.622  -5.037  1.00 20.00    -0.196 NA
HETATM    4 CL7  UNL     1     -34.196  16.206  -1.861  1.00 20.00    -0.107 Cl
ENDROOT
BRANCH   2   5
HETATM    5  C3  UNL     1     -33.204  14.405  -3.655  1.00 20.00     0.202 C 
BRANCH   5   6
HETATM    6  O6  UNL     1     -33.971  13.209  -3.579  1.00 20.00    -0.394 OA
HETATM    7  C2  UNL     1     -35.165  13.309  -4.342  1.00 20.00     0.201 C 
ENDBRANCH   5   6
ENDBRANCH   2   5
TORSDOF 2
ENDMDL
