MODEL 1
REMARK VINA RESULT:      -4.2      0.000      0.000
REMARK  3 active torsions:
REMARK  status: ('A' for Active; 'I' for Inactive)
REMARK    1  A    between atoms: C1_1  and  C5_5 
REMARK    2  A    between atoms: C3_3  and  C4_4 
REMARK    3  A    between atoms: C3_3  and  C5_5 
ROOT
HETATM    1  C2  UNL     1     -33.810   6.569   6.309  1.00 20.00     0.017 C 
HETATM    2  C5  UNL     1     -34.721   5.828   5.332  1.00 20.00     0.044 C 
ENDROOT
BRANCH   2   3
HETATM    3  C1  UNL     1     -34.742   4.365   5.738  1.00 20.00     0.235 C 
HETATM    4  O6  UNL     1     -35.078   3.438   5.008  1.00 20.00    -0.306 OA
ENDBRANCH   2   3
BRANCH   2   5
HETATM    5  C3  UNL     1     -34.256   6.043   3.884  1.00 20.00     0.026 C 
BRANCH   5   6
HETATM    6  C4  UNL     1     -32.742   6.211   3.784  1.00 20.00     0.115 C 
HETATM    7 CL7  UNL     1     -32.339   7.510   2.636  1.00 20.00    -0.130 Cl
ENDBRANCH   5   6
ENDBRANCH   2   5
TORSDOF 3
ENDMDL
MODEL 2
REMARK VINA RESULT:      -4.1      1.838      2.259
REMARK  3 active torsions:
REMARK  status: ('A' for Active; 'I' for Inactive)
REMARK    1  A    between atoms: C1_1  and  C5_5 
REMARK    2  A    between atoms: C3_3  and  C4_4 
REMARK    3  A    between atoms: C3_3  and  C5_5 
ROOT
HETATM    1  C2  UNL     1     -34.989   4.185   5.802  1.00 20.00     0.017 C 
HETATM    2  C5  UNL     1     -34.115   5.355   5.353  1.00 20.00     0.044 C 
ENDROOT
BRANCH   2   3
HETATM    3  C1  UNL     1     -34.190   6.426   6.427  1.00 20.00     0.235 C 
HETATM    4  O6  UNL     1     -33.263   7.161   6.752  1.00 20.00    -0.306 OA
ENDBRANCH   2   3
BRANCH   2   5
HETATM    5  C3  UNL     1     -34.551   5.860   3.970  1.00 20.00     0.026 C 
BRANCH   5   6
HETATM    6  C4  UNL     1     -33.406   5.837   2.961  1.00 20.00     0.115 C 
HETATM    7 CL7  UNL     1     -32.081   6.893   3.505  1.00 20.00    -0.130 Cl
ENDBRANCH   5   6
ENDBRANCH   2   5
TORSDOF 3
ENDMDL
MODEL 3
REMARK VINA RESULT:      -3.9      1.489      1.858
REMARK  3 active torsions:
REMARK  status: ('A' for Active; 'I' for Inactive)
REMARK    1  A    between atoms: C1_1  and  C5_5 
REMARK    2  A    between atoms: C3_3  and  C4_4 
REMARK    3  A    between atoms: C3_3  and  C5_5 
ROOT
HETATM    1  C2  UNL     1     -35.606   5.540   3.713  1.00 20.00     0.017 C 
HETATM    2  C5  UNL     1     -34.265   5.334   4.417  1.00 20.00     0.044 C 
ENDROOT
BRANCH   2   3
HETATM    3  C1  UNL     1     -34.552   5.028   5.876  1.00 20.00     0.235 C 
HETATM    4  O6  UNL     1     -34.683   5.871   6.758  1.00 20.00    -0.306 OA
ENDBRANCH   2   3
BRANCH   2   5
HETATM    5  C3  UNL     1     -33.358   6.558   4.227  1.00 20.00     0.026 C 
BRANCH   5   6
HETATM    6  C4  UNL     1     -32.346   6.357   3.102  1.00 20.00     0.115 C 
HETATM    7 CL7  UNL     1     -32.056   7.892   2.249  1.00 20.00    -0.130 Cl
ENDBRANCH   5   6
ENDBRANCH   2   5
TORSDOF 3
ENDMDL
MODEL 4
REMARK VINA RESULT:      -3.7      2.994      3.801
REMARK  3 active torsions:
REMARK  status: ('A' for Active; 'I' for Inactive)
REMARK    1  A    between atoms: C1_1  and  C5_5 
REMARK    2  A    between atoms: C3_3  and  C4_4 
REMARK    3  A    between atoms: C3_3  and  C5_5 
ROOT
HETATM    1  C2  UNL     1     -34.854   5.441   3.449  1.00 20.00     0.017 C 
HETATM    2  C5  UNL     1     -33.944   6.503   4.062  1.00 20.00     0.044 C 
ENDROOT
BRANCH   2   3
HETATM    3  C1  UNL     1     -32.597   6.414   3.367  1.00 20.00     0.235 C 
HETATM    4  O6  UNL     1     -32.120   7.282   2.643  1.00 20.00    -0.306 OA
ENDBRANCH   2   3
BRANCH   2   5
HETATM    5  C3  UNL     1     -33.848   6.325   5.584  1.00 20.00     0.026 C 
BRANCH   5   6
HETATM    6  C4  UNL     1     -34.899   5.356   6.119  1.00 20.00     0.115 C 
HETATM    7 CL7  UNL     1     -34.263   3.693   6.122  1.00 20.00    -0.130 Cl
ENDBRANCH   5   6
ENDBRANCH   2   5
TORSDOF 3
ENDMDL
MODEL 5
REMARK VINA RESULT:      -3.6      3.143      3.706
REMARK  3 active torsions:
REMARK  status: ('A' for Active; 'I' for Inactive)
REMARK    1  A    between atoms: C1_1  and  C5_5 
REMARK    2  A    between atoms: C3_3  and  C4_4 
REMARK    3  A    between atoms: C3_3  and  C5_5 
ROOT
HETATM    1  C2  UNL     1     -33.575   6.804   5.263  1.00 20.00     0.017 C 
HETATM    2  C5  UNL     1     -33.201   6.013   4.011  1.00 20.00     0.044 C 
ENDROOT
BRANCH   2   3
HETATM    3  C1  UNL     1     -32.414   6.938   3.099  1.00 20.00     0.235 C 
HETATM    4  O6  UNL     1     -31.481   7.651   3.456  1.00 20.00    -0.306 OA
ENDBRANCH   2   3
BRANCH   2   5
HETATM    5  C3  UNL     1     -34.453   5.432   3.340  1.00 20.00     0.026 C 
BRANCH   5   6
HETATM    6  C4  UNL     1     -35.529   5.054   4.355  1.00 20.00     0.115 C 
HETATM    7 CL7  UNL     1     -34.939   3.761   5.428  1.00 20.00    -0.130 Cl
ENDBRANCH   5   6
ENDBRANCH   2   5
TORSDOF 3
ENDMDL
MODEL 6
REMARK VINA RESULT:      -3.5     11.964     12.337
REMARK  3 active torsions:
REMARK  status: ('A' for Active; 'I' for Inactive)
REMARK    1  A    between atoms: C1_1  and  C5_5 
REMARK    2  A    between atoms: C3_3  and  C4_4 
REMARK    3  A    between atoms: C3_3  and  C5_5 
ROOT
HETATM    1  C2  UNL     1     -32.770  14.885  -3.712  1.00 20.00     0.017 C 
HETATM    2  C5  UNL     1     -34.148  14.381  -3.286  1.00 20.00     0.044 C 
ENDROOT
BRANCH   2   3
HETATM    3  C1  UNL     1     -34.809  13.759  -4.502  1.00 20.00     0.235 C 
HETATM    4  O6  UNL     1     -34.870  12.554  -4.730  1.00 20.00    -0.306 OA
ENDBRANCH   2   3
BRANCH   2   5
HETATM    5  C3  UNL     1     -34.975  15.518  -2.668  1.00 20.00     0.026 C 
BRANCH   5   6
HETATM    6  C4  UNL     1     -34.101  16.543  -1.950  1.00 20.00     0.115 C 
HETATM    7 CL7  UNL     1     -34.718  16.836  -0.305  1.00 20.00    -0.130 Cl
ENDBRANCH   5   6
ENDBRANCH   2   5
TORSDOF 3
ENDMDL
MODEL 7
REMARK VINA RESULT:      -3.4      2.540      3.248
REMARK  3 active torsions:
REMARK  status: ('A' for Active; 'I' for Inactive)
REMARK    1  A    between atoms: C1_1  and  C5_5 
REMARK    2  A    between atoms: C3_3  and  C4_4 
REMARK    3  A    between atoms: C3_3  and  C5_5 
ROOT
HETATM    1  C2  UNL     1     -32.447   6.766   3.397  1.00 20.00     0.017 C 
HETATM    2  C5  UNL     1     -33.453   5.846   4.086  1.00 20.00     0.044 C 
ENDROOT
BRANCH   2   3
HETATM    3  C1  UNL     1     -34.522   5.486   3.069  1.00 20.00     0.235 C 
HETATM    4  O6  UNL     1     -35.723   5.695   3.208  1.00 20.00    -0.306 OA
ENDBRANCH   2   3
BRANCH   2   5
HETATM    5  C3  UNL     1     -34.024   6.511   5.347  1.00 20.00     0.026 C 
BRANCH   5   6
HETATM    6  C4  UNL     1     -34.133   5.534   6.514  1.00 20.00     0.115 C 
HETATM    7 CL7  UNL     1     -35.123   4.128   6.054  1.00 20.00    -0.130 Cl
ENDBRANCH   5   6
ENDBRANCH   2   5
TORSDOF 3
ENDMDL
MODEL 8
REMARK VINA RESULT:      -3.4     11.894     12.661
REMARK  3 active torsions:
REMARK  status: ('A' for Active; 'I' for Inactive)
REMARK    1  A    between atoms: C1_1  and  C5_5 
REMARK    2  A    between atoms: C3_3  and  C4_4 
REMARK    3  A    between atoms: C3_3  and  C5_5 
ROOT
HETATM    1  C2  UNL     1     -34.328  15.530  -5.403  1.00 20.00     0.017 C 
HETATM    2  C5  UNL     1     -33.802  14.798  -4.170  1.00 20.00     0.044 C 
ENDROOT
BRANCH   2   3
HETATM    3  C1  UNL     1     -34.756  13.656  -3.868  1.00 20.00     0.235 C 
HETATM    4  O6  UNL     1     -34.863  12.634  -4.538  1.00 20.00    -0.306 OA
ENDBRANCH   2   3
BRANCH   2   5
HETATM    5  C3  UNL     1     -33.633  15.767  -2.991  1.00 20.00     0.026 C 
BRANCH   5   6
HETATM    6  C4  UNL     1     -34.945  16.007  -2.249  1.00 20.00     0.115 C 
HETATM    7 CL7  UNL     1     -34.626  16.631  -0.613  1.00 20.00    -0.130 Cl
ENDBRANCH   5   6
ENDBRANCH   2   5
TORSDOF 3
ENDMDL
MODEL 9
REMARK VINA RESULT:      -3.4      2.742      3.301
REMARK  3 active torsions:
REMARK  status: ('A' for Active; 'I' for Inactive)
REMARK    1  A    between atoms: C1_1  and  C5_5 
REMARK    2  A    between atoms: C3_3  and  C4_4 
REMARK    3  A    between atoms: C3_3  and  C5_5 
ROOT
HETATM    1  C2  UNL     1     -32.290   6.885   3.303  1.00 20.00     0.017 C 
HETATM    2  C5  UNL     1     -33.614   6.627   4.019  1.00 20.00     0.044 C 
ENDROOT
BRANCH   2   3
HETATM    3  C1  UNL     1     -33.316   6.471   5.500  1.00 20.00     0.235 C 
HETATM    4  O6  UNL     1     -34.014   6.915   6.407  1.00 20.00    -0.306 OA
ENDBRANCH   2   3
BRANCH   2   5
HETATM    5  C3  UNL     1     -34.329   5.408   3.419  1.00 20.00     0.026 C 
BRANCH   5   6
HETATM    6  C4  UNL     1     -35.531   4.976   4.254  1.00 20.00     0.115 C 
HETATM    7 CL7  UNL     1     -35.046   3.745   5.446  1.00 20.00    -0.130 Cl
ENDBRANCH   5   6
ENDBRANCH   2   5
TORSDOF 3
ENDMDL
