MODEL 1
REMARK VINA RESULT:      -4.4      0.000      0.000
REMARK  1 active torsions:
REMARK  status: ('A' for Active; 'I' for Inactive)
REMARK    1  A    between atoms: C6_6  and  C8_8 
ROOT
HETATM    1  C1  UNL     1     -36.703  14.679  -3.658  1.00 20.00     0.069 C 
HETATM    2  C2  UNL     1     -33.591  16.818  -3.906  1.00 20.00     0.002 C 
HETATM    3  C3  UNL     1     -33.716  16.628  -2.394  1.00 20.00     0.002 C 
HETATM    4  C4  UNL     1     -34.805  16.124  -4.524  1.00 20.00     0.024 C 
HETATM    5  C5  UNL     1     -34.999  15.828  -2.170  1.00 20.00     0.024 C 
HETATM    6  C6  UNL     1     -35.238  15.082  -3.487  1.00 20.00     0.049 C 
HETATM    7  N9  UNL     1     -37.814  14.374  -3.789  1.00 20.00    -0.196 NA
ENDROOT
BRANCH   6   8
HETATM    8  C8  UNL     1     -34.389  13.874  -3.568  1.00 20.00     0.020 C 
HETATM    9  C7  UNL     1     -34.516  13.198  -4.893  1.00 20.00     0.007 C 
ENDBRANCH   6   8
TORSDOF 1
ENDMDL
MODEL 2
REMARK VINA RESULT:      -4.3      1.209      2.054
REMARK  1 active torsions:
REMARK  status: ('A' for Active; 'I' for Inactive)
REMARK    1  A    between atoms: C6_6  and  C8_8 
ROOT
HETATM    1  C1  UNL     1     -37.078  14.522  -3.974  1.00 20.00     0.069 C 
HETATM    2  C2  UNL     1     -33.470  15.285  -3.125  1.00 20.00     0.002 C 
HETATM    3  C3  UNL     1     -33.350  13.907  -3.777  1.00 20.00     0.002 C 
HETATM    4  C4  UNL     1     -34.964  15.607  -3.084  1.00 20.00     0.024 C 
HETATM    5  C5  UNL     1     -34.776  13.462  -4.098  1.00 20.00     0.024 C 
HETATM    6  C6  UNL     1     -35.585  14.760  -4.200  1.00 20.00     0.049 C 
HETATM    7  N9  UNL     1     -38.211  14.342  -3.802  1.00 20.00    -0.196 NA
ENDROOT
BRANCH   6   8
HETATM    8  C8  UNL     1     -35.387  15.400  -5.519  1.00 20.00     0.020 C 
HETATM    9  C7  UNL     1     -35.513  14.415  -6.634  1.00 20.00     0.007 C 
ENDBRANCH   6   8
TORSDOF 1
ENDMDL
MODEL 3
REMARK VINA RESULT:      -4.1      2.231      3.540
REMARK  1 active torsions:
REMARK  status: ('A' for Active; 'I' for Inactive)
REMARK    1  A    between atoms: C6_6  and  C8_8 
ROOT
HETATM    1  C1  UNL     1     -33.801  17.228  -4.287  1.00 20.00     0.069 C 
HETATM    2  C2  UNL     1     -34.576  13.531  -4.512  1.00 20.00     0.002 C 
HETATM    3  C3  UNL     1     -33.286  13.528  -3.690  1.00 20.00     0.002 C 
HETATM    4  C4  UNL     1     -34.844  14.991  -4.877  1.00 20.00     0.024 C 
HETATM    5  C5  UNL     1     -32.836  14.985  -3.598  1.00 20.00     0.024 C 
HETATM    6  C6  UNL     1     -34.111  15.810  -3.809  1.00 20.00     0.049 C 
HETATM    7  N9  UNL     1     -33.567  18.304  -4.651  1.00 20.00    -0.196 NA
ENDROOT
BRANCH   6   8
HETATM    8  C8  UNL     1     -34.904  15.879  -2.562  1.00 20.00     0.020 C 
HETATM    9  C7  UNL     1     -34.199  16.659  -1.502  1.00 20.00     0.007 C 
ENDBRANCH   6   8
TORSDOF 1
ENDMDL
MODEL 4
REMARK VINA RESULT:      -4.1      1.548      2.381
REMARK  1 active torsions:
REMARK  status: ('A' for Active; 'I' for Inactive)
REMARK    1  A    between atoms: C6_6  and  C8_8 
ROOT
HETATM    1  C1  UNL     1     -34.734  13.731  -4.459  1.00 20.00     0.069 C 
HETATM    2  C2  UNL     1     -35.126  16.573  -1.993  1.00 20.00     0.002 C 
HETATM    3  C3  UNL     1     -33.633  16.646  -2.314  1.00 20.00     0.002 C 
HETATM    4  C4  UNL     1     -35.668  15.367  -2.759  1.00 20.00     0.024 C 
HETATM    5  C5  UNL     1     -33.343  15.481  -3.259  1.00 20.00     0.024 C 
HETATM    6  C6  UNL     1     -34.688  15.160  -3.920  1.00 20.00     0.049 C 
HETATM    7  N9  UNL     1     -34.770  12.646  -4.868  1.00 20.00    -0.196 NA
ENDROOT
BRANCH   6   8
HETATM    8  C8  UNL     1     -34.970  16.106  -5.022  1.00 20.00     0.020 C 
HETATM    9  C7  UNL     1     -33.949  16.009  -6.107  1.00 20.00     0.007 C 
ENDBRANCH   6   8
TORSDOF 1
ENDMDL
MODEL 5
REMARK VINA RESULT:      -4.1      1.654      2.499
REMARK  1 active torsions:
REMARK  status: ('A' for Active; 'I' for Inactive)
REMARK    1  A    between atoms: C6_6  and  C8_8 
ROOT
HETATM    1  C1  UNL     1     -36.766  14.432  -4.376  1.00 20.00     0.069 C 
HETATM    2  C2  UNL     1     -34.587  15.192  -7.375  1.00 20.00     0.002 C 
HETATM    3  C3  UNL     1     -33.953  16.075  -6.300  1.00 20.00     0.002 C 
HETATM    4  C4  UNL     1     -35.797  14.526  -6.720  1.00 20.00     0.024 C 
HETATM    5  C5  UNL     1     -34.809  15.901  -5.046  1.00 20.00     0.024 C 
HETATM    6  C6  UNL     1     -35.494  14.541  -5.217  1.00 20.00     0.049 C 
HETATM    7  N9  UNL     1     -37.731  14.348  -3.739  1.00 20.00    -0.196 NA
ENDROOT
BRANCH   6   8
HETATM    8  C8  UNL     1     -34.574  13.440  -4.854  1.00 20.00     0.020 C 
HETATM    9  C7  UNL     1     -33.885  13.703  -3.557  1.00 20.00     0.007 C 
ENDBRANCH   6   8
TORSDOF 1
ENDMDL
MODEL 6
REMARK VINA RESULT:      -4.0      2.258      2.881
REMARK  1 active torsions:
REMARK  status: ('A' for Active; 'I' for Inactive)
REMARK    1  A    between atoms: C6_6  and  C8_8 
ROOT
HETATM    1  C1  UNL     1     -34.700  13.823  -4.997  1.00 20.00     0.069 C 
HETATM    2  C2  UNL     1     -35.101  17.552  -5.494  1.00 20.00     0.002 C 
HETATM    3  C3  UNL     1     -33.591  17.428  -5.290  1.00 20.00     0.002 C 
HETATM    4  C4  UNL     1     -35.671  16.145  -5.321  1.00 20.00     0.024 C 
HETATM    5  C5  UNL     1     -33.320  15.952  -5.003  1.00 20.00     0.024 C 
HETATM    6  C6  UNL     1     -34.502  15.202  -5.627  1.00 20.00     0.049 C 
HETATM    7  N9  UNL     1     -34.852  12.777  -4.520  1.00 20.00    -0.196 NA
ENDROOT
BRANCH   6   8
HETATM    8  C8  UNL     1     -34.316  15.049  -7.086  1.00 20.00     0.020 C 
HETATM    9  C7  UNL     1     -35.532  14.479  -7.740  1.00 20.00     0.007 C 
ENDBRANCH   6   8
TORSDOF 1
ENDMDL
MODEL 7
REMARK VINA RESULT:      -4.0      0.937      2.460
REMARK  1 active torsions:
REMARK  status: ('A' for Active; 'I' for Inactive)
REMARK    1  A    between atoms: C6_6  and  C8_8 
ROOT
HETATM    1  C1  UNL     1     -36.567  14.759  -3.625  1.00 20.00     0.069 C 
HETATM    2  C2  UNL     1     -32.787  14.839  -3.774  1.00 20.00     0.002 C 
HETATM    3  C3  UNL     1     -33.153  16.124  -4.516  1.00 20.00     0.002 C 
HETATM    4  C4  UNL     1     -34.110  14.156  -3.426  1.00 20.00     0.024 C 
HETATM    5  C5  UNL     1     -34.679  16.159  -4.582  1.00 20.00     0.024 C 
HETATM    6  C6  UNL     1     -35.147  15.285  -3.412  1.00 20.00     0.049 C 
HETATM    7  N9  UNL     1     -37.643  14.359  -3.785  1.00 20.00    -0.196 NA
ENDROOT
BRANCH   6   8
HETATM    8  C8  UNL     1     -35.091  16.037  -2.140  1.00 20.00     0.020 C 
HETATM    9  C7  UNL     1     -35.859  17.315  -2.220  1.00 20.00     0.007 C 
ENDBRANCH   6   8
TORSDOF 1
ENDMDL
MODEL 8
REMARK VINA RESULT:      -4.0      1.980      3.041
REMARK  1 active torsions:
REMARK  status: ('A' for Active; 'I' for Inactive)
REMARK    1  A    between atoms: C6_6  and  C8_8 
ROOT
HETATM    1  C1  UNL     1     -34.654  13.784  -4.871  1.00 20.00     0.069 C 
HETATM    2  C2  UNL     1     -34.574  16.833  -7.110  1.00 20.00     0.002 C 
HETATM    3  C3  UNL     1     -35.550  17.276  -6.019  1.00 20.00     0.002 C 
HETATM    4  C4  UNL     1     -34.198  15.388  -6.784  1.00 20.00     0.024 C 
HETATM    5  C5  UNL     1     -35.717  16.078  -5.085  1.00 20.00     0.024 C 
HETATM    6  C6  UNL     1     -34.446  15.243  -5.278  1.00 20.00     0.049 C 
HETATM    7  N9  UNL     1     -34.811  12.677  -4.563  1.00 20.00    -0.196 NA
ENDROOT
BRANCH   6   8
HETATM    8  C8  UNL     1     -33.322  15.810  -4.502  1.00 20.00     0.020 C 
HETATM    9  C7  UNL     1     -33.640  15.886  -3.045  1.00 20.00     0.007 C 
ENDBRANCH   6   8
TORSDOF 1
ENDMDL
MODEL 9
REMARK VINA RESULT:      -4.0      1.723      3.191
REMARK  1 active torsions:
REMARK  status: ('A' for Active; 'I' for Inactive)
REMARK    1  A    between atoms: C6_6  and  C8_8 
ROOT
HETATM    1  C1  UNL     1     -35.461  17.243  -3.774  1.00 20.00     0.069 C 
HETATM    2  C2  UNL     1     -34.278  13.655  -3.562  1.00 20.00     0.002 C 
HETATM    3  C3  UNL     1     -32.954  14.411  -3.671  1.00 20.00     0.002 C 
HETATM    4  C4  UNL     1     -35.381  14.709  -3.668  1.00 20.00     0.024 C 
HETATM    5  C5  UNL     1     -33.318  15.885  -3.838  1.00 20.00     0.024 C 
HETATM    6  C6  UNL     1     -34.719  16.021  -3.232  1.00 20.00     0.049 C 
HETATM    7  N9  UNL     1     -36.024  18.169  -4.185  1.00 20.00    -0.196 NA
ENDROOT
BRANCH   6   8
HETATM    8  C8  UNL     1     -34.647  16.110  -1.757  1.00 20.00     0.020 C 
HETATM    9  C7  UNL     1     -33.804  17.259  -1.314  1.00 20.00     0.007 C 
ENDBRANCH   6   8
TORSDOF 1
ENDMDL
