MODEL 1
REMARK VINA RESULT:      -4.1      0.000      0.000
REMARK  1 active torsions:
REMARK  status: ('A' for Active; 'I' for Inactive)
REMARK    1  A    between atoms: C5_5  and  C6_6 
ROOT
HETATM    1  C1  UNL     1     -34.583  13.690  -4.354  1.00 20.00     0.100 C 
HETATM    2  C2  UNL     1     -34.348  15.561  -2.666  1.00 20.00     0.038 A 
HETATM    3  C3  UNL     1     -33.927  16.001  -4.910  1.00 20.00     0.072 A 
HETATM    4  C4  UNL     1     -34.295  15.041  -3.993  1.00 20.00     0.052 A 
HETATM    5  C5  UNL     1     -34.019  16.897  -2.621  1.00 20.00    -0.002 A 
HETATM    6  N7  UNL     1     -34.816  12.592  -4.648  1.00 20.00    -0.191 NA
HETATM    7  S8  UNL     1     -33.648  17.521  -4.171  1.00 20.00    -0.104 SA
ENDROOT
BRANCH   5   8
HETATM    8  C6  UNL     1     -33.959  17.791  -1.444  1.00 20.00     0.160 C 
HETATM    9 CL9  UNL     1     -34.752  17.048  -0.032  1.00 20.00    -0.125 Cl
ENDBRANCH   5   8
TORSDOF 1
ENDMDL
MODEL 2
REMARK VINA RESULT:      -3.8      3.377      4.250
REMARK  1 active torsions:
REMARK  status: ('A' for Active; 'I' for Inactive)
REMARK    1  A    between atoms: C5_5  and  C6_6 
ROOT
HETATM    1  C1  UNL     1     -34.582  16.630  -1.096  1.00 20.00     0.100 C 
HETATM    2  C2  UNL     1     -34.715  14.982  -3.011  1.00 20.00     0.038 A 
HETATM    3  C3  UNL     1     -33.686  17.038  -3.356  1.00 20.00     0.072 A 
HETATM    4  C4  UNL     1     -34.333  16.233  -2.444  1.00 20.00     0.052 A 
HETATM    5  C5  UNL     1     -34.344  14.878  -4.333  1.00 20.00    -0.002 A 
HETATM    6  N7  UNL     1     -34.785  16.954   0.000  1.00 20.00    -0.191 NA
HETATM    7  S8  UNL     1     -33.540  16.284  -4.887  1.00 20.00    -0.104 SA
ENDROOT
BRANCH   5   8
HETATM    8  C6  UNL     1     -34.556  13.747  -5.262  1.00 20.00     0.160 C 
HETATM    9 CL9  UNL     1     -35.064  14.325  -6.870  1.00 20.00    -0.125 Cl
ENDBRANCH   5   8
TORSDOF 1
ENDMDL
MODEL 3
REMARK VINA RESULT:      -3.7      3.145      4.109
REMARK  1 active torsions:
REMARK  status: ('A' for Active; 'I' for Inactive)
REMARK    1  A    between atoms: C5_5  and  C6_6 
ROOT
HETATM    1  C1  UNL     1     -34.746  17.067  -0.398  1.00 20.00     0.100 C 
HETATM    2  C2  UNL     1     -34.553  15.567  -2.426  1.00 20.00     0.038 A 
HETATM    3  C3  UNL     1     -33.941  17.802  -2.609  1.00 20.00     0.072 A 
HETATM    4  C4  UNL     1     -34.422  16.824  -1.767  1.00 20.00     0.052 A 
HETATM    5  C5  UNL     1     -34.166  15.633  -3.746  1.00 20.00    -0.002 A 
HETATM    6  N7  UNL     1     -35.010  17.265   0.715  1.00 20.00    -0.191 NA
HETATM    7  S8  UNL     1     -33.648  17.204  -4.186  1.00 20.00    -0.104 SA
ENDROOT
BRANCH   5   8
HETATM    8  C6  UNL     1     -34.153  14.553  -4.757  1.00 20.00     0.160 C 
HETATM    9 CL9  UNL     1     -35.212  13.205  -4.270  1.00 20.00    -0.125 Cl
ENDBRANCH   5   8
TORSDOF 1
ENDMDL
MODEL 4
REMARK VINA RESULT:      -3.7      2.493      2.704
REMARK  1 active torsions:
REMARK  status: ('A' for Active; 'I' for Inactive)
REMARK    1  A    between atoms: C5_5  and  C6_6 
ROOT
HETATM    1  C1  UNL     1     -38.007  14.563  -4.077  1.00 20.00     0.100 C 
HETATM    2  C2  UNL     1     -36.098  15.773  -2.940  1.00 20.00     0.038 A 
HETATM    3  C3  UNL     1     -35.640  13.893  -4.229  1.00 20.00     0.072 A 
HETATM    4  C4  UNL     1     -36.626  14.734  -3.762  1.00 20.00     0.052 A 
HETATM    5  C5  UNL     1     -34.730  15.686  -2.811  1.00 20.00    -0.002 A 
HETATM    6  N7  UNL     1     -39.130  14.422  -4.333  1.00 20.00    -0.191 NA
HETATM    7  S8  UNL     1     -34.086  14.357  -3.678  1.00 20.00    -0.104 SA
ENDROOT
BRANCH   5   8
HETATM    8  C6  UNL     1     -33.818  16.568  -2.050  1.00 20.00     0.160 C 
HETATM    9 CL9  UNL     1     -34.471  16.920  -0.429  1.00 20.00    -0.125 Cl
ENDBRANCH   5   8
TORSDOF 1
ENDMDL
MODEL 5
REMARK VINA RESULT:      -3.6     12.730     13.821
REMARK  1 active torsions:
REMARK  status: ('A' for Active; 'I' for Inactive)
REMARK    1  A    between atoms: C5_5  and  C6_6 
ROOT
HETATM    1  C1  UNL     1     -41.632   2.015  -3.442  1.00 20.00     0.100 C 
HETATM    2  C2  UNL     1     -40.991   3.869  -1.844  1.00 20.00     0.038 A 
HETATM    3  C3  UNL     1     -42.956   4.062  -3.072  1.00 20.00     0.072 A 
HETATM    4  C4  UNL     1     -41.856   3.275  -2.809  1.00 20.00     0.052 A 
HETATM    5  C5  UNL     1     -41.463   5.087  -1.408  1.00 20.00    -0.002 A 
HETATM    6  N7  UNL     1     -41.450   0.992  -3.958  1.00 20.00    -0.191 NA
HETATM    7  S8  UNL     1     -42.942   5.510  -2.158  1.00 20.00    -0.104 SA
ENDROOT
BRANCH   5   8
HETATM    8  C6  UNL     1     -40.860   6.007  -0.419  1.00 20.00     0.160 C 
HETATM    9 CL9  UNL     1     -41.140   7.708  -0.871  1.00 20.00    -0.125 Cl
ENDBRANCH   5   8
TORSDOF 1
ENDMDL
MODEL 6
REMARK VINA RESULT:      -3.6      3.887      4.634
REMARK  1 active torsions:
REMARK  status: ('A' for Active; 'I' for Inactive)
REMARK    1  A    between atoms: C5_5  and  C6_6 
ROOT
HETATM    1  C1  UNL     1     -34.710  16.012  -1.879  1.00 20.00     0.100 C 
HETATM    2  C2  UNL     1     -35.736  15.801  -4.182  1.00 20.00     0.038 A 
HETATM    3  C3  UNL     1     -34.321  14.124  -3.415  1.00 20.00     0.072 A 
HETATM    4  C4  UNL     1     -34.913  15.331  -3.117  1.00 20.00     0.052 A 
HETATM    5  C5  UNL     1     -35.741  14.936  -5.253  1.00 20.00    -0.002 A 
HETATM    6  N7  UNL     1     -34.544  16.566  -0.872  1.00 20.00    -0.191 NA
HETATM    7  S8  UNL     1     -34.758  13.562  -4.973  1.00 20.00    -0.104 SA
ENDROOT
BRANCH   5   8
HETATM    8  C6  UNL     1     -36.464  15.063  -6.537  1.00 20.00     0.160 C 
HETATM    9 CL9  UNL     1     -35.510  14.382  -7.880  1.00 20.00    -0.125 Cl
ENDBRANCH   5   8
TORSDOF 1
ENDMDL
MODEL 7
REMARK VINA RESULT:      -3.5      2.571      2.895
REMARK  1 active torsions:
REMARK  status: ('A' for Active; 'I' for Inactive)
REMARK    1  A    between atoms: C5_5  and  C6_6 
ROOT
HETATM    1  C1  UNL     1     -34.610  13.777  -4.352  1.00 20.00     0.100 C 
HETATM    2  C2  UNL     1     -34.070  16.193  -4.876  1.00 20.00     0.038 A 
HETATM    3  C3  UNL     1     -34.322  15.544  -2.658  1.00 20.00     0.072 A 
HETATM    4  C4  UNL     1     -34.343  15.126  -3.970  1.00 20.00     0.052 A 
HETATM    5  C5  UNL     1     -33.851  17.384  -4.221  1.00 20.00    -0.002 A 
HETATM    6  N7  UNL     1     -34.829  12.680  -4.662  1.00 20.00    -0.191 NA
HETATM    7  S8  UNL     1     -33.974  17.216  -2.522  1.00 20.00    -0.104 SA
ENDROOT
BRANCH   5   8
HETATM    8  C6  UNL     1     -33.539  18.709  -4.800  1.00 20.00     0.160 C 
HETATM    9 CL9  UNL     1     -33.702  18.689  -6.575  1.00 20.00    -0.125 Cl
ENDBRANCH   5   8
TORSDOF 1
ENDMDL
MODEL 8
REMARK VINA RESULT:      -3.5      3.476      4.666
REMARK  1 active torsions:
REMARK  status: ('A' for Active; 'I' for Inactive)
REMARK    1  A    between atoms: C5_5  and  C6_6 
ROOT
HETATM    1  C1  UNL     1     -35.128  17.521   1.150  1.00 20.00     0.100 C 
HETATM    2  C2  UNL     1     -34.552  16.522  -1.102  1.00 20.00     0.038 A 
HETATM    3  C3  UNL     1     -34.200  18.793  -0.747  1.00 20.00     0.072 A 
HETATM    4  C4  UNL     1     -34.642  17.613  -0.189  1.00 20.00     0.052 A 
HETATM    5  C5  UNL     1     -34.046  16.909  -2.323  1.00 20.00    -0.002 A 
HETATM    6  N7  UNL     1     -35.525  17.448   2.238  1.00 20.00    -0.191 NA
HETATM    7  S8  UNL     1     -33.680  18.581  -2.365  1.00 20.00    -0.104 SA
ENDROOT
BRANCH   5   8
HETATM    8  C6  UNL     1     -33.800  16.081  -3.523  1.00 20.00     0.160 C 
HETATM    9 CL9  UNL     1     -34.336  14.401  -3.263  1.00 20.00    -0.125 Cl
ENDBRANCH   5   8
TORSDOF 1
ENDMDL
MODEL 9
REMARK VINA RESULT:      -3.5     12.293     13.210
REMARK  1 active torsions:
REMARK  status: ('A' for Active; 'I' for Inactive)
REMARK    1  A    between atoms: C5_5  and  C6_6 
ROOT
HETATM    1  C1  UNL     1     -41.681   2.897  -2.829  1.00 20.00     0.100 C 
HETATM    2  C2  UNL     1     -42.366   5.327  -2.664  1.00 20.00     0.038 A 
HETATM    3  C3  UNL     1     -40.824   4.480  -1.146  1.00 20.00     0.072 A 
HETATM    4  C4  UNL     1     -41.622   4.191  -2.230  1.00 20.00     0.052 A 
HETATM    5  C5  UNL     1     -42.107   6.440  -1.896  1.00 20.00    -0.002 A 
HETATM    6  N7  UNL     1     -41.729   1.844  -3.315  1.00 20.00    -0.191 NA
HETATM    7  S8  UNL     1     -40.972   6.115  -0.657  1.00 20.00    -0.104 SA
ENDROOT
BRANCH   5   8
HETATM    8  C6  UNL     1     -42.673   7.800  -2.025  1.00 20.00     0.160 C 
HETATM    9 CL9  UNL     1     -42.615   8.362  -3.716  1.00 20.00    -0.125 Cl
ENDBRANCH   5   8
TORSDOF 1
ENDMDL
