MODEL 1
REMARK VINA RESULT:      -4.7      0.000      0.000
REMARK  5 active torsions:
REMARK  status: ('A' for Active; 'I' for Inactive)
REMARK    1  A    between atoms: C1_1  and  C3_3 
REMARK    2  A    between atoms: C3_3  and  C7_7 
REMARK    3  A    between atoms: C4_4  and  C5_5 
REMARK    4  A    between atoms: C4_4  and  C6_6 
REMARK    5  A    between atoms: C5_5  and  C7_7 
ROOT
HETATM    1  C2  UNL     1     -34.982   5.544   3.325  1.00 20.00     0.010 C 
HETATM    2  C7  UNL     1     -33.977   6.463   4.028  1.00 20.00    -0.012 C 
ENDROOT
BRANCH   2   3
HETATM    3  C3  UNL     1     -33.997   6.176   5.539  1.00 20.00     0.073 C 
BRANCH   3   4
HETATM    4  C1  UNL     1     -34.856   4.993   5.930  1.00 20.00     0.231 C 
HETATM    5  O8  UNL     1     -34.450   3.844   6.063  1.00 20.00    -0.307 OA
ENDBRANCH   3   4
ENDBRANCH   2   3
BRANCH   2   6
HETATM    6  C5  UNL     1     -32.553   6.284   3.459  1.00 20.00     0.005 C 
BRANCH   6   7
HETATM    7  C4  UNL     1     -31.826   7.613   3.212  1.00 20.00     0.015 C 
BRANCH   7   8
HETATM    8  C6  UNL     1     -31.963   8.114   1.777  1.00 20.00     0.114 C 
HETATM    9 CL9  UNL     1     -32.554   9.791   1.710  1.00 20.00    -0.130 Cl
ENDBRANCH   7   8
ENDBRANCH   6   7
ENDBRANCH   2   6
TORSDOF 5
ENDMDL
MODEL 2
REMARK VINA RESULT:      -4.6      1.119      2.017
REMARK  5 active torsions:
REMARK  status: ('A' for Active; 'I' for Inactive)
REMARK    1  A    between atoms: C1_1  and  C3_3 
REMARK    2  A    between atoms: C3_3  and  C7_7 
REMARK    3  A    between atoms: C4_4  and  C5_5 
REMARK    4  A    between atoms: C4_4  and  C6_6 
REMARK    5  A    between atoms: C5_5  and  C7_7 
ROOT
HETATM    1  C2  UNL     1     -33.532   7.356   6.682  1.00 20.00     0.010 C 
HETATM    2  C7  UNL     1     -33.724   6.157   5.747  1.00 20.00    -0.012 C 
ENDROOT
BRANCH   2   3
HETATM    3  C3  UNL     1     -34.884   5.290   6.267  1.00 20.00     0.073 C 
BRANCH   3   4
HETATM    4  C1  UNL     1     -34.843   3.855   5.788  1.00 20.00     0.231 C 
HETATM    5  O8  UNL     1     -35.183   3.477   4.672  1.00 20.00    -0.307 OA
ENDBRANCH   3   4
ENDBRANCH   2   3
BRANCH   2   6
HETATM    6  C5  UNL     1     -33.992   6.609   4.295  1.00 20.00     0.005 C 
BRANCH   6   7
HETATM    7  C4  UNL     1     -32.857   6.246   3.327  1.00 20.00     0.015 C 
BRANCH   7   8
HETATM    8  C6  UNL     1     -31.798   7.339   3.209  1.00 20.00     0.114 C 
HETATM    9 CL9  UNL     1     -32.046   8.354   1.769  1.00 20.00    -0.130 Cl
ENDBRANCH   7   8
ENDBRANCH   6   7
ENDBRANCH   2   6
TORSDOF 5
ENDMDL
MODEL 3
REMARK VINA RESULT:      -4.4      1.923      2.525
REMARK  5 active torsions:
REMARK  status: ('A' for Active; 'I' for Inactive)
REMARK    1  A    between atoms: C1_1  and  C3_3 
REMARK    2  A    between atoms: C3_3  and  C7_7 
REMARK    3  A    between atoms: C4_4  and  C5_5 
REMARK    4  A    between atoms: C4_4  and  C6_6 
REMARK    5  A    between atoms: C5_5  and  C7_7 
ROOT
HETATM    1  C2  UNL     1     -34.749   3.627   4.803  1.00 20.00     0.010 C 
HETATM    2  C7  UNL     1     -35.140   5.071   5.135  1.00 20.00    -0.012 C 
ENDROOT
BRANCH   2   3
HETATM    3  C3  UNL     1     -34.413   5.512   6.417  1.00 20.00     0.073 C 
BRANCH   3   4
HETATM    4  C1  UNL     1     -33.956   6.954   6.402  1.00 20.00     0.231 C 
HETATM    5  O8  UNL     1     -33.037   7.407   7.074  1.00 20.00    -0.307 OA
ENDBRANCH   3   4
ENDBRANCH   2   3
BRANCH   2   6
HETATM    6  C5  UNL     1     -34.813   6.028   3.968  1.00 20.00     0.005 C 
BRANCH   6   7
HETATM    7  C4  UNL     1     -33.737   5.481   3.019  1.00 20.00     0.015 C 
BRANCH   7   8
HETATM    8  C6  UNL     1     -32.367   6.117   3.237  1.00 20.00     0.114 C 
HETATM    9 CL9  UNL     1     -32.233   7.703   2.442  1.00 20.00    -0.130 Cl
ENDBRANCH   7   8
ENDBRANCH   6   7
ENDBRANCH   2   6
TORSDOF 5
ENDMDL
MODEL 4
REMARK VINA RESULT:      -4.4      1.328      1.394
REMARK  5 active torsions:
REMARK  status: ('A' for Active; 'I' for Inactive)
REMARK    1  A    between atoms: C1_1  and  C3_3 
REMARK    2  A    between atoms: C3_3  and  C7_7 
REMARK    3  A    between atoms: C4_4  and  C5_5 
REMARK    4  A    between atoms: C4_4  and  C6_6 
REMARK    5  A    between atoms: C5_5  and  C7_7 
ROOT
HETATM    1  C2  UNL     1     -34.731   5.428   2.867  1.00 20.00     0.010 C 
HETATM    2  C7  UNL     1     -33.884   6.184   3.896  1.00 20.00    -0.012 C 
ENDROOT
BRANCH   2   3
HETATM    3  C3  UNL     1     -34.030   5.506   5.269  1.00 20.00     0.073 C 
BRANCH   3   4
HETATM    4  C1  UNL     1     -34.107   6.475   6.429  1.00 20.00     0.231 C 
HETATM    5  O8  UNL     1     -33.204   7.230   6.775  1.00 20.00    -0.307 OA
ENDBRANCH   3   4
ENDBRANCH   2   3
BRANCH   2   6
HETATM    6  C5  UNL     1     -32.399   6.241   3.473  1.00 20.00     0.005 C 
BRANCH   6   7
HETATM    7  C4  UNL     1     -31.887   7.671   3.248  1.00 20.00     0.015 C 
BRANCH   7   8
HETATM    8  C6  UNL     1     -31.995   8.124   1.795  1.00 20.00     0.114 C 
HETATM    9 CL9  UNL     1     -32.522   9.818   1.663  1.00 20.00    -0.130 Cl
ENDBRANCH   7   8
ENDBRANCH   6   7
ENDBRANCH   2   6
TORSDOF 5
ENDMDL
MODEL 5
REMARK VINA RESULT:      -4.4      3.412      4.792
REMARK  5 active torsions:
REMARK  status: ('A' for Active; 'I' for Inactive)
REMARK    1  A    between atoms: C1_1  and  C3_3 
REMARK    2  A    between atoms: C3_3  and  C7_7 
REMARK    3  A    between atoms: C4_4  and  C5_5 
REMARK    4  A    between atoms: C4_4  and  C6_6 
REMARK    5  A    between atoms: C5_5  and  C7_7 
ROOT
HETATM    1  C2  UNL     1     -32.448   5.463   2.371  1.00 20.00     0.010 C 
HETATM    2  C7  UNL     1     -32.542   6.349   3.617  1.00 20.00    -0.012 C 
ENDROOT
BRANCH   2   3
HETATM    3  C3  UNL     1     -31.819   7.680   3.350  1.00 20.00     0.073 C 
BRANCH   3   4
HETATM    4  C1  UNL     1     -32.058   8.243   1.966  1.00 20.00     0.231 C 
HETATM    5  O8  UNL     1     -32.438   9.384   1.728  1.00 20.00    -0.307 OA
ENDBRANCH   3   4
ENDBRANCH   2   3
BRANCH   2   6
HETATM    6  C5  UNL     1     -34.011   6.600   4.023  1.00 20.00     0.005 C 
BRANCH   6   7
HETATM    7  C4  UNL     1     -34.933   5.408   3.730  1.00 20.00     0.015 C 
BRANCH   7   8
HETATM    8  C6  UNL     1     -35.160   4.512   4.945  1.00 20.00     0.114 C 
HETATM    9 CL9  UNL     1     -34.647   5.297   6.457  1.00 20.00    -0.130 Cl
ENDBRANCH   7   8
ENDBRANCH   6   7
ENDBRANCH   2   6
TORSDOF 5
ENDMDL
MODEL 6
REMARK VINA RESULT:      -4.1      3.240      4.643
REMARK  5 active torsions:
REMARK  status: ('A' for Active; 'I' for Inactive)
REMARK    1  A    between atoms: C1_1  and  C3_3 
REMARK    2  A    between atoms: C3_3  and  C7_7 
REMARK    3  A    between atoms: C4_4  and  C5_5 
REMARK    4  A    between atoms: C4_4  and  C6_6 
REMARK    5  A    between atoms: C5_5  and  C7_7 
ROOT
HETATM    1  C2  UNL     1     -32.930   5.358   2.110  1.00 20.00     0.010 C 
HETATM    2  C7  UNL     1     -32.809   6.065   3.465  1.00 20.00    -0.012 C 
ENDROOT
BRANCH   2   3
HETATM    3  C3  UNL     1     -31.929   7.317   3.307  1.00 20.00     0.073 C 
BRANCH   3   4
HETATM    4  C1  UNL     1     -32.299   8.184   2.123  1.00 20.00     0.231 C 
HETATM    5  O8  UNL     1     -31.551   8.455   1.190  1.00 20.00    -0.307 OA
ENDBRANCH   3   4
ENDBRANCH   2   3
BRANCH   2   6
HETATM    6  C5  UNL     1     -34.195   6.441   4.032  1.00 20.00     0.005 C 
BRANCH   6   7
HETATM    7  C4  UNL     1     -34.863   5.299   4.810  1.00 20.00     0.015 C 
BRANCH   7   8
HETATM    8  C6  UNL     1     -34.571   5.343   6.307  1.00 20.00     0.114 C 
HETATM    9 CL9  UNL     1     -33.879   6.904   6.806  1.00 20.00    -0.130 Cl
ENDBRANCH   7   8
ENDBRANCH   6   7
ENDBRANCH   2   6
TORSDOF 5
ENDMDL
MODEL 7
REMARK VINA RESULT:      -4.0     11.106     12.336
REMARK  5 active torsions:
REMARK  status: ('A' for Active; 'I' for Inactive)
REMARK    1  A    between atoms: C1_1  and  C3_3 
REMARK    2  A    between atoms: C3_3  and  C7_7 
REMARK    3  A    between atoms: C4_4  and  C5_5 
REMARK    4  A    between atoms: C4_4  and  C6_6 
REMARK    5  A    between atoms: C5_5  and  C7_7 
ROOT
HETATM    1  C2  UNL     1     -34.483  15.842  -2.541  1.00 20.00     0.010 C 
HETATM    2  C7  UNL     1     -33.267  15.461  -3.392  1.00 20.00    -0.012 C 
ENDROOT
BRANCH   2   3
HETATM    3  C3  UNL     1     -33.307  13.952  -3.687  1.00 20.00     0.073 C 
BRANCH   3   4
HETATM    4  C1  UNL     1     -34.693  13.416  -3.972  1.00 20.00     0.231 C 
HETATM    5  O8  UNL     1     -34.957  12.554  -4.803  1.00 20.00    -0.307 OA
ENDBRANCH   3   4
ENDBRANCH   2   3
BRANCH   2   6
HETATM    6  C5  UNL     1     -33.220  16.272  -4.706  1.00 20.00     0.005 C 
BRANCH   6   7
HETATM    7  C4  UNL     1     -34.544  16.977  -5.031  1.00 20.00     0.015 C 
BRANCH   7   8
HETATM    8  C6  UNL     1     -35.244  16.400  -6.259  1.00 20.00     0.114 C 
HETATM    9 CL9  UNL     1     -34.247  15.179  -7.083  1.00 20.00    -0.130 Cl
ENDBRANCH   7   8
ENDBRANCH   6   7
ENDBRANCH   2   6
TORSDOF 5
ENDMDL
MODEL 8
REMARK VINA RESULT:      -4.0     11.011     12.319
REMARK  5 active torsions:
REMARK  status: ('A' for Active; 'I' for Inactive)
REMARK    1  A    between atoms: C1_1  and  C3_3 
REMARK    2  A    between atoms: C3_3  and  C7_7 
REMARK    3  A    between atoms: C4_4  and  C5_5 
REMARK    4  A    between atoms: C4_4  and  C6_6 
REMARK    5  A    between atoms: C5_5  and  C7_7 
ROOT
HETATM    1  C2  UNL     1     -34.432  16.458  -1.493  1.00 20.00     0.010 C 
HETATM    2  C7  UNL     1     -34.022  15.900  -2.860  1.00 20.00    -0.012 C 
ENDROOT
BRANCH   2   3
HETATM    3  C3  UNL     1     -35.049  14.846  -3.307  1.00 20.00     0.073 C 
BRANCH   3   4
HETATM    4  C1  UNL     1     -34.436  13.527  -3.724  1.00 20.00     0.231 C 
HETATM    5  O8  UNL     1     -34.967  12.709  -4.467  1.00 20.00    -0.307 OA
ENDBRANCH   3   4
ENDBRANCH   2   3
BRANCH   2   6
HETATM    6  C5  UNL     1     -33.899  17.022  -3.914  1.00 20.00     0.005 C 
BRANCH   6   7
HETATM    7  C4  UNL     1     -33.238  16.559  -5.220  1.00 20.00     0.015 C 
BRANCH   7   8
HETATM    8  C6  UNL     1     -34.194  16.563  -6.410  1.00 20.00     0.114 C 
HETATM    9 CL9  UNL     1     -34.359  14.947  -7.137  1.00 20.00    -0.130 Cl
ENDBRANCH   7   8
ENDBRANCH   6   7
ENDBRANCH   2   6
TORSDOF 5
ENDMDL
MODEL 9
REMARK VINA RESULT:      -4.0     10.996     12.136
REMARK  5 active torsions:
REMARK  status: ('A' for Active; 'I' for Inactive)
REMARK    1  A    between atoms: C1_1  and  C3_3 
REMARK    2  A    between atoms: C3_3  and  C7_7 
REMARK    3  A    between atoms: C4_4  and  C5_5 
REMARK    4  A    between atoms: C4_4  and  C6_6 
REMARK    5  A    between atoms: C5_5  and  C7_7 
ROOT
HETATM    1  C2  UNL     1     -34.570  14.865  -7.032  1.00 20.00     0.010 C 
HETATM    2  C7  UNL     1     -34.952  14.812  -5.549  1.00 20.00    -0.012 C 
ENDROOT
BRANCH   2   3
HETATM    3  C3  UNL     1     -36.479  14.940  -5.413  1.00 20.00     0.073 C 
BRANCH   3   4
HETATM    4  C1  UNL     1     -36.999  14.667  -4.019  1.00 20.00     0.231 C 
HETATM    5  O8  UNL     1     -38.097  14.187  -3.759  1.00 20.00    -0.307 OA
ENDBRANCH   3   4
ENDBRANCH   2   3
BRANCH   2   6
HETATM    6  C5  UNL     1     -34.454  13.509  -4.883  1.00 20.00     0.005 C 
BRANCH   6   7
HETATM    7  C4  UNL     1     -33.419  13.752  -3.777  1.00 20.00     0.015 C 
BRANCH   7   8
HETATM    8  C6  UNL     1     -33.043  15.222  -3.619  1.00 20.00     0.114 C 
HETATM    9 CL9  UNL     1     -33.948  16.004  -2.301  1.00 20.00    -0.130 Cl
ENDBRANCH   7   8
ENDBRANCH   6   7
ENDBRANCH   2   6
TORSDOF 5
ENDMDL
