MODEL 1
REMARK VINA RESULT:      -4.5      0.000      0.000
REMARK  2 active torsions:
REMARK  status: ('A' for Active; 'I' for Inactive)
REMARK    1  A    between atoms: C3_3  and  C4_4 
REMARK    2  A    between atoms: C5_5  and  C6_6 
ROOT
HETATM    1  C1  UNL     1     -31.902   8.246   1.717  1.00 20.00     0.087 C 
HETATM    2  C2  UNL     1     -32.264   7.590   2.924  1.00 20.00     0.093 C 
HETATM    3  C3  UNL     1     -32.993   6.465   2.918  1.00 20.00     0.011 C 
HETATM    4  N7  UNL     1     -31.603   8.784   0.733  1.00 20.00    -0.192 NA
ENDROOT
BRANCH   3   5
HETATM    5  C4  UNL     1     -33.380   5.772   4.127  1.00 20.00    -0.002 C 
HETATM    6  C5  UNL     1     -34.042   6.364   5.133  1.00 20.00    -0.012 C 
BRANCH   6   7
HETATM    7  C6  UNL     1     -34.452   5.652   6.380  1.00 20.00     0.141 C 
HETATM    8 CL8  UNL     1     -35.088   4.043   5.975  1.00 20.00    -0.126 Cl
ENDBRANCH   6   7
ENDBRANCH   3   5
TORSDOF 2
ENDMDL
MODEL 2
REMARK VINA RESULT:      -4.4      4.062      5.329
REMARK  2 active torsions:
REMARK  status: ('A' for Active; 'I' for Inactive)
REMARK    1  A    between atoms: C3_3  and  C4_4 
REMARK    2  A    between atoms: C5_5  and  C6_6 
ROOT
HETATM    1  C1  UNL     1     -34.919   4.839   5.344  1.00 20.00     0.087 C 
HETATM    2  C2  UNL     1     -34.561   5.529   4.155  1.00 20.00     0.093 C 
HETATM    3  C3  UNL     1     -33.294   5.893   3.911  1.00 20.00     0.011 C 
HETATM    4  N7  UNL     1     -35.216   4.274   6.314  1.00 20.00    -0.192 NA
ENDROOT
BRANCH   3   5
HETATM    5  C4  UNL     1     -32.894   6.596   2.712  1.00 20.00    -0.002 C 
HETATM    6  C5  UNL     1     -32.155   7.715   2.730  1.00 20.00    -0.012 C 
BRANCH   6   7
HETATM    7  C6  UNL     1     -31.730   8.441   1.495  1.00 20.00     0.141 C 
HETATM    8 CL8  UNL     1     -32.503  10.039   1.437  1.00 20.00    -0.126 Cl
ENDBRANCH   6   7
ENDBRANCH   3   5
TORSDOF 2
ENDMDL
MODEL 3
REMARK VINA RESULT:      -4.3     11.233     11.562
REMARK  2 active torsions:
REMARK  status: ('A' for Active; 'I' for Inactive)
REMARK    1  A    between atoms: C3_3  and  C4_4 
REMARK    2  A    between atoms: C5_5  and  C6_6 
ROOT
HETATM    1  C1  UNL     1     -34.438  13.720  -3.969  1.00 20.00     0.087 C 
HETATM    2  C2  UNL     1     -33.941  14.834  -3.241  1.00 20.00     0.093 C 
HETATM    3  C3  UNL     1     -34.710  15.500  -2.367  1.00 20.00     0.011 C 
HETATM    4  N7  UNL     1     -34.841  12.809  -4.565  1.00 20.00    -0.192 NA
ENDROOT
BRANCH   3   5
HETATM    5  C4  UNL     1     -34.237  16.637  -1.610  1.00 20.00    -0.002 C 
HETATM    6  C5  UNL     1     -34.689  16.942  -0.384  1.00 20.00    -0.012 C 
BRANCH   6   7
HETATM    7  C6  UNL     1     -34.197  18.110   0.407  1.00 20.00     0.141 C 
HETATM    8 CL8  UNL     1     -32.572  18.571  -0.142  1.00 20.00    -0.126 Cl
ENDBRANCH   6   7
ENDBRANCH   3   5
TORSDOF 2
ENDMDL
MODEL 4
REMARK VINA RESULT:      -3.8     11.396     11.861
REMARK  2 active torsions:
REMARK  status: ('A' for Active; 'I' for Inactive)
REMARK    1  A    between atoms: C3_3  and  C4_4 
REMARK    2  A    between atoms: C5_5  and  C6_6 
ROOT
HETATM    1  C1  UNL     1     -34.668  17.069  -0.385  1.00 20.00     0.087 C 
HETATM    2  C2  UNL     1     -34.788  16.244  -1.535  1.00 20.00     0.093 C 
HETATM    3  C3  UNL     1     -33.791  16.131  -2.424  1.00 20.00     0.011 C 
HETATM    4  N7  UNL     1     -34.573  17.741   0.557  1.00 20.00    -0.192 NA
ENDROOT
BRANCH   3   5
HETATM    5  C4  UNL     1     -33.879  15.302  -3.604  1.00 20.00    -0.002 C 
HETATM    6  C5  UNL     1     -34.421  14.074  -3.600  1.00 20.00    -0.012 C 
BRANCH   6   7
HETATM    7  C6  UNL     1     -34.525  13.216  -4.819  1.00 20.00     0.141 C 
HETATM    8 CL8  UNL     1     -34.787  14.232  -6.253  1.00 20.00    -0.126 Cl
ENDBRANCH   6   7
ENDBRANCH   3   5
TORSDOF 2
ENDMDL
MODEL 5
REMARK VINA RESULT:      -3.7     11.479     12.007
REMARK  2 active torsions:
REMARK  status: ('A' for Active; 'I' for Inactive)
REMARK    1  A    between atoms: C3_3  and  C4_4 
REMARK    2  A    between atoms: C5_5  and  C6_6 
ROOT
HETATM    1  C1  UNL     1     -34.040  18.345   0.880  1.00 20.00     0.087 C 
HETATM    2  C2  UNL     1     -33.892  17.676  -0.364  1.00 20.00     0.093 C 
HETATM    3  C3  UNL     1     -34.705  16.671  -0.721  1.00 20.00     0.011 C 
HETATM    4  N7  UNL     1     -34.158  18.895   1.895  1.00 20.00    -0.192 NA
ENDROOT
BRANCH   3   5
HETATM    5  C4  UNL     1     -34.583  15.968  -1.978  1.00 20.00    -0.002 C 
HETATM    6  C5  UNL     1     -33.557  16.150  -2.824  1.00 20.00    -0.012 C 
BRANCH   6   7
HETATM    7  C6  UNL     1     -33.420  15.420  -4.120  1.00 20.00     0.141 C 
HETATM    8 CL8  UNL     1     -33.370  13.669  -3.824  1.00 20.00    -0.126 Cl
ENDBRANCH   6   7
ENDBRANCH   3   5
TORSDOF 2
ENDMDL
MODEL 6
REMARK VINA RESULT:      -3.6     11.092     11.522
REMARK  2 active torsions:
REMARK  status: ('A' for Active; 'I' for Inactive)
REMARK    1  A    between atoms: C3_3  and  C4_4 
REMARK    2  A    between atoms: C5_5  and  C6_6 
ROOT
HETATM    1  C1  UNL     1     -34.451  13.922  -3.755  1.00 20.00     0.087 C 
HETATM    2  C2  UNL     1     -34.777  15.028  -2.925  1.00 20.00     0.093 C 
HETATM    3  C3  UNL     1     -33.837  15.881  -2.494  1.00 20.00     0.011 C 
HETATM    4  N7  UNL     1     -34.190  13.017  -4.434  1.00 20.00    -0.192 NA
ENDROOT
BRANCH   3   5
HETATM    5  C4  UNL     1     -34.133  17.016  -1.649  1.00 20.00    -0.002 C 
HETATM    6  C5  UNL     1     -34.657  16.899  -0.419  1.00 20.00    -0.012 C 
BRANCH   6   7
HETATM    7  C6  UNL     1     -34.955  18.068   0.463  1.00 20.00     0.141 C 
HETATM    8 CL8  UNL     1     -36.711  18.313   0.567  1.00 20.00    -0.126 Cl
ENDBRANCH   6   7
ENDBRANCH   3   5
TORSDOF 2
ENDMDL
MODEL 7
REMARK VINA RESULT:      -3.6     11.454     11.669
REMARK  2 active torsions:
REMARK  status: ('A' for Active; 'I' for Inactive)
REMARK    1  A    between atoms: C3_3  and  C4_4 
REMARK    2  A    between atoms: C5_5  and  C6_6 
ROOT
HETATM    1  C1  UNL     1     -33.406  16.128  -3.841  1.00 20.00     0.087 C 
HETATM    2  C2  UNL     1     -34.103  15.992  -2.610  1.00 20.00     0.093 C 
HETATM    3  C3  UNL     1     -34.013  16.922  -1.648  1.00 20.00     0.011 C 
HETATM    4  N7  UNL     1     -32.839  16.236  -4.848  1.00 20.00    -0.192 NA
ENDROOT
BRANCH   3   5
HETATM    5  C4  UNL     1     -34.708  16.816  -0.385  1.00 20.00    -0.002 C 
HETATM    6  C5  UNL     1     -34.944  17.868   0.414  1.00 20.00    -0.012 C 
BRANCH   6   7
HETATM    7  C6  UNL     1     -35.670  17.767   1.716  1.00 20.00     0.141 C 
HETATM    8 CL8  UNL     1     -34.517  17.889   3.061  1.00 20.00    -0.126 Cl
ENDBRANCH   6   7
ENDBRANCH   3   5
TORSDOF 2
ENDMDL
MODEL 8
REMARK VINA RESULT:      -3.5     11.965     12.466
REMARK  2 active torsions:
REMARK  status: ('A' for Active; 'I' for Inactive)
REMARK    1  A    between atoms: C3_3  and  C4_4 
REMARK    2  A    between atoms: C5_5  and  C6_6 
ROOT
HETATM    1  C1  UNL     1     -35.237  17.679   1.233  1.00 20.00     0.087 C 
HETATM    2  C2  UNL     1     -34.546  17.618  -0.006  1.00 20.00     0.093 C 
HETATM    3  C3  UNL     1     -34.632  16.544  -0.805  1.00 20.00     0.011 C 
HETATM    4  N7  UNL     1     -35.800  17.732   2.247  1.00 20.00    -0.192 NA
ENDROOT
BRANCH   3   5
HETATM    5  C4  UNL     1     -33.943  16.449  -2.072  1.00 20.00    -0.002 C 
HETATM    6  C5  UNL     1     -34.280  15.568  -3.026  1.00 20.00    -0.012 C 
BRANCH   6   7
HETATM    7  C6  UNL     1     -33.578  15.471  -4.342  1.00 20.00     0.141 C 
HETATM    8 CL8  UNL     1     -33.323  17.096  -5.012  1.00 20.00    -0.126 Cl
ENDBRANCH   6   7
ENDBRANCH   3   5
TORSDOF 2
ENDMDL
MODEL 9
REMARK VINA RESULT:      -3.3     11.199     11.604
REMARK  2 active torsions:
REMARK  status: ('A' for Active; 'I' for Inactive)
REMARK    1  A    between atoms: C3_3  and  C4_4 
REMARK    2  A    between atoms: C5_5  and  C6_6 
ROOT
HETATM    1  C1  UNL     1     -42.050   1.541  -4.401  1.00 20.00     0.087 C 
HETATM    2  C2  UNL     1     -41.670   2.384  -3.322  1.00 20.00     0.093 C 
HETATM    3  C3  UNL     1     -42.570   3.128  -2.664  1.00 20.00     0.011 C 
HETATM    4  N7  UNL     1     -42.357   0.851  -5.283  1.00 20.00    -0.192 NA
ENDROOT
BRANCH   3   5
HETATM    5  C4  UNL     1     -42.219   3.996  -1.562  1.00 20.00    -0.002 C 
HETATM    6  C5  UNL     1     -41.088   4.719  -1.529  1.00 20.00    -0.012 C 
BRANCH   6   7
HETATM    7  C6  UNL     1     -40.724   5.625  -0.398  1.00 20.00     0.141 C 
HETATM    8 CL8  UNL     1     -41.060   7.311  -0.842  1.00 20.00    -0.126 Cl
ENDBRANCH   6   7
ENDBRANCH   3   5
TORSDOF 2
ENDMDL
