MODEL 1
REMARK VINA RESULT:      -5.3      0.000      0.000
REMARK  0 active torsions:
REMARK  status: ('A' for Active; 'I' for Inactive)
ROOT
HETATM    1  C1  UNL     1     -34.130  15.716  -2.630  1.00 20.00     0.068 C 
HETATM    2  C2  UNL     1     -35.139  14.539  -6.875  1.00 20.00     0.009 A 
HETATM    3  C3  UNL     1     -35.098  15.762  -7.548  1.00 20.00     0.019 A 
HETATM    4  C4  UNL     1     -33.826  16.771  -5.736  1.00 20.00     0.028 A 
HETATM    5  C5  UNL     1     -34.510  14.446  -5.644  1.00 20.00    -0.050 A 
HETATM    6  C6  UNL     1     -33.865  15.552  -5.075  1.00 20.00    -0.033 A 
HETATM    7  C7  UNL     1     -34.447  16.869  -6.983  1.00 20.00     0.011 A 
HETATM    8  C8  UNL     1     -34.449  13.263  -4.731  1.00 20.00     0.041 C 
HETATM    9  C9  UNL     1     -33.301  13.671  -3.792  1.00 20.00     0.028 C 
HETATM   10  C10 UNL     1     -33.294  15.214  -3.727  1.00 20.00     0.126 C 
HETATM   11  N11 UNL     1     -34.791  16.112  -1.763  1.00 20.00    -0.197 NA
HETATM   12 BR12 UNL     1     -34.416  18.514  -7.918  1.00 20.00    -0.051 Br
ENDROOT
TORSDOF 0
ENDMDL
MODEL 2
REMARK VINA RESULT:      -5.2      3.116      4.365
REMARK  0 active torsions:
REMARK  status: ('A' for Active; 'I' for Inactive)
ROOT
HETATM    1  C1  UNL     1     -36.505  14.374  -3.787  1.00 20.00     0.068 C 
HETATM    2  C2  UNL     1     -33.641  17.868  -3.706  1.00 20.00     0.009 A 
HETATM    3  C3  UNL     1     -33.702  18.282  -2.373  1.00 20.00     0.019 A 
HETATM    4  C4  UNL     1     -34.670  16.152  -1.708  1.00 20.00     0.028 A 
HETATM    5  C5  UNL     1     -34.085  16.594  -4.019  1.00 20.00    -0.050 A 
HETATM    6  C6  UNL     1     -34.601  15.744  -3.031  1.00 20.00    -0.033 A 
HETATM    7  C7  UNL     1     -34.213  17.431  -1.382  1.00 20.00     0.011 A 
HETATM    8  C8  UNL     1     -34.147  15.948  -5.366  1.00 20.00     0.041 C 
HETATM    9  C9  UNL     1     -34.317  14.468  -4.980  1.00 20.00     0.028 C 
HETATM   10  C10 UNL     1     -35.048  14.436  -3.619  1.00 20.00     0.126 C 
HETATM   11  N11 UNL     1     -37.656  14.324  -3.920  1.00 20.00    -0.197 NA
HETATM   12 BR12 UNL     1     -34.288  18.024   0.412  1.00 20.00    -0.051 Br
ENDROOT
TORSDOF 0
ENDMDL
MODEL 3
REMARK VINA RESULT:      -5.2      3.489      5.051
REMARK  0 active torsions:
REMARK  status: ('A' for Active; 'I' for Inactive)
ROOT
HETATM    1  C1  UNL     1     -35.834  14.775  -3.452  1.00 20.00     0.068 C 
HETATM    2  C2  UNL     1     -33.642  18.605  -2.481  1.00 20.00     0.009 A 
HETATM    3  C3  UNL     1     -33.963  18.807  -1.137  1.00 20.00     0.019 A 
HETATM    4  C4  UNL     1     -34.641  16.484  -0.901  1.00 20.00     0.028 A 
HETATM    5  C5  UNL     1     -33.815  17.339  -3.014  1.00 20.00    -0.050 A 
HETATM    6  C6  UNL     1     -34.316  16.287  -2.234  1.00 20.00    -0.033 A 
HETATM    7  C7  UNL     1     -34.458  17.755  -0.353  1.00 20.00     0.011 A 
HETATM    8  C8  UNL     1     -33.575  16.893  -4.421  1.00 20.00     0.041 C 
HETATM    9  C9  UNL     1     -33.546  15.365  -4.250  1.00 20.00     0.028 C 
HETATM   10  C10 UNL     1     -34.447  15.027  -3.042  1.00 20.00     0.126 C 
HETATM   11  N11 UNL     1     -36.930  14.575  -3.777  1.00 20.00    -0.197 NA
HETATM   12 BR12 UNL     1     -34.888  18.063   1.463  1.00 20.00    -0.051 Br
ENDROOT
TORSDOF 0
ENDMDL
MODEL 4
REMARK VINA RESULT:      -5.1      3.323      4.743
REMARK  0 active torsions:
REMARK  status: ('A' for Active; 'I' for Inactive)
ROOT
HETATM    1  C1  UNL     1     -33.893  14.206  -3.636  1.00 20.00     0.068 C 
HETATM    2  C2  UNL     1     -35.683  18.312  -3.039  1.00 20.00     0.009 A 
HETATM    3  C3  UNL     1     -35.814  18.389  -1.651  1.00 20.00     0.019 A 
HETATM    4  C4  UNL     1     -34.242  16.557  -1.354  1.00 20.00     0.028 A 
HETATM    5  C5  UNL     1     -34.821  17.364  -3.566  1.00 20.00    -0.050 A 
HETATM    6  C6  UNL     1     -34.111  16.489  -2.733  1.00 20.00    -0.033 A 
HETATM    7  C7  UNL     1     -35.100  17.518  -0.815  1.00 20.00     0.011 A 
HETATM    8  C8  UNL     1     -34.543  17.075  -5.006  1.00 20.00     0.041 C 
HETATM    9  C9  UNL     1     -33.246  16.255  -4.902  1.00 20.00     0.028 C 
HETATM   10  C10 UNL     1     -33.275  15.534  -3.536  1.00 20.00     0.126 C 
HETATM   11  N11 UNL     1     -34.381  13.157  -3.715  1.00 20.00    -0.197 NA
HETATM   12 BR12 UNL     1     -35.305  17.643   1.061  1.00 20.00    -0.051 Br
ENDROOT
TORSDOF 0
ENDMDL
MODEL 5
REMARK VINA RESULT:      -4.8      2.979      4.155
REMARK  0 active torsions:
REMARK  status: ('A' for Active; 'I' for Inactive)
ROOT
HETATM    1  C1  UNL     1     -35.118  14.078  -5.713  1.00 20.00     0.068 C 
HETATM    2  C2  UNL     1     -33.709  16.799  -2.391  1.00 20.00     0.009 A 
HETATM    3  C3  UNL     1     -34.855  17.543  -2.100  1.00 20.00     0.019 A 
HETATM    4  C4  UNL     1     -36.261  15.904  -3.221  1.00 20.00     0.028 A 
HETATM    5  C5  UNL     1     -33.858  15.609  -3.084  1.00 20.00    -0.050 A 
HETATM    6  C6  UNL     1     -35.120  15.167  -3.502  1.00 20.00    -0.033 A 
HETATM    7  C7  UNL     1     -36.120  17.099  -2.511  1.00 20.00     0.011 A 
HETATM    8  C8  UNL     1     -32.786  14.668  -3.534  1.00 20.00     0.041 C 
HETATM    9  C9  UNL     1     -33.608  13.406  -3.846  1.00 20.00     0.028 C 
HETATM   10  C10 UNL     1     -35.019  13.876  -4.263  1.00 20.00     0.126 C 
HETATM   11  N11 UNL     1     -35.195  14.239  -6.860  1.00 20.00    -0.197 NA
HETATM   12 BR12 UNL     1     -37.652  18.133  -2.106  1.00 20.00    -0.051 Br
ENDROOT
TORSDOF 0
ENDMDL
MODEL 6
REMARK VINA RESULT:      -4.8      1.992      2.084
REMARK  0 active torsions:
REMARK  status: ('A' for Active; 'I' for Inactive)
ROOT
HETATM    1  C1  UNL     1     -37.252  14.656  -3.754  1.00 20.00     0.068 C 
HETATM    2  C2  UNL     1     -34.381  15.098  -7.215  1.00 20.00     0.009 A 
HETATM    3  C3  UNL     1     -34.608  16.411  -7.634  1.00 20.00     0.019 A 
HETATM    4  C4  UNL     1     -35.678  16.950  -5.517  1.00 20.00     0.028 A 
HETATM    5  C5  UNL     1     -34.797  14.733  -5.945  1.00 20.00    -0.050 A 
HETATM    6  C6  UNL     1     -35.445  15.647  -5.105  1.00 20.00    -0.033 A 
HETATM    7  C7  UNL     1     -35.251  17.330  -6.791  1.00 20.00     0.011 A 
HETATM    8  C8  UNL     1     -34.694  13.389  -5.296  1.00 20.00     0.041 C 
HETATM    9  C9  UNL     1     -34.929  13.752  -3.820  1.00 20.00     0.028 C 
HETATM   10  C10 UNL     1     -35.828  15.008  -3.800  1.00 20.00     0.126 C 
HETATM   11  N11 UNL     1     -38.378  14.377  -3.717  1.00 20.00    -0.197 NA
HETATM   12 BR12 UNL     1     -35.549  19.099  -7.391  1.00 20.00    -0.051 Br
ENDROOT
TORSDOF 0
ENDMDL
MODEL 7
REMARK VINA RESULT:      -4.7      1.108      1.146
REMARK  0 active torsions:
REMARK  status: ('A' for Active; 'I' for Inactive)
ROOT
HETATM    1  C1  UNL     1     -34.143  16.201  -2.276  1.00 20.00     0.068 C 
HETATM    2  C2  UNL     1     -35.249  14.107  -6.125  1.00 20.00     0.009 A 
HETATM    3  C3  UNL     1     -35.900  15.113  -6.843  1.00 20.00     0.019 A 
HETATM    4  C4  UNL     1     -34.931  16.826  -5.413  1.00 20.00     0.028 A 
HETATM    5  C5  UNL     1     -34.436  14.478  -5.066  1.00 20.00    -0.050 A 
HETATM    6  C6  UNL     1     -34.282  15.824  -4.708  1.00 20.00    -0.033 A 
HETATM    7  C7  UNL     1     -35.742  16.462  -6.490  1.00 20.00     0.011 A 
HETATM    8  C8  UNL     1     -33.672  13.587  -4.140  1.00 20.00     0.041 C 
HETATM    9  C9  UNL     1     -32.691  14.587  -3.504  1.00 20.00     0.028 C 
HETATM   10  C10 UNL     1     -33.385  15.968  -3.511  1.00 20.00     0.126 C 
HETATM   11  N11 UNL     1     -34.742  16.384  -1.299  1.00 20.00    -0.197 NA
HETATM   12 BR12 UNL     1     -36.643  17.799  -7.479  1.00 20.00    -0.051 Br
ENDROOT
TORSDOF 0
ENDMDL
MODEL 8
REMARK VINA RESULT:      -4.6      1.900      3.136
REMARK  0 active torsions:
REMARK  status: ('A' for Active; 'I' for Inactive)
ROOT
HETATM    1  C1  UNL     1     -34.311  14.217  -3.545  1.00 20.00     0.068 C 
HETATM    2  C2  UNL     1     -33.361  18.608  -4.035  1.00 20.00     0.009 A 
HETATM    3  C3  UNL     1     -33.662  18.836  -5.379  1.00 20.00     0.019 A 
HETATM    4  C4  UNL     1     -34.984  16.797  -5.480  1.00 20.00     0.028 A 
HETATM    5  C5  UNL     1     -33.888  17.480  -3.427  1.00 20.00    -0.050 A 
HETATM    6  C6  UNL     1     -34.687  16.578  -4.143  1.00 20.00    -0.033 A 
HETATM    7  C7  UNL     1     -34.467  17.939  -6.096  1.00 20.00     0.011 A 
HETATM    8  C8  UNL     1     -33.681  17.012  -2.022  1.00 20.00     0.041 C 
HETATM    9  C9  UNL     1     -34.826  15.995  -1.874  1.00 20.00     0.028 C 
HETATM   10  C10 UNL     1     -35.107  15.422  -3.281  1.00 20.00     0.126 C 
HETATM   11  N11 UNL     1     -33.682  13.265  -3.754  1.00 20.00    -0.197 NA
HETATM   12 BR12 UNL     1     -34.849  18.274  -7.918  1.00 20.00    -0.051 Br
ENDROOT
TORSDOF 0
ENDMDL
MODEL 9
REMARK VINA RESULT:      -4.6      2.992      3.727
REMARK  0 active torsions:
REMARK  status: ('A' for Active; 'I' for Inactive)
ROOT
HETATM    1  C1  UNL     1     -34.614  13.505  -4.127  1.00 20.00     0.068 C 
HETATM    2  C2  UNL     1     -35.209  17.925  -4.857  1.00 20.00     0.009 A 
HETATM    3  C3  UNL     1     -36.516  18.133  -4.412  1.00 20.00     0.019 A 
HETATM    4  C4  UNL     1     -36.475  16.046  -3.164  1.00 20.00     0.028 A 
HETATM    5  C5  UNL     1     -34.548  16.782  -4.437  1.00 20.00    -0.050 A 
HETATM    6  C6  UNL     1     -35.176  15.847  -3.604  1.00 20.00    -0.033 A 
HETATM    7  C7  UNL     1     -37.144  17.202  -3.573  1.00 20.00     0.011 A 
HETATM    8  C8  UNL     1     -33.170  16.331  -4.804  1.00 20.00     0.041 C 
HETATM    9  C9  UNL     1     -32.903  15.273  -3.720  1.00 20.00     0.028 C 
HETATM   10  C10 UNL     1     -34.272  14.681  -3.318  1.00 20.00     0.126 C 
HETATM   11  N11 UNL     1     -34.883  12.575  -4.767  1.00 20.00    -0.197 NA
HETATM   12 BR12 UNL     1     -38.918  17.512  -2.994  1.00 20.00    -0.051 Br
ENDROOT
TORSDOF 0
ENDMDL
