MODEL 1
REMARK VINA RESULT:      -4.5      0.000      0.000
REMARK  3 active torsions:
REMARK  status: ('A' for Active; 'I' for Inactive)
REMARK    1  A    between atoms: C4_4  and  C7_7 
REMARK    2  A    between atoms: C7_7  and  C8_8 
REMARK    3  A    between atoms: C8_8  and  C9_9 
ROOT
HETATM    1  C1  UNL     1     -34.915  13.881  -5.079  1.00 20.00     0.141 C 
HETATM    2  C2  UNL     1     -34.928  13.920  -6.585  1.00 20.00     0.152 C 
HETATM    3  C3  UNL     1     -34.047  16.127  -5.394  1.00 20.00     0.086 C 
HETATM    4  C4  UNL     1     -34.794  15.238  -4.407  1.00 20.00     0.065 C 
HETATM    5  O10 UNL     1     -35.043  12.830  -4.457  1.00 20.00    -0.297 OA
HETATM    6  S11 UNL     1     -34.686  15.658  -7.018  1.00 20.00    -0.161 SA
ENDROOT
BRANCH   4   7
HETATM    7  C7  UNL     1     -34.075  15.156  -3.070  1.00 20.00     0.013 C 
BRANCH   7   8
HETATM    8  C8  UNL     1     -34.862  15.871  -1.969  1.00 20.00     0.005 C 
BRANCH   8   9
HETATM    9  C9  UNL     1     -34.034  16.925  -1.209  1.00 20.00    -0.023 C 
HETATM   10  C5  UNL     1     -34.755  17.318   0.082  1.00 20.00     0.009 C 
HETATM   11  C6  UNL     1     -33.764  18.174  -2.049  1.00 20.00     0.009 C 
ENDBRANCH   8   9
ENDBRANCH   7   8
ENDBRANCH   4   7
TORSDOF 3
ENDMDL
MODEL 2
REMARK VINA RESULT:      -4.5      1.936      2.545
REMARK  3 active torsions:
REMARK  status: ('A' for Active; 'I' for Inactive)
REMARK    1  A    between atoms: C4_4  and  C7_7 
REMARK    2  A    between atoms: C7_7  and  C8_8 
REMARK    3  A    between atoms: C8_8  and  C9_9 
ROOT
HETATM    1  C1  UNL     1     -33.594  15.792  -4.691  1.00 20.00     0.141 C 
HETATM    2  C2  UNL     1     -34.324  14.880  -5.644  1.00 20.00     0.152 C 
HETATM    3  C3  UNL     1     -35.084  14.721  -3.102  1.00 20.00     0.086 C 
HETATM    4  C4  UNL     1     -33.742  15.431  -3.223  1.00 20.00     0.065 C 
HETATM    5  O10 UNL     1     -32.898  16.722  -5.091  1.00 20.00    -0.297 OA
HETATM    6  S11 UNL     1     -35.213  13.709  -4.593  1.00 20.00    -0.161 SA
ENDROOT
BRANCH   4   7
HETATM    7  C7  UNL     1     -33.668  16.652  -2.321  1.00 20.00     0.013 C 
BRANCH   7   8
HETATM    8  C8  UNL     1     -34.608  16.516  -1.120  1.00 20.00     0.005 C 
BRANCH   8   9
HETATM    9  C9  UNL     1     -34.642  17.767  -0.223  1.00 20.00    -0.023 C 
HETATM   10  C5  UNL     1     -33.231  18.343  -0.083  1.00 20.00     0.009 C 
HETATM   11  C6  UNL     1     -35.219  17.476   1.163  1.00 20.00     0.009 C 
ENDBRANCH   8   9
ENDBRANCH   7   8
ENDBRANCH   4   7
TORSDOF 3
ENDMDL
MODEL 3
REMARK VINA RESULT:      -4.4      1.196      1.248
REMARK  3 active torsions:
REMARK  status: ('A' for Active; 'I' for Inactive)
REMARK    1  A    between atoms: C4_4  and  C7_7 
REMARK    2  A    between atoms: C7_7  and  C8_8 
REMARK    3  A    between atoms: C8_8  and  C9_9 
ROOT
HETATM    1  C1  UNL     1     -34.453  13.951  -4.038  1.00 20.00     0.141 C 
HETATM    2  C2  UNL     1     -35.001  13.624  -5.404  1.00 20.00     0.152 C 
HETATM    3  C3  UNL     1     -35.353  16.134  -4.604  1.00 20.00     0.086 C 
HETATM    4  C4  UNL     1     -34.985  15.236  -3.429  1.00 20.00     0.065 C 
HETATM    5  O10 UNL     1     -33.674  13.201  -3.457  1.00 20.00    -0.297 OA
HETATM    6  S11 UNL     1     -36.063  15.020  -5.837  1.00 20.00    -0.161 SA
ENDROOT
BRANCH   4   7
HETATM    7  C7  UNL     1     -33.973  15.900  -2.510  1.00 20.00     0.013 C 
BRANCH   7   8
HETATM    8  C8  UNL     1     -34.638  16.430  -1.238  1.00 20.00     0.005 C 
BRANCH   8   9
HETATM    9  C9  UNL     1     -33.812  17.514  -0.519  1.00 20.00    -0.023 C 
HETATM   10  C5  UNL     1     -34.573  18.015   0.711  1.00 20.00     0.009 C 
HETATM   11  C6  UNL     1     -33.476  18.694  -1.432  1.00 20.00     0.009 C 
ENDBRANCH   8   9
ENDBRANCH   7   8
ENDBRANCH   4   7
TORSDOF 3
ENDMDL
MODEL 4
REMARK VINA RESULT:      -4.2      1.579      1.876
REMARK  3 active torsions:
REMARK  status: ('A' for Active; 'I' for Inactive)
REMARK    1  A    between atoms: C4_4  and  C7_7 
REMARK    2  A    between atoms: C7_7  and  C8_8 
REMARK    3  A    between atoms: C8_8  and  C9_9 
ROOT
HETATM    1  C1  UNL     1     -33.873  15.898  -5.382  1.00 20.00     0.141 C 
HETATM    2  C2  UNL     1     -34.645  16.381  -6.584  1.00 20.00     0.152 C 
HETATM    3  C3  UNL     1     -36.013  14.865  -4.883  1.00 20.00     0.086 C 
HETATM    4  C4  UNL     1     -34.516  14.740  -4.637  1.00 20.00     0.065 C 
HETATM    5  O10 UNL     1     -32.788  16.381  -5.073  1.00 20.00    -0.297 OA
HETATM    6  S11 UNL     1     -36.160  15.396  -6.604  1.00 20.00    -0.161 SA
ENDROOT
BRANCH   4   7
HETATM    7  C7  UNL     1     -34.187  14.760  -3.153  1.00 20.00     0.013 C 
BRANCH   7   8
HETATM    8  C8  UNL     1     -34.975  15.848  -2.421  1.00 20.00     0.005 C 
BRANCH   8   9
HETATM    9  C9  UNL     1     -34.094  16.760  -1.545  1.00 20.00    -0.023 C 
HETATM   10  C5  UNL     1     -34.778  17.003  -0.198  1.00 20.00     0.009 C 
HETATM   11  C6  UNL     1     -33.790  18.100  -2.218  1.00 20.00     0.009 C 
ENDBRANCH   8   9
ENDBRANCH   7   8
ENDBRANCH   4   7
TORSDOF 3
ENDMDL
MODEL 5
REMARK VINA RESULT:      -4.2      4.405      6.565
REMARK  3 active torsions:
REMARK  status: ('A' for Active; 'I' for Inactive)
REMARK    1  A    between atoms: C4_4  and  C7_7 
REMARK    2  A    between atoms: C7_7  and  C8_8 
REMARK    3  A    between atoms: C8_8  and  C9_9 
ROOT
HETATM    1  C1  UNL     1     -32.387  18.909   0.716  1.00 20.00     0.141 C 
HETATM    2  C2  UNL     1     -32.424  19.134   2.206  1.00 20.00     0.152 C 
HETATM    3  C3  UNL     1     -34.550  17.911   1.182  1.00 20.00     0.086 C 
HETATM    4  C4  UNL     1     -33.730  18.579   0.087  1.00 20.00     0.065 C 
HETATM    5  O10 UNL     1     -31.351  19.033   0.068  1.00 20.00    -0.297 OA
HETATM    6  S11 UNL     1     -34.135  18.813   2.692  1.00 20.00    -0.161 SA
ENDROOT
BRANCH   4   7
HETATM    7  C7  UNL     1     -33.589  17.686  -1.135  1.00 20.00     0.013 C 
BRANCH   7   8
HETATM    8  C8  UNL     1     -34.612  16.548  -1.114  1.00 20.00     0.005 C 
BRANCH   8   9
HETATM    9  C9  UNL     1     -34.579  15.670  -2.379  1.00 20.00    -0.023 C 
HETATM   10  C5  UNL     1     -33.531  16.209  -3.357  1.00 20.00     0.009 C 
HETATM   11  C6  UNL     1     -35.939  15.593  -3.074  1.00 20.00     0.009 C 
ENDBRANCH   8   9
ENDBRANCH   7   8
ENDBRANCH   4   7
TORSDOF 3
ENDMDL
MODEL 6
REMARK VINA RESULT:      -4.2     11.342     12.240
REMARK  3 active torsions:
REMARK  status: ('A' for Active; 'I' for Inactive)
REMARK    1  A    between atoms: C4_4  and  C7_7 
REMARK    2  A    between atoms: C7_7  and  C8_8 
REMARK    3  A    between atoms: C8_8  and  C9_9 
ROOT
HETATM    1  C1  UNL     1     -33.769   6.449   5.825  1.00 20.00     0.141 C 
HETATM    2  C2  UNL     1     -34.658   5.318   6.275  1.00 20.00     0.152 C 
HETATM    3  C3  UNL     1     -34.058   5.339   3.685  1.00 20.00     0.086 C 
HETATM    4  C4  UNL     1     -33.748   6.686   4.325  1.00 20.00     0.065 C 
HETATM    5  O10 UNL     1     -33.153   7.147   6.627  1.00 20.00    -0.297 OA
HETATM    6  S11 UNL     1     -35.310   4.593   4.754  1.00 20.00    -0.161 SA
ENDROOT
BRANCH   4   7
HETATM    7  C7  UNL     1     -32.416   7.242   3.848  1.00 20.00     0.013 C 
BRANCH   7   8
HETATM    8  C8  UNL     1     -32.327   7.244   2.321  1.00 20.00     0.005 C 
BRANCH   8   9
HETATM    9  C9  UNL     1     -31.848   8.586   1.736  1.00 20.00    -0.023 C 
HETATM   10  C5  UNL     1     -32.822   9.700   2.130  1.00 20.00     0.009 C 
HETATM   11  C6  UNL     1     -31.705   8.543   0.214  1.00 20.00     0.009 C 
ENDBRANCH   8   9
ENDBRANCH   7   8
ENDBRANCH   4   7
TORSDOF 3
ENDMDL
MODEL 7
REMARK VINA RESULT:      -4.1      1.780      2.316
REMARK  3 active torsions:
REMARK  status: ('A' for Active; 'I' for Inactive)
REMARK    1  A    between atoms: C4_4  and  C7_7 
REMARK    2  A    between atoms: C7_7  and  C8_8 
REMARK    3  A    between atoms: C8_8  and  C9_9 
ROOT
HETATM    1  C1  UNL     1     -33.636  16.231  -5.334  1.00 20.00     0.141 C 
HETATM    2  C2  UNL     1     -34.445  15.915  -6.566  1.00 20.00     0.152 C 
HETATM    3  C3  UNL     1     -34.939  14.383  -4.451  1.00 20.00     0.086 C 
HETATM    4  C4  UNL     1     -33.628  15.139  -4.279  1.00 20.00     0.065 C 
HETATM    5  O10 UNL     1     -32.998  17.276  -5.229  1.00 20.00    -0.297 OA
HETATM    6  S11 UNL     1     -35.203  14.308  -6.237  1.00 20.00    -0.161 SA
ENDROOT
BRANCH   4   7
HETATM    7  C7  UNL     1     -33.481  15.698  -2.873  1.00 20.00     0.013 C 
BRANCH   7   8
HETATM    8  C8  UNL     1     -34.845  15.994  -2.245  1.00 20.00     0.005 C 
BRANCH   8   9
HETATM    9  C9  UNL     1     -34.885  17.317  -1.458  1.00 20.00    -0.023 C 
HETATM   10  C5  UNL     1     -33.712  18.206  -1.879  1.00 20.00     0.009 C 
HETATM   11  C6  UNL     1     -34.847  17.098   0.055  1.00 20.00     0.009 C 
ENDBRANCH   8   9
ENDBRANCH   7   8
ENDBRANCH   4   7
TORSDOF 3
ENDMDL
MODEL 8
REMARK VINA RESULT:      -4.0      2.667      3.878
REMARK  3 active torsions:
REMARK  status: ('A' for Active; 'I' for Inactive)
REMARK    1  A    between atoms: C4_4  and  C7_7 
REMARK    2  A    between atoms: C7_7  and  C8_8 
REMARK    3  A    between atoms: C8_8  and  C9_9 
ROOT
HETATM    1  C1  UNL     1     -33.418  16.841  -5.388  1.00 20.00     0.141 C 
HETATM    2  C2  UNL     1     -33.594  18.324  -5.180  1.00 20.00     0.152 C 
HETATM    3  C3  UNL     1     -35.372  17.177  -6.788  1.00 20.00     0.086 C 
HETATM    4  C4  UNL     1     -34.165  16.272  -6.582  1.00 20.00     0.065 C 
HETATM    5  O10 UNL     1     -32.684  16.169  -4.668  1.00 20.00    -0.297 OA
HETATM    6  S11 UNL     1     -34.767  18.846  -6.451  1.00 20.00    -0.161 SA
ENDROOT
BRANCH   4   7
HETATM    7  C7  UNL     1     -34.577  14.825  -6.366  1.00 20.00     0.013 C 
BRANCH   7   8
HETATM    8  C8  UNL     1     -35.956  14.730  -5.709  1.00 20.00     0.005 C 
BRANCH   8   9
HETATM    9  C9  UNL     1     -35.917  14.160  -4.279  1.00 20.00    -0.023 C 
HETATM   10  C5  UNL     1     -36.054  15.297  -3.263  1.00 20.00     0.009 C 
HETATM   11  C6  UNL     1     -34.636  13.372  -3.999  1.00 20.00     0.009 C 
ENDBRANCH   8   9
ENDBRANCH   7   8
ENDBRANCH   4   7
TORSDOF 3
ENDMDL
MODEL 9
REMARK VINA RESULT:      -4.0     12.847     14.727
REMARK  3 active torsions:
REMARK  status: ('A' for Active; 'I' for Inactive)
REMARK    1  A    between atoms: C4_4  and  C7_7 
REMARK    2  A    between atoms: C7_7  and  C8_8 
REMARK    3  A    between atoms: C8_8  and  C9_9 
ROOT
HETATM    1  C1  UNL     1     -42.545   5.926  -2.743  1.00 20.00     0.141 C 
HETATM    2  C2  UNL     1     -41.644   6.938  -2.083  1.00 20.00     0.152 C 
HETATM    3  C3  UNL     1     -41.305   4.422  -1.296  1.00 20.00     0.086 C 
HETATM    4  C4  UNL     1     -42.629   4.587  -2.031  1.00 20.00     0.065 C 
HETATM    5  O10 UNL     1     -43.193   6.196  -3.751  1.00 20.00    -0.297 OA
HETATM    6  S11 UNL     1     -40.906   6.073  -0.678  1.00 20.00    -0.161 SA
ENDROOT
BRANCH   4   7
HETATM    7  C7  UNL     1     -42.884   3.438  -2.994  1.00 20.00     0.013 C 
BRANCH   7   8
HETATM    8  C8  UNL     1     -41.623   2.597  -3.205  1.00 20.00     0.005 C 
BRANCH   8   9
HETATM    9  C9  UNL     1     -41.782   1.515  -4.290  1.00 20.00    -0.023 C 
HETATM   10  C5  UNL     1     -42.992   1.837  -5.170  1.00 20.00     0.009 C 
HETATM   11  C6  UNL     1     -41.934   0.113  -3.699  1.00 20.00     0.009 C 
ENDBRANCH   8   9
ENDBRANCH   7   8
ENDBRANCH   4   7
TORSDOF 3
ENDMDL
