MODEL 1
REMARK VINA RESULT:      -5.7      0.000      0.000
REMARK  2 active torsions:
REMARK  status: ('A' for Active; 'I' for Inactive)
REMARK    1  A    between atoms: C5_5  and  C6_6 
REMARK    2  A    between atoms: C6_6  and  C7_7 
ROOT
HETATM    1  C1  UNL     1     -34.561   5.186   3.908  1.00 20.00     0.131 C 
HETATM    2  C2  UNL     1     -35.496   4.557   4.910  1.00 20.00     0.079 C 
HETATM    3  C3  UNL     1     -34.802   4.870   6.230  1.00 20.00     0.008 C 
HETATM    4  C4  UNL     1     -34.097   6.197   5.982  1.00 20.00     0.013 C 
HETATM    5  C5  UNL     1     -33.512   6.052   4.575  1.00 20.00     0.064 C 
HETATM    6  O8  UNL     1     -34.648   5.013   2.699  1.00 20.00    -0.298 OA
ENDROOT
BRANCH   5   7
HETATM    7  C6  UNL     1     -33.311   7.382   3.879  1.00 20.00     0.129 C 
BRANCH   7   8
HETATM    8  C7  UNL     1     -32.051   7.393   3.054  1.00 20.00     0.388 C 
HETATM    9  F9  UNL     1     -31.737   6.159   2.605  1.00 20.00    -0.171 F 
HETATM   10  F10 UNL     1     -31.016   7.829   3.806  1.00 20.00    -0.171 F 
HETATM   11  F11 UNL     1     -32.156   8.214   1.988  1.00 20.00    -0.171 F 
ENDBRANCH   7   8
ENDBRANCH   5   7
TORSDOF 2
ENDMDL
MODEL 2
REMARK VINA RESULT:      -5.6      1.517      1.964
REMARK  2 active torsions:
REMARK  status: ('A' for Active; 'I' for Inactive)
REMARK    1  A    between atoms: C5_5  and  C6_6 
REMARK    2  A    between atoms: C6_6  and  C7_7 
ROOT
HETATM    1  C1  UNL     1     -33.806   6.227   5.399  1.00 20.00     0.131 C 
HETATM    2  C2  UNL     1     -34.766   5.205   5.954  1.00 20.00     0.079 C 
HETATM    3  C3  UNL     1     -35.546   4.796   4.709  1.00 20.00     0.008 C 
HETATM    4  C4  UNL     1     -34.546   4.943   3.570  1.00 20.00     0.013 C 
HETATM    5  C5  UNL     1     -33.812   6.249   3.884  1.00 20.00     0.064 C 
HETATM    6  O8  UNL     1     -33.106   6.949   6.098  1.00 20.00    -0.298 OA
ENDROOT
BRANCH   5   7
HETATM    7  C6  UNL     1     -32.421   6.303   3.286  1.00 20.00     0.129 C 
BRANCH   7   8
HETATM    8  C7  UNL     1     -32.064   7.696   2.837  1.00 20.00     0.388 C 
HETATM    9  F9  UNL     1     -31.493   7.695   1.613  1.00 20.00    -0.171 F 
HETATM   10  F10 UNL     1     -31.180   8.243   3.700  1.00 20.00    -0.171 F 
HETATM   11  F11 UNL     1     -33.146   8.501   2.794  1.00 20.00    -0.171 F 
ENDBRANCH   7   8
ENDBRANCH   5   7
TORSDOF 2
ENDMDL
MODEL 3
REMARK VINA RESULT:      -5.5      1.523      2.136
REMARK  2 active torsions:
REMARK  status: ('A' for Active; 'I' for Inactive)
REMARK    1  A    between atoms: C5_5  and  C6_6 
REMARK    2  A    between atoms: C6_6  and  C7_7 
ROOT
HETATM    1  C1  UNL     1     -33.795   6.257   5.389  1.00 20.00     0.131 C 
HETATM    2  C2  UNL     1     -34.753   5.239   5.954  1.00 20.00     0.079 C 
HETATM    3  C3  UNL     1     -35.533   4.816   4.714  1.00 20.00     0.008 C 
HETATM    4  C4  UNL     1     -34.533   4.953   3.573  1.00 20.00     0.013 C 
HETATM    5  C5  UNL     1     -33.801   6.263   3.874  1.00 20.00     0.064 C 
HETATM    6  O8  UNL     1     -33.096   6.986   6.081  1.00 20.00    -0.298 OA
ENDROOT
BRANCH   5   7
HETATM    7  C6  UNL     1     -32.410   6.314   3.276  1.00 20.00     0.129 C 
BRANCH   7   8
HETATM    8  C7  UNL     1     -32.048   7.705   2.827  1.00 20.00     0.388 C 
HETATM    9  F9  UNL     1     -31.187   8.298   3.682  1.00 20.00    -0.171 F 
HETATM   10  F10 UNL     1     -33.160   8.471   2.770  1.00 20.00    -0.171 F 
HETATM   11  F11 UNL     1     -31.488   7.706   1.599  1.00 20.00    -0.171 F 
ENDBRANCH   7   8
ENDBRANCH   5   7
TORSDOF 2
ENDMDL
MODEL 4
REMARK VINA RESULT:      -4.9     11.152     11.816
REMARK  2 active torsions:
REMARK  status: ('A' for Active; 'I' for Inactive)
REMARK    1  A    between atoms: C5_5  and  C6_6 
REMARK    2  A    between atoms: C6_6  and  C7_7 
ROOT
HETATM    1  C1  UNL     1     -34.010  13.877  -3.724  1.00 20.00     0.131 C 
HETATM    2  C2  UNL     1     -34.965  13.408  -4.793  1.00 20.00     0.079 C 
HETATM    3  C3  UNL     1     -36.264  14.088  -4.377  1.00 20.00     0.008 C 
HETATM    4  C4  UNL     1     -35.818  15.384  -3.714  1.00 20.00     0.013 C 
HETATM    5  C5  UNL     1     -34.609  14.975  -2.870  1.00 20.00     0.064 C 
HETATM    6  O8  UNL     1     -32.885  13.420  -3.574  1.00 20.00    -0.298 OA
ENDROOT
BRANCH   5   7
HETATM    7  C6  UNL     1     -33.650  16.120  -2.617  1.00 20.00     0.129 C 
BRANCH   7   8
HETATM    8  C7  UNL     1     -34.074  16.950  -1.434  1.00 20.00     0.388 C 
HETATM    9  F9  UNL     1     -34.760  16.218  -0.531  1.00 20.00    -0.171 F 
HETATM   10  F10 UNL     1     -34.879  17.954  -1.845  1.00 20.00    -0.171 F 
HETATM   11  F11 UNL     1     -33.016  17.505  -0.807  1.00 20.00    -0.171 F 
ENDBRANCH   7   8
ENDBRANCH   5   7
TORSDOF 2
ENDMDL
MODEL 5
REMARK VINA RESULT:      -4.6      2.956      4.053
REMARK  2 active torsions:
REMARK  status: ('A' for Active; 'I' for Inactive)
REMARK    1  A    between atoms: C5_5  and  C6_6 
REMARK    2  A    between atoms: C6_6  and  C7_7 
ROOT
HETATM    1  C1  UNL     1     -33.712   5.616   2.858  1.00 20.00     0.131 C 
HETATM    2  C2  UNL     1     -32.310   6.173   2.861  1.00 20.00     0.079 C 
HETATM    3  C3  UNL     1     -32.362   7.150   4.030  1.00 20.00     0.008 C 
HETATM    4  C4  UNL     1     -33.361   6.532   4.998  1.00 20.00     0.013 C 
HETATM    5  C5  UNL     1     -34.487   6.020   4.096  1.00 20.00     0.064 C 
HETATM    6  O8  UNL     1     -34.161   4.920   1.957  1.00 20.00    -0.298 OA
ENDROOT
BRANCH   5   7
HETATM    7  C6  UNL     1     -35.261   4.872   4.710  1.00 20.00     0.129 C 
BRANCH   7   8
HETATM    8  C7  UNL     1     -34.927   4.694   6.168  1.00 20.00     0.388 C 
HETATM    9  F9  UNL     1     -33.720   4.113   6.337  1.00 20.00    -0.171 F 
HETATM   10  F10 UNL     1     -35.849   3.899   6.755  1.00 20.00    -0.171 F 
HETATM   11  F11 UNL     1     -34.922   5.871   6.828  1.00 20.00    -0.171 F 
ENDBRANCH   7   8
ENDBRANCH   5   7
TORSDOF 2
ENDMDL
MODEL 6
REMARK VINA RESULT:      -4.5     11.359     12.077
REMARK  2 active torsions:
REMARK  status: ('A' for Active; 'I' for Inactive)
REMARK    1  A    between atoms: C5_5  and  C6_6 
REMARK    2  A    between atoms: C6_6  and  C7_7 
ROOT
HETATM    1  C1  UNL     1     -35.693  16.746  -2.915  1.00 20.00     0.131 C 
HETATM    2  C2  UNL     1     -36.076  17.890  -2.009  1.00 20.00     0.079 C 
HETATM    3  C3  UNL     1     -35.336  17.537  -0.724  1.00 20.00     0.008 C 
HETATM    4  C4  UNL     1     -34.086  16.805  -1.195  1.00 20.00     0.013 C 
HETATM    5  C5  UNL     1     -34.587  15.897  -2.321  1.00 20.00     0.064 C 
HETATM    6  O8  UNL     1     -36.217  16.537  -4.001  1.00 20.00    -0.298 OA
ENDROOT
BRANCH   5   7
HETATM    7  C6  UNL     1     -33.506  15.546  -3.323  1.00 20.00     0.129 C 
BRANCH   7   8
HETATM    8  C7  UNL     1     -33.673  14.145  -3.851  1.00 20.00     0.388 C 
HETATM    9  F9  UNL     1     -33.919  14.138  -5.179  1.00 20.00    -0.171 F 
HETATM   10  F10 UNL     1     -34.717  13.546  -3.238  1.00 20.00    -0.171 F 
HETATM   11  F11 UNL     1     -32.577  13.390  -3.624  1.00 20.00    -0.171 F 
ENDBRANCH   7   8
ENDBRANCH   5   7
TORSDOF 2
ENDMDL
MODEL 7
REMARK VINA RESULT:      -4.4     11.434     12.536
REMARK  2 active torsions:
REMARK  status: ('A' for Active; 'I' for Inactive)
REMARK    1  A    between atoms: C5_5  and  C6_6 
REMARK    2  A    between atoms: C6_6  and  C7_7 
ROOT
HETATM    1  C1  UNL     1     -34.936  13.830  -4.878  1.00 20.00     0.131 C 
HETATM    2  C2  UNL     1     -34.764  13.918  -6.374  1.00 20.00     0.079 C 
HETATM    3  C3  UNL     1     -34.915  15.415  -6.621  1.00 20.00     0.008 C 
HETATM    4  C4  UNL     1     -34.373  16.065  -5.355  1.00 20.00     0.013 C 
HETATM    5  C5  UNL     1     -34.925  15.195  -4.223  1.00 20.00     0.064 C 
HETATM    6  O8  UNL     1     -35.067  12.773  -4.273  1.00 20.00    -0.298 OA
ENDROOT
BRANCH   5   7
HETATM    7  C6  UNL     1     -34.075  15.245  -2.970  1.00 20.00     0.129 C 
BRANCH   7   8
HETATM    8  C7  UNL     1     -34.456  16.404  -2.086  1.00 20.00     0.388 C 
HETATM    9  F9  UNL     1     -34.673  16.011  -0.813  1.00 20.00    -0.171 F 
HETATM   10  F10 UNL     1     -35.595  16.970  -2.540  1.00 20.00    -0.171 F 
HETATM   11  F11 UNL     1     -33.502  17.359  -2.074  1.00 20.00    -0.171 F 
ENDBRANCH   7   8
ENDBRANCH   5   7
TORSDOF 2
ENDMDL
MODEL 8
REMARK VINA RESULT:      -4.4     11.463     12.440
REMARK  2 active torsions:
REMARK  status: ('A' for Active; 'I' for Inactive)
REMARK    1  A    between atoms: C5_5  and  C6_6 
REMARK    2  A    between atoms: C6_6  and  C7_7 
ROOT
HETATM    1  C1  UNL     1     -34.690  15.596  -5.042  1.00 20.00     0.131 C 
HETATM    2  C2  UNL     1     -34.838  14.468  -6.031  1.00 20.00     0.079 C 
HETATM    3  C3  UNL     1     -34.532  13.249  -5.169  1.00 20.00     0.008 C 
HETATM    4  C4  UNL     1     -35.017  13.637  -3.778  1.00 20.00     0.013 C 
HETATM    5  C5  UNL     1     -34.567  15.091  -3.619  1.00 20.00     0.064 C 
HETATM    6  O8  UNL     1     -34.674  16.778  -5.360  1.00 20.00    -0.298 OA
ENDROOT
BRANCH   5   7
HETATM    7  C6  UNL     1     -35.419  15.870  -2.638  1.00 20.00     0.129 C 
BRANCH   7   8
HETATM    8  C7  UNL     1     -34.575  16.645  -1.661  1.00 20.00     0.388 C 
HETATM    9  F9  UNL     1     -34.815  17.971  -1.734  1.00 20.00    -0.171 F 
HETATM   10  F10 UNL     1     -33.266  16.451  -1.933  1.00 20.00    -0.171 F 
HETATM   11  F11 UNL     1     -34.790  16.249  -0.388  1.00 20.00    -0.171 F 
ENDBRANCH   7   8
ENDBRANCH   5   7
TORSDOF 2
ENDMDL
MODEL 9
REMARK VINA RESULT:      -4.4     11.633     12.509
REMARK  2 active torsions:
REMARK  status: ('A' for Active; 'I' for Inactive)
REMARK    1  A    between atoms: C5_5  and  C6_6 
REMARK    2  A    between atoms: C6_6  and  C7_7 
ROOT
HETATM    1  C1  UNL     1     -33.729  17.033  -3.589  1.00 20.00     0.131 C 
HETATM    2  C2  UNL     1     -33.668  18.092  -2.518  1.00 20.00     0.079 C 
HETATM    3  C3  UNL     1     -34.751  17.626  -1.551  1.00 20.00     0.008 C 
HETATM    4  C4  UNL     1     -34.744  16.109  -1.677  1.00 20.00     0.013 C 
HETATM    5  C5  UNL     1     -34.595  15.860  -3.180  1.00 20.00     0.064 C 
HETATM    6  O8  UNL     1     -33.142  17.119  -4.660  1.00 20.00    -0.298 OA
ENDROOT
BRANCH   5   7
HETATM    7  C6  UNL     1     -33.966  14.519  -3.498  1.00 20.00     0.129 C 
BRANCH   7   8
HETATM    8  C7  UNL     1     -34.748  13.774  -4.548  1.00 20.00     0.388 C 
HETATM    9  F9  UNL     1     -35.949  13.368  -4.084  1.00 20.00    -0.171 F 
HETATM   10  F10 UNL     1     -34.065  12.672  -4.931  1.00 20.00    -0.171 F 
HETATM   11  F11 UNL     1     -34.956  14.528  -5.648  1.00 20.00    -0.171 F 
ENDBRANCH   7   8
ENDBRANCH   5   7
TORSDOF 2
ENDMDL
