MODEL 1
REMARK VINA RESULT:      -4.6      0.000      0.000
REMARK  4 active torsions:
REMARK  status: ('A' for Active; 'I' for Inactive)
REMARK    1  A    between atoms: C1_1  and  C6_6 
REMARK    2  A    between atoms: C1_1  and  C8_8 
REMARK    3  A    between atoms: C7_7  and  C8_8 
REMARK    4  A    between atoms: C7_7  and  C9_9 
ROOT
HETATM    1  C3  UNL     1     -32.713  13.903  -3.471  1.00 20.00     0.018 C 
HETATM    2  C8  UNL     1     -33.902  14.683  -4.030  1.00 20.00     0.051 C 
ENDROOT
BRANCH   2   3
HETATM    3  C1  UNL     1     -34.755  13.729  -4.863  1.00 20.00     0.130 C 
HETATM    4  O10 UNL     1     -35.055  12.607  -4.455  1.00 20.00    -0.298 OA
BRANCH   3   5
HETATM    5  C6  UNL     1     -35.176  14.232  -6.234  1.00 20.00     0.074 C 
HETATM    6  C2  UNL     1     -34.281  15.345  -6.749  1.00 20.00     0.013 C 
ENDBRANCH   3   5
ENDBRANCH   2   3
BRANCH   2   7
HETATM    7  C7  UNL     1     -34.714  15.327  -2.893  1.00 20.00     0.015 C 
BRANCH   7   8
HETATM    8  C9  UNL     1     -33.969  16.423  -2.102  1.00 20.00    -0.022 C 
HETATM    9  C4  UNL     1     -34.614  16.708  -0.745  1.00 20.00     0.009 C 
HETATM   10  C5  UNL     1     -33.922  17.711  -2.930  1.00 20.00     0.009 C 
ENDBRANCH   7   8
ENDBRANCH   2   7
TORSDOF 4
ENDMDL
MODEL 2
REMARK VINA RESULT:      -4.5     10.552     11.738
REMARK  4 active torsions:
REMARK  status: ('A' for Active; 'I' for Inactive)
REMARK    1  A    between atoms: C1_1  and  C6_6 
REMARK    2  A    between atoms: C1_1  and  C8_8 
REMARK    3  A    between atoms: C7_7  and  C8_8 
REMARK    4  A    between atoms: C7_7  and  C9_9 
ROOT
HETATM    1  C3  UNL     1     -33.073   5.476   2.068  1.00 20.00     0.018 C 
HETATM    2  C8  UNL     1     -32.703   6.104   3.410  1.00 20.00     0.051 C 
ENDROOT
BRANCH   2   3
HETATM    3  C1  UNL     1     -31.929   7.393   3.141  1.00 20.00     0.130 C 
HETATM    4  O10 UNL     1     -31.265   7.943   4.019  1.00 20.00    -0.298 OA
BRANCH   3   5
HETATM    5  C6  UNL     1     -32.059   7.971   1.741  1.00 20.00     0.074 C 
HETATM    6  C2  UNL     1     -32.420   9.445   1.748  1.00 20.00     0.013 C 
ENDBRANCH   3   5
ENDBRANCH   2   3
BRANCH   2   7
HETATM    7  C7  UNL     1     -33.962   6.363   4.255  1.00 20.00     0.015 C 
BRANCH   7   8
HETATM    8  C9  UNL     1     -33.926   5.762   5.677  1.00 20.00    -0.022 C 
HETATM    9  C4  UNL     1     -35.101   4.820   5.945  1.00 20.00     0.009 C 
HETATM   10  C5  UNL     1     -33.924   6.890   6.712  1.00 20.00     0.009 C 
ENDBRANCH   7   8
ENDBRANCH   2   7
TORSDOF 4
ENDMDL
MODEL 3
REMARK VINA RESULT:      -4.4     11.237     12.596
REMARK  4 active torsions:
REMARK  status: ('A' for Active; 'I' for Inactive)
REMARK    1  A    between atoms: C1_1  and  C6_6 
REMARK    2  A    between atoms: C1_1  and  C8_8 
REMARK    3  A    between atoms: C7_7  and  C8_8 
REMARK    4  A    between atoms: C7_7  and  C9_9 
ROOT
HETATM    1  C3  UNL     1     -35.188   5.757   3.333  1.00 20.00     0.018 C 
HETATM    2  C8  UNL     1     -34.041   6.460   4.057  1.00 20.00     0.051 C 
ENDROOT
BRANCH   2   3
HETATM    3  C1  UNL     1     -34.170   6.176   5.552  1.00 20.00     0.130 C 
HETATM    4  O10 UNL     1     -33.552   6.832   6.390  1.00 20.00    -0.298 OA
BRANCH   3   5
HETATM    5  C6  UNL     1     -35.074   5.015   5.937  1.00 20.00     0.074 C 
HETATM    6  C2  UNL     1     -34.337   3.689   5.975  1.00 20.00     0.013 C 
ENDBRANCH   3   5
ENDBRANCH   2   3
BRANCH   2   7
HETATM    7  C7  UNL     1     -32.682   5.995   3.505  1.00 20.00     0.015 C 
BRANCH   7   8
HETATM    8  C9  UNL     1     -31.732   7.132   3.073  1.00 20.00    -0.022 C 
HETATM    9  C4  UNL     1     -31.169   7.910   4.263  1.00 20.00     0.009 C 
HETATM   10  C5  UNL     1     -32.472   8.091   2.136  1.00 20.00     0.009 C 
ENDBRANCH   7   8
ENDBRANCH   2   7
TORSDOF 4
ENDMDL
MODEL 4
REMARK VINA RESULT:      -4.3     10.511     11.728
REMARK  4 active torsions:
REMARK  status: ('A' for Active; 'I' for Inactive)
REMARK    1  A    between atoms: C1_1  and  C6_6 
REMARK    2  A    between atoms: C1_1  and  C8_8 
REMARK    3  A    between atoms: C7_7  and  C8_8 
REMARK    4  A    between atoms: C7_7  and  C9_9 
ROOT
HETATM    1  C3  UNL     1     -32.620   5.243   2.382  1.00 20.00     0.018 C 
HETATM    2  C8  UNL     1     -32.709   6.178   3.587  1.00 20.00     0.051 C 
ENDROOT
BRANCH   2   3
HETATM    3  C1  UNL     1     -31.924   7.449   3.269  1.00 20.00     0.130 C 
HETATM    4  O10 UNL     1     -31.236   8.013   4.118  1.00 20.00    -0.298 OA
BRANCH   3   5
HETATM    5  C6  UNL     1     -32.076   7.992   1.857  1.00 20.00     0.074 C 
HETATM    6  C2  UNL     1     -32.456   9.462   1.833  1.00 20.00     0.013 C 
ENDBRANCH   3   5
ENDBRANCH   2   3
BRANCH   2   7
HETATM    7  C7  UNL     1     -34.177   6.486   3.930  1.00 20.00     0.015 C 
BRANCH   7   8
HETATM    8  C9  UNL     1     -34.614   6.070   5.350  1.00 20.00    -0.022 C 
HETATM    9  C4  UNL     1     -33.704   6.645   6.436  1.00 20.00     0.009 C 
HETATM   10  C5  UNL     1     -34.637   4.543   5.454  1.00 20.00     0.009 C 
ENDBRANCH   7   8
ENDBRANCH   2   7
TORSDOF 4
ENDMDL
MODEL 5
REMARK VINA RESULT:      -4.3     11.144     12.548
REMARK  4 active torsions:
REMARK  status: ('A' for Active; 'I' for Inactive)
REMARK    1  A    between atoms: C1_1  and  C6_6 
REMARK    2  A    between atoms: C1_1  and  C8_8 
REMARK    3  A    between atoms: C7_7  and  C8_8 
REMARK    4  A    between atoms: C7_7  and  C9_9 
ROOT
HETATM    1  C3  UNL     1     -35.476   5.778   2.830  1.00 20.00     0.018 C 
HETATM    2  C8  UNL     1     -34.476   6.011   3.960  1.00 20.00     0.051 C 
ENDROOT
BRANCH   2   3
HETATM    3  C1  UNL     1     -34.662   4.908   5.001  1.00 20.00     0.130 C 
HETATM    4  O10 UNL     1     -35.010   3.771   4.682  1.00 20.00    -0.298 OA
BRANCH   3   5
HETATM    5  C6  UNL     1     -34.430   5.309   6.449  1.00 20.00     0.074 C 
HETATM    6  C2  UNL     1     -33.950   6.742   6.589  1.00 20.00     0.013 C 
ENDBRANCH   3   5
ENDBRANCH   2   3
BRANCH   2   7
HETATM    7  C7  UNL     1     -33.037   6.042   3.417  1.00 20.00     0.015 C 
BRANCH   7   8
HETATM    8  C9  UNL     1     -32.440   7.455   3.239  1.00 20.00    -0.022 C 
HETATM    9  C4  UNL     1     -32.108   7.771   1.780  1.00 20.00     0.009 C 
HETATM   10  C5  UNL     1     -31.179   7.591   4.095  1.00 20.00     0.009 C 
ENDBRANCH   7   8
ENDBRANCH   2   7
TORSDOF 4
ENDMDL
MODEL 6
REMARK VINA RESULT:      -4.2      1.541      2.202
REMARK  4 active torsions:
REMARK  status: ('A' for Active; 'I' for Inactive)
REMARK    1  A    between atoms: C1_1  and  C6_6 
REMARK    2  A    between atoms: C1_1  and  C8_8 
REMARK    3  A    between atoms: C7_7  and  C8_8 
REMARK    4  A    between atoms: C7_7  and  C9_9 
ROOT
HETATM    1  C3  UNL     1     -33.126  16.205  -4.821  1.00 20.00     0.018 C 
HETATM    2  C8  UNL     1     -34.092  15.625  -3.790  1.00 20.00     0.051 C 
ENDROOT
BRANCH   2   3
HETATM    3  C1  UNL     1     -34.033  14.101  -3.879  1.00 20.00     0.130 C 
HETATM    4  O10 UNL     1     -32.997  13.480  -3.641  1.00 20.00    -0.298 OA
BRANCH   3   5
HETATM    5  C6  UNL     1     -35.313  13.406  -4.316  1.00 20.00     0.074 C 
HETATM    6  C2  UNL     1     -36.539  14.285  -4.153  1.00 20.00     0.013 C 
ENDBRANCH   3   5
ENDBRANCH   2   3
BRANCH   2   7
HETATM    7  C7  UNL     1     -33.746  16.125  -2.377  1.00 20.00     0.015 C 
BRANCH   7   8
HETATM    8  C9  UNL     1     -34.963  16.511  -1.508  1.00 20.00    -0.022 C 
HETATM    9  C4  UNL     1     -35.949  17.414  -2.248  1.00 20.00     0.009 C 
HETATM   10  C5  UNL     1     -34.482  17.209  -0.233  1.00 20.00     0.009 C 
ENDBRANCH   7   8
ENDBRANCH   2   7
TORSDOF 4
ENDMDL
MODEL 7
REMARK VINA RESULT:      -4.2      0.987      1.858
REMARK  4 active torsions:
REMARK  status: ('A' for Active; 'I' for Inactive)
REMARK    1  A    between atoms: C1_1  and  C6_6 
REMARK    2  A    between atoms: C1_1  and  C8_8 
REMARK    3  A    between atoms: C7_7  and  C8_8 
REMARK    4  A    between atoms: C7_7  and  C9_9 
ROOT
HETATM    1  C3  UNL     1     -36.509  15.148  -3.557  1.00 20.00     0.018 C 
HETATM    2  C8  UNL     1     -35.159  14.449  -3.406  1.00 20.00     0.051 C 
ENDROOT
BRANCH   2   3
HETATM    3  C1  UNL     1     -34.798  13.806  -4.743  1.00 20.00     0.130 C 
HETATM    4  O10 UNL     1     -34.752  12.584  -4.881  1.00 20.00    -0.298 OA
BRANCH   3   5
HETATM    5  C6  UNL     1     -34.464  14.762  -5.876  1.00 20.00     0.074 C 
HETATM    6  C2  UNL     1     -35.210  14.435  -7.157  1.00 20.00     0.013 C 
ENDBRANCH   3   5
ENDBRANCH   2   3
BRANCH   2   7
HETATM    7  C7  UNL     1     -34.080  15.443  -2.943  1.00 20.00     0.015 C 
BRANCH   7   8
HETATM    8  C9  UNL     1     -34.622  16.749  -2.323  1.00 20.00    -0.022 C 
HETATM    9  C4  UNL     1     -33.845  17.982  -2.783  1.00 20.00     0.009 C 
HETATM   10  C5  UNL     1     -34.576  16.650  -0.796  1.00 20.00     0.009 C 
ENDBRANCH   7   8
ENDBRANCH   2   7
TORSDOF 4
ENDMDL
MODEL 8
REMARK VINA RESULT:      -4.1      1.754      1.845
REMARK  4 active torsions:
REMARK  status: ('A' for Active; 'I' for Inactive)
REMARK    1  A    between atoms: C1_1  and  C6_6 
REMARK    2  A    between atoms: C1_1  and  C8_8 
REMARK    3  A    between atoms: C7_7  and  C8_8 
REMARK    4  A    between atoms: C7_7  and  C9_9 
ROOT
HETATM    1  C3  UNL     1     -33.705  13.699  -3.688  1.00 20.00     0.018 C 
HETATM    2  C8  UNL     1     -33.544  15.207  -3.506  1.00 20.00     0.051 C 
ENDROOT
BRANCH   2   3
HETATM    3  C1  UNL     1     -33.679  15.873  -4.874  1.00 20.00     0.130 C 
HETATM    4  O10 UNL     1     -32.916  16.769  -5.235  1.00 20.00    -0.298 OA
BRANCH   3   5
HETATM    5  C6  UNL     1     -34.829  15.390  -5.743  1.00 20.00     0.074 C 
HETATM    6  C2  UNL     1     -34.392  15.046  -7.155  1.00 20.00     0.013 C 
ENDBRANCH   3   5
ENDBRANCH   2   3
BRANCH   2   7
HETATM    7  C7  UNL     1     -34.581  15.748  -2.506  1.00 20.00     0.015 C 
BRANCH   7   8
HETATM    8  C9  UNL     1     -34.103  16.949  -1.662  1.00 20.00    -0.022 C 
HETATM    9  C4  UNL     1     -34.688  16.942  -0.249  1.00 20.00     0.009 C 
HETATM   10  C5  UNL     1     -34.480  18.255  -2.367  1.00 20.00     0.009 C 
ENDBRANCH   7   8
ENDBRANCH   2   7
TORSDOF 4
ENDMDL
MODEL 9
REMARK VINA RESULT:      -4.0     10.124     11.520
REMARK  4 active torsions:
REMARK  status: ('A' for Active; 'I' for Inactive)
REMARK    1  A    between atoms: C1_1  and  C6_6 
REMARK    2  A    between atoms: C1_1  and  C8_8 
REMARK    3  A    between atoms: C7_7  and  C8_8 
REMARK    4  A    between atoms: C7_7  and  C9_9 
ROOT
HETATM    1  C3  UNL     1     -32.168   5.245   2.821  1.00 20.00     0.018 C 
HETATM    2  C8  UNL     1     -33.108   6.421   3.075  1.00 20.00     0.051 C 
ENDROOT
BRANCH   2   3
HETATM    3  C1  UNL     1     -33.779   6.217   4.431  1.00 20.00     0.130 C 
HETATM    4  O10 UNL     1     -33.412   6.831   5.433  1.00 20.00    -0.298 OA
BRANCH   3   5
HETATM    5  C6  UNL     1     -34.896   5.186   4.476  1.00 20.00     0.074 C 
HETATM    6  C2  UNL     1     -34.942   4.430   5.791  1.00 20.00     0.013 C 
ENDBRANCH   3   5
ENDBRANCH   2   3
BRANCH   2   7
HETATM    7  C7  UNL     1     -32.342   7.754   3.015  1.00 20.00     0.015 C 
BRANCH   7   8
HETATM    8  C9  UNL     1     -32.584   8.586   1.737  1.00 20.00    -0.022 C 
HETATM    9  C4  UNL     1     -31.455   8.435   0.717  1.00 20.00     0.009 C 
HETATM   10  C5  UNL     1     -32.748  10.062   2.109  1.00 20.00     0.009 C 
ENDBRANCH   7   8
ENDBRANCH   2   7
TORSDOF 4
ENDMDL
