MODEL 1
REMARK VINA RESULT:      -6.4      0.000      0.000
REMARK  2 active torsions:
REMARK  status: ('A' for Active; 'I' for Inactive)
REMARK    1  A    between atoms: C5_5  and  C6_6 
REMARK    2  A    between atoms: C6_6  and  C7_7 
ROOT
HETATM    1  C1  UNL     1     -34.069   6.038   5.985  1.00 20.00     0.131 C 
HETATM    2  C2  UNL     1     -35.126   5.099   6.510  1.00 20.00     0.079 C 
HETATM    3  C3  UNL     1     -35.201   4.057   5.402  1.00 20.00     0.008 C 
HETATM    4  C4  UNL     1     -34.871   4.829   4.132  1.00 20.00     0.013 C 
HETATM    5  C5  UNL     1     -33.716   5.746   4.541  1.00 20.00     0.064 C 
HETATM    6  O8  UNL     1     -33.564   6.931   6.653  1.00 20.00    -0.298 OA
ENDROOT
BRANCH   5   7
HETATM    7  C6  UNL     1     -33.621   6.995   3.689  1.00 20.00     0.129 C 
BRANCH   7   8
HETATM    8  C7  UNL     1     -32.281   7.106   3.014  1.00 20.00     0.388 C 
HETATM    9  F9  UNL     1     -32.350   7.835   1.881  1.00 20.00    -0.171 F 
HETATM   10  F10 UNL     1     -31.832   5.876   2.682  1.00 20.00    -0.171 F 
HETATM   11  F11 UNL     1     -31.358   7.672   3.822  1.00 20.00    -0.171 F 
ENDBRANCH   7   8
ENDBRANCH   5   7
TORSDOF 2
ENDMDL
MODEL 2
REMARK VINA RESULT:      -5.3      1.542      2.271
REMARK  2 active torsions:
REMARK  status: ('A' for Active; 'I' for Inactive)
REMARK    1  A    between atoms: C5_5  and  C6_6 
REMARK    2  A    between atoms: C6_6  and  C7_7 
ROOT
HETATM    1  C1  UNL     1     -34.692   5.150   4.532  1.00 20.00     0.131 C 
HETATM    2  C2  UNL     1     -34.893   4.893   6.004  1.00 20.00     0.079 C 
HETATM    3  C3  UNL     1     -34.387   6.191   6.622  1.00 20.00     0.008 C 
HETATM    4  C4  UNL     1     -33.297   6.664   5.671  1.00 20.00     0.013 C 
HETATM    5  C5  UNL     1     -33.874   6.399   4.278  1.00 20.00     0.064 C 
HETATM    6  O8  UNL     1     -35.139   4.426   3.651  1.00 20.00    -0.298 OA
ENDROOT
BRANCH   5   7
HETATM    7  C6  UNL     1     -32.807   6.205   3.221  1.00 20.00     0.129 C 
BRANCH   7   8
HETATM    8  C7  UNL     1     -32.167   7.510   2.832  1.00 20.00     0.388 C 
HETATM    9  F9  UNL     1     -31.199   7.872   3.700  1.00 20.00    -0.171 F 
HETATM   10  F10 UNL     1     -33.096   8.492   2.824  1.00 20.00    -0.171 F 
HETATM   11  F11 UNL     1     -31.624   7.453   1.598  1.00 20.00    -0.171 F 
ENDBRANCH   7   8
ENDBRANCH   5   7
TORSDOF 2
ENDMDL
MODEL 3
REMARK VINA RESULT:      -4.9     11.748     12.615
REMARK  2 active torsions:
REMARK  status: ('A' for Active; 'I' for Inactive)
REMARK    1  A    between atoms: C5_5  and  C6_6 
REMARK    2  A    between atoms: C6_6  and  C7_7 
ROOT
HETATM    1  C1  UNL     1     -33.702  17.105  -3.377  1.00 20.00     0.131 C 
HETATM    2  C2  UNL     1     -33.692  18.286  -2.440  1.00 20.00     0.079 C 
HETATM    3  C3  UNL     1     -33.783  17.610  -1.078  1.00 20.00     0.008 C 
HETATM    4  C4  UNL     1     -34.593  16.347  -1.334  1.00 20.00     0.013 C 
HETATM    5  C5  UNL     1     -34.046  15.815  -2.661  1.00 20.00     0.064 C 
HETATM    6  O8  UNL     1     -33.462  17.188  -4.574  1.00 20.00    -0.298 OA
ENDROOT
BRANCH   5   7
HETATM    7  C6  UNL     1     -35.048  14.967  -3.417  1.00 20.00     0.129 C 
BRANCH   7   8
HETATM    8  C7  UNL     1     -34.378  13.828  -4.138  1.00 20.00     0.388 C 
HETATM    9  F9  UNL     1     -34.104  14.141  -5.422  1.00 20.00    -0.171 F 
HETATM   10  F10 UNL     1     -35.192  12.749  -4.145  1.00 20.00    -0.171 F 
HETATM   11  F11 UNL     1     -33.224  13.465  -3.539  1.00 20.00    -0.171 F 
ENDBRANCH   7   8
ENDBRANCH   5   7
TORSDOF 2
ENDMDL
MODEL 4
REMARK VINA RESULT:      -4.8     11.804     12.829
REMARK  2 active torsions:
REMARK  status: ('A' for Active; 'I' for Inactive)
REMARK    1  A    between atoms: C5_5  and  C6_6 
REMARK    2  A    between atoms: C6_6  and  C7_7 
ROOT
HETATM    1  C1  UNL     1     -34.767  13.834  -4.724  1.00 20.00     0.131 C 
HETATM    2  C2  UNL     1     -34.878  14.066  -6.210  1.00 20.00     0.079 C 
HETATM    3  C3  UNL     1     -34.270  15.456  -6.358  1.00 20.00     0.008 C 
HETATM    4  C4  UNL     1     -34.608  16.160  -5.052  1.00 20.00     0.013 C 
HETATM    5  C5  UNL     1     -34.371  15.093  -3.980  1.00 20.00     0.064 C 
HETATM    6  O8  UNL     1     -34.977  12.753  -4.190  1.00 20.00    -0.298 OA
ENDROOT
BRANCH   5   7
HETATM    7  C6  UNL     1     -35.188  15.322  -2.725  1.00 20.00     0.129 C 
BRANCH   7   8
HETATM    8  C7  UNL     1     -34.582  16.390  -1.855  1.00 20.00     0.388 C 
HETATM    9  F9  UNL     1     -34.774  16.136  -0.543  1.00 20.00    -0.171 F 
HETATM   10  F10 UNL     1     -35.155  17.583  -2.128  1.00 20.00    -0.171 F 
HETATM   11  F11 UNL     1     -33.255  16.516  -2.068  1.00 20.00    -0.171 F 
ENDBRANCH   7   8
ENDBRANCH   5   7
TORSDOF 2
ENDMDL
MODEL 5
REMARK VINA RESULT:      -4.7      3.146      4.507
REMARK  2 active torsions:
REMARK  status: ('A' for Active; 'I' for Inactive)
REMARK    1  A    between atoms: C5_5  and  C6_6 
REMARK    2  A    between atoms: C6_6  and  C7_7 
ROOT
HETATM    1  C1  UNL     1     -33.371   5.992   3.060  1.00 20.00     0.131 C 
HETATM    2  C2  UNL     1     -32.509   7.088   2.487  1.00 20.00     0.079 C 
HETATM    3  C3  UNL     1     -31.682   7.504   3.696  1.00 20.00     0.008 C 
HETATM    4  C4  UNL     1     -32.600   7.261   4.886  1.00 20.00     0.013 C 
HETATM    5  C5  UNL     1     -33.274   5.924   4.570  1.00 20.00     0.064 C 
HETATM    6  O8  UNL     1     -34.067   5.250   2.378  1.00 20.00    -0.298 OA
ENDROOT
BRANCH   5   7
HETATM    7  C6  UNL     1     -34.622   5.766   5.244  1.00 20.00     0.129 C 
BRANCH   7   8
HETATM    8  C7  UNL     1     -34.829   4.364   5.748  1.00 20.00     0.388 C 
HETATM    9  F9  UNL     1     -35.750   4.318   6.734  1.00 20.00    -0.171 F 
HETATM   10  F10 UNL     1     -33.671   3.880   6.248  1.00 20.00    -0.171 F 
HETATM   11  F11 UNL     1     -35.228   3.531   4.763  1.00 20.00    -0.171 F 
ENDBRANCH   7   8
ENDBRANCH   5   7
TORSDOF 2
ENDMDL
MODEL 6
REMARK VINA RESULT:      -4.7     11.783     12.663
REMARK  2 active torsions:
REMARK  status: ('A' for Active; 'I' for Inactive)
REMARK    1  A    between atoms: C5_5  and  C6_6 
REMARK    2  A    between atoms: C6_6  and  C7_7 
ROOT
HETATM    1  C1  UNL     1     -35.233  15.476  -4.579  1.00 20.00     0.131 C 
HETATM    2  C2  UNL     1     -35.234  14.335  -5.566  1.00 20.00     0.079 C 
HETATM    3  C3  UNL     1     -34.708  13.184  -4.718  1.00 20.00     0.008 C 
HETATM    4  C4  UNL     1     -33.768  13.846  -3.720  1.00 20.00     0.013 C 
HETATM    5  C5  UNL     1     -34.506  15.119  -3.298  1.00 20.00     0.064 C 
HETATM    6  O8  UNL     1     -35.758  16.560  -4.796  1.00 20.00    -0.298 OA
ENDROOT
BRANCH   5   7
HETATM    7  C6  UNL     1     -33.575  16.213  -2.820  1.00 20.00     0.129 C 
BRANCH   7   8
HETATM    8  C7  UNL     1     -34.095  16.881  -1.576  1.00 20.00     0.388 C 
HETATM    9  F9  UNL     1     -34.783  16.020  -0.796  1.00 20.00    -0.171 F 
HETATM   10  F10 UNL     1     -34.933  17.886  -1.911  1.00 20.00    -0.171 F 
HETATM   11  F11 UNL     1     -33.097  17.411  -0.837  1.00 20.00    -0.171 F 
ENDBRANCH   7   8
ENDBRANCH   5   7
TORSDOF 2
ENDMDL
MODEL 7
REMARK VINA RESULT:      -4.4     12.357     13.343
REMARK  2 active torsions:
REMARK  status: ('A' for Active; 'I' for Inactive)
REMARK    1  A    between atoms: C5_5  and  C6_6 
REMARK    2  A    between atoms: C6_6  and  C7_7 
ROOT
HETATM    1  C1  UNL     1     -33.691  16.292  -3.963  1.00 20.00     0.131 C 
HETATM    2  C2  UNL     1     -33.710  16.884  -2.576  1.00 20.00     0.079 C 
HETATM    3  C3  UNL     1     -34.766  16.032  -1.884  1.00 20.00     0.008 C 
HETATM    4  C4  UNL     1     -35.740  15.660  -2.994  1.00 20.00     0.013 C 
HETATM    5  C5  UNL     1     -34.840  15.331  -4.186  1.00 20.00     0.064 C 
HETATM    6  O8  UNL     1     -32.844  16.566  -4.804  1.00 20.00    -0.298 OA
ENDROOT
BRANCH   5   7
HETATM    7  C6  UNL     1     -35.528  15.529  -5.521  1.00 20.00     0.129 C 
BRANCH   7   8
HETATM    8  C7  UNL     1     -35.155  14.452  -6.503  1.00 20.00     0.388 C 
HETATM    9  F9  UNL     1     -36.122  14.259  -7.425  1.00 20.00    -0.171 F 
HETATM   10  F10 UNL     1     -34.972  13.282  -5.853  1.00 20.00    -0.171 F 
HETATM   11  F11 UNL     1     -34.008  14.741  -7.153  1.00 20.00    -0.171 F 
ENDBRANCH   7   8
ENDBRANCH   5   7
TORSDOF 2
ENDMDL
MODEL 8
REMARK VINA RESULT:      -4.3     12.068     13.364
REMARK  2 active torsions:
REMARK  status: ('A' for Active; 'I' for Inactive)
REMARK    1  A    between atoms: C5_5  and  C6_6 
REMARK    2  A    between atoms: C6_6  and  C7_7 
ROOT
HETATM    1  C1  UNL     1     -36.034  15.243  -5.553  1.00 20.00     0.131 C 
HETATM    2  C2  UNL     1     -36.695  15.235  -6.909  1.00 20.00     0.079 C 
HETATM    3  C3  UNL     1     -35.641  14.550  -7.770  1.00 20.00     0.008 C 
HETATM    4  C4  UNL     1     -34.315  14.946  -7.134  1.00 20.00     0.013 C 
HETATM    5  C5  UNL     1     -34.575  14.839  -5.630  1.00 20.00     0.064 C 
HETATM    6  O8  UNL     1     -36.614  15.544  -4.518  1.00 20.00    -0.298 OA
ENDROOT
BRANCH   5   7
HETATM    7  C6  UNL     1     -33.670  15.731  -4.807  1.00 20.00     0.129 C 
BRANCH   7   8
HETATM    8  C7  UNL     1     -33.241  15.061  -3.530  1.00 20.00     0.388 C 
HETATM    9  F9  UNL     1     -31.944  14.690  -3.570  1.00 20.00    -0.171 F 
HETATM   10  F10 UNL     1     -33.978  13.947  -3.327  1.00 20.00    -0.171 F 
HETATM   11  F11 UNL     1     -33.414  15.865  -2.459  1.00 20.00    -0.171 F 
ENDBRANCH   7   8
ENDBRANCH   5   7
TORSDOF 2
ENDMDL
MODEL 9
REMARK VINA RESULT:      -4.2     12.162     12.966
REMARK  2 active torsions:
REMARK  status: ('A' for Active; 'I' for Inactive)
REMARK    1  A    between atoms: C5_5  and  C6_6 
REMARK    2  A    between atoms: C6_6  and  C7_7 
ROOT
HETATM    1  C1  UNL     1     -33.208  18.529  -0.522  1.00 20.00     0.131 C 
HETATM    2  C2  UNL     1     -34.052  18.704   0.716  1.00 20.00     0.079 C 
HETATM    3  C3  UNL     1     -34.864  17.415   0.729  1.00 20.00     0.008 C 
HETATM    4  C4  UNL     1     -35.030  17.057  -0.742  1.00 20.00     0.013 C 
HETATM    5  C5  UNL     1     -33.659  17.348  -1.356  1.00 20.00     0.064 C 
HETATM    6  O8  UNL     1     -32.271  19.263  -0.811  1.00 20.00    -0.298 OA
ENDROOT
BRANCH   5   7
HETATM    7  C6  UNL     1     -33.727  17.659  -2.836  1.00 20.00     0.129 C 
BRANCH   7   8
HETATM    8  C7  UNL     1     -33.633  16.411  -3.671  1.00 20.00     0.388 C 
HETATM    9  F9  UNL     1     -34.852  15.958  -4.033  1.00 20.00    -0.171 F 
HETATM   10  F10 UNL     1     -33.027  15.431  -2.964  1.00 20.00    -0.171 F 
HETATM   11  F11 UNL     1     -32.910  16.611  -4.793  1.00 20.00    -0.171 F 
ENDBRANCH   7   8
ENDBRANCH   5   7
TORSDOF 2
ENDMDL
