MODEL 1
REMARK VINA RESULT:      -4.9      0.000      0.000
REMARK  1 active torsions:
REMARK  status: ('A' for Active; 'I' for Inactive)
REMARK    1  A    between atoms: C4_4  and  O6_6 
ROOT
HETATM    1  C1  UNL     1     -34.659   5.675   5.915  1.00 20.00     0.038 C 
HETATM    2  C2  UNL     1     -33.359   6.209   5.320  1.00 20.00     0.081 C 
HETATM    3  C3  UNL     1     -34.526   5.182   3.512  1.00 20.00     0.110 C 
HETATM    4  C4  UNL     1     -35.335   4.895   4.779  1.00 20.00     0.124 C 
HETATM    5  C5  UNL     1     -33.715   6.409   3.865  1.00 20.00     0.246 C 
HETATM    6  F7  UNL     1     -32.626   6.539   3.088  1.00 20.00    -0.206 F 
HETATM    7  F8  UNL     1     -34.466   7.526   3.717  1.00 20.00    -0.206 F 
ENDROOT
BRANCH   4   8
HETATM    8  O6  UNL     1     -35.315   3.505   5.070  1.00 20.00    -0.395 OA
HETATM    9  H16 UNL     1     -34.382   3.256   5.164  1.00 20.00     0.210 HD
ENDBRANCH   4   8
TORSDOF 1
ENDMDL
MODEL 2
REMARK VINA RESULT:      -4.7      2.564      3.125
REMARK  1 active torsions:
REMARK  status: ('A' for Active; 'I' for Inactive)
REMARK    1  A    between atoms: C4_4  and  O6_6 
ROOT
HETATM    1  C1  UNL     1     -35.322   5.357   3.892  1.00 20.00     0.038 C 
HETATM    2  C2  UNL     1     -35.076   4.274   4.939  1.00 20.00     0.081 C 
HETATM    3  C3  UNL     1     -33.405   5.933   5.315  1.00 20.00     0.110 C 
HETATM    4  C4  UNL     1     -34.160   6.346   4.050  1.00 20.00     0.124 C 
HETATM    5  C5  UNL     1     -34.377   5.032   6.045  1.00 20.00     0.246 C 
HETATM    6  F7  UNL     1     -33.758   4.212   6.911  1.00 20.00    -0.206 F 
HETATM    7  F8  UNL     1     -35.271   5.773   6.741  1.00 20.00    -0.206 F 
ENDROOT
BRANCH   4   8
HETATM    8  O6  UNL     1     -33.303   6.269   2.920  1.00 20.00    -0.395 OA
HETATM    9  H16 UNL     1     -32.898   7.144   2.820  1.00 20.00     0.210 HD
ENDBRANCH   4   8
TORSDOF 1
ENDMDL
MODEL 3
REMARK VINA RESULT:      -4.6      2.513      3.030
REMARK  1 active torsions:
REMARK  status: ('A' for Active; 'I' for Inactive)
REMARK    1  A    between atoms: C4_4  and  O6_6 
ROOT
HETATM    1  C1  UNL     1     -33.674   6.691   4.462  1.00 20.00     0.038 C 
HETATM    2  C2  UNL     1     -33.792   5.234   4.025  1.00 20.00     0.081 C 
HETATM    3  C3  UNL     1     -34.709   5.328   6.224  1.00 20.00     0.110 C 
HETATM    4  C4  UNL     1     -34.135   6.715   5.925  1.00 20.00     0.124 C 
HETATM    5  C5  UNL     1     -34.950   4.729   4.856  1.00 20.00     0.246 C 
HETATM    6  F7  UNL     1     -35.003   3.387   4.891  1.00 20.00    -0.206 F 
HETATM    7  F8  UNL     1     -36.121   5.177   4.347  1.00 20.00    -0.206 F 
ENDROOT
BRANCH   4   8
HETATM    8  O6  UNL     1     -33.028   6.980   6.775  1.00 20.00    -0.395 OA
HETATM    9  H16 UNL     1     -33.381   7.435   7.556  1.00 20.00     0.210 HD
ENDBRANCH   4   8
TORSDOF 1
ENDMDL
MODEL 4
REMARK VINA RESULT:      -4.5      1.028      2.025
REMARK  1 active torsions:
REMARK  status: ('A' for Active; 'I' for Inactive)
REMARK    1  A    between atoms: C4_4  and  O6_6 
ROOT
HETATM    1  C1  UNL     1     -35.013   4.084   4.491  1.00 20.00     0.038 C 
HETATM    2  C2  UNL     1     -35.073   5.349   3.641  1.00 20.00     0.081 C 
HETATM    3  C3  UNL     1     -34.149   6.018   5.734  1.00 20.00     0.110 C 
HETATM    4  C4  UNL     1     -34.552   4.549   5.879  1.00 20.00     0.124 C 
HETATM    5  C5  UNL     1     -33.984   6.208   4.243  1.00 20.00     0.246 C 
HETATM    6  F7  UNL     1     -34.094   7.497   3.880  1.00 20.00    -0.206 F 
HETATM    7  F8  UNL     1     -32.768   5.767   3.846  1.00 20.00    -0.206 F 
ENDROOT
BRANCH   4   8
HETATM    8  O6  UNL     1     -35.618   4.422   6.809  1.00 20.00    -0.395 OA
HETATM    9  H16 UNL     1     -35.959   3.518   6.718  1.00 20.00     0.210 HD
ENDBRANCH   4   8
TORSDOF 1
ENDMDL
MODEL 5
REMARK VINA RESULT:      -4.4      1.964      2.650
REMARK  1 active torsions:
REMARK  status: ('A' for Active; 'I' for Inactive)
REMARK    1  A    between atoms: C4_4  and  O6_6 
ROOT
HETATM    1  C1  UNL     1     -34.248   4.701   5.826  1.00 20.00     0.038 C 
HETATM    2  C2  UNL     1     -35.457   4.586   4.903  1.00 20.00     0.081 C 
HETATM    3  C3  UNL     1     -34.421   6.663   4.358  1.00 20.00     0.110 C 
HETATM    4  C4  UNL     1     -33.671   6.100   5.568  1.00 20.00     0.124 C 
HETATM    5  C5  UNL     1     -35.061   5.448   3.725  1.00 20.00     0.246 C 
HETATM    6  F7  UNL     1     -36.114   5.771   2.955  1.00 20.00    -0.206 F 
HETATM    7  F8  UNL     1     -34.165   4.795   2.949  1.00 20.00    -0.206 F 
ENDROOT
BRANCH   4   8
HETATM    8  O6  UNL     1     -33.883   6.926   6.703  1.00 20.00    -0.395 OA
HETATM    9  H16 UNL     1     -33.448   6.486   7.450  1.00 20.00     0.210 HD
ENDBRANCH   4   8
TORSDOF 1
ENDMDL
MODEL 6
REMARK VINA RESULT:      -4.4      2.680      3.213
REMARK  1 active torsions:
REMARK  status: ('A' for Active; 'I' for Inactive)
REMARK    1  A    between atoms: C4_4  and  O6_6 
ROOT
HETATM    1  C1  UNL     1     -33.762   6.296   5.000  1.00 20.00     0.038 C 
HETATM    2  C2  UNL     1     -34.473   5.936   6.302  1.00 20.00     0.081 C 
HETATM    3  C3  UNL     1     -35.272   4.386   4.677  1.00 20.00     0.110 C 
HETATM    4  C4  UNL     1     -34.387   5.388   3.933  1.00 20.00     0.124 C 
HETATM    5  C5  UNL     1     -34.798   4.472   6.111  1.00 20.00     0.246 C 
HETATM    6  F7  UNL     1     -35.728   4.040   6.980  1.00 20.00    -0.206 F 
HETATM    7  F8  UNL     1     -33.687   3.719   6.284  1.00 20.00    -0.206 F 
ENDROOT
BRANCH   4   8
HETATM    8  O6  UNL     1     -35.170   6.164   3.037  1.00 20.00    -0.395 OA
HETATM    9  H16 UNL     1     -34.791   6.034   2.154  1.00 20.00     0.210 HD
ENDBRANCH   4   8
TORSDOF 1
ENDMDL
MODEL 7
REMARK VINA RESULT:      -4.2     11.714     12.482
REMARK  1 active torsions:
REMARK  status: ('A' for Active; 'I' for Inactive)
REMARK    1  A    between atoms: C4_4  and  O6_6 
ROOT
HETATM    1  C1  UNL     1     -35.107  14.753  -5.183  1.00 20.00     0.038 C 
HETATM    2  C2  UNL     1     -34.875  15.840  -4.138  1.00 20.00     0.081 C 
HETATM    3  C3  UNL     1     -33.588  13.965  -3.421  1.00 20.00     0.110 C 
HETATM    4  C4  UNL     1     -34.392  13.508  -4.641  1.00 20.00     0.124 C 
HETATM    5  C5  UNL     1     -33.525  15.470  -3.566  1.00 20.00     0.246 C 
HETATM    6  F7  UNL     1     -33.284  16.083  -2.395  1.00 20.00    -0.206 F 
HETATM    7  F8  UNL     1     -32.541  15.817  -4.427  1.00 20.00    -0.206 F 
ENDROOT
BRANCH   4   8
HETATM    8  O6  UNL     1     -35.347  12.530  -4.260  1.00 20.00    -0.395 OA
HETATM    9  H16 UNL     1     -35.378  11.878  -4.977  1.00 20.00     0.210 HD
ENDBRANCH   4   8
TORSDOF 1
ENDMDL
MODEL 8
REMARK VINA RESULT:      -4.0      2.567      3.069
REMARK  1 active torsions:
REMARK  status: ('A' for Active; 'I' for Inactive)
REMARK    1  A    between atoms: C4_4  and  O6_6 
ROOT
HETATM    1  C1  UNL     1     -33.088   6.395   4.881  1.00 20.00     0.038 C 
HETATM    2  C2  UNL     1     -34.595   6.317   5.112  1.00 20.00     0.081 C 
HETATM    3  C3  UNL     1     -34.240   5.554   2.881  1.00 20.00     0.110 C 
HETATM    4  C4  UNL     1     -32.885   6.038   3.402  1.00 20.00     0.124 C 
HETATM    5  C5  UNL     1     -35.027   5.246   4.136  1.00 20.00     0.246 C 
HETATM    6  F7  UNL     1     -36.353   5.261   3.920  1.00 20.00    -0.206 F 
HETATM    7  F8  UNL     1     -34.697   4.022   4.609  1.00 20.00    -0.206 F 
ENDROOT
BRANCH   4   8
HETATM    8  O6  UNL     1     -32.465   7.188   2.682  1.00 20.00    -0.395 OA
HETATM    9  H16 UNL     1     -31.806   6.885   2.039  1.00 20.00     0.210 HD
ENDBRANCH   4   8
TORSDOF 1
ENDMDL
MODEL 9
REMARK VINA RESULT:      -4.0      8.750      9.477
REMARK  1 active torsions:
REMARK  status: ('A' for Active; 'I' for Inactive)
REMARK    1  A    between atoms: C4_4  and  O6_6 
ROOT
HETATM    1  C1  UNL     1     -41.975   5.462  -2.189  1.00 20.00     0.038 C 
HETATM    2  C2  UNL     1     -40.887   5.130  -1.173  1.00 20.00     0.081 C 
HETATM    3  C3  UNL     1     -41.368   7.446  -0.875  1.00 20.00     0.110 C 
HETATM    4  C4  UNL     1     -42.176   6.980  -2.088  1.00 20.00     0.124 C 
HETATM    5  C5  UNL     1     -41.102   6.175  -0.101  1.00 20.00     0.246 C 
HETATM    6  F7  UNL     1     -40.042   6.290   0.717  1.00 20.00    -0.206 F 
HETATM    7  F8  UNL     1     -42.177   5.854   0.657  1.00 20.00    -0.206 F 
ENDROOT
BRANCH   4   8
HETATM    8  O6  UNL     1     -41.698   7.610  -3.268  1.00 20.00    -0.395 OA
HETATM    9  H16 UNL     1     -40.856   8.031  -3.035  1.00 20.00     0.210 HD
ENDBRANCH   4   8
TORSDOF 1
ENDMDL
