MODEL 1
REMARK VINA RESULT:      -5.8      0.000      0.000
REMARK  2 active torsions:
REMARK  status: ('A' for Active; 'I' for Inactive)
REMARK    1  A    between atoms: C6_6  and  C7_7 
REMARK    2  A    between atoms: C7_7  and  C8_8 
ROOT
HETATM    1  C1  UNL     1     -34.686   5.206   3.878  1.00 20.00     0.131 C 
HETATM    2  C2  UNL     1     -35.050   3.992   4.706  1.00 20.00     0.079 C 
HETATM    3  C3  UNL     1     -35.343   4.394   6.143  1.00 20.00     0.007 C 
HETATM    4  C4  UNL     1     -34.205   5.216   6.742  1.00 20.00     0.001 C 
HETATM    5  C5  UNL     1     -33.926   6.460   5.899  1.00 20.00     0.012 C 
HETATM    6  C6  UNL     1     -33.590   6.100   4.448  1.00 20.00     0.064 C 
HETATM    7  O9  UNL     1     -35.188   5.390   2.770  1.00 20.00    -0.298 OA
ENDROOT
BRANCH   6   8
HETATM    8  C7  UNL     1     -33.396   7.361   3.612  1.00 20.00     0.129 C 
BRANCH   8   9
HETATM    9  C8  UNL     1     -32.068   7.351   2.911  1.00 20.00     0.388 C 
HETATM   10  F10 UNL     1     -32.088   8.092   1.782  1.00 20.00    -0.171 F 
HETATM   11  F11 UNL     1     -31.753   6.084   2.563  1.00 20.00    -0.171 F 
HETATM   12  F12 UNL     1     -31.077   7.816   3.700  1.00 20.00    -0.171 F 
ENDBRANCH   8   9
ENDBRANCH   6   8
TORSDOF 2
ENDMDL
MODEL 2
REMARK VINA RESULT:      -5.0     11.582     13.009
REMARK  2 active torsions:
REMARK  status: ('A' for Active; 'I' for Inactive)
REMARK    1  A    between atoms: C6_6  and  C7_7 
REMARK    2  A    between atoms: C7_7  and  C8_8 
ROOT
HETATM    1  C1  UNL     1     -34.888  14.035  -4.961  1.00 20.00     0.131 C 
HETATM    2  C2  UNL     1     -35.301  14.116  -6.415  1.00 20.00     0.079 C 
HETATM    3  C3  UNL     1     -34.343  15.006  -7.193  1.00 20.00     0.007 C 
HETATM    4  C4  UNL     1     -34.179  16.372  -6.533  1.00 20.00     0.001 C 
HETATM    5  C5  UNL     1     -33.700  16.228  -5.088  1.00 20.00     0.012 C 
HETATM    6  C6  UNL     1     -34.656  15.367  -4.256  1.00 20.00     0.064 C 
HETATM    7  O9  UNL     1     -34.840  12.953  -4.377  1.00 20.00    -0.298 OA
ENDROOT
BRANCH   6   8
HETATM    8  C7  UNL     1     -34.113  15.173  -2.844  1.00 20.00     0.129 C 
BRANCH   8   9
HETATM    9  C8  UNL     1     -34.419  16.358  -1.974  1.00 20.00     0.388 C 
HETATM   10  F10 UNL     1     -35.400  17.125  -2.493  1.00 20.00    -0.171 F 
HETATM   11  F11 UNL     1     -33.315  17.129  -1.860  1.00 20.00    -0.171 F 
HETATM   12  F12 UNL     1     -34.789  15.989  -0.730  1.00 20.00    -0.171 F 
ENDBRANCH   8   9
ENDBRANCH   6   8
TORSDOF 2
ENDMDL
MODEL 3
REMARK VINA RESULT:      -5.0     11.387     12.196
REMARK  2 active torsions:
REMARK  status: ('A' for Active; 'I' for Inactive)
REMARK    1  A    between atoms: C6_6  and  C7_7 
REMARK    2  A    between atoms: C7_7  and  C8_8 
ROOT
HETATM    1  C1  UNL     1     -33.420  14.596  -3.538  1.00 20.00     0.131 C 
HETATM    2  C2  UNL     1     -33.982  13.304  -4.091  1.00 20.00     0.079 C 
HETATM    3  C3  UNL     1     -35.272  13.565  -4.853  1.00 20.00     0.007 C 
HETATM    4  C4  UNL     1     -36.275  14.352  -4.013  1.00 20.00     0.001 C 
HETATM    5  C5  UNL     1     -35.672  15.674  -3.537  1.00 20.00     0.012 C 
HETATM    6  C6  UNL     1     -34.388  15.456  -2.732  1.00 20.00     0.064 C 
HETATM    7  O9  UNL     1     -32.227  14.871  -3.662  1.00 20.00    -0.298 OA
ENDROOT
BRANCH   6   8
HETATM    8  C7  UNL     1     -33.765  16.792  -2.340  1.00 20.00     0.129 C 
BRANCH   8   9
HETATM    9  C8  UNL     1     -34.263  17.254  -1.000  1.00 20.00     0.388 C 
HETATM   10  F10 UNL     1     -33.272  17.772  -0.244  1.00 20.00    -0.171 F 
HETATM   11  F11 UNL     1     -34.783  16.203  -0.328  1.00 20.00    -0.171 F 
HETATM   12  F12 UNL     1     -35.233  18.185  -1.115  1.00 20.00    -0.171 F 
ENDBRANCH   8   9
ENDBRANCH   6   8
TORSDOF 2
ENDMDL
MODEL 4
REMARK VINA RESULT:      -4.7     11.601     12.421
REMARK  2 active torsions:
REMARK  status: ('A' for Active; 'I' for Inactive)
REMARK    1  A    between atoms: C6_6  and  C7_7 
REMARK    2  A    between atoms: C7_7  and  C8_8 
ROOT
HETATM    1  C1  UNL     1     -35.542  16.876  -3.223  1.00 20.00     0.131 C 
HETATM    2  C2  UNL     1     -36.608  17.527  -2.368  1.00 20.00     0.079 C 
HETATM    3  C3  UNL     1     -35.977  18.255  -1.191  1.00 20.00     0.007 C 
HETATM    4  C4  UNL     1     -35.040  17.346  -0.401  1.00 20.00     0.001 C 
HETATM    5  C5  UNL     1     -33.948  16.769  -1.304  1.00 20.00     0.012 C 
HETATM    6  C6  UNL     1     -34.539  15.994  -2.486  1.00 20.00     0.064 C 
HETATM    7  O9  UNL     1     -35.558  16.987  -4.449  1.00 20.00    -0.298 OA
ENDROOT
BRANCH   6   8
HETATM    8  C7  UNL     1     -33.432  15.500  -3.412  1.00 20.00     0.129 C 
BRANCH   8   9
HETATM    9  C8  UNL     1     -33.707  14.105  -3.895  1.00 20.00     0.388 C 
HETATM   10  F10 UNL     1     -34.777  13.559  -3.278  1.00 20.00    -0.171 F 
HETATM   11  F11 UNL     1     -32.639  13.320  -3.632  1.00 20.00    -0.171 F 
HETATM   12  F12 UNL     1     -33.925  14.065  -5.226  1.00 20.00    -0.171 F 
ENDBRANCH   8   9
ENDBRANCH   6   8
TORSDOF 2
ENDMDL
MODEL 5
REMARK VINA RESULT:      -4.7      1.446      2.334
REMARK  2 active torsions:
REMARK  status: ('A' for Active; 'I' for Inactive)
REMARK    1  A    between atoms: C6_6  and  C7_7 
REMARK    2  A    between atoms: C7_7  and  C8_8 
ROOT
HETATM    1  C1  UNL     1     -33.970   6.393   5.790  1.00 20.00     0.131 C 
HETATM    2  C2  UNL     1     -34.720   5.319   6.549  1.00 20.00     0.079 C 
HETATM    3  C3  UNL     1     -34.730   4.018   5.762  1.00 20.00     0.007 C 
HETATM    4  C4  UNL     1     -35.240   4.222   4.338  1.00 20.00     0.001 C 
HETATM    5  C5  UNL     1     -34.405   5.270   3.602  1.00 20.00     0.012 C 
HETATM    6  C6  UNL     1     -34.396   6.612   4.342  1.00 20.00     0.064 C 
HETATM    7  O9  UNL     1     -33.135   7.100   6.354  1.00 20.00    -0.298 OA
ENDROOT
BRANCH   6   8
HETATM    8  C7  UNL     1     -33.492   7.613   3.630  1.00 20.00     0.129 C 
BRANCH   8   9
HETATM    9  C8  UNL     1     -32.179   6.989   3.253  1.00 20.00     0.388 C 
HETATM   10  F10 UNL     1     -32.132   5.679   3.576  1.00 20.00    -0.171 F 
HETATM   11  F11 UNL     1     -31.179   7.610   3.919  1.00 20.00    -0.171 F 
HETATM   12  F12 UNL     1     -31.924   7.106   1.933  1.00 20.00    -0.171 F 
ENDBRANCH   8   9
ENDBRANCH   6   8
TORSDOF 2
ENDMDL
MODEL 6
REMARK VINA RESULT:      -4.7     10.143     11.274
REMARK  2 active torsions:
REMARK  status: ('A' for Active; 'I' for Inactive)
REMARK    1  A    between atoms: C6_6  and  C7_7 
REMARK    2  A    between atoms: C7_7  and  C8_8 
ROOT
HETATM    1  C1  UNL     1     -41.479   5.050  -0.601  1.00 20.00     0.131 C 
HETATM    2  C2  UNL     1     -40.810   6.398  -0.444  1.00 20.00     0.079 C 
HETATM    3  C3  UNL     1     -41.616   7.480  -1.147  1.00 20.00     0.007 C 
HETATM    4  C4  UNL     1     -41.907   7.114  -2.600  1.00 20.00     0.001 C 
HETATM    5  C5  UNL     1     -42.640   5.775  -2.691  1.00 20.00     0.012 C 
HETATM    6  C6  UNL     1     -41.845   4.646  -2.026  1.00 20.00     0.064 C 
HETATM    7  O9  UNL     1     -41.625   4.299   0.363  1.00 20.00    -0.298 OA
ENDROOT
BRANCH   6   8
HETATM    8  C7  UNL     1     -42.634   3.341  -2.060  1.00 20.00     0.129 C 
BRANCH   8   9
HETATM    9  C8  UNL     1     -42.172   2.453  -3.179  1.00 20.00     0.388 C 
HETATM   10  F10 UNL     1     -42.363   1.146  -2.899  1.00 20.00    -0.171 F 
HETATM   11  F11 UNL     1     -40.848   2.638  -3.382  1.00 20.00    -0.171 F 
HETATM   12  F12 UNL     1     -42.805   2.730  -4.338  1.00 20.00    -0.171 F 
ENDBRANCH   8   9
ENDBRANCH   6   8
TORSDOF 2
ENDMDL
MODEL 7
REMARK VINA RESULT:      -4.7     11.706     12.938
REMARK  2 active torsions:
REMARK  status: ('A' for Active; 'I' for Inactive)
REMARK    1  A    between atoms: C6_6  and  C7_7 
REMARK    2  A    between atoms: C7_7  and  C8_8 
ROOT
HETATM    1  C1  UNL     1     -33.654  16.968  -3.759  1.00 20.00     0.131 C 
HETATM    2  C2  UNL     1     -33.735  18.439  -3.412  1.00 20.00     0.079 C 
HETATM    3  C3  UNL     1     -33.632  18.638  -1.908  1.00 20.00     0.007 C 
HETATM    4  C4  UNL     1     -34.645  17.782  -1.153  1.00 20.00     0.001 C 
HETATM    5  C5  UNL     1     -34.473  16.302  -1.496  1.00 20.00     0.012 C 
HETATM    6  C6  UNL     1     -34.605  16.047  -3.001  1.00 20.00     0.064 C 
HETATM    7  O9  UNL     1     -32.926  16.572  -4.669  1.00 20.00    -0.298 OA
ENDROOT
BRANCH   6   8
HETATM    8  C7  UNL     1     -34.349  14.579  -3.323  1.00 20.00     0.129 C 
BRANCH   8   9
HETATM    9  C8  UNL     1     -35.451  14.005  -4.167  1.00 20.00     0.388 C 
HETATM   10  F10 UNL     1     -35.346  12.665  -4.291  1.00 20.00    -0.171 F 
HETATM   11  F11 UNL     1     -35.389  14.537  -5.408  1.00 20.00    -0.171 F 
HETATM   12  F12 UNL     1     -36.671  14.286  -3.663  1.00 20.00    -0.171 F 
ENDBRANCH   8   9
ENDBRANCH   6   8
TORSDOF 2
ENDMDL
MODEL 8
REMARK VINA RESULT:      -4.6     11.903     12.924
REMARK  2 active torsions:
REMARK  status: ('A' for Active; 'I' for Inactive)
REMARK    1  A    between atoms: C6_6  and  C7_7 
REMARK    2  A    between atoms: C7_7  and  C8_8 
ROOT
HETATM    1  C1  UNL     1     -34.877  16.226  -4.909  1.00 20.00     0.131 C 
HETATM    2  C2  UNL     1     -34.289  15.612  -6.161  1.00 20.00     0.079 C 
HETATM    3  C3  UNL     1     -34.852  14.218  -6.387  1.00 20.00     0.007 C 
HETATM    4  C4  UNL     1     -34.695  13.337  -5.150  1.00 20.00     0.001 C 
HETATM    5  C5  UNL     1     -35.363  13.979  -3.934  1.00 20.00     0.012 C 
HETATM    6  C6  UNL     1     -34.800  15.374  -3.646  1.00 20.00     0.064 C 
HETATM    7  O9  UNL     1     -35.301  17.381  -4.910  1.00 20.00    -0.298 OA
ENDROOT
BRANCH   6   8
HETATM    8  C7  UNL     1     -35.539  16.023  -2.480  1.00 20.00     0.129 C 
BRANCH   8   9
HETATM    9  C8  UNL     1     -34.587  16.718  -1.549  1.00 20.00     0.388 C 
HETATM   10  F10 UNL     1     -34.734  18.059  -1.585  1.00 20.00    -0.171 F 
HETATM   11  F11 UNL     1     -33.316  16.436  -1.915  1.00 20.00    -0.171 F 
HETATM   12  F12 UNL     1     -34.743  16.313  -0.272  1.00 20.00    -0.171 F 
ENDBRANCH   8   9
ENDBRANCH   6   8
TORSDOF 2
ENDMDL
MODEL 9
REMARK VINA RESULT:      -4.6     11.376     13.087
REMARK  2 active torsions:
REMARK  status: ('A' for Active; 'I' for Inactive)
REMARK    1  A    between atoms: C6_6  and  C7_7 
REMARK    2  A    between atoms: C7_7  and  C8_8 
ROOT
HETATM    1  C1  UNL     1     -36.810  14.676  -4.888  1.00 20.00     0.131 C 
HETATM    2  C2  UNL     1     -37.788  15.593  -5.591  1.00 20.00     0.079 C 
HETATM    3  C3  UNL     1     -37.804  15.312  -7.085  1.00 20.00     0.007 C 
HETATM    4  C4  UNL     1     -36.400  15.353  -7.683  1.00 20.00     0.001 C 
HETATM    5  C5  UNL     1     -35.476  14.362  -6.976  1.00 20.00     0.012 C 
HETATM    6  C6  UNL     1     -35.400  14.630  -5.469  1.00 20.00     0.064 C 
HETATM    7  O9  UNL     1     -37.126  14.086  -3.856  1.00 20.00    -0.298 OA
ENDROOT
BRANCH   6   8
HETATM    8  C7  UNL     1     -34.538  13.579  -4.778  1.00 20.00     0.129 C 
BRANCH   8   9
HETATM    9  C8  UNL     1     -33.558  14.214  -3.833  1.00 20.00     0.388 C 
HETATM   10  F10 UNL     1     -32.590  13.352  -3.456  1.00 20.00    -0.171 F 
HETATM   11  F11 UNL     1     -34.206  14.614  -2.716  1.00 20.00    -0.171 F 
HETATM   12  F12 UNL     1     -32.966  15.300  -4.372  1.00 20.00    -0.171 F 
ENDBRANCH   8   9
ENDBRANCH   6   8
TORSDOF 2
ENDMDL
