MODEL 1
REMARK VINA RESULT:      -5.4      0.000      0.000
REMARK  2 active torsions:
REMARK  status: ('A' for Active; 'I' for Inactive)
REMARK    1  A    between atoms: C1_1  and  C3_3 
REMARK    2  A    between atoms: C2_2  and  C4_4 
ROOT
HETATM    1  C1  UNL     1     -33.893   6.093   5.202  1.00 20.00     0.223 C 
HETATM    2  C2  UNL     1     -32.982   6.710   4.432  1.00 20.00     0.223 C 
HETATM    3  F5  UNL     1     -33.983   6.450   6.506  1.00 20.00    -0.200 F 
HETATM    4  F6  UNL     1     -32.173   7.633   5.006  1.00 20.00    -0.200 F 
ENDROOT
BRANCH   1   5
HETATM    5  C3  UNL     1     -34.843   5.043   4.725  1.00 20.00     0.377 C 
HETATM    6  F7  UNL     1     -34.290   4.208   3.805  1.00 20.00    -0.180 F 
HETATM    7  F8  UNL     1     -35.913   5.619   4.110  1.00 20.00    -0.180 F 
HETATM    8 CL11 UNL     1     -35.421   4.080   6.099  1.00 20.00    -0.040 Cl
ENDBRANCH   1   5
BRANCH   2   9
HETATM    9  C4  UNL     1     -32.774   6.444   2.977  1.00 20.00     0.377 C 
HETATM   10  F9  UNL     1     -31.928   5.393   2.805  1.00 20.00    -0.180 F 
HETATM   11  F10 UNL     1     -33.922   6.109   2.330  1.00 20.00    -0.180 F 
HETATM   12 CL12 UNL     1     -32.073   7.877   2.196  1.00 20.00    -0.040 Cl
ENDBRANCH   2   9
TORSDOF 2
ENDMDL
MODEL 2
REMARK VINA RESULT:      -5.4      0.041      3.707
REMARK  2 active torsions:
REMARK  status: ('A' for Active; 'I' for Inactive)
REMARK    1  A    between atoms: C1_1  and  C3_3 
REMARK    2  A    between atoms: C2_2  and  C4_4 
ROOT
HETATM    1  C1  UNL     1     -32.992   6.708   4.471  1.00 20.00     0.223 C 
HETATM    2  C2  UNL     1     -33.898   6.078   5.237  1.00 20.00     0.223 C 
HETATM    3  F5  UNL     1     -32.190   7.632   5.051  1.00 20.00    -0.200 F 
HETATM    4  F6  UNL     1     -33.989   6.425   6.543  1.00 20.00    -0.200 F 
ENDROOT
BRANCH   1   5
HETATM    5  C3  UNL     1     -32.783   6.453   3.013  1.00 20.00     0.377 C 
HETATM    6  F7  UNL     1     -33.933   6.132   2.362  1.00 20.00    -0.180 F 
HETATM    7  F8  UNL     1     -31.945   5.395   2.836  1.00 20.00    -0.180 F 
HETATM    8 CL11 UNL     1     -32.070   7.885   2.246  1.00 20.00    -0.040 Cl
ENDBRANCH   1   5
BRANCH   2   9
HETATM    9  C4  UNL     1     -34.839   5.023   4.754  1.00 20.00     0.377 C 
HETATM   10  F9  UNL     1     -35.911   5.592   4.138  1.00 20.00    -0.180 F 
HETATM   11  F10 UNL     1     -34.278   4.193   3.835  1.00 20.00    -0.180 F 
HETATM   12 CL12 UNL     1     -35.415   4.053   6.125  1.00 20.00    -0.040 Cl
ENDBRANCH   2   9
TORSDOF 2
ENDMDL
MODEL 3
REMARK VINA RESULT:      -5.3      1.494      2.449
REMARK  2 active torsions:
REMARK  status: ('A' for Active; 'I' for Inactive)
REMARK    1  A    between atoms: C1_1  and  C3_3 
REMARK    2  A    between atoms: C2_2  and  C4_4 
ROOT
HETATM    1  C1  UNL     1     -34.886   5.295   4.346  1.00 20.00     0.223 C 
HETATM    2  C2  UNL     1     -34.100   5.820   3.392  1.00 20.00     0.223 C 
HETATM    3  F5  UNL     1     -36.131   4.887   4.002  1.00 20.00    -0.200 F 
HETATM    4  F6  UNL     1     -34.604   5.949   2.141  1.00 20.00    -0.200 F 
ENDROOT
BRANCH   1   5
HETATM    5  C3  UNL     1     -34.485   5.105   5.773  1.00 20.00     0.377 C 
HETATM    6  F7  UNL     1     -33.374   4.332   5.911  1.00 20.00    -0.180 F 
HETATM    7  F8  UNL     1     -35.472   4.467   6.459  1.00 20.00    -0.180 F 
HETATM    8 CL11 UNL     1     -34.185   6.681   6.531  1.00 20.00    -0.040 Cl
ENDBRANCH   1   5
BRANCH   2   9
HETATM    9  C4  UNL     1     -32.700   6.297   3.605  1.00 20.00     0.377 C 
HETATM   10  F9  UNL     1     -32.583   6.884   4.827  1.00 20.00    -0.180 F 
HETATM   11  F10 UNL     1     -31.789   5.288   3.587  1.00 20.00    -0.180 F 
HETATM   12 CL12 UNL     1     -32.268   7.482   2.356  1.00 20.00    -0.040 Cl
ENDBRANCH   2   9
TORSDOF 2
ENDMDL
MODEL 4
REMARK VINA RESULT:      -5.3      1.495      4.050
REMARK  2 active torsions:
REMARK  status: ('A' for Active; 'I' for Inactive)
REMARK    1  A    between atoms: C1_1  and  C3_3 
REMARK    2  A    between atoms: C2_2  and  C4_4 
ROOT
HETATM    1  C1  UNL     1     -34.099   5.813   3.395  1.00 20.00     0.223 C 
HETATM    2  C2  UNL     1     -34.885   5.287   4.350  1.00 20.00     0.223 C 
HETATM    3  F5  UNL     1     -34.603   5.941   2.144  1.00 20.00    -0.200 F 
HETATM    4  F6  UNL     1     -36.129   4.878   4.006  1.00 20.00    -0.200 F 
ENDROOT
BRANCH   1   5
HETATM    5  C3  UNL     1     -32.700   6.293   3.610  1.00 20.00     0.377 C 
HETATM    6  F7  UNL     1     -31.787   5.285   3.592  1.00 20.00    -0.180 F 
HETATM    7  F8  UNL     1     -32.586   6.879   4.833  1.00 20.00    -0.180 F 
HETATM    8 CL11 UNL     1     -32.270   7.479   2.363  1.00 20.00    -0.040 Cl
ENDBRANCH   1   5
BRANCH   2   9
HETATM    9  C4  UNL     1     -34.485   5.100   5.777  1.00 20.00     0.377 C 
HETATM   10  F9  UNL     1     -35.473   4.467   6.465  1.00 20.00    -0.180 F 
HETATM   11  F10 UNL     1     -33.376   4.325   5.919  1.00 20.00    -0.180 F 
HETATM   12 CL12 UNL     1     -34.182   6.678   6.532  1.00 20.00    -0.040 Cl
ENDBRANCH   2   9
TORSDOF 2
ENDMDL
MODEL 5
REMARK VINA RESULT:      -4.8     11.662     13.306
REMARK  2 active torsions:
REMARK  status: ('A' for Active; 'I' for Inactive)
REMARK    1  A    between atoms: C1_1  and  C3_3 
REMARK    2  A    between atoms: C2_2  and  C4_4 
ROOT
HETATM    1  C1  UNL     1     -34.023  16.014  -5.159  1.00 20.00     0.223 C 
HETATM    2  C2  UNL     1     -34.092  16.349  -3.860  1.00 20.00     0.223 C 
HETATM    3  F5  UNL     1     -33.310  16.809  -5.992  1.00 20.00    -0.200 F 
HETATM    4  F6  UNL     1     -33.476  17.485  -3.455  1.00 20.00    -0.200 F 
ENDROOT
BRANCH   1   5
HETATM    5  C3  UNL     1     -34.663  14.806  -5.764  1.00 20.00     0.377 C 
HETATM    6  F7  UNL     1     -35.980  14.691  -5.447  1.00 20.00    -0.180 F 
HETATM    7  F8  UNL     1     -34.067  13.674  -5.298  1.00 20.00    -0.180 F 
HETATM    8 CL11 UNL     1     -34.499  14.856  -7.530  1.00 20.00    -0.040 Cl
ENDBRANCH   1   5
BRANCH   2   9
HETATM    9  C4  UNL     1     -34.818  15.567  -2.814  1.00 20.00     0.377 C 
HETATM   10  F9  UNL     1     -36.152  15.547  -3.081  1.00 20.00    -0.180 F 
HETATM   11  F10 UNL     1     -34.429  14.266  -2.760  1.00 20.00    -0.180 F 
HETATM   12 CL12 UNL     1     -34.565  16.308  -1.221  1.00 20.00    -0.040 Cl
ENDBRANCH   2   9
TORSDOF 2
ENDMDL
MODEL 6
REMARK VINA RESULT:      -4.8     11.667     13.037
REMARK  2 active torsions:
REMARK  status: ('A' for Active; 'I' for Inactive)
REMARK    1  A    between atoms: C1_1  and  C3_3 
REMARK    2  A    between atoms: C2_2  and  C4_4 
ROOT
HETATM    1  C1  UNL     1     -34.099  16.339  -3.882  1.00 20.00     0.223 C 
HETATM    2  C2  UNL     1     -34.046  16.013  -5.184  1.00 20.00     0.223 C 
HETATM    3  F5  UNL     1     -33.491  17.481  -3.479  1.00 20.00    -0.200 F 
HETATM    4  F6  UNL     1     -33.355  16.822  -6.023  1.00 20.00    -0.200 F 
ENDROOT
BRANCH   1   5
HETATM    5  C3  UNL     1     -34.802  15.543  -2.831  1.00 20.00     0.377 C 
HETATM    6  F7  UNL     1     -34.383  14.250  -2.779  1.00 20.00    -0.180 F 
HETATM    7  F8  UNL     1     -36.137  15.492  -3.093  1.00 20.00    -0.180 F 
HETATM    8 CL11 UNL     1     -34.557  16.291  -1.241  1.00 20.00    -0.040 Cl
ENDBRANCH   1   5
BRANCH   2   9
HETATM    9  C4  UNL     1     -34.681  14.803  -5.788  1.00 20.00     0.377 C 
HETATM   10  F9  UNL     1     -34.085  13.673  -5.318  1.00 20.00    -0.180 F 
HETATM   11  F10 UNL     1     -36.000  14.686  -5.477  1.00 20.00    -0.180 F 
HETATM   12 CL12 UNL     1     -34.510  14.848  -7.555  1.00 20.00    -0.040 Cl
ENDBRANCH   2   9
TORSDOF 2
ENDMDL
MODEL 7
REMARK VINA RESULT:      -4.7      9.338     10.629
REMARK  2 active torsions:
REMARK  status: ('A' for Active; 'I' for Inactive)
REMARK    1  A    between atoms: C1_1  and  C3_3 
REMARK    2  A    between atoms: C2_2  and  C4_4 
ROOT
HETATM    1  C1  UNL     1     -42.322   5.097  -2.632  1.00 20.00     0.223 C 
HETATM    2  C2  UNL     1     -41.720   5.829  -1.681  1.00 20.00     0.223 C 
HETATM    3  F5  UNL     1     -42.938   5.745  -3.650  1.00 20.00    -0.200 F 
HETATM    4  F6  UNL     1     -41.790   7.179  -1.766  1.00 20.00    -0.200 F 
ENDROOT
BRANCH   1   5
HETATM    5  C3  UNL     1     -42.349   3.603  -2.670  1.00 20.00     0.377 C 
HETATM    6  F7  UNL     1     -42.829   3.055  -1.522  1.00 20.00    -0.180 F 
HETATM    7  F8  UNL     1     -41.089   3.112  -2.820  1.00 20.00    -0.180 F 
HETATM    8 CL11 UNL     1     -43.346   3.052  -4.030  1.00 20.00    -0.040 Cl
ENDBRANCH   1   5
BRANCH   2   9
HETATM    9  C4  UNL     1     -40.983   5.267  -0.509  1.00 20.00     0.377 C 
HETATM   10  F9  UNL     1     -40.125   4.292  -0.915  1.00 20.00    -0.180 F 
HETATM   11  F10 UNL     1     -40.220   6.192   0.131  1.00 20.00    -0.180 F 
HETATM   12 CL12 UNL     1     -42.133   4.570   0.650  1.00 20.00    -0.040 Cl
ENDBRANCH   2   9
TORSDOF 2
ENDMDL
MODEL 8
REMARK VINA RESULT:      -4.7      9.336     10.625
REMARK  2 active torsions:
REMARK  status: ('A' for Active; 'I' for Inactive)
REMARK    1  A    between atoms: C1_1  and  C3_3 
REMARK    2  A    between atoms: C2_2  and  C4_4 
ROOT
HETATM    1  C1  UNL     1     -41.726   5.838  -1.674  1.00 20.00     0.223 C 
HETATM    2  C2  UNL     1     -42.323   5.103  -2.627  1.00 20.00     0.223 C 
HETATM    3  F5  UNL     1     -41.800   7.188  -1.761  1.00 20.00    -0.200 F 
HETATM    4  F6  UNL     1     -42.938   5.749  -3.647  1.00 20.00    -0.200 F 
ENDROOT
BRANCH   1   5
HETATM    5  C3  UNL     1     -40.992   5.278  -0.499  1.00 20.00     0.377 C 
HETATM    6  F7  UNL     1     -40.239   6.207   0.146  1.00 20.00    -0.180 F 
HETATM    7  F8  UNL     1     -40.125   4.309  -0.903  1.00 20.00    -0.180 F 
HETATM    8 CL11 UNL     1     -42.144   4.573   0.652  1.00 20.00    -0.040 Cl
ENDBRANCH   1   5
BRANCH   2   9
HETATM    9  C4  UNL     1     -42.348   3.610  -2.663  1.00 20.00     0.377 C 
HETATM   10  F9  UNL     1     -41.088   3.119  -2.809  1.00 20.00    -0.180 F 
HETATM   11  F10 UNL     1     -42.832   3.061  -1.516  1.00 20.00    -0.180 F 
HETATM   12 CL12 UNL     1     -43.341   3.055  -4.027  1.00 20.00    -0.040 Cl
ENDBRANCH   2   9
TORSDOF 2
ENDMDL
MODEL 9
REMARK VINA RESULT:      -4.7     11.626     12.272
REMARK  2 active torsions:
REMARK  status: ('A' for Active; 'I' for Inactive)
REMARK    1  A    between atoms: C1_1  and  C3_3 
REMARK    2  A    between atoms: C2_2  and  C4_4 
ROOT
HETATM    1  C1  UNL     1     -35.251  14.122  -3.918  1.00 20.00     0.223 C 
HETATM    2  C2  UNL     1     -33.911  14.072  -3.990  1.00 20.00     0.223 C 
HETATM    3  F5  UNL     1     -35.954  13.001  -4.209  1.00 20.00    -0.200 F 
HETATM    4  F6  UNL     1     -33.330  12.914  -4.385  1.00 20.00    -0.200 F 
ENDROOT
BRANCH   1   5
HETATM    5  C3  UNL     1     -36.040  15.327  -3.518  1.00 20.00     0.377 C 
HETATM    6  F7  UNL     1     -35.773  16.413  -4.292  1.00 20.00    -0.180 F 
HETATM    7  F8  UNL     1     -35.730  15.691  -2.244  1.00 20.00    -0.180 F 
HETATM    8 CL11 UNL     1     -37.775  14.970  -3.609  1.00 20.00    -0.040 Cl
ENDBRANCH   1   5
BRANCH   2   9
HETATM    9  C4  UNL     1     -32.996  15.212  -3.682  1.00 20.00     0.377 C 
HETATM   10  F9  UNL     1     -33.385  15.832  -2.534  1.00 20.00    -0.180 F 
HETATM   11  F10 UNL     1     -31.711  14.820  -3.477  1.00 20.00    -0.180 F 
HETATM   12 CL12 UNL     1     -33.031  16.391  -5.009  1.00 20.00    -0.040 Cl
ENDBRANCH   2   9
TORSDOF 2
ENDMDL
