MODEL 1
REMARK VINA RESULT:      -4.3      0.000      0.000
REMARK  1 active torsions:
REMARK  status: ('A' for Active; 'I' for Inactive)
REMARK    1  A    between atoms: C4_4  and  C6_6 
ROOT
HETATM    1  C1  UNL     1     -34.659  15.571  -5.176  1.00 20.00     0.039 A 
HETATM    2  C2  UNL     1     -34.485  14.101  -3.314  1.00 20.00     0.129 A 
HETATM    3  C3  UNL     1     -34.761  13.207  -5.413  1.00 20.00     0.140 A 
HETATM    4  C4  UNL     1     -34.503  15.396  -3.805  1.00 20.00    -0.000 A 
HETATM    5  C5  UNL     1     -34.791  14.460  -6.002  1.00 20.00     0.052 A 
HETATM    6  N8  UNL     1     -34.610  12.998  -4.086  1.00 20.00    -0.271 NA
HETATM    7 CL10 UNL     1     -34.986  14.636  -7.696  1.00 20.00    -0.083 Cl
ENDROOT
BRANCH   4   8
HETATM    8  C6  UNL     1     -34.361  16.536  -2.916  1.00 20.00     0.017 C 
HETATM    9  C7  UNL     1     -34.608  16.337  -1.419  1.00 20.00     0.062 C 
HETATM   10  S9  UNL     1     -33.882  18.086  -3.428  1.00 20.00    -0.084 SA
ENDBRANCH   4   8
TORSDOF 1
ENDMDL
MODEL 2
REMARK VINA RESULT:      -4.1      3.850      5.028
REMARK  1 active torsions:
REMARK  status: ('A' for Active; 'I' for Inactive)
REMARK    1  A    between atoms: C4_4  and  C6_6 
ROOT
HETATM    1  C1  UNL     1     -34.689  16.176  -1.473  1.00 20.00     0.039 A 
HETATM    2  C2  UNL     1     -33.805  17.175  -3.442  1.00 20.00     0.129 A 
HETATM    3  C3  UNL     1     -33.924  18.428  -1.519  1.00 20.00     0.140 A 
HETATM    4  C4  UNL     1     -34.351  16.065  -2.816  1.00 20.00    -0.000 A 
HETATM    5  C5  UNL     1     -34.475  17.377  -0.804  1.00 20.00     0.052 A 
HETATM    6  N8  UNL     1     -33.582  18.357  -2.825  1.00 20.00    -0.271 NA
HETATM    7 CL10 UNL     1     -34.880  17.551   0.853  1.00 20.00    -0.083 Cl
ENDROOT
BRANCH   4   8
HETATM    8  C6  UNL     1     -34.562  14.825  -3.542  1.00 20.00     0.017 C 
HETATM    9  C7  UNL     1     -33.384  13.864  -3.715  1.00 20.00     0.062 C 
HETATM   10  S9  UNL     1     -36.064  14.340  -4.178  1.00 20.00    -0.084 SA
ENDBRANCH   4   8
TORSDOF 1
ENDMDL
MODEL 3
REMARK VINA RESULT:      -4.0      2.531      3.068
REMARK  1 active torsions:
REMARK  status: ('A' for Active; 'I' for Inactive)
REMARK    1  A    between atoms: C4_4  and  C6_6 
ROOT
HETATM    1  C1  UNL     1     -33.852  15.767  -2.727  1.00 20.00     0.039 A 
HETATM    2  C2  UNL     1     -33.631  17.924  -3.703  1.00 20.00     0.129 A 
HETATM    3  C3  UNL     1     -33.588  16.077  -5.070  1.00 20.00     0.140 A 
HETATM    4  C4  UNL     1     -33.793  17.147  -2.568  1.00 20.00    -0.000 A 
HETATM    5  C5  UNL     1     -33.748  15.214  -3.999  1.00 20.00     0.052 A 
HETATM    6  N8  UNL     1     -33.527  17.423  -4.955  1.00 20.00    -0.271 NA
HETATM    7 CL10 UNL     1     -33.817  13.517  -4.233  1.00 20.00    -0.083 Cl
ENDROOT
BRANCH   4   8
HETATM    8  C6  UNL     1     -33.899  17.755  -1.253  1.00 20.00     0.017 C 
HETATM    9  C7  UNL     1     -34.761  17.068  -0.191  1.00 20.00     0.062 C 
HETATM   10  S9  UNL     1     -33.077  19.172  -0.793  1.00 20.00    -0.084 SA
ENDBRANCH   4   8
TORSDOF 1
ENDMDL
MODEL 4
REMARK VINA RESULT:      -4.0      3.390      4.508
REMARK  1 active torsions:
REMARK  status: ('A' for Active; 'I' for Inactive)
REMARK    1  A    between atoms: C4_4  and  C6_6 
ROOT
HETATM    1  C1  UNL     1     -34.488  15.680  -3.051  1.00 20.00     0.039 A 
HETATM    2  C2  UNL     1     -33.747  17.033  -4.862  1.00 20.00     0.129 A 
HETATM    3  C3  UNL     1     -33.825  17.945  -2.754  1.00 20.00     0.140 A 
HETATM    4  C4  UNL     1     -34.213  15.809  -4.408  1.00 20.00    -0.000 A 
HETATM    5  C5  UNL     1     -34.293  16.764  -2.202  1.00 20.00     0.052 A 
HETATM    6  N8  UNL     1     -33.546  18.108  -4.067  1.00 20.00    -0.271 NA
HETATM    7 CL10 UNL     1     -34.622  16.643  -0.524  1.00 20.00    -0.083 Cl
ENDROOT
BRANCH   4   8
HETATM    8  C6  UNL     1     -34.404  14.696  -5.321  1.00 20.00     0.017 C 
HETATM    9  C7  UNL     1     -34.455  13.277  -4.750  1.00 20.00     0.062 C 
HETATM   10  S9  UNL     1     -34.630  14.871  -6.998  1.00 20.00    -0.084 SA
ENDBRANCH   4   8
TORSDOF 1
ENDMDL
MODEL 5
REMARK VINA RESULT:      -3.9      2.852      3.653
REMARK  1 active torsions:
REMARK  status: ('A' for Active; 'I' for Inactive)
REMARK    1  A    between atoms: C4_4  and  C6_6 
ROOT
HETATM    1  C1  UNL     1     -34.254  15.967  -2.015  1.00 20.00     0.039 A 
HETATM    2  C2  UNL     1     -33.714  18.116  -2.880  1.00 20.00     0.129 A 
HETATM    3  C3  UNL     1     -34.042  16.379  -4.348  1.00 20.00     0.140 A 
HETATM    4  C4  UNL     1     -33.956  17.305  -1.782  1.00 20.00    -0.000 A 
HETATM    5  C5  UNL     1     -34.300  15.488  -3.320  1.00 20.00     0.052 A 
HETATM    6  N8  UNL     1     -33.750  17.686  -4.161  1.00 20.00    -0.271 NA
HETATM    7 CL10 UNL     1     -34.665  13.844  -3.645  1.00 20.00    -0.083 Cl
ENDROOT
BRANCH   4   8
HETATM    8  C6  UNL     1     -33.901  17.837  -0.432  1.00 20.00     0.017 C 
HETATM    9  C7  UNL     1     -32.680  18.658  -0.013  1.00 20.00     0.062 C 
HETATM   10  S9  UNL     1     -35.145  17.648   0.714  1.00 20.00    -0.084 SA
ENDBRANCH   4   8
TORSDOF 1
ENDMDL
MODEL 6
REMARK VINA RESULT:      -3.8      2.540      3.776
REMARK  1 active torsions:
REMARK  status: ('A' for Active; 'I' for Inactive)
REMARK    1  A    between atoms: C4_4  and  C6_6 
ROOT
HETATM    1  C1  UNL     1     -34.953  15.653  -4.561  1.00 20.00     0.039 A 
HETATM    2  C2  UNL     1     -34.784  13.557  -5.674  1.00 20.00     0.129 A 
HETATM    3  C3  UNL     1     -34.366  13.653  -3.417  1.00 20.00     0.140 A 
HETATM    4  C4  UNL     1     -35.045  14.917  -5.738  1.00 20.00    -0.000 A 
HETATM    5  C5  UNL     1     -34.608  15.016  -3.375  1.00 20.00     0.052 A 
HETATM    6  N8  UNL     1     -34.445  12.904  -4.540  1.00 20.00    -0.271 NA
HETATM    7 CL10 UNL     1     -34.485  15.890  -1.905  1.00 20.00    -0.083 Cl
ENDROOT
BRANCH   4   8
HETATM    8  C6  UNL     1     -35.405  15.552  -6.993  1.00 20.00     0.017 C 
HETATM    9  C7  UNL     1     -36.398  14.845  -7.918  1.00 20.00     0.062 C 
HETATM   10  S9  UNL     1     -34.827  17.075  -7.487  1.00 20.00    -0.084 SA
ENDBRANCH   4   8
TORSDOF 1
ENDMDL
MODEL 7
REMARK VINA RESULT:      -3.8     12.911     14.035
REMARK  1 active torsions:
REMARK  status: ('A' for Active; 'I' for Inactive)
REMARK    1  A    between atoms: C4_4  and  C6_6 
ROOT
HETATM    1  C1  UNL     1     -41.406   4.245  -1.558  1.00 20.00     0.039 A 
HETATM    2  C2  UNL     1     -42.913   4.757  -3.325  1.00 20.00     0.129 A 
HETATM    3  C3  UNL     1     -42.131   6.465  -2.003  1.00 20.00     0.140 A 
HETATM    4  C4  UNL     1     -42.190   3.808  -2.620  1.00 20.00    -0.000 A 
HETATM    5  C5  UNL     1     -41.371   5.597  -1.237  1.00 20.00     0.052 A 
HETATM    6  N8  UNL     1     -42.904   6.079  -3.042  1.00 20.00    -0.271 NA
HETATM    7 CL10 UNL     1     -40.417   6.172   0.067  1.00 20.00    -0.083 Cl
ENDROOT
BRANCH   4   8
HETATM    8  C6  UNL     1     -42.247   2.402  -2.981  1.00 20.00     0.017 C 
HETATM    9  C7  UNL     1     -41.170   1.836  -3.910  1.00 20.00     0.062 C 
HETATM   10  S9  UNL     1     -43.417   1.317  -2.392  1.00 20.00    -0.084 SA
ENDBRANCH   4   8
TORSDOF 1
ENDMDL
MODEL 8
REMARK VINA RESULT:      -3.8      2.019      2.214
REMARK  1 active torsions:
REMARK  status: ('A' for Active; 'I' for Inactive)
REMARK    1  A    between atoms: C4_4  and  C6_6 
ROOT
HETATM    1  C1  UNL     1     -36.329  15.830  -3.065  1.00 20.00     0.039 A 
HETATM    2  C2  UNL     1     -34.128  14.930  -3.111  1.00 20.00     0.129 A 
HETATM    3  C3  UNL     1     -35.807  13.815  -4.215  1.00 20.00     0.140 A 
HETATM    4  C4  UNL     1     -34.995  15.925  -2.687  1.00 20.00    -0.000 A 
HETATM    5  C5  UNL     1     -36.751  14.758  -3.843  1.00 20.00     0.052 A 
HETATM    6  N8  UNL     1     -34.502  13.874  -3.868  1.00 20.00    -0.271 NA
HETATM    7 CL10 UNL     1     -38.389  14.607  -4.328  1.00 20.00    -0.083 Cl
ENDROOT
BRANCH   4   8
HETATM    8  C6  UNL     1     -34.522  17.033  -1.875  1.00 20.00     0.017 C 
HETATM    9  C7  UNL     1     -34.653  16.939  -0.353  1.00 20.00     0.062 C 
HETATM   10  S9  UNL     1     -33.777  18.425  -2.509  1.00 20.00    -0.084 SA
ENDBRANCH   4   8
TORSDOF 1
ENDMDL
MODEL 9
REMARK VINA RESULT:      -3.7      3.868      4.870
REMARK  1 active torsions:
REMARK  status: ('A' for Active; 'I' for Inactive)
REMARK    1  A    between atoms: C4_4  and  C6_6 
ROOT
HETATM    1  C1  UNL     1     -34.443  16.687  -0.909  1.00 20.00     0.039 A 
HETATM    2  C2  UNL     1     -33.591  18.883  -1.239  1.00 20.00     0.129 A 
HETATM    3  C3  UNL     1     -33.863  17.512  -3.063  1.00 20.00     0.140 A 
HETATM    4  C4  UNL     1     -34.060  17.910  -0.370  1.00 20.00    -0.000 A 
HETATM    5  C5  UNL     1     -34.346  16.476  -2.280  1.00 20.00     0.052 A 
HETATM    6  N8  UNL     1     -33.482  18.714  -2.576  1.00 20.00    -0.271 NA
HETATM    7 CL10 UNL     1     -34.808  14.981  -2.980  1.00 20.00    -0.083 Cl
ENDROOT
BRANCH   4   8
HETATM    8  C6  UNL     1     -34.151  18.162   1.057  1.00 20.00     0.017 C 
HETATM    9  C7  UNL     1     -32.977  18.847   1.760  1.00 20.00     0.062 C 
HETATM   10  S9  UNL     1     -35.515  17.786   2.003  1.00 20.00    -0.084 SA
ENDBRANCH   4   8
TORSDOF 1
ENDMDL
