MODEL 1
REMARK VINA RESULT:      -4.9      0.000      0.000
REMARK  1 active torsions:
REMARK  status: ('A' for Active; 'I' for Inactive)
REMARK    1  A    between atoms: C3_3  and  C9_9 
ROOT
HETATM    1  C1  UNL     1     -34.358  13.985  -3.586  1.00 20.00     0.017 A 
HETATM    2  C2  UNL     1     -34.767  13.458  -4.844  1.00 20.00     0.032 A 
HETATM    3  C3  UNL     1     -34.178  15.350  -3.630  1.00 20.00    -0.011 A 
HETATM    4  C4  UNL     1     -34.883  14.440  -5.804  1.00 20.00     0.075 A 
HETATM    5  S11 UNL     1     -34.500  15.990  -5.185  1.00 20.00    -0.082 SA
HETATM    6 CL12 UNL     1     -35.345  14.258  -7.444  1.00 20.00    -0.076 Cl
ENDROOT
BRANCH   3   7
HETATM    7  C9  UNL     1     -33.751  16.279  -2.518  1.00 20.00     0.033 C 
HETATM    8  C7  UNL     1     -34.648  16.217  -1.277  1.00 20.00     0.088 C 
HETATM    9  C5  UNL     1     -34.392  17.565  -0.650  1.00 20.00     0.127 C 
HETATM   10  C6  UNL     1     -33.651  18.497  -1.575  1.00 20.00     0.079 C 
HETATM   11  O10 UNL     1     -34.742  17.867   0.484  1.00 20.00    -0.298 OA
HETATM   12  C8  UNL     1     -33.745  17.761  -2.907  1.00 20.00     0.018 C 
ENDBRANCH   3   7
TORSDOF 1
ENDMDL
MODEL 2
REMARK VINA RESULT:      -4.9      3.766      5.394
REMARK  1 active torsions:
REMARK  status: ('A' for Active; 'I' for Inactive)
REMARK    1  A    between atoms: C3_3  and  C9_9 
ROOT
HETATM    1  C1  UNL     1     -33.764  18.153  -3.109  1.00 20.00     0.017 A 
HETATM    2  C2  UNL     1     -33.444  18.820  -1.892  1.00 20.00     0.032 A 
HETATM    3  C3  UNL     1     -34.355  16.929  -2.888  1.00 20.00    -0.011 A 
HETATM    4  C4  UNL     1     -33.801  18.079  -0.786  1.00 20.00     0.075 A 
HETATM    5  S11 UNL     1     -34.520  16.587  -1.219  1.00 20.00    -0.082 SA
HETATM    6 CL12 UNL     1     -33.603  18.493   0.865  1.00 20.00    -0.076 Cl
ENDROOT
BRANCH   3   7
HETATM    7  C9  UNL     1     -34.840  15.922  -3.905  1.00 20.00     0.033 C 
HETATM    8  C7  UNL     1     -34.712  14.464  -3.447  1.00 20.00     0.088 C 
HETATM    9  C5  UNL     1     -34.675  13.735  -4.767  1.00 20.00     0.127 C 
HETATM   10  C6  UNL     1     -34.480  14.668  -5.934  1.00 20.00     0.079 C 
HETATM   11  O10 UNL     1     -34.793  12.520  -4.878  1.00 20.00    -0.298 OA
HETATM   12  C8  UNL     1     -34.086  15.966  -5.239  1.00 20.00     0.018 C 
ENDBRANCH   3   7
TORSDOF 1
ENDMDL
MODEL 3
REMARK VINA RESULT:      -4.6     13.646     15.537
REMARK  1 active torsions:
REMARK  status: ('A' for Active; 'I' for Inactive)
REMARK    1  A    between atoms: C3_3  and  C9_9 
ROOT
HETATM    1  C1  UNL     1     -40.946   4.151  -1.355  1.00 20.00     0.017 A 
HETATM    2  C2  UNL     1     -40.837   5.469  -0.825  1.00 20.00     0.032 A 
HETATM    3  C3  UNL     1     -41.892   4.070  -2.353  1.00 20.00    -0.011 A 
HETATM    4  C4  UNL     1     -41.705   6.347  -1.439  1.00 20.00     0.075 A 
HETATM    5  S11 UNL     1     -42.645   5.579  -2.647  1.00 20.00    -0.082 SA
HETATM    6 CL12 UNL     1     -41.911   8.017  -1.120  1.00 20.00    -0.076 Cl
ENDROOT
BRANCH   3   7
HETATM    7  C9  UNL     1     -42.306   2.862  -3.160  1.00 20.00     0.033 C 
HETATM    8  C7  UNL     1     -43.065   1.803  -2.352  1.00 20.00     0.088 C 
HETATM    9  C5  UNL     1     -42.816   0.562  -3.171  1.00 20.00     0.127 C 
HETATM   10  C6  UNL     1     -41.746   0.766  -4.213  1.00 20.00     0.079 C 
HETATM   11  O10 UNL     1     -43.417  -0.493  -3.010  1.00 20.00    -0.298 OA
HETATM   12  C8  UNL     1     -41.135   2.094  -3.784  1.00 20.00     0.018 C 
ENDBRANCH   3   7
TORSDOF 1
ENDMDL
MODEL 4
REMARK VINA RESULT:      -4.5      4.028      5.424
REMARK  1 active torsions:
REMARK  status: ('A' for Active; 'I' for Inactive)
REMARK    1  A    between atoms: C3_3  and  C9_9 
ROOT
HETATM    1  C1  UNL     1     -36.329  17.860  -2.501  1.00 20.00     0.017 A 
HETATM    2  C2  UNL     1     -36.545  18.611  -1.309  1.00 20.00     0.032 A 
HETATM    3  C3  UNL     1     -35.355  16.900  -2.339  1.00 20.00    -0.011 A 
HETATM    4  C4  UNL     1     -35.726  18.196  -0.281  1.00 20.00     0.075 A 
HETATM    5  S11 UNL     1     -34.704  16.907  -0.755  1.00 20.00    -0.082 SA
HETATM    6 CL12 UNL     1     -35.648  18.814   1.315  1.00 20.00    -0.076 Cl
ENDROOT
BRANCH   3   7
HETATM    7  C9  UNL     1     -34.836  15.906  -3.352  1.00 20.00     0.033 C 
HETATM    8  C7  UNL     1     -35.730  14.673  -3.528  1.00 20.00     0.088 C 
HETATM    9  C5  UNL     1     -34.748  13.662  -4.066  1.00 20.00     0.127 C 
HETATM   10  C6  UNL     1     -33.319  14.125  -3.939  1.00 20.00     0.079 C 
HETATM   11  O10 UNL     1     -35.075  12.587  -4.554  1.00 20.00    -0.298 OA
HETATM   12  C8  UNL     1     -33.458  15.329  -3.013  1.00 20.00     0.018 C 
ENDBRANCH   3   7
TORSDOF 1
ENDMDL
MODEL 5
REMARK VINA RESULT:      -4.5     13.431     14.858
REMARK  1 active torsions:
REMARK  status: ('A' for Active; 'I' for Inactive)
REMARK    1  A    between atoms: C3_3  and  C9_9 
ROOT
HETATM    1  C1  UNL     1     -41.229   2.394  -3.482  1.00 20.00     0.017 A 
HETATM    2  C2  UNL     1     -41.525   1.078  -3.940  1.00 20.00     0.032 A 
HETATM    3  C3  UNL     1     -42.176   2.860  -2.598  1.00 20.00    -0.011 A 
HETATM    4  C4  UNL     1     -42.689   0.588  -3.389  1.00 20.00     0.075 A 
HETATM    5  S11 UNL     1     -43.417   1.714  -2.324  1.00 20.00    -0.082 SA
HETATM    6 CL12 UNL     1     -43.417  -0.939  -3.657  1.00 20.00    -0.076 Cl
ENDROOT
BRANCH   3   7
HETATM    7  C9  UNL     1     -42.227   4.195  -1.892  1.00 20.00     0.033 C 
HETATM    8  C7  UNL     1     -42.577   5.372  -2.810  1.00 20.00     0.088 C 
HETATM    9  C5  UNL     1     -41.990   6.534  -2.049  1.00 20.00     0.127 C 
HETATM   10  C6  UNL     1     -41.088   6.089  -0.927  1.00 20.00     0.079 C 
HETATM   11  O10 UNL     1     -42.222   7.708  -2.312  1.00 20.00    -0.298 OA
HETATM   12  C8  UNL     1     -40.905   4.608  -1.236  1.00 20.00     0.018 C 
ENDBRANCH   3   7
TORSDOF 1
ENDMDL
MODEL 6
REMARK VINA RESULT:      -4.5      0.979      1.517
REMARK  1 active torsions:
REMARK  status: ('A' for Active; 'I' for Inactive)
REMARK    1  A    between atoms: C3_3  and  C9_9 
ROOT
HETATM    1  C1  UNL     1     -34.631  14.578  -3.629  1.00 20.00     0.017 A 
HETATM    2  C2  UNL     1     -34.645  13.988  -4.925  1.00 20.00     0.032 A 
HETATM    3  C3  UNL     1     -34.744  15.949  -3.683  1.00 20.00    -0.011 A 
HETATM    4  C4  UNL     1     -34.768  14.931  -5.922  1.00 20.00     0.075 A 
HETATM    5  S11 UNL     1     -34.866  16.521  -5.292  1.00 20.00    -0.082 SA
HETATM    6 CL12 UNL     1     -34.828  14.671  -7.615  1.00 20.00    -0.076 Cl
ENDROOT
BRANCH   3   7
HETATM    7  C9  UNL     1     -34.769  16.937  -2.539  1.00 20.00     0.033 C 
HETATM    8  C7  UNL     1     -33.591  17.917  -2.537  1.00 20.00     0.088 C 
HETATM    9  C5  UNL     1     -33.536  18.322  -1.086  1.00 20.00     0.127 C 
HETATM   10  C6  UNL     1     -34.392  17.442  -0.211  1.00 20.00     0.079 C 
HETATM   11  O10 UNL     1     -32.874  19.262  -0.665  1.00 20.00    -0.298 OA
HETATM   12  C8  UNL     1     -34.724  16.289  -1.151  1.00 20.00     0.018 C 
ENDBRANCH   3   7
TORSDOF 1
ENDMDL
MODEL 7
REMARK VINA RESULT:      -4.4      3.928      5.324
REMARK  1 active torsions:
REMARK  status: ('A' for Active; 'I' for Inactive)
REMARK    1  A    between atoms: C3_3  and  C9_9 
ROOT
HETATM    1  C1  UNL     1     -34.923  16.066  -2.008  1.00 20.00     0.017 A 
HETATM    2  C2  UNL     1     -34.513  16.666  -0.783  1.00 20.00     0.032 A 
HETATM    3  C3  UNL     1     -34.597  16.841  -3.099  1.00 20.00    -0.011 A 
HETATM    4  C4  UNL     1     -33.890  17.879  -0.984  1.00 20.00     0.075 A 
HETATM    5  S11 UNL     1     -33.801  18.287  -2.645  1.00 20.00    -0.082 SA
HETATM    6 CL12 UNL     1     -33.243  18.937   0.198  1.00 20.00    -0.076 Cl
ENDROOT
BRANCH   3   7
HETATM    7  C9  UNL     1     -34.855  16.562  -4.561  1.00 20.00     0.033 C 
HETATM    8  C7  UNL     1     -35.400  15.156  -4.840  1.00 20.00     0.088 C 
HETATM    9  C5  UNL     1     -35.000  14.957  -6.280  1.00 20.00     0.127 C 
HETATM   10  C6  UNL     1     -34.026  16.004  -6.756  1.00 20.00     0.079 C 
HETATM   11  O10 UNL     1     -35.421  14.048  -6.985  1.00 20.00    -0.298 OA
HETATM   12  C8  UNL     1     -33.610  16.667  -5.448  1.00 20.00     0.018 C 
ENDBRANCH   3   7
TORSDOF 1
ENDMDL
MODEL 8
REMARK VINA RESULT:      -4.4      3.670      5.361
REMARK  1 active torsions:
REMARK  status: ('A' for Active; 'I' for Inactive)
REMARK    1  A    between atoms: C3_3  and  C9_9 
ROOT
HETATM    1  C1  UNL     1     -34.060  16.588  -1.517  1.00 20.00     0.017 A 
HETATM    2  C2  UNL     1     -34.760  17.490  -0.666  1.00 20.00     0.032 A 
HETATM    3  C3  UNL     1     -34.762  16.312  -2.669  1.00 20.00    -0.011 A 
HETATM    4  C4  UNL     1     -35.973  17.870  -1.200  1.00 20.00     0.075 A 
HETATM    5  S11 UNL     1     -36.260  17.138  -2.722  1.00 20.00    -0.082 SA
HETATM    6 CL12 UNL     1     -37.133  18.933  -0.523  1.00 20.00    -0.076 Cl
ENDROOT
BRANCH   3   7
HETATM    7  C9  UNL     1     -34.369  15.411  -3.817  1.00 20.00     0.033 C 
HETATM    8  C7  UNL     1     -35.188  15.636  -5.093  1.00 20.00     0.088 C 
HETATM    9  C5  UNL     1     -35.031  14.308  -5.791  1.00 20.00     0.127 C 
HETATM   10  C6  UNL     1     -34.438  13.253  -4.893  1.00 20.00     0.079 C 
HETATM   11  O10 UNL     1     -35.348  14.110  -6.958  1.00 20.00    -0.298 OA
HETATM   12  C8  UNL     1     -34.531  13.915  -3.523  1.00 20.00     0.018 C 
ENDBRANCH   3   7
TORSDOF 1
ENDMDL
MODEL 9
REMARK VINA RESULT:      -4.4      3.009      4.272
REMARK  1 active torsions:
REMARK  status: ('A' for Active; 'I' for Inactive)
REMARK    1  A    between atoms: C3_3  and  C9_9 
ROOT
HETATM    1  C1  UNL     1     -34.573  16.543  -0.949  1.00 20.00     0.017 A 
HETATM    2  C2  UNL     1     -34.337  16.349  -2.340  1.00 20.00     0.032 A 
HETATM    3  C3  UNL     1     -34.299  17.834  -0.552  1.00 20.00    -0.011 A 
HETATM    4  C4  UNL     1     -33.890  17.499  -2.955  1.00 20.00     0.075 A 
HETATM    5  S11 UNL     1     -33.759  18.804  -1.855  1.00 20.00    -0.082 SA
HETATM    6 CL12 UNL     1     -33.485  17.719  -4.605  1.00 20.00    -0.076 Cl
ENDROOT
BRANCH   3   7
HETATM    7  C9  UNL     1     -34.419  18.439   0.827  1.00 20.00     0.033 C 
HETATM    8  C7  UNL     1     -33.076  18.646   1.535  1.00 20.00     0.088 C 
HETATM    9  C5  UNL     1     -33.496  18.663   2.983  1.00 20.00     0.127 C 
HETATM   10  C6  UNL     1     -34.917  18.198   3.175  1.00 20.00     0.079 C 
HETATM   11  O10 UNL     1     -32.767  19.019   3.901  1.00 20.00    -0.298 OA
HETATM   12  C8  UNL     1     -35.240  17.598   1.811  1.00 20.00     0.018 C 
ENDBRANCH   3   7
TORSDOF 1
ENDMDL
