MODEL 1
REMARK VINA RESULT:      -4.7      0.000      0.000
REMARK  0 active torsions:
REMARK  status: ('A' for Active; 'I' for Inactive)
ROOT
HETATM    1  C1  UNL     1     -33.709   7.039   6.656  1.00 20.00     0.017 C 
HETATM    2  C2  UNL     1     -34.252   6.010   6.360  1.00 20.00    -0.090 C 
HETATM    3  C3  UNL     1     -34.894   4.790   6.017  1.00 20.00     0.059 C 
HETATM    4  C4  UNL     1     -35.187   4.480   4.747  1.00 20.00    -0.022 C 
HETATM    5  C5  UNL     1     -34.875   5.368   3.586  1.00 20.00     0.036 C 
ENDROOT
TORSDOF 0
ENDMDL
MODEL 2
REMARK VINA RESULT:      -4.6      1.412      2.563
REMARK  0 active torsions:
REMARK  status: ('A' for Active; 'I' for Inactive)
ROOT
HETATM    1  C1  UNL     1     -32.487   6.637   3.491  1.00 20.00     0.017 C 
HETATM    2  C2  UNL     1     -33.532   6.048   3.542  1.00 20.00    -0.090 C 
HETATM    3  C3  UNL     1     -34.770   5.353   3.595  1.00 20.00     0.059 C 
HETATM    4  C4  UNL     1     -35.277   4.903   4.751  1.00 20.00    -0.022 C 
HETATM    5  C5  UNL     1     -34.605   5.082   6.074  1.00 20.00     0.036 C 
ENDROOT
TORSDOF 0
ENDMDL
MODEL 3
REMARK VINA RESULT:      -4.5      0.646      2.753
REMARK  0 active torsions:
REMARK  status: ('A' for Active; 'I' for Inactive)
ROOT
HETATM    1  C1  UNL     1     -34.419   5.481   2.928  1.00 20.00     0.017 C 
HETATM    2  C2  UNL     1     -34.712   5.086   4.023  1.00 20.00    -0.090 C 
HETATM    3  C3  UNL     1     -35.064   4.614   5.315  1.00 20.00     0.059 C 
HETATM    4  C4  UNL     1     -34.723   5.280   6.426  1.00 20.00    -0.022 C 
HETATM    5  C5  UNL     1     -33.952   6.560   6.420  1.00 20.00     0.036 C 
ENDROOT
TORSDOF 0
ENDMDL
MODEL 4
REMARK VINA RESULT:      -4.3      1.344      2.161
REMARK  0 active torsions:
REMARK  status: ('A' for Active; 'I' for Inactive)
ROOT
HETATM    1  C1  UNL     1     -34.579   5.352   6.379  1.00 20.00     0.017 C 
HETATM    2  C2  UNL     1     -34.703   5.307   5.186  1.00 20.00    -0.090 C 
HETATM    3  C3  UNL     1     -34.857   5.249   3.775  1.00 20.00     0.059 C 
HETATM    4  C4  UNL     1     -33.904   5.690   2.943  1.00 20.00    -0.022 C 
HETATM    5  C5  UNL     1     -32.609   6.276   3.405  1.00 20.00     0.036 C 
ENDROOT
TORSDOF 0
ENDMDL
MODEL 5
REMARK VINA RESULT:      -4.0      1.235      2.251
REMARK  0 active torsions:
REMARK  status: ('A' for Active; 'I' for Inactive)
ROOT
HETATM    1  C1  UNL     1     -35.181   4.197   6.003  1.00 20.00     0.017 C 
HETATM    2  C2  UNL     1     -34.579   5.172   5.646  1.00 20.00    -0.090 C 
HETATM    3  C3  UNL     1     -33.866   6.328   5.230  1.00 20.00     0.059 C 
HETATM    4  C4  UNL     1     -33.503   6.512   3.953  1.00 20.00    -0.022 C 
HETATM    5  C5  UNL     1     -33.803   5.539   2.860  1.00 20.00     0.036 C 
ENDROOT
TORSDOF 0
ENDMDL
MODEL 6
REMARK VINA RESULT:      -3.5      3.546      4.408
REMARK  0 active torsions:
REMARK  status: ('A' for Active; 'I' for Inactive)
ROOT
HETATM    1  C1  UNL     1     -32.172   8.749   1.214  1.00 20.00     0.017 C 
HETATM    2  C2  UNL     1     -32.017   8.088   2.204  1.00 20.00    -0.090 C 
HETATM    3  C3  UNL     1     -31.826   7.310   3.377  1.00 20.00     0.059 C 
HETATM    4  C4  UNL     1     -32.627   6.279   3.678  1.00 20.00    -0.022 C 
HETATM    5  C5  UNL     1     -33.780   5.853   2.829  1.00 20.00     0.036 C 
ENDROOT
TORSDOF 0
ENDMDL
MODEL 7
REMARK VINA RESULT:      -3.3      2.910      4.000
REMARK  0 active torsions:
REMARK  status: ('A' for Active; 'I' for Inactive)
ROOT
HETATM    1  C1  UNL     1     -34.685   5.646   3.322  1.00 20.00     0.017 C 
HETATM    2  C2  UNL     1     -33.544   6.000   3.442  1.00 20.00    -0.090 C 
HETATM    3  C3  UNL     1     -32.193   6.414   3.589  1.00 20.00     0.059 C 
HETATM    4  C4  UNL     1     -31.705   7.475   2.932  1.00 20.00    -0.022 C 
HETATM    5  C5  UNL     1     -32.515   8.311   1.996  1.00 20.00     0.036 C 
ENDROOT
TORSDOF 0
ENDMDL
MODEL 8
REMARK VINA RESULT:      -3.1      8.615     10.092
REMARK  0 active torsions:
REMARK  status: ('A' for Active; 'I' for Inactive)
ROOT
HETATM    1  C1  UNL     1     -42.390   7.293  -3.125  1.00 20.00     0.017 C 
HETATM    2  C2  UNL     1     -41.816   7.180  -2.077  1.00 20.00    -0.090 C 
HETATM    3  C3  UNL     1     -41.138   7.054  -0.835  1.00 20.00     0.059 C 
HETATM    4  C4  UNL     1     -40.683   5.872  -0.398  1.00 20.00    -0.022 C 
HETATM    5  C5  UNL     1     -40.841   4.593  -1.154  1.00 20.00     0.036 C 
ENDROOT
TORSDOF 0
ENDMDL
MODEL 9
REMARK VINA RESULT:      -3.0     12.910     13.571
REMARK  0 active torsions:
REMARK  status: ('A' for Active; 'I' for Inactive)
ROOT
HETATM    1  C1  UNL     1     -34.254  15.981  -2.341  1.00 20.00     0.017 C 
HETATM    2  C2  UNL     1     -34.497  16.516  -1.294  1.00 20.00    -0.090 C 
HETATM    3  C3  UNL     1     -34.792  17.146  -0.055  1.00 20.00     0.059 C 
HETATM    4  C4  UNL     1     -34.020  18.123   0.440  1.00 20.00    -0.022 C 
HETATM    5  C5  UNL     1     -32.797  18.638  -0.245  1.00 20.00     0.036 C 
ENDROOT
TORSDOF 0
ENDMDL
