MODEL 1
REMARK VINA RESULT:      -4.6      0.000      0.000
REMARK  2 active torsions:
REMARK  status: ('A' for Active; 'I' for Inactive)
REMARK    1  A    between atoms: C1_1  and  C3_3 
REMARK    2  A    between atoms: C2_2  and  C8_8 
ROOT
HETATM    1  C4  UNL     1     -35.431  13.999  -4.177  1.00 20.00     0.011 C 
HETATM    2  C5  UNL     1     -35.324  15.079  -3.096  1.00 20.00     0.010 C 
HETATM    3  C6  UNL     1     -34.422  14.104  -5.316  1.00 20.00     0.074 C 
HETATM    4  C7  UNL     1     -33.654  16.573  -4.308  1.00 20.00     0.082 C 
HETATM    5  C8  UNL     1     -33.947  15.747  -3.046  1.00 20.00     0.017 C 
HETATM    6  S11 UNL     1     -34.195  15.811  -5.876  1.00 20.00    -0.168 SA
ENDROOT
BRANCH   5   7
HETATM    7  C2  UNL     1     -33.833  16.610  -1.825  1.00 20.00    -0.018 C 
HETATM    8  C1  UNL     1     -34.739  16.613  -0.838  1.00 20.00     0.046 C 
BRANCH   8   9
HETATM    9  C3  UNL     1     -34.567  17.494   0.349  1.00 20.00     0.145 C 
HETATM   10  C9  UNL     1     -33.421  18.471   0.311  1.00 20.00     0.096 C 
HETATM   11  O10 UNL     1     -35.310  17.428   1.326  1.00 20.00    -0.294 OA
ENDBRANCH   8   9
ENDBRANCH   5   7
TORSDOF 2
ENDMDL
MODEL 2
REMARK VINA RESULT:      -4.6      3.090      5.355
REMARK  2 active torsions:
REMARK  status: ('A' for Active; 'I' for Inactive)
REMARK    1  A    between atoms: C1_1  and  C3_3 
REMARK    2  A    between atoms: C2_2  and  C8_8 
ROOT
HETATM    1  C4  UNL     1     -34.000  17.791  -0.082  1.00 20.00     0.011 C 
HETATM    2  C5  UNL     1     -33.743  17.031  -1.386  1.00 20.00     0.010 C 
HETATM    3  C6  UNL     1     -35.463  18.093   0.227  1.00 20.00     0.074 C 
HETATM    4  C7  UNL     1     -36.108  17.192  -2.317  1.00 20.00     0.082 C 
HETATM    5  C8  UNL     1     -34.967  16.259  -1.886  1.00 20.00     0.017 C 
HETATM    6  S11 UNL     1     -36.374  18.640  -1.238  1.00 20.00    -0.168 SA
ENDROOT
BRANCH   5   7
HETATM    7  C2  UNL     1     -34.583  15.354  -3.019  1.00 20.00    -0.018 C 
HETATM    8  C1  UNL     1     -35.466  14.620  -3.708  1.00 20.00     0.046 C 
BRANCH   8   9
HETATM    9  C3  UNL     1     -35.020  13.741  -4.823  1.00 20.00     0.145 C 
HETATM   10  C9  UNL     1     -34.814  14.395  -6.164  1.00 20.00     0.096 C 
HETATM   11  O10 UNL     1     -34.837  12.535  -4.672  1.00 20.00    -0.294 OA
ENDBRANCH   8   9
ENDBRANCH   5   7
TORSDOF 2
ENDMDL
MODEL 3
REMARK VINA RESULT:      -4.6      0.880      1.048
REMARK  2 active torsions:
REMARK  status: ('A' for Active; 'I' for Inactive)
REMARK    1  A    between atoms: C1_1  and  C3_3 
REMARK    2  A    between atoms: C2_2  and  C8_8 
ROOT
HETATM    1  C4  UNL     1     -35.477  13.779  -4.121  1.00 20.00     0.011 C 
HETATM    2  C5  UNL     1     -35.314  14.942  -3.137  1.00 20.00     0.010 C 
HETATM    3  C6  UNL     1     -34.532  13.792  -5.318  1.00 20.00     0.074 C 
HETATM    4  C7  UNL     1     -33.720  16.333  -4.555  1.00 20.00     0.082 C 
HETATM    5  C8  UNL     1     -33.939  15.612  -3.217  1.00 20.00     0.017 C 
HETATM    6  S11 UNL     1     -34.343  15.449  -6.024  1.00 20.00    -0.168 SA
ENDROOT
BRANCH   5   7
HETATM    7  C2  UNL     1     -33.762  16.570  -2.076  1.00 20.00    -0.018 C 
HETATM    8  C1  UNL     1     -34.570  16.601  -1.008  1.00 20.00     0.046 C 
BRANCH   8   9
HETATM    9  C3  UNL     1     -34.339  17.578   0.091  1.00 20.00     0.145 C 
HETATM   10  C9  UNL     1     -35.415  17.691   1.138  1.00 20.00     0.096 C 
HETATM   11  O10 UNL     1     -33.328  18.275   0.144  1.00 20.00    -0.294 OA
ENDBRANCH   8   9
ENDBRANCH   5   7
TORSDOF 2
ENDMDL
MODEL 4
REMARK VINA RESULT:      -4.5     11.344     11.925
REMARK  2 active torsions:
REMARK  status: ('A' for Active; 'I' for Inactive)
REMARK    1  A    between atoms: C1_1  and  C3_3 
REMARK    2  A    between atoms: C2_2  and  C8_8 
ROOT
HETATM    1  C4  UNL     1     -34.157   5.951   6.430  1.00 20.00     0.011 C 
HETATM    2  C5  UNL     1     -33.585   6.869   5.345  1.00 20.00     0.010 C 
HETATM    3  C6  UNL     1     -34.596   4.569   5.960  1.00 20.00     0.074 C 
HETATM    4  C7  UNL     1     -34.200   5.414   3.347  1.00 20.00     0.082 C 
HETATM    5  C8  UNL     1     -33.068   6.106   4.121  1.00 20.00     0.017 C 
HETATM    6  S11 UNL     1     -35.482   4.630   4.382  1.00 20.00    -0.168 SA
ENDROOT
BRANCH   5   7
HETATM    7  C2  UNL     1     -32.311   7.031   3.215  1.00 20.00    -0.018 C 
HETATM    8  C1  UNL     1     -32.903   7.836   2.323  1.00 20.00     0.046 C 
BRANCH   8   9
HETATM    9  C3  UNL     1     -32.093   8.731   1.453  1.00 20.00     0.145 C 
HETATM   10  C9  UNL     1     -32.432  10.198   1.482  1.00 20.00     0.096 C 
HETATM   11  O10 UNL     1     -31.196   8.304   0.729  1.00 20.00    -0.294 OA
ENDBRANCH   8   9
ENDBRANCH   5   7
TORSDOF 2
ENDMDL
MODEL 5
REMARK VINA RESULT:      -4.4      1.210      1.752
REMARK  2 active torsions:
REMARK  status: ('A' for Active; 'I' for Inactive)
REMARK    1  A    between atoms: C1_1  and  C3_3 
REMARK    2  A    between atoms: C2_2  and  C8_8 
ROOT
HETATM    1  C4  UNL     1     -34.050  15.685  -6.182  1.00 20.00     0.011 C 
HETATM    2  C5  UNL     1     -33.577  16.213  -4.825  1.00 20.00     0.010 C 
HETATM    3  C6  UNL     1     -35.013  14.503  -6.130  1.00 20.00     0.074 C 
HETATM    4  C7  UNL     1     -34.533  14.330  -3.402  1.00 20.00     0.082 C 
HETATM    5  C8  UNL     1     -34.514  15.842  -3.673  1.00 20.00     0.017 C 
HETATM    6  S11 UNL     1     -34.525  13.276  -4.892  1.00 20.00    -0.168 SA
ENDROOT
BRANCH   5   7
HETATM    7  C2  UNL     1     -34.128  16.585  -2.429  1.00 20.00    -0.018 C 
HETATM    8  C1  UNL     1     -34.878  16.604  -1.319  1.00 20.00     0.046 C 
BRANCH   8   9
HETATM    9  C3  UNL     1     -34.437  17.362  -0.117  1.00 20.00     0.145 C 
HETATM   10  C9  UNL     1     -33.178  18.179  -0.250  1.00 20.00     0.096 C 
HETATM   11  O10 UNL     1     -35.054  17.321   0.946  1.00 20.00    -0.294 OA
ENDBRANCH   8   9
ENDBRANCH   5   7
TORSDOF 2
ENDMDL
MODEL 6
REMARK VINA RESULT:      -4.3      3.228      5.597
REMARK  2 active torsions:
REMARK  status: ('A' for Active; 'I' for Inactive)
REMARK    1  A    between atoms: C1_1  and  C3_3 
REMARK    2  A    between atoms: C2_2  and  C8_8 
ROOT
HETATM    1  C4  UNL     1     -32.604  18.756   0.349  1.00 20.00     0.011 C 
HETATM    2  C5  UNL     1     -33.255  18.033  -0.834  1.00 20.00     0.010 C 
HETATM    3  C6  UNL     1     -33.454  18.850   1.612  1.00 20.00     0.074 C 
HETATM    4  C7  UNL     1     -35.595  17.853   0.156  1.00 20.00     0.082 C 
HETATM    5  C8  UNL     1     -34.389  17.092  -0.416  1.00 20.00     0.017 C 
HETATM    6  S11 UNL     1     -35.181  19.255   1.248  1.00 20.00    -0.168 SA
ENDROOT
BRANCH   5   7
HETATM    7  C2  UNL     1     -34.815  16.245  -1.578  1.00 20.00    -0.018 C 
HETATM    8  C1  UNL     1     -34.001  15.919  -2.590  1.00 20.00     0.046 C 
BRANCH   8   9
HETATM    9  C3  UNL     1     -34.486  15.073  -3.714  1.00 20.00     0.145 C 
HETATM   10  C9  UNL     1     -33.937  13.674  -3.799  1.00 20.00     0.096 C 
HETATM   11  O10 UNL     1     -35.286  15.491  -4.549  1.00 20.00    -0.294 OA
ENDBRANCH   8   9
ENDBRANCH   5   7
TORSDOF 2
ENDMDL
MODEL 7
REMARK VINA RESULT:      -4.2     13.208     15.370
REMARK  2 active torsions:
REMARK  status: ('A' for Active; 'I' for Inactive)
REMARK    1  A    between atoms: C1_1  and  C3_3 
REMARK    2  A    between atoms: C2_2  and  C8_8 
ROOT
HETATM    1  C4  UNL     1     -40.786   5.318  -0.430  1.00 20.00     0.011 C 
HETATM    2  C5  UNL     1     -41.005   4.311  -1.563  1.00 20.00     0.010 C 
HETATM    3  C6  UNL     1     -41.732   6.514  -0.419  1.00 20.00     0.074 C 
HETATM    4  C7  UNL     1     -42.670   5.699  -2.899  1.00 20.00     0.082 C 
HETATM    5  C8  UNL     1     -42.412   4.376  -2.163  1.00 20.00     0.017 C 
HETATM    6  S11 UNL     1     -42.006   7.186  -2.077  1.00 20.00    -0.168 SA
ENDROOT
BRANCH   5   7
HETATM    7  C2  UNL     1     -42.635   3.216  -3.088  1.00 20.00    -0.018 C 
HETATM    8  C1  UNL     1     -41.663   2.373  -3.460  1.00 20.00     0.046 C 
BRANCH   8   9
HETATM    9  C3  UNL     1     -41.951   1.241  -4.382  1.00 20.00     0.145 C 
HETATM   10  C9  UNL     1     -41.598  -0.140  -3.894  1.00 20.00     0.096 C 
HETATM   11  O10 UNL     1     -42.441   1.412  -5.496  1.00 20.00    -0.294 OA
ENDBRANCH   8   9
ENDBRANCH   5   7
TORSDOF 2
ENDMDL
MODEL 8
REMARK VINA RESULT:      -4.2      3.223      5.491
REMARK  2 active torsions:
REMARK  status: ('A' for Active; 'I' for Inactive)
REMARK    1  A    between atoms: C1_1  and  C3_3 
REMARK    2  A    between atoms: C2_2  and  C8_8 
ROOT
HETATM    1  C4  UNL     1     -34.493  18.431   1.838  1.00 20.00     0.011 C 
HETATM    2  C5  UNL     1     -33.797  18.190   0.495  1.00 20.00     0.010 C 
HETATM    3  C6  UNL     1     -35.992  18.152   1.863  1.00 20.00     0.074 C 
HETATM    4  C7  UNL     1     -35.904  17.840  -0.892  1.00 20.00     0.082 C 
HETATM    5  C8  UNL     1     -34.571  17.239  -0.422  1.00 20.00     0.017 C 
HETATM    6  S11 UNL     1     -36.829  18.765   0.380  1.00 20.00    -0.168 SA
ENDROOT
BRANCH   5   7
HETATM    7  C2  UNL     1     -33.729  16.859  -1.604  1.00 20.00    -0.018 C 
HETATM    8  C1  UNL     1     -34.115  15.969  -2.528  1.00 20.00     0.046 C 
BRANCH   8   9
HETATM    9  C3  UNL     1     -33.231  15.636  -3.678  1.00 20.00     0.145 C 
HETATM   10  C9  UNL     1     -33.407  16.453  -4.931  1.00 20.00     0.096 C 
HETATM   11  O10 UNL     1     -32.403  14.729  -3.625  1.00 20.00    -0.294 OA
ENDBRANCH   8   9
ENDBRANCH   5   7
TORSDOF 2
ENDMDL
MODEL 9
REMARK VINA RESULT:      -3.9      1.949      2.287
REMARK  2 active torsions:
REMARK  status: ('A' for Active; 'I' for Inactive)
REMARK    1  A    between atoms: C1_1  and  C3_3 
REMARK    2  A    between atoms: C2_2  and  C8_8 
ROOT
HETATM    1  C4  UNL     1     -36.912  16.250  -3.652  1.00 20.00     0.011 C 
HETATM    2  C5  UNL     1     -35.699  17.036  -3.144  1.00 20.00     0.010 C 
HETATM    3  C6  UNL     1     -36.762  14.732  -3.648  1.00 20.00     0.074 C 
HETATM    4  C7  UNL     1     -34.081  15.073  -3.021  1.00 20.00     0.082 C 
HETATM    5  C8  UNL     1     -34.775  16.205  -2.249  1.00 20.00     0.017 C 
HETATM    6  S11 UNL     1     -35.133  14.202  -4.231  1.00 20.00    -0.168 SA
ENDROOT
BRANCH   5   7
HETATM    7  C2  UNL     1     -33.753  17.089  -1.597  1.00 20.00    -0.018 C 
HETATM    8  C1  UNL     1     -33.990  17.786  -0.478  1.00 20.00     0.046 C 
BRANCH   8   9
HETATM    9  C3  UNL     1     -32.931  18.645   0.120  1.00 20.00     0.145 C 
HETATM   10  C9  UNL     1     -32.905  18.748   1.622  1.00 20.00     0.096 C 
HETATM   11  O10 UNL     1     -32.120  19.259  -0.570  1.00 20.00    -0.294 OA
ENDBRANCH   8   9
ENDBRANCH   5   7
TORSDOF 2
ENDMDL
