MODEL 1
REMARK VINA RESULT:      -4.7      0.000      0.000
REMARK  2 active torsions:
REMARK  status: ('A' for Active; 'I' for Inactive)
REMARK    1  A    between atoms: C6_6  and  C8_8 
REMARK    2  A    between atoms: C7_7  and  C9_9 
ROOT
HETATM    1  C1  UNL     1     -34.205   5.973   6.153  1.00 20.00     0.132 C 
HETATM    2  C2  UNL     1     -34.696   4.397   6.365  1.00 20.00     0.084 C 
HETATM    3  C6  UNL     1     -34.022   5.578   4.684  1.00 20.00     0.064 C 
HETATM    4  C7  UNL     1     -35.330   4.712   4.961  1.00 20.00     0.008 C 
HETATM    5  O10 UNL     1     -34.059   6.971   6.812  1.00 20.00    -0.298 OA
ENDROOT
BRANCH   3   6
HETATM    6  C8  UNL     1     -34.353   6.145   3.304  1.00 20.00    -0.003 C 
HETATM    7  C3  UNL     1     -33.567   7.482   3.273  1.00 20.00     0.006 C 
HETATM    8  C4  UNL     1     -32.100   6.987   3.368  1.00 20.00     0.005 C 
HETATM    9  C9  UNL     1     -32.216   5.472   3.126  1.00 20.00    -0.009 C 
HETATM   10  C5  UNL     1     -33.508   5.379   2.279  1.00 20.00     0.010 C 
ENDBRANCH   3   6
TORSDOF 2
ENDMDL
MODEL 2
REMARK VINA RESULT:      -4.3     12.287     13.941
REMARK  2 active torsions:
REMARK  status: ('A' for Active; 'I' for Inactive)
REMARK    1  A    between atoms: C6_6  and  C8_8 
REMARK    2  A    between atoms: C7_7  and  C9_9 
ROOT
HETATM    1  C1  UNL     1     -34.663  13.768  -4.483  1.00 20.00     0.132 C 
HETATM    2  C2  UNL     1     -34.271  14.766  -3.209  1.00 20.00     0.084 C 
HETATM    3  C6  UNL     1     -34.704  15.059  -5.308  1.00 20.00     0.064 C 
HETATM    4  C7  UNL     1     -33.475  15.457  -4.376  1.00 20.00     0.008 C 
HETATM    5  O10 UNL     1     -34.834  12.594  -4.693  1.00 20.00    -0.298 OA
ENDROOT
BRANCH   3   6
HETATM    6  C8  UNL     1     -34.200  15.561  -6.661  1.00 20.00    -0.003 C 
HETATM    7  C3  UNL     1     -34.953  14.662  -7.675  1.00 20.00     0.006 C 
HETATM    8  C4  UNL     1     -36.429  15.061  -7.413  1.00 20.00     0.005 C 
HETATM    9  C9  UNL     1     -36.311  16.323  -6.541  1.00 20.00    -0.009 C 
HETATM   10  C5  UNL     1     -34.929  16.877  -6.962  1.00 20.00     0.010 C 
ENDBRANCH   3   6
TORSDOF 2
ENDMDL
MODEL 3
REMARK VINA RESULT:      -4.3     11.978     13.018
REMARK  2 active torsions:
REMARK  status: ('A' for Active; 'I' for Inactive)
REMARK    1  A    between atoms: C6_6  and  C8_8 
REMARK    2  A    between atoms: C7_7  and  C9_9 
ROOT
HETATM    1  C1  UNL     1     -33.851  18.122  -1.998  1.00 20.00     0.132 C 
HETATM    2  C2  UNL     1     -33.616  17.686  -0.409  1.00 20.00     0.084 C 
HETATM    3  C6  UNL     1     -33.989  16.616  -2.251  1.00 20.00     0.064 C 
HETATM    4  C7  UNL     1     -34.718  16.648  -0.836  1.00 20.00     0.008 C 
HETATM    5  O10 UNL     1     -33.902  19.126  -2.663  1.00 20.00    -0.298 OA
ENDROOT
BRANCH   3   6
HETATM    6  C8  UNL     1     -34.915  15.672  -3.018  1.00 20.00    -0.003 C 
HETATM    7  C3  UNL     1     -34.879  16.237  -4.462  1.00 20.00     0.006 C 
HETATM    8  C4  UNL     1     -33.389  16.036  -4.842  1.00 20.00     0.005 C 
HETATM    9  C9  UNL     1     -32.854  15.121  -3.727  1.00 20.00    -0.009 C 
HETATM   10  C5  UNL     1     -34.134  14.377  -3.278  1.00 20.00     0.010 C 
ENDBRANCH   3   6
TORSDOF 2
ENDMDL
MODEL 4
REMARK VINA RESULT:      -4.3     11.834     13.180
REMARK  2 active torsions:
REMARK  status: ('A' for Active; 'I' for Inactive)
REMARK    1  A    between atoms: C6_6  and  C8_8 
REMARK    2  A    between atoms: C7_7  and  C9_9 
ROOT
HETATM    1  C1  UNL     1     -34.369  14.740  -5.384  1.00 20.00     0.132 C 
HETATM    2  C2  UNL     1     -34.686  13.196  -4.848  1.00 20.00     0.084 C 
HETATM    3  C6  UNL     1     -34.461  15.129  -3.904  1.00 20.00     0.064 C 
HETATM    4  C7  UNL     1     -33.752  13.719  -3.695  1.00 20.00     0.008 C 
HETATM    5  O10 UNL     1     -34.157  15.311  -6.424  1.00 20.00    -0.298 OA
ENDROOT
BRANCH   3   6
HETATM    6  C8  UNL     1     -33.683  15.981  -2.901  1.00 20.00    -0.003 C 
HETATM    7  C3  UNL     1     -33.750  17.403  -3.519  1.00 20.00     0.006 C 
HETATM    8  C4  UNL     1     -35.273  17.692  -3.479  1.00 20.00     0.005 C 
HETATM    9  C9  UNL     1     -35.828  16.572  -2.582  1.00 20.00    -0.009 C 
HETATM   10  C5  UNL     1     -34.604  16.229  -1.700  1.00 20.00     0.010 C 
ENDBRANCH   3   6
TORSDOF 2
ENDMDL
MODEL 5
REMARK VINA RESULT:      -4.3     12.190     13.868
REMARK  2 active torsions:
REMARK  status: ('A' for Active; 'I' for Inactive)
REMARK    1  A    between atoms: C6_6  and  C8_8 
REMARK    2  A    between atoms: C7_7  and  C9_9 
ROOT
HETATM    1  C1  UNL     1     -34.069  16.752  -6.030  1.00 20.00     0.132 C 
HETATM    2  C2  UNL     1     -34.920  16.477  -7.434  1.00 20.00     0.084 C 
HETATM    3  C6  UNL     1     -34.634  15.400  -5.581  1.00 20.00     0.064 C 
HETATM    4  C7  UNL     1     -34.412  15.024  -7.112  1.00 20.00     0.008 C 
HETATM    5  O10 UNL     1     -33.343  17.593  -5.563  1.00 20.00    -0.298 OA
ENDROOT
BRANCH   3   6
HETATM    6  C8  UNL     1     -34.130  14.124  -4.907  1.00 20.00    -0.003 C 
HETATM    7  C3  UNL     1     -33.450  14.651  -3.615  1.00 20.00     0.006 C 
HETATM    8  C4  UNL     1     -34.651  15.279  -2.861  1.00 20.00     0.005 C 
HETATM    9  C9  UNL     1     -35.874  14.765  -3.642  1.00 20.00    -0.009 C 
HETATM   10  C5  UNL     1     -35.338  13.447  -4.248  1.00 20.00     0.010 C 
ENDBRANCH   3   6
TORSDOF 2
ENDMDL
MODEL 6
REMARK VINA RESULT:      -4.2     11.608     12.634
REMARK  2 active torsions:
REMARK  status: ('A' for Active; 'I' for Inactive)
REMARK    1  A    between atoms: C6_6  and  C8_8 
REMARK    2  A    between atoms: C7_7  and  C9_9 
ROOT
HETATM    1  C1  UNL     1     -33.869  13.745  -3.986  1.00 20.00     0.132 C 
HETATM    2  C2  UNL     1     -34.825  13.417  -5.310  1.00 20.00     0.084 C 
HETATM    3  C6  UNL     1     -34.804  14.941  -3.776  1.00 20.00     0.064 C 
HETATM    4  C7  UNL     1     -35.909  13.913  -4.284  1.00 20.00     0.008 C 
HETATM    5  O10 UNL     1     -32.906  13.282  -3.429  1.00 20.00    -0.298 OA
ENDROOT
BRANCH   3   6
HETATM    6  C8  UNL     1     -35.555  15.609  -2.624  1.00 20.00    -0.003 C 
HETATM    7  C3  UNL     1     -34.416  16.198  -1.752  1.00 20.00     0.006 C 
HETATM    8  C4  UNL     1     -33.782  17.233  -2.719  1.00 20.00     0.005 C 
HETATM    9  C9  UNL     1     -34.806  17.327  -3.864  1.00 20.00    -0.009 C 
HETATM   10  C5  UNL     1     -36.122  16.932  -3.153  1.00 20.00     0.010 C 
ENDBRANCH   3   6
TORSDOF 2
ENDMDL
MODEL 7
REMARK VINA RESULT:      -4.1     11.496     12.891
REMARK  2 active torsions:
REMARK  status: ('A' for Active; 'I' for Inactive)
REMARK    1  A    between atoms: C6_6  and  C8_8 
REMARK    2  A    between atoms: C7_7  and  C9_9 
ROOT
HETATM    1  C1  UNL     1     -37.320  15.230  -3.635  1.00 20.00     0.132 C 
HETATM    2  C2  UNL     1     -37.530  16.874  -3.475  1.00 20.00     0.084 C 
HETATM    3  C6  UNL     1     -35.834  15.571  -3.795  1.00 20.00     0.064 C 
HETATM    4  C7  UNL     1     -36.175  16.677  -2.702  1.00 20.00     0.008 C 
HETATM    5  O10 UNL     1     -37.989  14.228  -3.626  1.00 20.00    -0.298 OA
ENDROOT
BRANCH   3   6
HETATM    6  C8  UNL     1     -34.489  15.068  -3.271  1.00 20.00    -0.003 C 
HETATM    7  C3  UNL     1     -34.466  13.583  -3.722  1.00 20.00     0.006 C 
HETATM    8  C4  UNL     1     -34.479  13.724  -5.267  1.00 20.00     0.005 C 
HETATM    9  C9  UNL     1     -34.194  15.218  -5.494  1.00 20.00    -0.009 C 
HETATM   10  C5  UNL     1     -33.403  15.593  -4.218  1.00 20.00     0.010 C 
ENDBRANCH   3   6
TORSDOF 2
ENDMDL
MODEL 8
REMARK VINA RESULT:      -4.1     11.609     12.921
REMARK  2 active torsions:
REMARK  status: ('A' for Active; 'I' for Inactive)
REMARK    1  A    between atoms: C6_6  and  C8_8 
REMARK    2  A    between atoms: C7_7  and  C9_9 
ROOT
HETATM    1  C1  UNL     1     -35.428  15.078  -3.525  1.00 20.00     0.132 C 
HETATM    2  C2  UNL     1     -34.247  13.905  -3.491  1.00 20.00     0.084 C 
HETATM    3  C6  UNL     1     -34.471  15.877  -2.633  1.00 20.00     0.064 C 
HETATM    4  C7  UNL     1     -33.364  15.204  -3.559  1.00 20.00     0.008 C 
HETATM    5  O10 UNL     1     -36.516  15.251  -4.011  1.00 20.00    -0.298 OA
ENDROOT
BRANCH   3   6
HETATM    6  C8  UNL     1     -33.926  17.302  -2.540  1.00 20.00    -0.003 C 
HETATM    7  C3  UNL     1     -35.211  18.169  -2.470  1.00 20.00     0.006 C 
HETATM    8  C4  UNL     1     -35.839  17.692  -1.135  1.00 20.00     0.005 C 
HETATM    9  C9  UNL     1     -34.712  16.877  -0.478  1.00 20.00    -0.009 C 
HETATM   10  C5  UNL     1     -33.448  17.516  -1.099  1.00 20.00     0.010 C 
ENDBRANCH   3   6
TORSDOF 2
ENDMDL
MODEL 9
REMARK VINA RESULT:      -4.1     11.995     13.824
REMARK  2 active torsions:
REMARK  status: ('A' for Active; 'I' for Inactive)
REMARK    1  A    between atoms: C6_6  and  C8_8 
REMARK    2  A    between atoms: C7_7  and  C9_9 
ROOT
HETATM    1  C1  UNL     1     -34.633  15.396  -6.812  1.00 20.00     0.132 C 
HETATM    2  C2  UNL     1     -34.456  17.048  -6.917  1.00 20.00     0.084 C 
HETATM    3  C6  UNL     1     -34.524  15.615  -5.299  1.00 20.00     0.064 C 
HETATM    4  C7  UNL     1     -35.354  16.933  -5.631  1.00 20.00     0.008 C 
HETATM    5  O10 UNL     1     -34.783  14.454  -7.548  1.00 20.00    -0.298 OA
ENDROOT
BRANCH   3   6
HETATM    6  C8  UNL     1     -35.237  15.152  -4.028  1.00 20.00    -0.003 C 
HETATM    7  C3  UNL     1     -34.956  13.626  -4.000  1.00 20.00     0.006 C 
HETATM    8  C4  UNL     1     -33.412  13.594  -3.853  1.00 20.00     0.005 C 
HETATM    9  C9  UNL     1     -33.054  15.050  -3.504  1.00 20.00    -0.009 C 
HETATM   10  C5  UNL     1     -34.357  15.551  -2.838  1.00 20.00     0.010 C 
ENDBRANCH   3   6
TORSDOF 2
ENDMDL
