MODEL 1
REMARK VINA RESULT:      -4.5      0.000      0.000
REMARK  2 active torsions:
REMARK  status: ('A' for Active; 'I' for Inactive)
REMARK    1  A    between atoms: C6_6  and  O11_11 
REMARK    2  A    between atoms: C9_9  and  O11_11 
ROOT
HETATM    1  C1  UNL     1     -33.735  16.106  -2.677  1.00 20.00     0.002 C 
HETATM    2  C2  UNL     1     -34.990  15.298  -3.100  1.00 20.00     0.015 C 
HETATM    3  C3  UNL     1     -32.893  15.165  -3.576  1.00 20.00     0.015 C 
HETATM    4  C4  UNL     1     -35.111  14.257  -6.105  1.00 20.00     0.069 C 
HETATM    5  C5  UNL     1     -34.349  13.507  -4.977  1.00 20.00     0.173 C 
HETATM    6  C6  UNL     1     -34.412  15.566  -5.638  1.00 20.00     0.135 C 
HETATM    7  C7  UNL     1     -34.183  14.853  -4.308  1.00 20.00     0.015 C 
HETATM    8  O10 UNL     1     -35.153  12.574  -4.310  1.00 20.00    -0.234 OA
ENDROOT
BRANCH   6   9
HETATM    9  O11 UNL     1     -35.225  16.751  -5.637  1.00 20.00    -0.385 OA
BRANCH   9  10
HETATM   10  C9  UNL     1     -34.609  17.786  -6.380  1.00 20.00     0.163 C 
HETATM   11  C8  UNL     1     -33.584  18.478  -5.506  1.00 20.00     0.033 C 
ENDBRANCH   9  10
ENDBRANCH   6   9
TORSDOF 2
ENDMDL
MODEL 2
REMARK VINA RESULT:      -4.4      1.842      3.027
REMARK  2 active torsions:
REMARK  status: ('A' for Active; 'I' for Inactive)
REMARK    1  A    between atoms: C6_6  and  O11_11 
REMARK    2  A    between atoms: C9_9  and  O11_11 
ROOT
HETATM    1  C1  UNL     1     -36.866  16.063  -4.637  1.00 20.00     0.002 C 
HETATM    2  C2  UNL     1     -35.676  15.384  -5.364  1.00 20.00     0.015 C 
HETATM    3  C3  UNL     1     -36.846  14.889  -3.623  1.00 20.00     0.015 C 
HETATM    4  C4  UNL     1     -33.496  13.934  -3.554  1.00 20.00     0.069 C 
HETATM    5  C5  UNL     1     -34.832  13.261  -3.977  1.00 20.00     0.173 C 
HETATM    6  C6  UNL     1     -34.318  15.187  -3.135  1.00 20.00     0.135 C 
HETATM    7  C7  UNL     1     -35.413  14.655  -4.056  1.00 20.00     0.015 C 
HETATM    8  O10 UNL     1     -34.725  12.560  -5.185  1.00 20.00    -0.234 OA
ENDROOT
BRANCH   6   9
HETATM    9  O11 UNL     1     -33.732  16.461  -3.449  1.00 20.00    -0.385 OA
BRANCH   9  10
HETATM   10  C9  UNL     1     -33.948  17.388  -2.402  1.00 20.00     0.163 C 
HETATM   11  C8  UNL     1     -34.459  16.645  -1.184  1.00 20.00     0.033 C 
ENDBRANCH   9  10
ENDBRANCH   6   9
TORSDOF 2
ENDMDL
MODEL 3
REMARK VINA RESULT:      -4.2      1.271      2.627
REMARK  2 active torsions:
REMARK  status: ('A' for Active; 'I' for Inactive)
REMARK    1  A    between atoms: C6_6  and  O11_11 
REMARK    2  A    between atoms: C9_9  and  O11_11 
ROOT
HETATM    1  C1  UNL     1     -35.482  15.768  -7.094  1.00 20.00     0.002 C 
HETATM    2  C2  UNL     1     -34.436  14.747  -6.576  1.00 20.00     0.015 C 
HETATM    3  C3  UNL     1     -36.366  15.399  -5.875  1.00 20.00     0.015 C 
HETATM    4  C4  UNL     1     -34.047  14.526  -3.425  1.00 20.00     0.069 C 
HETATM    5  C5  UNL     1     -35.178  13.788  -4.195  1.00 20.00     0.173 C 
HETATM    6  C6  UNL     1     -34.442  15.822  -4.190  1.00 20.00     0.135 C 
HETATM    7  C7  UNL     1     -35.096  14.900  -5.216  1.00 20.00     0.015 C 
HETATM    8  O10 UNL     1     -34.792  12.513  -4.629  1.00 20.00    -0.234 OA
ENDROOT
BRANCH   6   9
HETATM    9  O11 UNL     1     -33.355  16.654  -4.627  1.00 20.00    -0.385 OA
BRANCH   9  10
HETATM   10  C9  UNL     1     -33.668  18.024  -4.458  1.00 20.00     0.163 C 
HETATM   11  C8  UNL     1     -33.668  18.702  -5.813  1.00 20.00     0.033 C 
ENDBRANCH   9  10
ENDBRANCH   6   9
TORSDOF 2
ENDMDL
MODEL 4
REMARK VINA RESULT:      -4.1      1.896      3.115
REMARK  2 active torsions:
REMARK  status: ('A' for Active; 'I' for Inactive)
REMARK    1  A    between atoms: C6_6  and  O11_11 
REMARK    2  A    between atoms: C9_9  and  O11_11 
ROOT
HETATM    1  C1  UNL     1     -35.161  13.335  -4.273  1.00 20.00     0.002 C 
HETATM    2  C2  UNL     1     -34.120  14.135  -3.447  1.00 20.00     0.015 C 
HETATM    3  C3  UNL     1     -36.226  14.372  -3.834  1.00 20.00     0.015 C 
HETATM    4  C4  UNL     1     -34.389  17.306  -3.442  1.00 20.00     0.069 C 
HETATM    5  C5  UNL     1     -35.216  16.383  -2.505  1.00 20.00     0.173 C 
HETATM    6  C6  UNL     1     -34.785  16.376  -4.625  1.00 20.00     0.135 C 
HETATM    7  C7  UNL     1     -35.071  15.315  -3.565  1.00 20.00     0.015 C 
HETATM    8  O10 UNL     1     -34.575  16.140  -1.283  1.00 20.00    -0.234 OA
ENDROOT
BRANCH   6   9
HETATM    9  O11 UNL     1     -33.754  16.106  -5.589  1.00 20.00    -0.385 OA
BRANCH   9  10
HETATM   10  C9  UNL     1     -34.237  16.285  -6.908  1.00 20.00     0.163 C 
HETATM   11  C8  UNL     1     -34.641  14.938  -7.471  1.00 20.00     0.033 C 
ENDBRANCH   9  10
ENDBRANCH   6   9
TORSDOF 2
ENDMDL
MODEL 5
REMARK VINA RESULT:      -4.0      1.892      2.356
REMARK  2 active torsions:
REMARK  status: ('A' for Active; 'I' for Inactive)
REMARK    1  A    between atoms: C6_6  and  O11_11 
REMARK    2  A    between atoms: C9_9  and  O11_11 
ROOT
HETATM    1  C1  UNL     1     -33.689  17.159  -3.625  1.00 20.00     0.002 C 
HETATM    2  C2  UNL     1     -33.852  15.845  -2.816  1.00 20.00     0.015 C 
HETATM    3  C3  UNL     1     -33.495  16.290  -4.894  1.00 20.00     0.015 C 
HETATM    4  C4  UNL     1     -35.394  13.446  -4.229  1.00 20.00     0.069 C 
HETATM    5  C5  UNL     1     -33.887  13.742  -4.465  1.00 20.00     0.173 C 
HETATM    6  C6  UNL     1     -35.677  14.957  -4.469  1.00 20.00     0.135 C 
HETATM    7  C7  UNL     1     -34.204  15.184  -4.139  1.00 20.00     0.015 C 
HETATM    8  O10 UNL     1     -33.056  13.066  -3.562  1.00 20.00    -0.234 OA
ENDROOT
BRANCH   6   9
HETATM    9  O11 UNL     1     -36.661  15.560  -3.613  1.00 20.00    -0.385 OA
BRANCH   9  10
HETATM   10  C9  UNL     1     -37.383  16.564  -4.302  1.00 20.00     0.163 C 
HETATM   11  C8  UNL     1     -37.377  16.247  -5.783  1.00 20.00     0.033 C 
ENDBRANCH   9  10
ENDBRANCH   6   9
TORSDOF 2
ENDMDL
MODEL 6
REMARK VINA RESULT:      -4.0      1.876      3.060
REMARK  2 active torsions:
REMARK  status: ('A' for Active; 'I' for Inactive)
REMARK    1  A    between atoms: C6_6  and  O11_11 
REMARK    2  A    between atoms: C9_9  and  O11_11 
ROOT
HETATM    1  C1  UNL     1     -35.589  13.636  -4.079  1.00 20.00     0.002 C 
HETATM    2  C2  UNL     1     -36.102  14.718  -5.065  1.00 20.00     0.015 C 
HETATM    3  C3  UNL     1     -34.306  13.535  -4.943  1.00 20.00     0.015 C 
HETATM    4  C4  UNL     1     -33.954  16.744  -6.254  1.00 20.00     0.069 C 
HETATM    5  C5  UNL     1     -34.201  15.326  -6.842  1.00 20.00     0.173 C 
HETATM    6  C6  UNL     1     -33.884  16.090  -4.844  1.00 20.00     0.135 C 
HETATM    7  C7  UNL     1     -34.647  14.919  -5.456  1.00 20.00     0.015 C 
HETATM    8  O10 UNL     1     -35.184  15.321  -7.841  1.00 20.00    -0.234 OA
ENDROOT
BRANCH   6   9
HETATM    9  O11 UNL     1     -34.513  16.821  -3.777  1.00 20.00    -0.385 OA
BRANCH   9  10
HETATM   10  C9  UNL     1     -33.756  16.724  -2.585  1.00 20.00     0.163 C 
HETATM   11  C8  UNL     1     -34.679  16.349  -1.444  1.00 20.00     0.033 C 
ENDBRANCH   9  10
ENDBRANCH   6   9
TORSDOF 2
ENDMDL
MODEL 7
REMARK VINA RESULT:      -3.9      1.929      3.533
REMARK  2 active torsions:
REMARK  status: ('A' for Active; 'I' for Inactive)
REMARK    1  A    between atoms: C6_6  and  O11_11 
REMARK    2  A    between atoms: C9_9  and  O11_11 
ROOT
HETATM    1  C1  UNL     1     -33.733  13.780  -3.423  1.00 20.00     0.002 C 
HETATM    2  C2  UNL     1     -34.651  14.645  -4.325  1.00 20.00     0.015 C 
HETATM    3  C3  UNL     1     -32.575  14.755  -3.758  1.00 20.00     0.015 C 
HETATM    4  C4  UNL     1     -34.198  17.795  -4.274  1.00 20.00     0.069 C 
HETATM    5  C5  UNL     1     -33.349  16.830  -5.147  1.00 20.00     0.173 C 
HETATM    6  C6  UNL     1     -33.960  16.837  -3.072  1.00 20.00     0.135 C 
HETATM    7  C7  UNL     1     -33.646  15.766  -4.114  1.00 20.00     0.015 C 
HETATM    8  O10 UNL     1     -33.896  16.632  -6.421  1.00 20.00    -0.234 OA
ENDROOT
BRANCH   6   9
HETATM    9  O11 UNL     1     -35.084  16.622  -2.202  1.00 20.00    -0.385 OA
BRANCH   9  10
HETATM   10  C9  UNL     1     -34.679  16.618  -0.846  1.00 20.00     0.163 C 
HETATM   11  C8  UNL     1     -33.621  17.683  -0.644  1.00 20.00     0.033 C 
ENDBRANCH   9  10
ENDBRANCH   6   9
TORSDOF 2
ENDMDL
MODEL 8
REMARK VINA RESULT:      -3.9      1.887      3.237
REMARK  2 active torsions:
REMARK  status: ('A' for Active; 'I' for Inactive)
REMARK    1  A    between atoms: C6_6  and  O11_11 
REMARK    2  A    between atoms: C9_9  and  O11_11 
ROOT
HETATM    1  C1  UNL     1     -33.723  17.905  -4.710  1.00 20.00     0.002 C 
HETATM    2  C2  UNL     1     -33.319  16.426  -4.939  1.00 20.00     0.015 C 
HETATM    3  C3  UNL     1     -35.183  17.501  -5.037  1.00 20.00     0.015 C 
HETATM    4  C4  UNL     1     -35.365  14.188  -3.974  1.00 20.00     0.069 C 
HETATM    5  C5  UNL     1     -35.492  14.923  -5.337  1.00 20.00     0.173 C 
HETATM    6  C6  UNL     1     -35.174  15.577  -3.300  1.00 20.00     0.135 C 
HETATM    7  C7  UNL     1     -34.778  16.084  -4.684  1.00 20.00     0.015 C 
HETATM    8  O10 UNL     1     -34.806  14.269  -6.369  1.00 20.00    -0.234 OA
ENDROOT
BRANCH   6   9
HETATM    9  O11 UNL     1     -34.194  15.641  -2.251  1.00 20.00    -0.385 OA
BRANCH   9  10
HETATM   10  C9  UNL     1     -34.649  16.452  -1.184  1.00 20.00     0.163 C 
HETATM   11  C8  UNL     1     -33.642  17.557  -0.939  1.00 20.00     0.033 C 
ENDBRANCH   9  10
ENDBRANCH   6   9
TORSDOF 2
ENDMDL
MODEL 9
REMARK VINA RESULT:      -3.9      1.948      3.441
REMARK  2 active torsions:
REMARK  status: ('A' for Active; 'I' for Inactive)
REMARK    1  A    between atoms: C6_6  and  O11_11 
REMARK    2  A    between atoms: C9_9  and  O11_11 
ROOT
HETATM    1  C1  UNL     1     -34.960  14.743  -6.821  1.00 20.00     0.002 C 
HETATM    2  C2  UNL     1     -34.077  15.628  -5.904  1.00 20.00     0.015 C 
HETATM    3  C3  UNL     1     -34.890  13.640  -5.734  1.00 20.00     0.015 C 
HETATM    4  C4  UNL     1     -34.587  15.444  -2.768  1.00 20.00     0.069 C 
HETATM    5  C5  UNL     1     -33.700  14.431  -3.545  1.00 20.00     0.173 C 
HETATM    6  C6  UNL     1     -35.674  15.256  -3.864  1.00 20.00     0.135 C 
HETATM    7  C7  UNL     1     -34.546  14.747  -4.758  1.00 20.00     0.015 C 
HETATM    8  O10 UNL     1     -32.356  14.822  -3.601  1.00 20.00    -0.234 OA
ENDROOT
BRANCH   6   9
HETATM    9  O11 UNL     1     -36.373  16.444  -4.272  1.00 20.00    -0.385 OA
BRANCH   9  10
HETATM   10  C9  UNL     1     -37.733  16.161  -4.545  1.00 20.00     0.163 C 
HETATM   11  C8  UNL     1     -38.095  14.830  -3.919  1.00 20.00     0.033 C 
ENDBRANCH   9  10
ENDBRANCH   6   9
TORSDOF 2
ENDMDL
