MODEL 1
REMARK VINA RESULT:      -4.5      0.000      0.000
REMARK  2 active torsions:
REMARK  status: ('A' for Active; 'I' for Inactive)
REMARK    1  A    between atoms: C6_6  and  O11_11 
REMARK    2  A    between atoms: C9_9  and  O11_11 
ROOT
HETATM    1  C1  UNL     1     -35.593  14.451  -7.499  1.00 20.00     0.002 C 
HETATM    2  C2  UNL     1     -34.256  15.057  -7.002  1.00 20.00     0.015 C 
HETATM    3  C3  UNL     1     -36.219  14.845  -6.137  1.00 20.00     0.015 C 
HETATM    4  C4  UNL     1     -34.426  14.804  -3.523  1.00 20.00     0.069 C 
HETATM    5  C5  UNL     1     -34.210  13.821  -4.708  1.00 20.00     0.173 C 
HETATM    6  C6  UNL     1     -34.486  15.965  -4.560  1.00 20.00     0.135 C 
HETATM    7  C7  UNL     1     -34.801  14.900  -5.597  1.00 20.00     0.015 C 
HETATM    8  O10 UNL     1     -34.948  12.638  -4.572  1.00 20.00    -0.234 OA
ENDROOT
BRANCH   6   9
HETATM    9  O11 UNL     1     -33.253  16.692  -4.733  1.00 20.00    -0.385 OA
BRANCH   9  10
HETATM   10  C9  UNL     1     -33.480  18.088  -4.684  1.00 20.00     0.163 C 
HETATM   11  C8  UNL     1     -33.681  18.605  -6.093  1.00 20.00     0.033 C 
ENDBRANCH   9  10
ENDBRANCH   6   9
TORSDOF 2
ENDMDL
MODEL 2
REMARK VINA RESULT:      -4.5      2.322      3.913
REMARK  2 active torsions:
REMARK  status: ('A' for Active; 'I' for Inactive)
REMARK    1  A    between atoms: C6_6  and  O11_11 
REMARK    2  A    between atoms: C9_9  and  O11_11 
ROOT
HETATM    1  C1  UNL     1     -33.808  16.593  -2.627  1.00 20.00     0.002 C 
HETATM    2  C2  UNL     1     -35.049  15.739  -2.262  1.00 20.00     0.015 C 
HETATM    3  C3  UNL     1     -33.991  16.139  -4.097  1.00 20.00     0.015 C 
HETATM    4  C4  UNL     1     -35.137  13.246  -4.705  1.00 20.00     0.069 C 
HETATM    5  C5  UNL     1     -34.264  13.560  -3.458  1.00 20.00     0.173 C 
HETATM    6  C6  UNL     1     -35.991  14.503  -4.365  1.00 20.00     0.135 C 
HETATM    7  C7  UNL     1     -34.801  14.978  -3.548  1.00 20.00     0.015 C 
HETATM    8  O10 UNL     1     -32.895  13.385  -3.697  1.00 20.00    -0.234 OA
ENDROOT
BRANCH   6   9
HETATM    9  O11 UNL     1     -37.209  14.236  -3.641  1.00 20.00    -0.385 OA
BRANCH   9  10
HETATM   10  C9  UNL     1     -38.322  14.821  -4.292  1.00 20.00     0.163 C 
HETATM   11  C8  UNL     1     -37.833  15.910  -5.223  1.00 20.00     0.033 C 
ENDBRANCH   9  10
ENDBRANCH   6   9
TORSDOF 2
ENDMDL
MODEL 3
REMARK VINA RESULT:      -4.4      1.987      2.470
REMARK  2 active torsions:
REMARK  status: ('A' for Active; 'I' for Inactive)
REMARK    1  A    between atoms: C6_6  and  O11_11 
REMARK    2  A    between atoms: C9_9  and  O11_11 
ROOT
HETATM    1  C1  UNL     1     -37.167  15.174  -5.208  1.00 20.00     0.002 C 
HETATM    2  C2  UNL     1     -35.819  15.936  -5.135  1.00 20.00     0.015 C 
HETATM    3  C3  UNL     1     -36.783  14.470  -3.883  1.00 20.00     0.015 C 
HETATM    4  C4  UNL     1     -33.736  13.839  -3.276  1.00 20.00     0.069 C 
HETATM    5  C5  UNL     1     -34.324  13.843  -4.715  1.00 20.00     0.173 C 
HETATM    6  C6  UNL     1     -34.441  15.207  -3.035  1.00 20.00     0.135 C 
HETATM    7  C7  UNL     1     -35.346  14.842  -4.200  1.00 20.00     0.015 C 
HETATM    8  O10 UNL     1     -34.808  12.587  -5.105  1.00 20.00    -0.234 OA
ENDROOT
BRANCH   6   9
HETATM    9  O11 UNL     1     -33.600  16.365  -3.207  1.00 20.00    -0.385 OA
BRANCH   9  10
HETATM   10  C9  UNL     1     -33.850  17.325  -2.197  1.00 20.00     0.163 C 
HETATM   11  C8  UNL     1     -34.530  16.644  -1.027  1.00 20.00     0.033 C 
ENDBRANCH   9  10
ENDBRANCH   6   9
TORSDOF 2
ENDMDL
MODEL 4
REMARK VINA RESULT:      -4.4      1.944      3.199
REMARK  2 active torsions:
REMARK  status: ('A' for Active; 'I' for Inactive)
REMARK    1  A    between atoms: C6_6  and  O11_11 
REMARK    2  A    between atoms: C9_9  and  O11_11 
ROOT
HETATM    1  C1  UNL     1     -35.199  13.278  -4.142  1.00 20.00     0.002 C 
HETATM    2  C2  UNL     1     -35.667  14.707  -3.766  1.00 20.00     0.015 C 
HETATM    3  C3  UNL     1     -33.754  13.829  -4.232  1.00 20.00     0.015 C 
HETATM    4  C4  UNL     1     -33.279  16.810  -5.203  1.00 20.00     0.069 C 
HETATM    5  C5  UNL     1     -34.454  15.933  -5.720  1.00 20.00     0.173 C 
HETATM    6  C6  UNL     1     -33.658  16.381  -3.755  1.00 20.00     0.135 C 
HETATM    7  C7  UNL     1     -34.379  15.204  -4.390  1.00 20.00     0.015 C 
HETATM    8  O10 UNL     1     -34.119  15.199  -6.865  1.00 20.00    -0.234 OA
ENDROOT
BRANCH   6   9
HETATM    9  O11 UNL     1     -34.473  17.326  -3.032  1.00 20.00    -0.385 OA
BRANCH   9  10
HETATM   10  C9  UNL     1     -33.929  17.588  -1.752  1.00 20.00     0.163 C 
HETATM   11  C8  UNL     1     -34.597  16.683  -0.738  1.00 20.00     0.033 C 
ENDBRANCH   9  10
ENDBRANCH   6   9
TORSDOF 2
ENDMDL
MODEL 5
REMARK VINA RESULT:      -4.1      1.755      3.123
REMARK  2 active torsions:
REMARK  status: ('A' for Active; 'I' for Inactive)
REMARK    1  A    between atoms: C6_6  and  O11_11 
REMARK    2  A    between atoms: C9_9  and  O11_11 
ROOT
HETATM    1  C1  UNL     1     -34.635  16.098  -1.850  1.00 20.00     0.002 C 
HETATM    2  C2  UNL     1     -35.789  16.064  -2.885  1.00 20.00     0.015 C 
HETATM    3  C3  UNL     1     -33.643  15.914  -3.026  1.00 20.00     0.015 C 
HETATM    4  C4  UNL     1     -34.514  14.202  -5.549  1.00 20.00     0.069 C 
HETATM    5  C5  UNL     1     -35.018  13.897  -4.111  1.00 20.00     0.173 C 
HETATM    6  C6  UNL     1     -34.871  15.699  -5.305  1.00 20.00     0.135 C 
HETATM    7  C7  UNL     1     -34.819  15.375  -3.822  1.00 20.00     0.015 C 
HETATM    8  O10 UNL     1     -34.188  13.001  -3.425  1.00 20.00    -0.234 OA
ENDROOT
BRANCH   6   9
HETATM    9  O11 UNL     1     -36.146  16.116  -5.833  1.00 20.00    -0.385 OA
BRANCH   9  10
HETATM   10  C9  UNL     1     -36.037  17.364  -6.492  1.00 20.00     0.163 C 
HETATM   11  C8  UNL     1     -34.573  17.669  -6.729  1.00 20.00     0.033 C 
ENDBRANCH   9  10
ENDBRANCH   6   9
TORSDOF 2
ENDMDL
MODEL 6
REMARK VINA RESULT:      -4.0      1.641      2.464
REMARK  2 active torsions:
REMARK  status: ('A' for Active; 'I' for Inactive)
REMARK    1  A    between atoms: C6_6  and  O11_11 
REMARK    2  A    between atoms: C9_9  and  O11_11 
ROOT
HETATM    1  C1  UNL     1     -34.130  13.300  -4.234  1.00 20.00     0.002 C 
HETATM    2  C2  UNL     1     -34.074  14.570  -3.346  1.00 20.00     0.015 C 
HETATM    3  C3  UNL     1     -34.912  14.130  -5.283  1.00 20.00     0.015 C 
HETATM    4  C4  UNL     1     -36.867  16.429  -4.312  1.00 20.00     0.069 C 
HETATM    5  C5  UNL     1     -36.614  15.136  -3.488  1.00 20.00     0.173 C 
HETATM    6  C6  UNL     1     -35.325  16.566  -4.481  1.00 20.00     0.135 C 
HETATM    7  C7  UNL     1     -35.250  15.085  -4.152  1.00 20.00     0.015 C 
HETATM    8  O10 UNL     1     -37.511  14.108  -3.805  1.00 20.00    -0.234 OA
ENDROOT
BRANCH   6   9
HETATM    9  O11 UNL     1     -34.687  17.469  -3.555  1.00 20.00    -0.385 OA
BRANCH   9  10
HETATM   10  C9  UNL     1     -33.832  18.369  -4.236  1.00 20.00     0.163 C 
HETATM   11  C8  UNL     1     -33.657  17.898  -5.664  1.00 20.00     0.033 C 
ENDBRANCH   9  10
ENDBRANCH   6   9
TORSDOF 2
ENDMDL
MODEL 7
REMARK VINA RESULT:      -3.9      1.918      2.660
REMARK  2 active torsions:
REMARK  status: ('A' for Active; 'I' for Inactive)
REMARK    1  A    between atoms: C6_6  and  O11_11 
REMARK    2  A    between atoms: C9_9  and  O11_11 
ROOT
HETATM    1  C1  UNL     1     -34.407  17.197  -6.577  1.00 20.00     0.002 C 
HETATM    2  C2  UNL     1     -33.418  16.857  -5.432  1.00 20.00     0.015 C 
HETATM    3  C3  UNL     1     -35.558  16.719  -5.657  1.00 20.00     0.015 C 
HETATM    4  C4  UNL     1     -35.036  14.363  -3.600  1.00 20.00     0.069 C 
HETATM    5  C5  UNL     1     -34.318  14.453  -4.976  1.00 20.00     0.173 C 
HETATM    6  C6  UNL     1     -34.678  15.861  -3.368  1.00 20.00     0.135 C 
HETATM    7  C7  UNL     1     -34.502  15.957  -4.874  1.00 20.00     0.015 C 
HETATM    8  O10 UNL     1     -35.018  13.797  -5.996  1.00 20.00    -0.234 OA
ENDROOT
BRANCH   6   9
HETATM    9  O11 UNL     1     -33.503  16.090  -2.563  1.00 20.00    -0.385 OA
BRANCH   9  10
HETATM   10  C9  UNL     1     -33.709  17.162  -1.663  1.00 20.00     0.163 C 
HETATM   11  C8  UNL     1     -34.707  16.735  -0.607  1.00 20.00     0.033 C 
ENDBRANCH   9  10
ENDBRANCH   6   9
TORSDOF 2
ENDMDL
MODEL 8
REMARK VINA RESULT:      -3.9      1.883      3.881
REMARK  2 active torsions:
REMARK  status: ('A' for Active; 'I' for Inactive)
REMARK    1  A    between atoms: C6_6  and  O11_11 
REMARK    2  A    between atoms: C9_9  and  O11_11 
ROOT
HETATM    1  C1  UNL     1     -33.708  13.489  -3.765  1.00 20.00     0.002 C 
HETATM    2  C2  UNL     1     -34.659  13.604  -4.984  1.00 20.00     0.015 C 
HETATM    3  C3  UNL     1     -34.311  14.814  -3.235  1.00 20.00     0.015 C 
HETATM    4  C4  UNL     1     -35.268  17.028  -5.293  1.00 20.00     0.069 C 
HETATM    5  C5  UNL     1     -34.075  16.073  -5.578  1.00 20.00     0.173 C 
HETATM    6  C6  UNL     1     -36.096  15.784  -4.853  1.00 20.00     0.135 C 
HETATM    7  C7  UNL     1     -34.764  15.080  -4.660  1.00 20.00     0.015 C 
HETATM    8  O10 UNL     1     -32.849  16.594  -5.143  1.00 20.00    -0.234 OA
ENDROOT
BRANCH   6   9
HETATM    9  O11 UNL     1     -36.972  15.246  -5.864  1.00 20.00    -0.385 OA
BRANCH   9  10
HETATM   10  C9  UNL     1     -38.318  15.257  -5.424  1.00 20.00     0.163 C 
HETATM   11  C8  UNL     1     -38.371  14.781  -3.988  1.00 20.00     0.033 C 
ENDBRANCH   9  10
ENDBRANCH   6   9
TORSDOF 2
ENDMDL
MODEL 9
REMARK VINA RESULT:      -3.8      2.174      3.056
REMARK  2 active torsions:
REMARK  status: ('A' for Active; 'I' for Inactive)
REMARK    1  A    between atoms: C6_6  and  O11_11 
REMARK    2  A    between atoms: C9_9  and  O11_11 
ROOT
HETATM    1  C1  UNL     1     -34.844  13.593  -5.610  1.00 20.00     0.002 C 
HETATM    2  C2  UNL     1     -35.181  15.103  -5.510  1.00 20.00     0.015 C 
HETATM    3  C3  UNL     1     -34.943  13.520  -4.066  1.00 20.00     0.015 C 
HETATM    4  C4  UNL     1     -34.085  16.028  -2.326  1.00 20.00     0.069 C 
HETATM    5  C5  UNL     1     -33.413  15.675  -3.682  1.00 20.00     0.173 C 
HETATM    6  C6  UNL     1     -35.469  15.837  -3.017  1.00 20.00     0.135 C 
HETATM    7  C7  UNL     1     -34.730  15.024  -4.065  1.00 20.00     0.015 C 
HETATM    8  O10 UNL     1     -32.307  14.828  -3.534  1.00 20.00    -0.234 OA
ENDROOT
BRANCH   6   9
HETATM    9  O11 UNL     1     -36.099  17.054  -3.466  1.00 20.00    -0.385 OA
BRANCH   9  10
HETATM   10  C9  UNL     1     -37.432  17.135  -2.998  1.00 20.00     0.163 C 
HETATM   11  C8  UNL     1     -38.336  16.385  -3.954  1.00 20.00     0.033 C 
ENDBRANCH   9  10
ENDBRANCH   6   9
TORSDOF 2
ENDMDL
