MODEL 1
REMARK VINA RESULT:      -5.3      0.000      0.000
REMARK  2 active torsions:
REMARK  status: ('A' for Active; 'I' for Inactive)
REMARK    1  A    between atoms: C3_3  and  C6_6 
REMARK    2  A    between atoms: C6_6  and  C7_7 
ROOT
HETATM    1  C1  UNL     1     -32.526   7.073   2.969  1.00 20.00    -0.176 C 
HETATM    2  C2  UNL     1     -32.066   8.008   2.194  1.00 20.00     0.091 C 
HETATM    3  C3  UNL     1     -32.986   6.136   3.745  1.00 20.00     0.067 C 
ENDROOT
BRANCH   3   4
HETATM    4  C6  UNL     1     -34.418   5.687   3.794  1.00 20.00     0.021 C 
BRANCH   4   5
HETATM    5  C7  UNL     1     -34.924   5.434   5.227  1.00 20.00    -0.021 C 
HETATM    6  C4  UNL     1     -34.140   6.236   6.267  1.00 20.00     0.009 C 
HETATM    7  C5  UNL     1     -34.838   3.940   5.553  1.00 20.00     0.009 C 
ENDBRANCH   4   5
ENDBRANCH   3   4
TORSDOF 2
ENDMDL
MODEL 2
REMARK VINA RESULT:      -5.2      0.671      1.484
REMARK  2 active torsions:
REMARK  status: ('A' for Active; 'I' for Inactive)
REMARK    1  A    between atoms: C3_3  and  C6_6 
REMARK    2  A    between atoms: C6_6  and  C7_7 
ROOT
HETATM    1  C1  UNL     1     -32.688   6.696   2.986  1.00 20.00    -0.176 C 
HETATM    2  C2  UNL     1     -31.783   7.626   2.949  1.00 20.00     0.091 C 
HETATM    3  C3  UNL     1     -33.595   5.762   3.022  1.00 20.00     0.067 C 
ENDROOT
BRANCH   3   4
HETATM    4  C6  UNL     1     -34.706   5.684   4.028  1.00 20.00     0.021 C 
BRANCH   4   5
HETATM    5  C7  UNL     1     -34.230   5.233   5.422  1.00 20.00    -0.021 C 
HETATM    6  C4  UNL     1     -35.161   4.188   6.040  1.00 20.00     0.009 C 
HETATM    7  C5  UNL     1     -34.121   6.444   6.352  1.00 20.00     0.009 C 
ENDBRANCH   4   5
ENDBRANCH   3   4
TORSDOF 2
ENDMDL
MODEL 3
REMARK VINA RESULT:      -4.7      0.941      1.567
REMARK  2 active torsions:
REMARK  status: ('A' for Active; 'I' for Inactive)
REMARK    1  A    between atoms: C3_3  and  C6_6 
REMARK    2  A    between atoms: C6_6  and  C7_7 
ROOT
HETATM    1  C1  UNL     1     -32.101   8.026   2.226  1.00 20.00    -0.176 C 
HETATM    2  C2  UNL     1     -32.074   8.797   1.182  1.00 20.00     0.091 C 
HETATM    3  C3  UNL     1     -32.126   7.254   3.273  1.00 20.00     0.067 C 
ENDROOT
BRANCH   3   4
HETATM    4  C6  UNL     1     -32.916   5.982   3.382  1.00 20.00     0.021 C 
BRANCH   4   5
HETATM    5  C7  UNL     1     -34.201   6.137   4.218  1.00 20.00    -0.021 C 
HETATM    6  C4  UNL     1     -34.022   5.630   5.651  1.00 20.00     0.009 C 
HETATM    7  C5  UNL     1     -35.353   5.388   3.545  1.00 20.00     0.009 C 
ENDBRANCH   4   5
ENDBRANCH   3   4
TORSDOF 2
ENDMDL
MODEL 4
REMARK VINA RESULT:      -4.3      0.911      4.084
REMARK  2 active torsions:
REMARK  status: ('A' for Active; 'I' for Inactive)
REMARK    1  A    between atoms: C3_3  and  C6_6 
REMARK    2  A    between atoms: C6_6  and  C7_7 
ROOT
HETATM    1  C1  UNL     1     -34.388   5.361   5.107  1.00 20.00    -0.176 C 
HETATM    2  C2  UNL     1     -34.945   4.405   5.785  1.00 20.00     0.091 C 
HETATM    3  C3  UNL     1     -33.829   6.321   4.429  1.00 20.00     0.067 C 
ENDROOT
BRANCH   3   4
HETATM    4  C6  UNL     1     -33.161   6.153   3.095  1.00 20.00     0.021 C 
BRANCH   4   5
HETATM    5  C7  UNL     1     -31.941   7.074   2.909  1.00 20.00    -0.021 C 
HETATM    6  C4  UNL     1     -31.446   7.653   4.236  1.00 20.00     0.009 C 
HETATM    7  C5  UNL     1     -32.291   8.212   1.946  1.00 20.00     0.009 C 
ENDBRANCH   4   5
ENDBRANCH   3   4
TORSDOF 2
ENDMDL
MODEL 5
REMARK VINA RESULT:      -4.3      0.939      3.913
REMARK  2 active torsions:
REMARK  status: ('A' for Active; 'I' for Inactive)
REMARK    1  A    between atoms: C3_3  and  C6_6 
REMARK    2  A    between atoms: C6_6  and  C7_7 
ROOT
HETATM    1  C1  UNL     1     -34.880   4.870   4.960  1.00 20.00    -0.176 C 
HETATM    2  C2  UNL     1     -35.125   4.242   6.069  1.00 20.00     0.091 C 
HETATM    3  C3  UNL     1     -34.634   5.498   3.847  1.00 20.00     0.067 C 
ENDROOT
BRANCH   3   4
HETATM    4  C6  UNL     1     -34.027   6.868   3.750  1.00 20.00     0.021 C 
BRANCH   4   5
HETATM    5  C7  UNL     1     -32.524   6.842   3.417  1.00 20.00    -0.021 C 
HETATM    6  C4  UNL     1     -32.137   7.924   2.406  1.00 20.00     0.009 C 
HETATM    7  C5  UNL     1     -32.135   5.464   2.874  1.00 20.00     0.009 C 
ENDBRANCH   4   5
ENDBRANCH   3   4
TORSDOF 2
ENDMDL
MODEL 6
REMARK VINA RESULT:      -4.2      1.340      3.231
REMARK  2 active torsions:
REMARK  status: ('A' for Active; 'I' for Inactive)
REMARK    1  A    between atoms: C3_3  and  C6_6 
REMARK    2  A    between atoms: C6_6  and  C7_7 
ROOT
HETATM    1  C1  UNL     1     -34.064   6.406   6.527  1.00 20.00    -0.176 C 
HETATM    2  C2  UNL     1     -33.327   7.417   6.872  1.00 20.00     0.091 C 
HETATM    3  C3  UNL     1     -34.803   5.392   6.181  1.00 20.00     0.067 C 
ENDROOT
BRANCH   3   4
HETATM    4  C6  UNL     1     -34.465   4.414   5.093  1.00 20.00     0.021 C 
BRANCH   4   5
HETATM    5  C7  UNL     1     -34.630   5.002   3.679  1.00 20.00    -0.021 C 
HETATM    6  C4  UNL     1     -33.447   5.886   3.279  1.00 20.00     0.009 C 
HETATM    7  C5  UNL     1     -35.929   5.808   3.599  1.00 20.00     0.009 C 
ENDBRANCH   4   5
ENDBRANCH   3   4
TORSDOF 2
ENDMDL
MODEL 7
REMARK VINA RESULT:      -4.0      1.575      4.693
REMARK  2 active torsions:
REMARK  status: ('A' for Active; 'I' for Inactive)
REMARK    1  A    between atoms: C3_3  and  C6_6 
REMARK    2  A    between atoms: C6_6  and  C7_7 
ROOT
HETATM    1  C1  UNL     1     -33.463   6.033   3.462  1.00 20.00    -0.176 C 
HETATM    2  C2  UNL     1     -34.681   5.666   3.720  1.00 20.00     0.091 C 
HETATM    3  C3  UNL     1     -32.241   6.400   3.203  1.00 20.00     0.067 C 
ENDROOT
BRANCH   3   4
HETATM    4  C6  UNL     1     -31.792   7.821   3.020  1.00 20.00     0.021 C 
BRANCH   4   5
HETATM    5  C7  UNL     1     -32.421   8.500   1.789  1.00 20.00    -0.021 C 
HETATM    6  C4  UNL     1     -31.514   8.421   0.559  1.00 20.00     0.009 C 
HETATM    7  C5  UNL     1     -32.735   9.964   2.106  1.00 20.00     0.009 C 
ENDBRANCH   4   5
ENDBRANCH   3   4
TORSDOF 2
ENDMDL
MODEL 8
REMARK VINA RESULT:      -3.8     11.200     11.873
REMARK  2 active torsions:
REMARK  status: ('A' for Active; 'I' for Inactive)
REMARK    1  A    between atoms: C3_3  and  C6_6 
REMARK    2  A    between atoms: C6_6  and  C7_7 
ROOT
HETATM    1  C1  UNL     1     -34.525  16.661  -1.062  1.00 20.00    -0.176 C 
HETATM    2  C2  UNL     1     -34.850  17.134   0.102  1.00 20.00     0.091 C 
HETATM    3  C3  UNL     1     -34.198  16.188  -2.230  1.00 20.00     0.067 C 
ENDROOT
BRANCH   3   4
HETATM    4  C6  UNL     1     -35.052  15.268  -3.053  1.00 20.00     0.021 C 
BRANCH   4   5
HETATM    5  C7  UNL     1     -34.349  13.945  -3.408  1.00 20.00    -0.021 C 
HETATM    6  C4  UNL     1     -32.847  14.132  -3.637  1.00 20.00     0.009 C 
HETATM    7  C5  UNL     1     -34.990  13.333  -4.656  1.00 20.00     0.009 C 
ENDBRANCH   4   5
ENDBRANCH   3   4
TORSDOF 2
ENDMDL
MODEL 9
REMARK VINA RESULT:      -3.7     11.380     12.146
REMARK  2 active torsions:
REMARK  status: ('A' for Active; 'I' for Inactive)
REMARK    1  A    between atoms: C3_3  and  C6_6 
REMARK    2  A    between atoms: C6_6  and  C7_7 
ROOT
HETATM    1  C1  UNL     1     -34.628  16.850  -0.700  1.00 20.00    -0.176 C 
HETATM    2  C2  UNL     1     -34.979  17.347   0.446  1.00 20.00     0.091 C 
HETATM    3  C3  UNL     1     -34.274  16.352  -1.850  1.00 20.00     0.067 C 
ENDROOT
BRANCH   3   4
HETATM    4  C6  UNL     1     -35.156  15.514  -2.730  1.00 20.00     0.021 C 
BRANCH   4   5
HETATM    5  C7  UNL     1     -34.401  14.875  -3.910  1.00 20.00    -0.021 C 
HETATM    6  C4  UNL     1     -34.805  13.415  -4.131  1.00 20.00     0.009 C 
HETATM    7  C5  UNL     1     -32.892  14.963  -3.671  1.00 20.00     0.009 C 
ENDBRANCH   4   5
ENDBRANCH   3   4
TORSDOF 2
ENDMDL
