MODEL 1
REMARK VINA RESULT:      -4.4      0.000      0.000
REMARK  3 active torsions:
REMARK  status: ('A' for Active; 'I' for Inactive)
REMARK    1  A    between atoms: C1_1  and  C6_6 
REMARK    2  A    between atoms: C6_6  and  C7_7 
REMARK    3  A    between atoms: C6_6  and  O9_9 
ROOT
HETATM    1  C2  UNL     1     -35.150  14.141  -6.116  1.00 20.00     0.054 C 
HETATM    2  C6  UNL     1     -35.217  14.134  -4.584  1.00 20.00     0.113 C 
ENDROOT
BRANCH   2   3
HETATM    3  C1  UNL     1     -36.569  14.717  -4.181  1.00 20.00     0.269 C 
HETATM    4  O8  UNL     1     -37.525  14.049  -3.801  1.00 20.00    -0.304 OA
ENDBRANCH   2   3
BRANCH   2   5
HETATM    5  C7  UNL     1     -34.032  14.880  -3.874  1.00 20.00    -0.014 C 
HETATM    6  C3  UNL     1     -32.912  13.882  -3.496  1.00 20.00     0.018 C 
HETATM    7  C4  UNL     1     -34.511  15.539  -2.560  1.00 20.00     0.018 C 
HETATM    8  C5  UNL     1     -33.414  15.983  -4.756  1.00 20.00     0.018 C 
ENDBRANCH   2   5
BRANCH   2   9
HETATM    9  O9  UNL     1     -35.224  12.771  -4.154  1.00 20.00    -0.382 OA
HETATM   10  H23 UNL     1     -36.132  12.454  -4.266  1.00 20.00     0.211 HD
ENDBRANCH   2   9
TORSDOF 3
ENDMDL
MODEL 2
REMARK VINA RESULT:      -4.4      0.030      1.443
REMARK  3 active torsions:
REMARK  status: ('A' for Active; 'I' for Inactive)
REMARK    1  A    between atoms: C1_1  and  C6_6 
REMARK    2  A    between atoms: C6_6  and  C7_7 
REMARK    3  A    between atoms: C6_6  and  O9_9 
ROOT
HETATM    1  C2  UNL     1     -35.164  14.163  -6.097  1.00 20.00     0.054 C 
HETATM    2  C6  UNL     1     -35.217  14.130  -4.564  1.00 20.00     0.113 C 
ENDROOT
BRANCH   2   3
HETATM    3  C1  UNL     1     -36.560  14.716  -4.139  1.00 20.00     0.269 C 
HETATM    4  O8  UNL     1     -37.525  14.047  -3.782  1.00 20.00    -0.304 OA
ENDBRANCH   2   3
BRANCH   2   5
HETATM    5  C7  UNL     1     -34.020  14.854  -3.853  1.00 20.00    -0.014 C 
HETATM    6  C3  UNL     1     -34.500  15.556  -2.561  1.00 20.00     0.018 C 
HETATM    7  C4  UNL     1     -33.425  15.951  -4.767  1.00 20.00     0.018 C 
HETATM    8  C5  UNL     1     -32.881  13.886  -3.478  1.00 20.00     0.018 C 
ENDBRANCH   2   5
BRANCH   2   9
HETATM    9  O9  UNL     1     -35.230  12.760  -4.158  1.00 20.00    -0.382 OA
HETATM   10  H23 UNL     1     -36.144  12.455  -4.255  1.00 20.00     0.211 HD
ENDBRANCH   2   9
TORSDOF 3
ENDMDL
MODEL 3
REMARK VINA RESULT:      -4.0      1.477      2.389
REMARK  3 active torsions:
REMARK  status: ('A' for Active; 'I' for Inactive)
REMARK    1  A    between atoms: C1_1  and  C6_6 
REMARK    2  A    between atoms: C6_6  and  C7_7 
REMARK    3  A    between atoms: C6_6  and  O9_9 
ROOT
HETATM    1  C2  UNL     1     -36.092  15.660  -5.220  1.00 20.00     0.054 C 
HETATM    2  C6  UNL     1     -34.814  14.910  -4.824  1.00 20.00     0.113 C 
ENDROOT
BRANCH   2   3
HETATM    3  C1  UNL     1     -35.228  13.532  -4.318  1.00 20.00     0.269 C 
HETATM    4  O8  UNL     1     -34.825  12.472  -4.788  1.00 20.00    -0.304 OA
ENDBRANCH   2   3
BRANCH   2   5
HETATM    5  C7  UNL     1     -33.912  15.662  -3.782  1.00 20.00    -0.014 C 
HETATM    6  C3  UNL     1     -33.564  17.082  -4.289  1.00 20.00     0.018 C 
HETATM    7  C4  UNL     1     -32.574  14.914  -3.578  1.00 20.00     0.018 C 
HETATM    8  C5  UNL     1     -34.589  15.798  -2.403  1.00 20.00     0.018 C 
ENDBRANCH   2   5
BRANCH   2   9
HETATM    9  O9  UNL     1     -34.052  14.690  -6.013  1.00 20.00    -0.382 OA
HETATM   10  H23 UNL     1     -34.180  15.472  -6.569  1.00 20.00     0.211 HD
ENDBRANCH   2   9
TORSDOF 3
ENDMDL
MODEL 4
REMARK VINA RESULT:      -3.9      1.658      2.673
REMARK  3 active torsions:
REMARK  status: ('A' for Active; 'I' for Inactive)
REMARK    1  A    between atoms: C1_1  and  C6_6 
REMARK    2  A    between atoms: C6_6  and  C7_7 
REMARK    3  A    between atoms: C6_6  and  O9_9 
ROOT
HETATM    1  C2  UNL     1     -34.404  15.032  -5.986  1.00 20.00     0.054 C 
HETATM    2  C6  UNL     1     -34.055  14.956  -4.495  1.00 20.00     0.113 C 
ENDROOT
BRANCH   2   3
HETATM    3  C1  UNL     1     -34.199  13.499  -4.064  1.00 20.00     0.269 C 
HETATM    4  O8  UNL     1     -34.714  12.622  -4.750  1.00 20.00    -0.304 OA
ENDBRANCH   2   3
BRANCH   2   5
HETATM    5  C7  UNL     1     -34.892  15.916  -3.577  1.00 20.00    -0.014 C 
HETATM    6  C3  UNL     1     -35.017  17.315  -4.227  1.00 20.00     0.018 C 
HETATM    7  C4  UNL     1     -34.192  16.114  -2.212  1.00 20.00     0.018 C 
HETATM    8  C5  UNL     1     -36.313  15.385  -3.305  1.00 20.00     0.018 C 
ENDBRANCH   2   5
BRANCH   2   9
HETATM    9  O9  UNL     1     -32.670  15.280  -4.355  1.00 20.00    -0.382 OA
HETATM   10  H23 UNL     1     -32.412  15.000  -3.464  1.00 20.00     0.211 HD
ENDBRANCH   2   9
TORSDOF 3
ENDMDL
MODEL 5
REMARK VINA RESULT:      -3.8      1.581      2.849
REMARK  3 active torsions:
REMARK  status: ('A' for Active; 'I' for Inactive)
REMARK    1  A    between atoms: C1_1  and  C6_6 
REMARK    2  A    between atoms: C6_6  and  C7_7 
REMARK    3  A    between atoms: C6_6  and  O9_9 
ROOT
HETATM    1  C2  UNL     1     -32.934  15.063  -3.657  1.00 20.00     0.054 C 
HETATM    2  C6  UNL     1     -34.282  14.906  -4.373  1.00 20.00     0.113 C 
ENDROOT
BRANCH   2   3
HETATM    3  C1  UNL     1     -34.379  13.464  -4.859  1.00 20.00     0.269 C 
HETATM    4  O8  UNL     1     -35.083  12.603  -4.339  1.00 20.00    -0.304 OA
ENDBRANCH   2   3
BRANCH   2   5
HETATM    5  C7  UNL     1     -34.523  15.927  -5.541  1.00 20.00    -0.014 C 
HETATM    6  C3  UNL     1     -34.308  15.244  -6.913  1.00 20.00     0.018 C 
HETATM    7  C4  UNL     1     -33.517  17.099  -5.458  1.00 20.00     0.018 C 
HETATM    8  C5  UNL     1     -35.944  16.525  -5.521  1.00 20.00     0.018 C 
ENDBRANCH   2   5
BRANCH   2   9
HETATM    9  O9  UNL     1     -35.314  15.072  -3.399  1.00 20.00    -0.382 OA
HETATM   10  H23 UNL     1     -35.881  15.788  -3.720  1.00 20.00     0.211 HD
ENDBRANCH   2   9
TORSDOF 3
ENDMDL
MODEL 6
REMARK VINA RESULT:      -3.8     10.631     11.460
REMARK  3 active torsions:
REMARK  status: ('A' for Active; 'I' for Inactive)
REMARK    1  A    between atoms: C1_1  and  C6_6 
REMARK    2  A    between atoms: C6_6  and  C7_7 
REMARK    3  A    between atoms: C6_6  and  O9_9 
ROOT
HETATM    1  C2  UNL     1     -43.007   7.681  -1.214  1.00 20.00     0.054 C 
HETATM    2  C6  UNL     1     -42.058   6.632  -1.807  1.00 20.00     0.113 C 
ENDROOT
BRANCH   2   3
HETATM    3  C1  UNL     1     -42.783   5.966  -2.973  1.00 20.00     0.269 C 
HETATM    4  O8  UNL     1     -43.417   6.572  -3.831  1.00 20.00    -0.304 OA
ENDBRANCH   2   3
BRANCH   2   5
HETATM    5  C7  UNL     1     -41.528   5.574  -0.776  1.00 20.00    -0.014 C 
HETATM    6  C3  UNL     1     -42.666   5.117   0.168  1.00 20.00     0.018 C 
HETATM    7  C4  UNL     1     -40.422   6.187   0.115  1.00 20.00     0.018 C 
HETATM    8  C5  UNL     1     -40.941   4.323  -1.459  1.00 20.00     0.018 C 
ENDBRANCH   2   5
BRANCH   2   9
HETATM    9  O9  UNL     1     -40.942   7.323  -2.370  1.00 20.00    -0.382 OA
HETATM   10  H23 UNL     1     -41.161   7.485  -3.299  1.00 20.00     0.211 HD
ENDBRANCH   2   9
TORSDOF 3
ENDMDL
MODEL 7
REMARK VINA RESULT:      -3.8      2.517      3.599
REMARK  3 active torsions:
REMARK  status: ('A' for Active; 'I' for Inactive)
REMARK    1  A    between atoms: C1_1  and  C6_6 
REMARK    2  A    between atoms: C6_6  and  C7_7 
REMARK    3  A    between atoms: C6_6  and  O9_9 
ROOT
HETATM    1  C2  UNL     1     -33.765  16.177  -2.781  1.00 20.00     0.054 C 
HETATM    2  C6  UNL     1     -33.471  15.888  -4.258  1.00 20.00     0.113 C 
ENDROOT
BRANCH   2   3
HETATM    3  C1  UNL     1     -33.419  17.227  -4.987  1.00 20.00     0.269 C 
HETATM    4  O8  UNL     1     -33.695  18.306  -4.472  1.00 20.00    -0.304 OA
ENDBRANCH   2   3
BRANCH   2   5
HETATM    5  C7  UNL     1     -34.477  14.896  -4.943  1.00 20.00    -0.014 C 
HETATM    6  C3  UNL     1     -34.410  15.032  -6.483  1.00 20.00     0.018 C 
HETATM    7  C4  UNL     1     -35.930  15.218  -4.525  1.00 20.00     0.018 C 
HETATM    8  C5  UNL     1     -34.197  13.424  -4.579  1.00 20.00     0.018 C 
ENDBRANCH   2   5
BRANCH   2   9
HETATM    9  O9  UNL     1     -32.155  15.335  -4.340  1.00 20.00    -0.382 OA
HETATM   10  H23 UNL     1     -32.094  14.671  -3.638  1.00 20.00     0.211 HD
ENDBRANCH   2   9
TORSDOF 3
ENDMDL
MODEL 8
REMARK VINA RESULT:      -3.8      2.239      3.210
REMARK  3 active torsions:
REMARK  status: ('A' for Active; 'I' for Inactive)
REMARK    1  A    between atoms: C1_1  and  C6_6 
REMARK    2  A    between atoms: C6_6  and  C7_7 
REMARK    3  A    between atoms: C6_6  and  O9_9 
ROOT
HETATM    1  C2  UNL     1     -34.069  17.569  -4.498  1.00 20.00     0.054 C 
HETATM    2  C6  UNL     1     -33.875  16.085  -4.833  1.00 20.00     0.113 C 
ENDROOT
BRANCH   2   3
HETATM    3  C1  UNL     1     -34.555  15.824  -6.173  1.00 20.00     0.269 C 
HETATM    4  O8  UNL     1     -34.070  15.147  -7.075  1.00 20.00    -0.304 OA
ENDBRANCH   2   3
BRANCH   2   5
HETATM    5  C7  UNL     1     -34.382  15.094  -3.725  1.00 20.00    -0.014 C 
HETATM    6  C3  UNL     1     -34.303  15.755  -2.328  1.00 20.00     0.018 C 
HETATM    7  C4  UNL     1     -33.493  13.829  -3.676  1.00 20.00     0.018 C 
HETATM    8  C5  UNL     1     -35.836  14.639  -3.958  1.00 20.00     0.018 C 
ENDBRANCH   2   5
BRANCH   2   9
HETATM    9  O9  UNL     1     -32.479  15.864  -5.041  1.00 20.00    -0.382 OA
HETATM   10  H23 UNL     1     -32.158  16.616  -5.559  1.00 20.00     0.211 HD
ENDBRANCH   2   9
TORSDOF 3
ENDMDL
MODEL 9
REMARK VINA RESULT:      -3.7      2.238      3.073
REMARK  3 active torsions:
REMARK  status: ('A' for Active; 'I' for Inactive)
REMARK    1  A    between atoms: C1_1  and  C6_6 
REMARK    2  A    between atoms: C6_6  and  C7_7 
REMARK    3  A    between atoms: C6_6  and  O9_9 
ROOT
HETATM    1  C2  UNL     1     -34.038  17.624  -4.505  1.00 20.00     0.054 C 
HETATM    2  C6  UNL     1     -33.883  16.129  -4.811  1.00 20.00     0.113 C 
ENDROOT
BRANCH   2   3
HETATM    3  C1  UNL     1     -34.536  15.867  -6.164  1.00 20.00     0.269 C 
HETATM    4  O8  UNL     1     -34.066  15.135  -7.030  1.00 20.00    -0.304 OA
ENDBRANCH   2   3
BRANCH   2   5
HETATM    5  C7  UNL     1     -34.450  15.174  -3.701  1.00 20.00    -0.014 C 
HETATM    6  C3  UNL     1     -33.638  13.858  -3.651  1.00 20.00     0.018 C 
HETATM    7  C4  UNL     1     -35.915  14.787  -4.010  1.00 20.00     0.018 C 
HETATM    8  C5  UNL     1     -34.417  15.811  -2.298  1.00 20.00     0.018 C 
ENDBRANCH   2   5
BRANCH   2   9
HETATM    9  O9  UNL     1     -32.489  15.861  -4.978  1.00 20.00    -0.382 OA
HETATM   10  H23 UNL     1     -32.124  15.750  -4.088  1.00 20.00     0.211 HD
ENDBRANCH   2   9
TORSDOF 3
ENDMDL
