MODEL 1
REMARK VINA RESULT:      -4.8      0.000      0.000
REMARK  5 active torsions:
REMARK  status: ('A' for Active; 'I' for Inactive)
REMARK    1  A    between atoms: C1_1  and  C3_3 
REMARK    2  A    between atoms: C1_1  and  C4_4 
REMARK    3  A    between atoms: C3_3  and  C5_5 
REMARK    4  A    between atoms: C4_4  and  C6_6 
REMARK    5  A    between atoms: C6_6  and  C7_7 
ROOT
HETATM    1  C1  UNL     1     -32.577   6.520   3.280  1.00 20.00     0.127 C 
HETATM    2  O8  UNL     1     -32.064   5.457   2.938  1.00 20.00    -0.298 OA
ENDROOT
BRANCH   1   3
HETATM    3  C3  UNL     1     -31.898   7.861   3.045  1.00 20.00     0.078 C 
BRANCH   3   4
HETATM    4  C5  UNL     1     -31.967   8.305   1.586  1.00 20.00     0.003 C 
HETATM    5  C2  UNL     1     -32.444   9.742   1.463  1.00 20.00     0.005 C 
ENDBRANCH   3   4
ENDBRANCH   1   3
BRANCH   1   6
HETATM    6  C4  UNL     1     -33.948   6.588   3.938  1.00 20.00     0.079 C 
BRANCH   6   7
HETATM    7  C6  UNL     1     -34.812   5.352   3.694  1.00 20.00     0.022 C 
BRANCH   7   8
HETATM    8  C7  UNL     1     -35.123   4.604   4.987  1.00 20.00     0.115 C 
HETATM    9 CL9  UNL     1     -34.549   5.531   6.392  1.00 20.00    -0.130 Cl
ENDBRANCH   7   8
ENDBRANCH   6   7
ENDBRANCH   1   6
TORSDOF 5
ENDMDL
MODEL 2
REMARK VINA RESULT:      -4.7      2.751      4.487
REMARK  5 active torsions:
REMARK  status: ('A' for Active; 'I' for Inactive)
REMARK    1  A    between atoms: C1_1  and  C3_3 
REMARK    2  A    between atoms: C1_1  and  C4_4 
REMARK    3  A    between atoms: C3_3  and  C5_5 
REMARK    4  A    between atoms: C4_4  and  C6_6 
REMARK    5  A    between atoms: C6_6  and  C7_7 
ROOT
HETATM    1  C1  UNL     1     -34.821   5.392   3.805  1.00 20.00     0.127 C 
HETATM    2  O8  UNL     1     -36.013   5.661   3.676  1.00 20.00    -0.298 OA
ENDROOT
BRANCH   1   3
HETATM    3  C3  UNL     1     -34.281   4.660   5.025  1.00 20.00     0.078 C 
BRANCH   3   4
HETATM    4  C5  UNL     1     -34.661   5.345   6.335  1.00 20.00     0.003 C 
HETATM    5  C2  UNL     1     -33.967   6.689   6.482  1.00 20.00     0.005 C 
ENDBRANCH   3   4
ENDBRANCH   1   3
BRANCH   1   6
HETATM    6  C4  UNL     1     -33.789   5.736   2.740  1.00 20.00     0.079 C 
BRANCH   6   7
HETATM    7  C6  UNL     1     -32.372   5.906   3.285  1.00 20.00     0.022 C 
BRANCH   7   8
HETATM    8  C7  UNL     1     -31.974   7.374   3.405  1.00 20.00     0.115 C 
HETATM    9 CL9  UNL     1     -31.998   8.155   1.806  1.00 20.00    -0.130 Cl
ENDBRANCH   7   8
ENDBRANCH   6   7
ENDBRANCH   1   6
TORSDOF 5
ENDMDL
MODEL 3
REMARK VINA RESULT:      -4.7      2.578      4.845
REMARK  5 active torsions:
REMARK  status: ('A' for Active; 'I' for Inactive)
REMARK    1  A    between atoms: C1_1  and  C3_3 
REMARK    2  A    between atoms: C1_1  and  C4_4 
REMARK    3  A    between atoms: C3_3  and  C5_5 
REMARK    4  A    between atoms: C4_4  and  C6_6 
REMARK    5  A    between atoms: C6_6  and  C7_7 
ROOT
HETATM    1  C1  UNL     1     -33.857   6.087   3.965  1.00 20.00     0.127 C 
HETATM    2  O8  UNL     1     -34.888   5.793   3.363  1.00 20.00    -0.298 OA
ENDROOT
BRANCH   1   3
HETATM    3  C3  UNL     1     -33.840   6.350   5.463  1.00 20.00     0.078 C 
BRANCH   3   4
HETATM    4  C5  UNL     1     -34.790   5.434   6.230  1.00 20.00     0.003 C 
HETATM    5  C2  UNL     1     -34.576   3.975   5.862  1.00 20.00     0.005 C 
ENDBRANCH   3   4
ENDBRANCH   1   3
BRANCH   1   6
HETATM    6  C4  UNL     1     -32.506   6.179   3.269  1.00 20.00     0.079 C 
BRANCH   6   7
HETATM    7  C6  UNL     1     -31.964   7.603   3.157  1.00 20.00     0.022 C 
BRANCH   7   8
HETATM    8  C7  UNL     1     -31.978   8.112   1.720  1.00 20.00     0.115 C 
HETATM    9 CL9  UNL     1     -32.502   9.812   1.669  1.00 20.00    -0.130 Cl
ENDBRANCH   7   8
ENDBRANCH   6   7
ENDBRANCH   1   6
TORSDOF 5
ENDMDL
MODEL 4
REMARK VINA RESULT:      -4.5      1.198      1.617
REMARK  5 active torsions:
REMARK  status: ('A' for Active; 'I' for Inactive)
REMARK    1  A    between atoms: C1_1  and  C3_3 
REMARK    2  A    between atoms: C1_1  and  C4_4 
REMARK    3  A    between atoms: C3_3  and  C5_5 
REMARK    4  A    between atoms: C4_4  and  C6_6 
REMARK    5  A    between atoms: C6_6  and  C7_7 
ROOT
HETATM    1  C1  UNL     1     -33.652   5.639   2.978  1.00 20.00     0.127 C 
HETATM    2  O8  UNL     1     -34.021   4.991   2.002  1.00 20.00    -0.298 OA
ENDROOT
BRANCH   1   3
HETATM    3  C3  UNL     1     -32.203   6.061   3.170  1.00 20.00     0.078 C 
BRANCH   3   4
HETATM    4  C5  UNL     1     -32.041   7.576   3.272  1.00 20.00     0.003 C 
HETATM    5  C2  UNL     1     -32.017   8.227   1.899  1.00 20.00     0.005 C 
ENDBRANCH   3   4
ENDBRANCH   1   3
BRANCH   1   6
HETATM    6  C4  UNL     1     -34.616   6.105   4.059  1.00 20.00     0.079 C 
BRANCH   6   7
HETATM    7  C6  UNL     1     -35.108   4.984   4.974  1.00 20.00     0.022 C 
BRANCH   7   8
HETATM    8  C7  UNL     1     -34.654   5.179   6.417  1.00 20.00     0.115 C 
HETATM    9 CL9  UNL     1     -33.871   6.765   6.612  1.00 20.00    -0.130 Cl
ENDBRANCH   7   8
ENDBRANCH   6   7
ENDBRANCH   1   6
TORSDOF 5
ENDMDL
MODEL 5
REMARK VINA RESULT:      -4.4      2.588      4.843
REMARK  5 active torsions:
REMARK  status: ('A' for Active; 'I' for Inactive)
REMARK    1  A    between atoms: C1_1  and  C3_3 
REMARK    2  A    between atoms: C1_1  and  C4_4 
REMARK    3  A    between atoms: C3_3  and  C5_5 
REMARK    4  A    between atoms: C4_4  and  C6_6 
REMARK    5  A    between atoms: C6_6  and  C7_7 
ROOT
HETATM    1  C1  UNL     1     -34.295   5.497   3.299  1.00 20.00     0.127 C 
HETATM    2  O8  UNL     1     -34.202   5.017   2.172  1.00 20.00    -0.298 OA
ENDROOT
BRANCH   1   3
HETATM    3  C3  UNL     1     -35.422   5.124   4.250  1.00 20.00     0.078 C 
BRANCH   3   4
HETATM    4  C5  UNL     1     -34.941   4.277   5.425  1.00 20.00     0.003 C 
HETATM    5  C2  UNL     1     -34.638   5.134   6.643  1.00 20.00     0.005 C 
ENDBRANCH   3   4
ENDBRANCH   1   3
BRANCH   1   6
HETATM    6  C4  UNL     1     -33.271   6.479   3.853  1.00 20.00     0.079 C 
BRANCH   6   7
HETATM    7  C6  UNL     1     -32.158   6.833   2.867  1.00 20.00     0.022 C 
BRANCH   7   8
HETATM    8  C7  UNL     1     -32.173   8.311   2.489  1.00 20.00     0.115 C 
HETATM    9 CL9  UNL     1     -31.658   8.523   0.799  1.00 20.00    -0.130 Cl
ENDBRANCH   7   8
ENDBRANCH   6   7
ENDBRANCH   1   6
TORSDOF 5
ENDMDL
MODEL 6
REMARK VINA RESULT:      -4.2      1.778      2.713
REMARK  5 active torsions:
REMARK  status: ('A' for Active; 'I' for Inactive)
REMARK    1  A    between atoms: C1_1  and  C3_3 
REMARK    2  A    between atoms: C1_1  and  C4_4 
REMARK    3  A    between atoms: C3_3  and  C5_5 
REMARK    4  A    between atoms: C4_4  and  C6_6 
REMARK    5  A    between atoms: C6_6  and  C7_7 
ROOT
HETATM    1  C1  UNL     1     -34.944   5.247   3.641  1.00 20.00     0.127 C 
HETATM    2  O8  UNL     1     -35.903   5.992   3.448  1.00 20.00    -0.298 OA
ENDROOT
BRANCH   1   3
HETATM    3  C3  UNL     1     -33.613   5.436   2.930  1.00 20.00     0.078 C 
BRANCH   3   4
HETATM    4  C5  UNL     1     -32.744   6.505   3.585  1.00 20.00     0.003 C 
HETATM    5  C2  UNL     1     -32.272   7.536   2.574  1.00 20.00     0.005 C 
ENDBRANCH   3   4
ENDBRANCH   1   3
BRANCH   1   6
HETATM    6  C4  UNL     1     -34.996   4.094   4.635  1.00 20.00     0.079 C 
BRANCH   6   7
HETATM    7  C6  UNL     1     -34.268   4.377   5.948  1.00 20.00     0.022 C 
BRANCH   7   8
HETATM    8  C7  UNL     1     -34.848   5.584   6.679  1.00 20.00     0.115 C 
HETATM    9 CL9  UNL     1     -33.706   6.947   6.626  1.00 20.00    -0.130 Cl
ENDBRANCH   7   8
ENDBRANCH   6   7
ENDBRANCH   1   6
TORSDOF 5
ENDMDL
MODEL 7
REMARK VINA RESULT:      -4.0      2.780      4.835
REMARK  5 active torsions:
REMARK  status: ('A' for Active; 'I' for Inactive)
REMARK    1  A    between atoms: C1_1  and  C3_3 
REMARK    2  A    between atoms: C1_1  and  C4_4 
REMARK    3  A    between atoms: C3_3  and  C5_5 
REMARK    4  A    between atoms: C4_4  and  C6_6 
REMARK    5  A    between atoms: C6_6  and  C7_7 
ROOT
HETATM    1  C1  UNL     1     -33.811   6.557   5.838  1.00 20.00     0.127 C 
HETATM    2  O8  UNL     1     -33.038   7.209   6.536  1.00 20.00    -0.298 OA
ENDROOT
BRANCH   1   3
HETATM    3  C3  UNL     1     -34.775   5.539   6.427  1.00 20.00     0.078 C 
BRANCH   3   4
HETATM    4  C5  UNL     1     -34.463   4.112   5.986  1.00 20.00     0.003 C 
HETATM    5  C2  UNL     1     -35.177   3.760   4.692  1.00 20.00     0.005 C 
ENDBRANCH   3   4
ENDBRANCH   1   3
BRANCH   1   6
HETATM    6  C4  UNL     1     -33.893   6.737   4.328  1.00 20.00     0.079 C 
BRANCH   6   7
HETATM    7  C6  UNL     1     -32.631   6.301   3.584  1.00 20.00     0.022 C 
BRANCH   7   8
HETATM    8  C7  UNL     1     -31.673   7.464   3.345  1.00 20.00     0.115 C 
HETATM    9 CL9  UNL     1     -32.050   8.270   1.805  1.00 20.00    -0.130 Cl
ENDBRANCH   7   8
ENDBRANCH   6   7
ENDBRANCH   1   6
TORSDOF 5
ENDMDL
MODEL 8
REMARK VINA RESULT:      -3.9     10.701     11.697
REMARK  5 active torsions:
REMARK  status: ('A' for Active; 'I' for Inactive)
REMARK    1  A    between atoms: C1_1  and  C3_3 
REMARK    2  A    between atoms: C1_1  and  C4_4 
REMARK    3  A    between atoms: C3_3  and  C5_5 
REMARK    4  A    between atoms: C4_4  and  C6_6 
REMARK    5  A    between atoms: C6_6  and  C7_7 
ROOT
HETATM    1  C1  UNL     1     -34.388  13.577  -4.702  1.00 20.00     0.127 C 
HETATM    2  O8  UNL     1     -35.015  12.529  -4.570  1.00 20.00    -0.298 OA
ENDROOT
BRANCH   1   3
HETATM    3  C3  UNL     1     -33.328  14.019  -3.704  1.00 20.00     0.078 C 
BRANCH   3   4
HETATM    4  C5  UNL     1     -33.391  15.515  -3.405  1.00 20.00     0.003 C 
HETATM    5  C2  UNL     1     -34.405  15.823  -2.316  1.00 20.00     0.005 C 
ENDBRANCH   3   4
ENDBRANCH   1   3
BRANCH   1   6
HETATM    6  C4  UNL     1     -34.593  14.506  -5.891  1.00 20.00     0.079 C 
BRANCH   6   7
HETATM    7  C6  UNL     1     -36.061  14.771  -6.222  1.00 20.00     0.022 C 
BRANCH   7   8
HETATM    8  C7  UNL     1     -36.726  15.683  -5.197  1.00 20.00     0.115 C 
HETATM    9 CL9  UNL     1     -37.659  14.723  -4.025  1.00 20.00    -0.130 Cl
ENDBRANCH   7   8
ENDBRANCH   6   7
ENDBRANCH   1   6
TORSDOF 5
ENDMDL
MODEL 9
REMARK VINA RESULT:      -3.9     10.678     11.705
REMARK  5 active torsions:
REMARK  status: ('A' for Active; 'I' for Inactive)
REMARK    1  A    between atoms: C1_1  and  C3_3 
REMARK    2  A    between atoms: C1_1  and  C4_4 
REMARK    3  A    between atoms: C3_3  and  C5_5 
REMARK    4  A    between atoms: C4_4  and  C6_6 
REMARK    5  A    between atoms: C6_6  and  C7_7 
ROOT
HETATM    1  C1  UNL     1     -34.864  13.712  -4.572  1.00 20.00     0.127 C 
HETATM    2  O8  UNL     1     -34.937  12.486  -4.618  1.00 20.00    -0.298 OA
ENDROOT
BRANCH   1   3
HETATM    3  C3  UNL     1     -35.552  14.604  -5.594  1.00 20.00     0.078 C 
BRANCH   3   4
HETATM    4  C5  UNL     1     -34.704  14.827  -6.844  1.00 20.00     0.003 C 
HETATM    5  C2  UNL     1     -34.394  16.299  -7.052  1.00 20.00     0.005 C 
ENDBRANCH   3   4
ENDBRANCH   1   3
BRANCH   1   6
HETATM    6  C4  UNL     1     -34.108  14.442  -3.470  1.00 20.00     0.079 C 
BRANCH   6   7
HETATM    7  C6  UNL     1     -34.937  15.508  -2.755  1.00 20.00     0.022 C 
BRANCH   7   8
HETATM    8  C7  UNL     1     -34.063  16.509  -2.005  1.00 20.00     0.115 C 
HETATM    9 CL9  UNL     1     -34.712  16.798  -0.374  1.00 20.00    -0.130 Cl
ENDBRANCH   7   8
ENDBRANCH   6   7
ENDBRANCH   1   6
TORSDOF 5
ENDMDL
