MODEL 1
REMARK VINA RESULT:      -4.8      0.000      0.000
REMARK  3 active torsions:
REMARK  status: ('A' for Active; 'I' for Inactive)
REMARK    1  A    between atoms: C1_1  and  C3_3 
REMARK    2  A    between atoms: C2_2  and  C6_6 
REMARK    3  A    between atoms: C3_3  and  O10_10 
ROOT
HETATM    1  C1  UNL     1     -34.109  14.425  -3.702  1.00 20.00     0.014 C 
HETATM    2  C2  UNL     1     -34.747  15.410  -3.028  1.00 20.00    -0.067 C 
HETATM    3  C7  UNL     1     -32.667  14.037  -3.537  1.00 20.00     0.056 C 
HETATM    4  C8  UNL     1     -36.189  15.760  -3.192  1.00 20.00     0.044 C 
ENDROOT
BRANCH   1   5
HETATM    5  C3  UNL     1     -34.884  13.606  -4.672  1.00 20.00     0.171 C 
HETATM    6  O9  UNL     1     -35.052  13.868  -5.852  1.00 20.00    -0.646 OA
BRANCH   5   7
HETATM    7  O10 UNL     1     -35.389  12.518  -4.045  1.00 20.00    -0.773 OA
HETATM    8  H22 UNL     1     -34.696  11.850  -3.856  1.00 20.00     0.167 HD
ENDBRANCH   5   7
ENDBRANCH   1   5
BRANCH   2   9
HETATM    9  C6  UNL     1     -34.022  16.298  -2.039  1.00 20.00     0.015 A 
HETATM   10  C4  UNL     1     -34.558  17.660  -1.843  1.00 20.00     0.010 A 
HETATM   11  C5  UNL     1     -34.727  16.615  -0.781  1.00 20.00     0.010 A 
ENDBRANCH   2   9
TORSDOF 3
ENDMDL
MODEL 2
REMARK VINA RESULT:      -4.7     11.465     12.261
REMARK  3 active torsions:
REMARK  status: ('A' for Active; 'I' for Inactive)
REMARK    1  A    between atoms: C1_1  and  C3_3 
REMARK    2  A    between atoms: C2_2  and  C6_6 
REMARK    3  A    between atoms: C3_3  and  O10_10 
ROOT
HETATM    1  C1  UNL     1     -33.407   6.188   3.558  1.00 20.00     0.014 C 
HETATM    2  C2  UNL     1     -33.968   6.115   4.788  1.00 20.00    -0.067 C 
HETATM    3  C7  UNL     1     -33.816   5.386   2.356  1.00 20.00     0.056 C 
HETATM    4  C8  UNL     1     -33.560   6.940   5.963  1.00 20.00     0.044 C 
ENDROOT
BRANCH   1   5
HETATM    5  C3  UNL     1     -32.311   7.167   3.332  1.00 20.00     0.171 C 
HETATM    6  O9  UNL     1     -31.296   7.268   4.003  1.00 20.00    -0.646 OA
BRANCH   5   7
HETATM    7  O10 UNL     1     -32.609   7.943   2.264  1.00 20.00    -0.773 OA
HETATM    8  H22 UNL     1     -31.809   8.187   1.752  1.00 20.00     0.167 HD
ENDBRANCH   5   7
ENDBRANCH   1   5
BRANCH   2   9
HETATM    9  C6  UNL     1     -35.075   5.131   5.102  1.00 20.00     0.015 A 
HETATM   10  C4  UNL     1     -34.672   3.744   5.407  1.00 20.00     0.010 A 
HETATM   11  C5  UNL     1     -35.169   4.649   6.494  1.00 20.00     0.010 A 
ENDBRANCH   2   9
TORSDOF 3
ENDMDL
MODEL 3
REMARK VINA RESULT:      -4.7      0.870      1.969
REMARK  3 active torsions:
REMARK  status: ('A' for Active; 'I' for Inactive)
REMARK    1  A    between atoms: C1_1  and  C3_3 
REMARK    2  A    between atoms: C2_2  and  C6_6 
REMARK    3  A    between atoms: C3_3  and  O10_10 
ROOT
HETATM    1  C1  UNL     1     -35.701  14.790  -3.785  1.00 20.00     0.014 C 
HETATM    2  C2  UNL     1     -34.778  15.553  -3.155  1.00 20.00    -0.067 C 
HETATM    3  C7  UNL     1     -37.192  14.931  -3.661  1.00 20.00     0.056 C 
HETATM    4  C8  UNL     1     -33.301  15.410  -3.313  1.00 20.00     0.044 C 
ENDROOT
BRANCH   1   5
HETATM    5  C3  UNL     1     -35.234  13.735  -4.722  1.00 20.00     0.171 C 
HETATM    6  O9  UNL     1     -34.969  13.897  -5.903  1.00 20.00    -0.646 OA
BRANCH   5   7
HETATM    7  O10 UNL     1     -35.151  12.552  -4.069  1.00 20.00    -0.773 OA
HETATM    8  H22 UNL     1     -35.779  11.889  -4.429  1.00 20.00     0.167 HD
ENDBRANCH   5   7
ENDBRANCH   1   5
BRANCH   2   9
HETATM    9  C6  UNL     1     -35.174  16.634  -2.172  1.00 20.00     0.015 A 
HETATM   10  C4  UNL     1     -34.599  16.549  -0.814  1.00 20.00     0.010 A 
HETATM   11  C5  UNL     1     -34.126  17.597  -1.776  1.00 20.00     0.010 A 
ENDBRANCH   2   9
TORSDOF 3
ENDMDL
MODEL 4
REMARK VINA RESULT:      -4.6     11.308     12.240
REMARK  3 active torsions:
REMARK  status: ('A' for Active; 'I' for Inactive)
REMARK    1  A    between atoms: C1_1  and  C3_3 
REMARK    2  A    between atoms: C2_2  and  C6_6 
REMARK    3  A    between atoms: C3_3  and  O10_10 
ROOT
HETATM    1  C1  UNL     1     -34.094   5.896   5.125  1.00 20.00     0.014 C 
HETATM    2  C2  UNL     1     -33.655   6.232   3.889  1.00 20.00    -0.067 C 
HETATM    3  C7  UNL     1     -33.927   6.718   6.371  1.00 20.00     0.056 C 
HETATM    4  C8  UNL     1     -33.855   5.409   2.660  1.00 20.00     0.044 C 
ENDROOT
BRANCH   1   5
HETATM    5  C3  UNL     1     -34.848   4.626   5.293  1.00 20.00     0.171 C 
HETATM    6  O9  UNL     1     -34.485   3.663   5.949  1.00 20.00    -0.646 OA
BRANCH   5   7
HETATM    7  O10 UNL     1     -36.008   4.692   4.598  1.00 20.00    -0.773 OA
HETATM    8  H22 UNL     1     -36.197   5.603   4.285  1.00 20.00     0.167 HD
ENDBRANCH   5   7
ENDBRANCH   1   5
BRANCH   2   9
HETATM    9  C6  UNL     1     -32.864   7.499   3.641  1.00 20.00     0.015 A 
HETATM   10  C4  UNL     1     -31.393   7.375   3.607  1.00 20.00     0.010 A 
HETATM   11  C5  UNL     1     -32.166   7.611   2.345  1.00 20.00     0.010 A 
ENDBRANCH   2   9
TORSDOF 3
ENDMDL
MODEL 5
REMARK VINA RESULT:      -4.4      2.371      3.166
REMARK  3 active torsions:
REMARK  status: ('A' for Active; 'I' for Inactive)
REMARK    1  A    between atoms: C1_1  and  C3_3 
REMARK    2  A    between atoms: C2_2  and  C6_6 
REMARK    3  A    between atoms: C3_3  and  O10_10 
ROOT
HETATM    1  C1  UNL     1     -34.376  14.919  -4.011  1.00 20.00     0.014 C 
HETATM    2  C2  UNL     1     -34.516  15.504  -5.223  1.00 20.00    -0.067 C 
HETATM    3  C7  UNL     1     -34.537  15.599  -2.681  1.00 20.00     0.056 C 
HETATM    4  C8  UNL     1     -34.375  14.801  -6.532  1.00 20.00     0.044 C 
ENDROOT
BRANCH   1   5
HETATM    5  C3  UNL     1     -34.075  13.464  -3.952  1.00 20.00     0.171 C 
HETATM    6  O9  UNL     1     -32.966  12.970  -3.816  1.00 20.00    -0.646 OA
BRANCH   5   7
HETATM    7  O10 UNL     1     -35.222  12.757  -4.080  1.00 20.00    -0.773 OA
HETATM    8  H22 UNL     1     -35.091  11.806  -3.880  1.00 20.00     0.167 HD
ENDBRANCH   5   7
ENDBRANCH   1   5
BRANCH   2   9
HETATM    9  C6  UNL     1     -34.804  16.983  -5.365  1.00 20.00     0.015 A 
HETATM   10  C4  UNL     1     -33.642  17.881  -5.517  1.00 20.00     0.010 A 
HETATM   11  C5  UNL     1     -34.539  17.595  -6.683  1.00 20.00     0.010 A 
ENDBRANCH   2   9
TORSDOF 3
ENDMDL
MODEL 6
REMARK VINA RESULT:      -4.3      1.897      2.496
REMARK  3 active torsions:
REMARK  status: ('A' for Active; 'I' for Inactive)
REMARK    1  A    between atoms: C1_1  and  C3_3 
REMARK    2  A    between atoms: C2_2  and  C6_6 
REMARK    3  A    between atoms: C3_3  and  O10_10 
ROOT
HETATM    1  C1  UNL     1     -34.360  14.729  -4.866  1.00 20.00     0.014 C 
HETATM    2  C2  UNL     1     -34.438  15.827  -4.076  1.00 20.00    -0.067 C 
HETATM    3  C7  UNL     1     -34.490  14.711  -6.362  1.00 20.00     0.056 C 
HETATM    4  C8  UNL     1     -34.281  15.823  -2.592  1.00 20.00     0.044 C 
ENDROOT
BRANCH   1   5
HETATM    5  C3  UNL     1     -34.081  13.414  -4.231  1.00 20.00     0.171 C 
HETATM    6  O9  UNL     1     -32.991  13.026  -3.844  1.00 20.00    -0.646 OA
BRANCH   5   7
HETATM    7  O10 UNL     1     -35.227  12.697  -4.151  1.00 20.00    -0.773 OA
HETATM    8  H22 UNL     1     -35.940  13.195  -3.695  1.00 20.00     0.167 HD
ENDBRANCH   5   7
ENDBRANCH   1   5
BRANCH   2   9
HETATM    9  C6  UNL     1     -34.737  17.197  -4.645  1.00 20.00     0.015 A 
HETATM   10  C4  UNL     1     -34.398  18.361  -3.802  1.00 20.00     0.010 A 
HETATM   11  C5  UNL     1     -33.580  18.037  -5.015  1.00 20.00     0.010 A 
ENDBRANCH   2   9
TORSDOF 3
ENDMDL
MODEL 7
REMARK VINA RESULT:      -4.3      1.439      1.634
REMARK  3 active torsions:
REMARK  status: ('A' for Active; 'I' for Inactive)
REMARK    1  A    between atoms: C1_1  and  C3_3 
REMARK    2  A    between atoms: C2_2  and  C6_6 
REMARK    3  A    between atoms: C3_3  and  O10_10 
ROOT
HETATM    1  C1  UNL     1     -35.517  14.912  -3.525  1.00 20.00     0.014 C 
HETATM    2  C2  UNL     1     -35.463  15.998  -2.718  1.00 20.00    -0.067 C 
HETATM    3  C7  UNL     1     -34.512  13.796  -3.566  1.00 20.00     0.056 C 
HETATM    4  C8  UNL     1     -36.488  17.083  -2.679  1.00 20.00     0.044 C 
ENDROOT
BRANCH   1   5
HETATM    5  C3  UNL     1     -36.682  14.758  -4.436  1.00 20.00     0.171 C 
HETATM    6  O9  UNL     1     -36.738  15.143  -5.593  1.00 20.00    -0.646 OA
BRANCH   5   7
HETATM    7  O10 UNL     1     -37.686  14.125  -3.785  1.00 20.00    -0.773 OA
HETATM    8  H22 UNL     1     -38.567  14.460  -4.056  1.00 20.00     0.167 HD
ENDBRANCH   5   7
ENDBRANCH   1   5
BRANCH   2   9
HETATM    9  C6  UNL     1     -34.301  16.236  -1.778  1.00 20.00     0.015 A 
HETATM   10  C4  UNL     1     -33.879  17.636  -1.573  1.00 20.00     0.010 A 
HETATM   11  C5  UNL     1     -34.604  16.893  -0.491  1.00 20.00     0.010 A 
ENDBRANCH   2   9
TORSDOF 3
ENDMDL
MODEL 8
REMARK VINA RESULT:      -4.3      2.168      2.858
REMARK  3 active torsions:
REMARK  status: ('A' for Active; 'I' for Inactive)
REMARK    1  A    between atoms: C1_1  and  C3_3 
REMARK    2  A    between atoms: C2_2  and  C6_6 
REMARK    3  A    between atoms: C3_3  and  O10_10 
ROOT
HETATM    1  C1  UNL     1     -34.976  14.701  -5.130  1.00 20.00     0.014 C 
HETATM    2  C2  UNL     1     -34.257  15.665  -4.508  1.00 20.00    -0.067 C 
HETATM    3  C7  UNL     1     -35.012  14.449  -6.611  1.00 20.00     0.056 C 
HETATM    4  C8  UNL     1     -34.218  15.881  -3.031  1.00 20.00     0.044 C 
ENDROOT
BRANCH   1   5
HETATM    5  C3  UNL     1     -35.780  13.765  -4.302  1.00 20.00     0.171 C 
HETATM    6  O9  UNL     1     -36.903  13.979  -3.871  1.00 20.00    -0.646 OA
BRANCH   5   7
HETATM    7  O10 UNL     1     -35.076  12.629  -4.087  1.00 20.00    -0.773 OA
HETATM    8  H22 UNL     1     -35.576  11.986  -3.540  1.00 20.00     0.167 HD
ENDBRANCH   5   7
ENDBRANCH   1   5
BRANCH   2   9
HETATM    9  C6  UNL     1     -33.429  16.668  -5.282  1.00 20.00     0.015 A 
HETATM   10  C4  UNL     1     -34.163  17.687  -6.059  1.00 20.00     0.010 A 
HETATM   11  C5  UNL     1     -33.441  18.063  -4.800  1.00 20.00     0.010 A 
ENDBRANCH   2   9
TORSDOF 3
ENDMDL
MODEL 9
REMARK VINA RESULT:      -4.0      1.964      3.454
REMARK  3 active torsions:
REMARK  status: ('A' for Active; 'I' for Inactive)
REMARK    1  A    between atoms: C1_1  and  C3_3 
REMARK    2  A    between atoms: C2_2  and  C6_6 
REMARK    3  A    between atoms: C3_3  and  O10_10 
ROOT
HETATM    1  C1  UNL     1     -34.486  15.110  -3.555  1.00 20.00     0.014 C 
HETATM    2  C2  UNL     1     -35.460  15.001  -4.490  1.00 20.00    -0.067 C 
HETATM    3  C7  UNL     1     -34.608  15.819  -2.237  1.00 20.00     0.056 C 
HETATM    4  C8  UNL     1     -35.322  14.269  -5.784  1.00 20.00     0.044 C 
ENDROOT
BRANCH   1   5
HETATM    5  C3  UNL     1     -33.180  14.445  -3.806  1.00 20.00     0.171 C 
HETATM    6  O9  UNL     1     -32.925  13.271  -3.590  1.00 20.00    -0.646 OA
BRANCH   5   7
HETATM    7  O10 UNL     1     -32.303  15.344  -4.310  1.00 20.00    -0.773 OA
HETATM    8  H22 UNL     1     -32.679  16.251  -4.332  1.00 20.00     0.167 HD
ENDBRANCH   5   7
ENDBRANCH   1   5
BRANCH   2   9
HETATM    9  C6  UNL     1     -36.809  15.665  -4.316  1.00 20.00     0.015 A 
HETATM   10  C4  UNL     1     -37.820  15.413  -5.363  1.00 20.00     0.010 A 
HETATM   11  C5  UNL     1     -37.954  14.785  -4.009  1.00 20.00     0.010 A 
ENDBRANCH   2   9
TORSDOF 3
ENDMDL
