MODEL 1
REMARK VINA RESULT:      -4.2      0.000      0.000
REMARK  4 active torsions:
REMARK  status: ('A' for Active; 'I' for Inactive)
REMARK    1  A    between atoms: C3_3  and  C4_4 
REMARK    2  A    between atoms: C3_3  and  C6_6 
REMARK    3  A    between atoms: C4_4  and  O7_7 
REMARK    4  A    between atoms: C5_5  and  C6_6 
ROOT
HETATM    1  C3  UNL     1     -33.793   6.440   3.944  1.00 20.00     0.031 C 
ENDROOT
BRANCH   1   2
HETATM    2  C4  UNL     1     -32.411   6.255   3.331  1.00 20.00     0.167 C 
BRANCH   2   3
HETATM    3  O7  UNL     1     -31.767   7.522   3.267  1.00 20.00    -0.396 OA
HETATM    4  C2  UNL     1     -32.081   8.205   2.061  1.00 20.00     0.201 C 
ENDBRANCH   2   3
ENDBRANCH   1   2
BRANCH   1   5
HETATM    5  C6  UNL     1     -34.152   5.381   5.001  1.00 20.00    -0.003 C 
HETATM    6  C1  UNL     1     -35.353   4.556   4.522  1.00 20.00     0.011 C 
BRANCH   5   7
HETATM    7  C5  UNL     1     -34.387   5.941   6.412  1.00 20.00     0.119 C 
HETATM    8 CL8  UNL     1     -33.333   7.319   6.816  1.00 20.00    -0.130 Cl
ENDBRANCH   5   7
ENDBRANCH   1   5
TORSDOF 4
ENDMDL
MODEL 2
REMARK VINA RESULT:      -4.1      1.613      2.080
REMARK  4 active torsions:
REMARK  status: ('A' for Active; 'I' for Inactive)
REMARK    1  A    between atoms: C3_3  and  C4_4 
REMARK    2  A    between atoms: C3_3  and  C6_6 
REMARK    3  A    between atoms: C4_4  and  O7_7 
REMARK    4  A    between atoms: C5_5  and  C6_6 
ROOT
HETATM    1  C3  UNL     1     -33.076   6.113   3.233  1.00 20.00     0.031 C 
ENDROOT
BRANCH   1   2
HETATM    2  C4  UNL     1     -32.155   7.326   3.275  1.00 20.00     0.167 C 
BRANCH   2   3
HETATM    3  O7  UNL     1     -31.893   7.747   1.942  1.00 20.00    -0.396 OA
HETATM    4  C2  UNL     1     -32.324   9.084   1.724  1.00 20.00     0.201 C 
ENDBRANCH   2   3
ENDBRANCH   1   2
BRANCH   1   5
HETATM    5  C6  UNL     1     -34.247   6.186   4.229  1.00 20.00    -0.003 C 
HETATM    6  C1  UNL     1     -33.724   6.576   5.617  1.00 20.00     0.011 C 
BRANCH   5   7
HETATM    7  C5  UNL     1     -35.111   4.917   4.294  1.00 20.00     0.119 C 
HETATM    8 CL8  UNL     1     -35.041   4.086   5.867  1.00 20.00    -0.130 Cl
ENDBRANCH   5   7
ENDBRANCH   1   5
TORSDOF 4
ENDMDL
MODEL 3
REMARK VINA RESULT:      -3.8      1.801      2.170
REMARK  4 active torsions:
REMARK  status: ('A' for Active; 'I' for Inactive)
REMARK    1  A    between atoms: C3_3  and  C4_4 
REMARK    2  A    between atoms: C3_3  and  C6_6 
REMARK    3  A    between atoms: C4_4  and  O7_7 
REMARK    4  A    between atoms: C5_5  and  C6_6 
ROOT
HETATM    1  C3  UNL     1     -34.027   6.555   4.176  1.00 20.00     0.031 C 
ENDROOT
BRANCH   1   2
HETATM    2  C4  UNL     1     -32.637   6.104   3.745  1.00 20.00     0.167 C 
BRANCH   2   3
HETATM    3  O7  UNL     1     -31.824   7.255   3.551  1.00 20.00    -0.396 OA
HETATM    4  C2  UNL     1     -32.136   7.913   2.330  1.00 20.00     0.201 C 
ENDBRANCH   2   3
ENDBRANCH   1   2
BRANCH   1   5
HETATM    5  C6  UNL     1     -34.338   6.281   5.659  1.00 20.00    -0.003 C 
HETATM    6  C1  UNL     1     -33.397   7.104   6.546  1.00 20.00     0.011 C 
BRANCH   5   7
HETATM    7  C5  UNL     1     -34.319   4.796   6.051  1.00 20.00     0.119 C 
HETATM    8 CL8  UNL     1     -35.154   3.740   4.886  1.00 20.00    -0.130 Cl
ENDBRANCH   5   7
ENDBRANCH   1   5
TORSDOF 4
ENDMDL
MODEL 4
REMARK VINA RESULT:      -3.6     11.473     12.391
REMARK  4 active torsions:
REMARK  status: ('A' for Active; 'I' for Inactive)
REMARK    1  A    between atoms: C3_3  and  C4_4 
REMARK    2  A    between atoms: C3_3  and  C6_6 
REMARK    3  A    between atoms: C4_4  and  O7_7 
REMARK    4  A    between atoms: C5_5  and  C6_6 
ROOT
HETATM    1  C3  UNL     1     -34.843  14.875  -3.207  1.00 20.00     0.031 C 
ENDROOT
BRANCH   1   2
HETATM    2  C4  UNL     1     -34.042  13.618  -3.525  1.00 20.00     0.167 C 
BRANCH   2   3
HETATM    3  O7  UNL     1     -34.739  12.871  -4.513  1.00 20.00    -0.396 OA
HETATM    4  C2  UNL     1     -35.031  13.664  -5.656  1.00 20.00     0.201 C 
ENDBRANCH   2   3
ENDBRANCH   1   2
BRANCH   1   5
HETATM    5  C6  UNL     1     -34.001  16.012  -2.599  1.00 20.00    -0.003 C 
HETATM    6  C1  UNL     1     -34.609  16.448  -1.260  1.00 20.00     0.011 C 
BRANCH   5   7
HETATM    7  C5  UNL     1     -33.784  17.213  -3.532  1.00 20.00     0.119 C 
HETATM    8 CL8  UNL     1     -33.228  16.759  -5.161  1.00 20.00    -0.130 Cl
ENDBRANCH   5   7
ENDBRANCH   1   5
TORSDOF 4
ENDMDL
MODEL 5
REMARK VINA RESULT:      -3.5      2.758      4.123
REMARK  4 active torsions:
REMARK  status: ('A' for Active; 'I' for Inactive)
REMARK    1  A    between atoms: C3_3  and  C4_4 
REMARK    2  A    between atoms: C3_3  and  C6_6 
REMARK    3  A    between atoms: C4_4  and  O7_7 
REMARK    4  A    between atoms: C5_5  and  C6_6 
ROOT
HETATM    1  C3  UNL     1     -34.032   6.524   4.041  1.00 20.00     0.031 C 
ENDROOT
BRANCH   1   2
HETATM    2  C4  UNL     1     -34.895   5.269   4.021  1.00 20.00     0.167 C 
BRANCH   2   3
HETATM    3  O7  UNL     1     -35.233   4.926   5.360  1.00 20.00    -0.396 OA
HETATM    4  C2  UNL     1     -34.440   5.641   6.297  1.00 20.00     0.201 C 
ENDBRANCH   2   3
ENDBRANCH   1   2
BRANCH   1   5
HETATM    5  C6  UNL     1     -32.951   6.553   2.946  1.00 20.00    -0.003 C 
HETATM    6  C1  UNL     1     -32.079   5.296   3.045  1.00 20.00     0.011 C 
BRANCH   5   7
HETATM    7  C5  UNL     1     -32.093   7.828   2.930  1.00 20.00     0.119 C 
HETATM    8 CL8  UNL     1     -31.976   8.588   1.325  1.00 20.00    -0.130 Cl
ENDBRANCH   5   7
ENDBRANCH   1   5
TORSDOF 4
ENDMDL
MODEL 6
REMARK VINA RESULT:      -3.4     11.183     12.065
REMARK  4 active torsions:
REMARK  status: ('A' for Active; 'I' for Inactive)
REMARK    1  A    between atoms: C3_3  and  C4_4 
REMARK    2  A    between atoms: C3_3  and  C6_6 
REMARK    3  A    between atoms: C4_4  and  O7_7 
REMARK    4  A    between atoms: C5_5  and  C6_6 
ROOT
HETATM    1  C3  UNL     1     -34.650  14.773  -3.104  1.00 20.00     0.031 C 
ENDROOT
BRANCH   1   2
HETATM    2  C4  UNL     1     -33.688  13.798  -3.772  1.00 20.00     0.167 C 
BRANCH   2   3
HETATM    3  O7  UNL     1     -34.443  12.850  -4.515  1.00 20.00    -0.396 OA
HETATM    4  C2  UNL     1     -35.069  13.450  -5.641  1.00 20.00     0.201 C 
ENDBRANCH   2   3
ENDBRANCH   1   2
BRANCH   1   5
HETATM    5  C6  UNL     1     -34.236  16.249  -3.244  1.00 20.00    -0.003 C 
HETATM    6  C1  UNL     1     -33.255  16.404  -4.412  1.00 20.00     0.011 C 
BRANCH   5   7
HETATM    7  C5  UNL     1     -33.678  16.880  -1.959  1.00 20.00     0.119 C 
HETATM    8 CL8  UNL     1     -34.723  16.643  -0.537  1.00 20.00    -0.130 Cl
ENDBRANCH   5   7
ENDBRANCH   1   5
TORSDOF 4
ENDMDL
MODEL 7
REMARK VINA RESULT:      -3.3     12.131     12.645
REMARK  4 active torsions:
REMARK  status: ('A' for Active; 'I' for Inactive)
REMARK    1  A    between atoms: C3_3  and  C4_4 
REMARK    2  A    between atoms: C3_3  and  C6_6 
REMARK    3  A    between atoms: C4_4  and  O7_7 
REMARK    4  A    between atoms: C5_5  and  C6_6 
ROOT
HETATM    1  C3  UNL     1     -35.929  15.679  -3.289  1.00 20.00     0.031 C 
ENDROOT
BRANCH   1   2
HETATM    2  C4  UNL     1     -36.367  14.467  -4.101  1.00 20.00     0.167 C 
BRANCH   2   3
HETATM    3  O7  UNL     1     -37.690  14.113  -3.715  1.00 20.00    -0.396 OA
HETATM    4  C2  UNL     1     -38.520  15.259  -3.588  1.00 20.00     0.201 C 
ENDBRANCH   2   3
ENDBRANCH   1   2
BRANCH   1   5
HETATM    5  C6  UNL     1     -34.599  15.478  -2.539  1.00 20.00    -0.003 C 
HETATM    6  C1  UNL     1     -34.479  16.509  -1.411  1.00 20.00     0.011 C 
BRANCH   5   7
HETATM    7  C5  UNL     1     -33.353  15.486  -3.438  1.00 20.00     0.119 C 
HETATM    8 CL8  UNL     1     -33.346  16.804  -4.636  1.00 20.00    -0.130 Cl
ENDBRANCH   5   7
ENDBRANCH   1   5
TORSDOF 4
ENDMDL
MODEL 8
REMARK VINA RESULT:      -3.2     11.632     12.800
REMARK  4 active torsions:
REMARK  status: ('A' for Active; 'I' for Inactive)
REMARK    1  A    between atoms: C3_3  and  C4_4 
REMARK    2  A    between atoms: C3_3  and  C6_6 
REMARK    3  A    between atoms: C4_4  and  O7_7 
REMARK    4  A    between atoms: C5_5  and  C6_6 
ROOT
HETATM    1  C3  UNL     1     -33.168  16.193  -4.536  1.00 20.00     0.031 C 
ENDROOT
BRANCH   1   2
HETATM    2  C4  UNL     1     -34.323  16.365  -5.516  1.00 20.00     0.167 C 
BRANCH   2   3
HETATM    3  O7  UNL     1     -33.938  15.824  -6.774  1.00 20.00    -0.396 OA
HETATM    4  C2  UNL     1     -34.834  14.805  -7.198  1.00 20.00     0.201 C 
ENDBRANCH   2   3
ENDBRANCH   1   2
BRANCH   1   5
HETATM    5  C6  UNL     1     -33.504  15.297  -3.330  1.00 20.00    -0.003 C 
HETATM    6  C1  UNL     1     -33.464  13.824  -3.752  1.00 20.00     0.011 C 
BRANCH   5   7
HETATM    7  C5  UNL     1     -34.827  15.642  -2.629  1.00 20.00     0.119 C 
HETATM    8 CL8  UNL     1     -34.610  16.404  -1.034  1.00 20.00    -0.130 Cl
ENDBRANCH   5   7
ENDBRANCH   1   5
TORSDOF 4
ENDMDL
MODEL 9
REMARK VINA RESULT:      -3.2     11.890     12.827
REMARK  4 active torsions:
REMARK  status: ('A' for Active; 'I' for Inactive)
REMARK    1  A    between atoms: C3_3  and  C4_4 
REMARK    2  A    between atoms: C3_3  and  C6_6 
REMARK    3  A    between atoms: C4_4  and  O7_7 
REMARK    4  A    between atoms: C5_5  and  C6_6 
ROOT
HETATM    1  C3  UNL     1     -35.734  14.784  -3.429  1.00 20.00     0.031 C 
ENDROOT
BRANCH   1   2
HETATM    2  C4  UNL     1     -37.051  15.216  -4.064  1.00 20.00     0.167 C 
BRANCH   2   3
HETATM    3  O7  UNL     1     -38.055  14.270  -3.720  1.00 20.00    -0.396 OA
HETATM    4  C2  UNL     1     -39.285  14.554  -4.372  1.00 20.00     0.201 C 
ENDBRANCH   2   3
ENDBRANCH   1   2
BRANCH   1   5
HETATM    5  C6  UNL     1     -34.963  13.735  -4.250  1.00 20.00    -0.003 C 
HETATM    6  C1  UNL     1     -33.494  13.711  -3.811  1.00 20.00     0.011 C 
BRANCH   5   7
HETATM    7  C5  UNL     1     -35.089  13.898  -5.773  1.00 20.00     0.119 C 
HETATM    8 CL8  UNL     1     -34.189  15.293  -6.417  1.00 20.00    -0.130 Cl
ENDBRANCH   5   7
ENDBRANCH   1   5
TORSDOF 4
ENDMDL
