MODEL 1
REMARK VINA RESULT:      -4.4      0.000      0.000
REMARK  4 active torsions:
REMARK  status: ('A' for Active; 'I' for Inactive)
REMARK    1  A    between atoms: C1_1  and  C6_6 
REMARK    2  A    between atoms: C2_2  and  C7_7 
REMARK    3  A    between atoms: C6_6  and  O9_9 
REMARK    4  A    between atoms: C8_8  and  O9_9 
ROOT
HETATM    1  C6  UNL     1     -32.777   6.591   4.120  1.00 20.00     0.196 C 
ENDROOT
BRANCH   1   2
HETATM    2  C1  UNL     1     -32.223   6.956   2.781  1.00 20.00    -0.004 C 
HETATM    3  C2  UNL     1     -32.168   8.212   2.315  1.00 20.00    -0.014 C 
BRANCH   3   4
HETATM    4  C7  UNL     1     -31.600   8.574   0.982  1.00 20.00     0.141 C 
HETATM    5 CL10 UNL     1     -32.895   9.137  -0.096  1.00 20.00    -0.126 Cl
ENDBRANCH   3   4
ENDBRANCH   1   2
BRANCH   1   6
HETATM    6  O9  UNL     1     -33.399   5.318   4.023  1.00 20.00    -0.378 OA
BRANCH   6   7
HETATM    7  C8  UNL     1     -34.567   5.249   4.843  1.00 20.00     0.050 C 
HETATM    8  C3  UNL     1     -34.410   6.238   5.996  1.00 20.00     0.045 C 
HETATM    9  C4  UNL     1     -35.763   5.624   3.970  1.00 20.00     0.045 C 
HETATM   10  C5  UNL     1     -34.711   3.821   5.366  1.00 20.00     0.045 C 
ENDBRANCH   6   7
ENDBRANCH   1   6
TORSDOF 4
ENDMDL
MODEL 2
REMARK VINA RESULT:      -4.4      0.017      1.373
REMARK  4 active torsions:
REMARK  status: ('A' for Active; 'I' for Inactive)
REMARK    1  A    between atoms: C1_1  and  C6_6 
REMARK    2  A    between atoms: C2_2  and  C7_7 
REMARK    3  A    between atoms: C6_6  and  O9_9 
REMARK    4  A    between atoms: C8_8  and  O9_9 
ROOT
HETATM    1  C6  UNL     1     -32.780   6.590   4.119  1.00 20.00     0.196 C 
ENDROOT
BRANCH   1   2
HETATM    2  C1  UNL     1     -32.227   6.950   2.779  1.00 20.00    -0.004 C 
HETATM    3  C2  UNL     1     -32.168   8.206   2.311  1.00 20.00    -0.014 C 
BRANCH   3   4
HETATM    4  C7  UNL     1     -31.601   8.563   0.976  1.00 20.00     0.141 C 
HETATM    5 CL10 UNL     1     -32.894   9.139  -0.097  1.00 20.00    -0.126 Cl
ENDBRANCH   3   4
ENDBRANCH   1   2
BRANCH   1   6
HETATM    6  O9  UNL     1     -33.394   5.312   4.030  1.00 20.00    -0.378 OA
BRANCH   6   7
HETATM    7  C8  UNL     1     -34.578   5.250   4.825  1.00 20.00     0.050 C 
HETATM    8  C3  UNL     1     -34.722   3.831   5.372  1.00 20.00     0.045 C 
HETATM    9  C4  UNL     1     -34.419   6.252   5.966  1.00 20.00     0.045 C 
HETATM   10  C5  UNL     1     -35.773   5.620   3.948  1.00 20.00     0.045 C 
ENDBRANCH   6   7
ENDBRANCH   1   6
TORSDOF 4
ENDMDL
MODEL 3
REMARK VINA RESULT:      -4.0     11.153     11.953
REMARK  4 active torsions:
REMARK  status: ('A' for Active; 'I' for Inactive)
REMARK    1  A    between atoms: C1_1  and  C6_6 
REMARK    2  A    between atoms: C2_2  and  C7_7 
REMARK    3  A    between atoms: C6_6  and  O9_9 
REMARK    4  A    between atoms: C8_8  and  O9_9 
ROOT
HETATM    1  C6  UNL     1     -33.472  15.556  -3.604  1.00 20.00     0.196 C 
ENDROOT
BRANCH   1   2
HETATM    2  C1  UNL     1     -33.685  16.454  -2.430  1.00 20.00    -0.004 C 
HETATM    3  C2  UNL     1     -34.604  16.232  -1.478  1.00 20.00    -0.014 C 
BRANCH   3   4
HETATM    4  C7  UNL     1     -34.804  17.125  -0.298  1.00 20.00     0.141 C 
HETATM    5 CL10 UNL     1     -33.386  18.174  -0.085  1.00 20.00    -0.126 Cl
ENDBRANCH   3   4
ENDBRANCH   1   2
BRANCH   1   6
HETATM    6  O9  UNL     1     -34.545  15.738  -4.517  1.00 20.00    -0.378 OA
BRANCH   6   7
HETATM    7  C8  UNL     1     -35.142  14.489  -4.870  1.00 20.00     0.050 C 
HETATM    8  C3  UNL     1     -34.217  13.363  -4.412  1.00 20.00     0.045 C 
HETATM    9  C4  UNL     1     -36.488  14.405  -4.155  1.00 20.00     0.045 C 
HETATM   10  C5  UNL     1     -35.335  14.453  -6.385  1.00 20.00     0.045 C 
ENDBRANCH   6   7
ENDBRANCH   1   6
TORSDOF 4
ENDMDL
MODEL 4
REMARK VINA RESULT:      -4.0     11.161     11.925
REMARK  4 active torsions:
REMARK  status: ('A' for Active; 'I' for Inactive)
REMARK    1  A    between atoms: C1_1  and  C6_6 
REMARK    2  A    between atoms: C2_2  and  C7_7 
REMARK    3  A    between atoms: C6_6  and  O9_9 
REMARK    4  A    between atoms: C8_8  and  O9_9 
ROOT
HETATM    1  C6  UNL     1     -33.472  15.592  -3.646  1.00 20.00     0.196 C 
ENDROOT
BRANCH   1   2
HETATM    2  C1  UNL     1     -33.685  16.472  -2.458  1.00 20.00    -0.004 C 
HETATM    3  C2  UNL     1     -34.592  16.225  -1.500  1.00 20.00    -0.014 C 
BRANCH   3   4
HETATM    4  C7  UNL     1     -34.792  17.099  -0.307  1.00 20.00     0.141 C 
HETATM    5 CL10 UNL     1     -33.380  18.155  -0.086  1.00 20.00    -0.126 Cl
ENDBRANCH   3   4
ENDBRANCH   1   2
BRANCH   1   6
HETATM    6  O9  UNL     1     -34.570  15.749  -4.532  1.00 20.00    -0.378 OA
BRANCH   6   7
HETATM    7  C8  UNL     1     -35.152  14.488  -4.864  1.00 20.00     0.050 C 
HETATM    8  C3  UNL     1     -36.501  14.374  -4.156  1.00 20.00     0.045 C 
HETATM    9  C4  UNL     1     -35.335  14.451  -6.379  1.00 20.00     0.045 C 
HETATM   10  C5  UNL     1     -34.204  13.380  -4.411  1.00 20.00     0.045 C 
ENDBRANCH   6   7
ENDBRANCH   1   6
TORSDOF 4
ENDMDL
MODEL 5
REMARK VINA RESULT:      -4.0     11.062     11.947
REMARK  4 active torsions:
REMARK  status: ('A' for Active; 'I' for Inactive)
REMARK    1  A    between atoms: C1_1  and  C6_6 
REMARK    2  A    between atoms: C2_2  and  C7_7 
REMARK    3  A    between atoms: C6_6  and  O9_9 
REMARK    4  A    between atoms: C8_8  and  O9_9 
ROOT
HETATM    1  C6  UNL     1     -33.437  15.683  -3.479  1.00 20.00     0.196 C 
ENDROOT
BRANCH   1   2
HETATM    2  C1  UNL     1     -33.682  16.561  -2.296  1.00 20.00    -0.004 C 
HETATM    3  C2  UNL     1     -34.626  16.322  -1.373  1.00 20.00    -0.014 C 
BRANCH   3   4
HETATM    4  C7  UNL     1     -34.858  17.194  -0.184  1.00 20.00     0.141 C 
HETATM    5 CL10 UNL     1     -33.426  18.202   0.117  1.00 20.00    -0.126 Cl
ENDBRANCH   3   4
ENDBRANCH   1   2
BRANCH   1   6
HETATM    6  O9  UNL     1     -34.538  15.798  -4.369  1.00 20.00    -0.378 OA
BRANCH   6   7
HETATM    7  C8  UNL     1     -35.043  14.514  -4.737  1.00 20.00     0.050 C 
HETATM    8  C3  UNL     1     -35.076  14.424  -6.261  1.00 20.00     0.045 C 
HETATM    9  C4  UNL     1     -34.099  13.465  -4.155  1.00 20.00     0.045 C 
HETATM   10  C5  UNL     1     -36.446  14.357  -4.152  1.00 20.00     0.045 C 
ENDBRANCH   6   7
ENDBRANCH   1   6
TORSDOF 4
ENDMDL
MODEL 6
REMARK VINA RESULT:      -3.8     11.033     12.083
REMARK  4 active torsions:
REMARK  status: ('A' for Active; 'I' for Inactive)
REMARK    1  A    between atoms: C1_1  and  C6_6 
REMARK    2  A    between atoms: C2_2  and  C7_7 
REMARK    3  A    between atoms: C6_6  and  O9_9 
REMARK    4  A    between atoms: C8_8  and  O9_9 
ROOT
HETATM    1  C6  UNL     1     -34.883  16.169  -1.839  1.00 20.00     0.196 C 
ENDROOT
BRANCH   1   2
HETATM    2  C1  UNL     1     -34.564  16.876  -0.562  1.00 20.00    -0.004 C 
HETATM    3  C2  UNL     1     -33.707  17.904  -0.474  1.00 20.00    -0.014 C 
BRANCH   3   4
HETATM    4  C7  UNL     1     -33.402  18.617   0.802  1.00 20.00     0.141 C 
HETATM    5 CL10 UNL     1     -31.661  18.960   0.903  1.00 20.00    -0.126 Cl
ENDBRANCH   3   4
ENDBRANCH   1   2
BRANCH   1   6
HETATM    6  O9  UNL     1     -33.674  15.940  -2.548  1.00 20.00    -0.378 OA
BRANCH   6   7
HETATM    7  C8  UNL     1     -33.924  15.326  -3.813  1.00 20.00     0.050 C 
HETATM    8  C3  UNL     1     -33.249  16.160  -4.900  1.00 20.00     0.045 C 
HETATM    9  C4  UNL     1     -33.330  13.920  -3.766  1.00 20.00     0.045 C 
HETATM   10  C5  UNL     1     -35.434  15.264  -4.034  1.00 20.00     0.045 C 
ENDBRANCH   6   7
ENDBRANCH   1   6
TORSDOF 4
ENDMDL
MODEL 7
REMARK VINA RESULT:      -3.7     10.894     11.881
REMARK  4 active torsions:
REMARK  status: ('A' for Active; 'I' for Inactive)
REMARK    1  A    between atoms: C1_1  and  C6_6 
REMARK    2  A    between atoms: C2_2  and  C7_7 
REMARK    3  A    between atoms: C6_6  and  O9_9 
REMARK    4  A    between atoms: C8_8  and  O9_9 
ROOT
HETATM    1  C6  UNL     1     -34.794  16.134  -1.841  1.00 20.00     0.196 C 
ENDROOT
BRANCH   1   2
HETATM    2  C1  UNL     1     -34.293  17.075  -0.795  1.00 20.00    -0.004 C 
HETATM    3  C2  UNL     1     -34.945  17.337   0.347  1.00 20.00    -0.014 C 
BRANCH   3   4
HETATM    4  C7  UNL     1     -34.434  18.267   1.397  1.00 20.00     0.141 C 
HETATM    5 CL10 UNL     1     -35.067  17.793   2.988  1.00 20.00    -0.126 Cl
ENDBRANCH   3   4
ENDBRANCH   1   2
BRANCH   1   6
HETATM    6  O9  UNL     1     -33.723  15.817  -2.718  1.00 20.00    -0.378 OA
BRANCH   6   7
HETATM    7  C8  UNL     1     -34.173  15.028  -3.820  1.00 20.00     0.050 C 
HETATM    8  C3  UNL     1     -33.411  13.704  -3.813  1.00 20.00     0.045 C 
HETATM    9  C4  UNL     1     -35.669  14.788  -3.632  1.00 20.00     0.045 C 
HETATM   10  C5  UNL     1     -33.911  15.800  -5.112  1.00 20.00     0.045 C 
ENDBRANCH   6   7
ENDBRANCH   1   6
TORSDOF 4
ENDMDL
MODEL 8
REMARK VINA RESULT:      -3.5     11.458     12.477
REMARK  4 active torsions:
REMARK  status: ('A' for Active; 'I' for Inactive)
REMARK    1  A    between atoms: C1_1  and  C6_6 
REMARK    2  A    between atoms: C2_2  and  C7_7 
REMARK    3  A    between atoms: C6_6  and  O9_9 
REMARK    4  A    between atoms: C8_8  and  O9_9 
ROOT
HETATM    1  C6  UNL     1     -35.606  15.185  -3.362  1.00 20.00     0.196 C 
ENDROOT
BRANCH   1   2
HETATM    2  C1  UNL     1     -35.240  16.372  -2.533  1.00 20.00    -0.004 C 
HETATM    3  C2  UNL     1     -34.670  16.289  -1.322  1.00 20.00    -0.014 C 
BRANCH   3   4
HETATM    4  C7  UNL     1     -34.293  17.479  -0.503  1.00 20.00     0.141 C 
HETATM    5 CL10 UNL     1     -35.140  17.434   1.058  1.00 20.00    -0.126 Cl
ENDBRANCH   3   4
ENDBRANCH   1   2
BRANCH   1   6
HETATM    6  O9  UNL     1     -35.861  15.618  -4.690  1.00 20.00    -0.378 OA
BRANCH   6   7
HETATM    7  C8  UNL     1     -34.980  14.986  -5.619  1.00 20.00     0.050 C 
HETATM    8  C3  UNL     1     -34.414  13.723  -4.972  1.00 20.00     0.045 C 
HETATM    9  C4  UNL     1     -35.796  14.635  -6.861  1.00 20.00     0.045 C 
HETATM   10  C5  UNL     1     -33.861  15.965  -5.972  1.00 20.00     0.045 C 
ENDBRANCH   6   7
ENDBRANCH   1   6
TORSDOF 4
ENDMDL
MODEL 9
REMARK VINA RESULT:      -3.5      9.560     11.142
REMARK  4 active torsions:
REMARK  status: ('A' for Active; 'I' for Inactive)
REMARK    1  A    between atoms: C1_1  and  C6_6 
REMARK    2  A    between atoms: C2_2  and  C7_7 
REMARK    3  A    between atoms: C6_6  and  O9_9 
REMARK    4  A    between atoms: C8_8  and  O9_9 
ROOT
HETATM    1  C6  UNL     1     -41.319   4.203  -1.832  1.00 20.00     0.196 C 
ENDROOT
BRANCH   1   2
HETATM    2  C1  UNL     1     -42.021   3.236  -2.729  1.00 20.00    -0.004 C 
HETATM    3  C2  UNL     1     -41.393   2.293  -3.446  1.00 20.00    -0.014 C 
BRANCH   3   4
HETATM    4  C7  UNL     1     -42.100   1.320  -4.330  1.00 20.00     0.141 C 
HETATM    5 CL10 UNL     1     -41.486  -0.322  -4.038  1.00 20.00    -0.126 Cl
ENDBRANCH   3   4
ENDBRANCH   1   2
BRANCH   1   6
HETATM    6  O9  UNL     1     -41.821   5.506  -2.084  1.00 20.00    -0.378 OA
BRANCH   6   7
HETATM    7  C8  UNL     1     -41.933   6.261  -0.877  1.00 20.00     0.050 C 
HETATM    8  C3  UNL     1     -43.206   5.832  -0.151  1.00 20.00     0.045 C 
HETATM    9  C4  UNL     1     -40.700   5.956  -0.029  1.00 20.00     0.045 C 
HETATM   10  C5  UNL     1     -41.984   7.746  -1.234  1.00 20.00     0.045 C 
ENDBRANCH   6   7
ENDBRANCH   1   6
TORSDOF 4
ENDMDL
