MODEL 1
REMARK VINA RESULT:      -3.9      0.000      0.000
REMARK  0 active torsions:
REMARK  status: ('A' for Active; 'I' for Inactive)
ROOT
HETATM    1  C1  UNL     1     -34.218  17.460  -3.417  1.00 20.00     0.109 C 
HETATM    2  C2  UNL     1     -33.991  16.241  -2.519  1.00 20.00     0.226 C 
HETATM    3  C3  UNL     1     -34.032  14.605  -4.332  1.00 20.00     0.230 C 
HETATM    4  C4  UNL     1     -34.288  15.610  -5.476  1.00 20.00     0.076 C 
HETATM    5  C5  UNL     1     -34.574  16.512  -1.129  1.00 20.00     0.043 C 
HETATM    6  C6  UNL     1     -34.577  13.213  -4.673  1.00 20.00     0.043 C 
HETATM    7  C7  UNL     1     -35.762  15.818  -5.833  1.00 20.00     0.023 C 
HETATM    8  N8  UNL     1     -34.624  15.029  -3.054  1.00 20.00     0.093 N 
HETATM    9  S9  UNL     1     -33.517  17.222  -5.076  1.00 20.00    -0.160 SA
HETATM   10  H24 UNL     1     -34.529  14.274  -2.374  1.00 20.00     0.316 HD
ENDROOT
TORSDOF 0
ENDMDL
MODEL 2
REMARK VINA RESULT:      -3.8      1.587      1.725
REMARK  0 active torsions:
REMARK  status: ('A' for Active; 'I' for Inactive)
ROOT
HETATM    1  C1  UNL     1     -33.676  17.016  -2.634  1.00 20.00     0.109 C 
HETATM    2  C2  UNL     1     -34.590  16.228  -1.691  1.00 20.00     0.226 C 
HETATM    3  C3  UNL     1     -35.876  15.147  -3.462  1.00 20.00     0.230 C 
HETATM    4  C4  UNL     1     -35.145  15.811  -4.649  1.00 20.00     0.076 C 
HETATM    5  C5  UNL     1     -34.760  16.999  -0.379  1.00 20.00     0.043 C 
HETATM    6  C6  UNL     1     -37.315  14.764  -3.831  1.00 20.00     0.043 C 
HETATM    7  C7  UNL     1     -35.795  17.096  -5.169  1.00 20.00     0.023 C 
HETATM    8  N8  UNL     1     -35.921  16.000  -2.266  1.00 20.00     0.093 N 
HETATM    9  S9  UNL     1     -33.399  16.140  -4.201  1.00 20.00    -0.160 SA
HETATM   10  H24 UNL     1     -36.518  15.563  -1.564  1.00 20.00     0.316 HD
ENDROOT
TORSDOF 0
ENDMDL
MODEL 3
REMARK VINA RESULT:      -3.8      2.111      3.755
REMARK  0 active torsions:
REMARK  status: ('A' for Active; 'I' for Inactive)
ROOT
HETATM    1  C1  UNL     1     -36.404  15.294  -5.774  1.00 20.00     0.109 C 
HETATM    2  C2  UNL     1     -35.296  14.403  -6.343  1.00 20.00     0.226 C 
HETATM    3  C3  UNL     1     -34.269  13.900  -4.186  1.00 20.00     0.230 C 
HETATM    4  C4  UNL     1     -35.231  14.748  -3.325  1.00 20.00     0.076 C 
HETATM    5  C5  UNL     1     -34.951  14.858  -7.764  1.00 20.00     0.043 C 
HETATM    6  C6  UNL     1     -32.895  13.760  -3.521  1.00 20.00     0.043 C 
HETATM    7  C7  UNL     1     -34.758  16.176  -3.047  1.00 20.00     0.023 C 
HETATM    8  N8  UNL     1     -34.072  14.450  -5.535  1.00 20.00     0.093 N 
HETATM    9  S9  UNL     1     -36.891  14.786  -4.099  1.00 20.00    -0.160 SA
HETATM   10  H24 UNL     1     -33.339  13.922  -6.009  1.00 20.00     0.316 HD
ENDROOT
TORSDOF 0
ENDMDL
MODEL 4
REMARK VINA RESULT:      -3.8      1.974      3.972
REMARK  0 active torsions:
REMARK  status: ('A' for Active; 'I' for Inactive)
ROOT
HETATM    1  C1  UNL     1     -34.810  13.615  -5.162  1.00 20.00     0.109 C 
HETATM    2  C2  UNL     1     -34.546  14.639  -6.269  1.00 20.00     0.226 C 
HETATM    3  C3  UNL     1     -33.564  16.324  -4.800  1.00 20.00     0.230 C 
HETATM    4  C4  UNL     1     -33.718  15.530  -3.485  1.00 20.00     0.076 C 
HETATM    5  C5  UNL     1     -35.585  14.470  -7.381  1.00 20.00     0.043 C 
HETATM    6  C6  UNL     1     -33.567  17.837  -4.548  1.00 20.00     0.043 C 
HETATM    7  C7  UNL     1     -35.003  15.817  -2.705  1.00 20.00     0.023 C 
HETATM    8  N8  UNL     1     -34.619  16.021  -5.779  1.00 20.00     0.093 N 
HETATM    9  S9  UNL     1     -33.588  13.734  -3.822  1.00 20.00    -0.160 SA
HETATM   10  H24 UNL     1     -34.536  16.660  -6.570  1.00 20.00     0.316 HD
ENDROOT
TORSDOF 0
ENDMDL
MODEL 5
REMARK VINA RESULT:      -3.7      1.604      3.289
REMARK  0 active torsions:
REMARK  status: ('A' for Active; 'I' for Inactive)
ROOT
HETATM    1  C1  UNL     1     -35.956  15.519  -5.193  1.00 20.00     0.109 C 
HETATM    2  C2  UNL     1     -36.856  15.758  -3.977  1.00 20.00     0.226 C 
HETATM    3  C3  UNL     1     -35.082  16.624  -2.540  1.00 20.00     0.230 C 
HETATM    4  C4  UNL     1     -33.934  16.479  -3.562  1.00 20.00     0.076 C 
HETATM    5  C5  UNL     1     -38.012  14.754  -3.990  1.00 20.00     0.043 C 
HETATM    6  C6  UNL     1     -34.566  16.543  -1.098  1.00 20.00     0.043 C 
HETATM    7  C7  UNL     1     -33.155  15.165  -3.475  1.00 20.00     0.023 C 
HETATM    8  N8  UNL     1     -36.131  15.608  -2.710  1.00 20.00     0.093 N 
HETATM    9  S9  UNL     1     -34.579  16.703  -5.262  1.00 20.00    -0.160 SA
HETATM   10  H24 UNL     1     -36.794  15.678  -1.936  1.00 20.00     0.316 HD
ENDROOT
TORSDOF 0
ENDMDL
MODEL 6
REMARK VINA RESULT:      -3.6      1.892      2.668
REMARK  0 active torsions:
REMARK  status: ('A' for Active; 'I' for Inactive)
ROOT
HETATM    1  C1  UNL     1     -34.091  14.396  -3.481  1.00 20.00     0.109 C 
HETATM    2  C2  UNL     1     -35.175  15.348  -2.968  1.00 20.00     0.226 C 
HETATM    3  C3  UNL     1     -36.366  15.511  -5.093  1.00 20.00     0.230 C 
HETATM    4  C4  UNL     1     -35.424  14.592  -5.900  1.00 20.00     0.076 C 
HETATM    5  C5  UNL     1     -34.606  16.211  -1.838  1.00 20.00     0.043 C 
HETATM    6  C6  UNL     1     -37.063  16.536  -5.997  1.00 20.00     0.043 C 
HETATM    7  C7  UNL     1     -34.301  15.317  -6.647  1.00 20.00     0.023 C 
HETATM    8  N8  UNL     1     -35.675  16.241  -4.021  1.00 20.00     0.093 N 
HETATM    9  S9  UNL     1     -34.709  13.312  -4.802  1.00 20.00    -0.160 SA
HETATM   10  H24 UNL     1     -36.317  16.918  -3.607  1.00 20.00     0.316 HD
ENDROOT
TORSDOF 0
ENDMDL
MODEL 7
REMARK VINA RESULT:      -3.6      1.917      3.205
REMARK  0 active torsions:
REMARK  status: ('A' for Active; 'I' for Inactive)
ROOT
HETATM    1  C1  UNL     1     -34.406  15.790  -5.900  1.00 20.00     0.109 C 
HETATM    2  C2  UNL     1     -33.631  16.827  -5.082  1.00 20.00     0.226 C 
HETATM    3  C3  UNL     1     -34.195  15.877  -2.905  1.00 20.00     0.230 C 
HETATM    4  C4  UNL     1     -35.069  14.719  -3.433  1.00 20.00     0.076 C 
HETATM    5  C5  UNL     1     -33.594  18.155  -5.843  1.00 20.00     0.043 C 
HETATM    6  C6  UNL     1     -34.612  16.296  -1.490  1.00 20.00     0.043 C 
HETATM    7  C7  UNL     1     -36.566  15.027  -3.518  1.00 20.00     0.023 C 
HETATM    8  N8  UNL     1     -34.238  17.067  -3.767  1.00 20.00     0.093 N 
HETATM    9  S9  UNL     1     -34.458  14.173  -5.071  1.00 20.00    -0.160 SA
HETATM   10  H24 UNL     1     -33.745  17.833  -3.307  1.00 20.00     0.316 HD
ENDROOT
TORSDOF 0
ENDMDL
MODEL 8
REMARK VINA RESULT:      -3.6      1.752      3.327
REMARK  0 active torsions:
REMARK  status: ('A' for Active; 'I' for Inactive)
ROOT
HETATM    1  C1  UNL     1     -35.715  16.768  -5.044  1.00 20.00     0.109 C 
HETATM    2  C2  UNL     1     -34.975  15.733  -5.896  1.00 20.00     0.226 C 
HETATM    3  C3  UNL     1     -34.168  14.410  -4.009  1.00 20.00     0.230 C 
HETATM    4  C4  UNL     1     -34.785  15.286  -2.897  1.00 20.00     0.076 C 
HETATM    5  C5  UNL     1     -34.502  16.385  -7.198  1.00 20.00     0.043 C 
HETATM    6  C6  UNL     1     -32.918  13.671  -3.515  1.00 20.00     0.043 C 
HETATM    7  C7  UNL     1     -33.857  16.368  -2.340  1.00 20.00     0.023 C 
HETATM    8  N8  UNL     1     -33.803  15.179  -5.207  1.00 20.00     0.093 N 
HETATM    9  S9  UNL     1     -36.338  16.051  -3.494  1.00 20.00    -0.160 SA
HETATM   10  H24 UNL     1     -33.292  14.575  -5.851  1.00 20.00     0.316 HD
ENDROOT
TORSDOF 0
ENDMDL
MODEL 9
REMARK VINA RESULT:      -3.6      1.197      3.334
REMARK  0 active torsions:
REMARK  status: ('A' for Active; 'I' for Inactive)
ROOT
HETATM    1  C1  UNL     1     -35.365  15.523  -5.273  1.00 20.00     0.109 C 
HETATM    2  C2  UNL     1     -35.353  14.542  -4.097  1.00 20.00     0.226 C 
HETATM    3  C3  UNL     1     -35.263  16.259  -2.363  1.00 20.00     0.230 C 
HETATM    4  C4  UNL     1     -35.240  17.475  -3.313  1.00 20.00     0.076 C 
HETATM    5  C5  UNL     1     -34.690  13.232  -4.529  1.00 20.00     0.043 C 
HETATM    6  C6  UNL     1     -34.576  16.574  -1.028  1.00 20.00     0.043 C 
HETATM    7  C7  UNL     1     -33.842  17.983  -3.677  1.00 20.00     0.023 C 
HETATM    8  N8  UNL     1     -34.620  15.069  -2.940  1.00 20.00     0.093 N 
HETATM    9  S9  UNL     1     -36.174  17.092  -4.841  1.00 20.00    -0.160 SA
HETATM   10  H24 UNL     1     -34.556  14.342  -2.226  1.00 20.00     0.316 HD
ENDROOT
TORSDOF 0
ENDMDL
