MODEL 1
REMARK VINA RESULT:      -3.8      0.000      0.000
REMARK  3 active torsions:
REMARK  status: ('A' for Active; 'I' for Inactive)
REMARK    1  A    between atoms: C4_4  and  O9_9 
REMARK    2  A    between atoms: C6_6  and  C7_7 
REMARK    3  A    between atoms: C6_6  and  N8_8 
ROOT
HETATM    1  C1  UNL     1     -34.918  13.207  -4.526  1.00 20.00     0.064 C 
HETATM    2  C2  UNL     1     -33.654  13.719  -3.849  1.00 20.00     0.275 C 
HETATM    3  C3  UNL     1     -34.462  15.533  -5.050  1.00 20.00     0.304 C 
HETATM    4  C4  UNL     1     -35.398  14.374  -5.380  1.00 20.00     0.150 C 
HETATM    5  N8  UNL     1     -33.797  15.180  -3.789  1.00 20.00     0.092 N 
ENDROOT
BRANCH   5   6
HETATM    6  C6  UNL     1     -34.588  15.597  -2.630  1.00 20.00     0.287 C 
BRANCH   6   7
HETATM    7  C7  UNL     1     -33.940  16.732  -1.858  1.00 20.00     0.144 C 
HETATM    8 CL10 UNL     1     -34.660  16.907  -0.238  1.00 20.00    -0.129 Cl
ENDBRANCH   6   7
ENDBRANCH   5   6
BRANCH   4   9
HETATM    9  O9  UNL     1     -35.303  14.060  -6.761  1.00 20.00    -0.389 OA
HETATM   10  C5  UNL     1     -34.587  15.057  -7.477  1.00 20.00     0.202 C 
ENDBRANCH   4   9
TORSDOF 3
ENDMDL
MODEL 2
REMARK VINA RESULT:      -3.8      1.198      1.508
REMARK  3 active torsions:
REMARK  status: ('A' for Active; 'I' for Inactive)
REMARK    1  A    between atoms: C4_4  and  O9_9 
REMARK    2  A    between atoms: C6_6  and  C7_7 
REMARK    3  A    between atoms: C6_6  and  N8_8 
ROOT
HETATM    1  C1  UNL     1     -33.271  13.896  -3.640  1.00 20.00     0.064 C 
HETATM    2  C2  UNL     1     -33.168  15.414  -3.654  1.00 20.00     0.275 C 
HETATM    3  C3  UNL     1     -35.420  14.967  -3.990  1.00 20.00     0.304 C 
HETATM    4  C4  UNL     1     -34.736  13.605  -3.945  1.00 20.00     0.150 C 
HETATM    5  N8  UNL     1     -34.512  15.909  -3.323  1.00 20.00     0.092 N 
ENDROOT
BRANCH   5   6
HETATM    6  C6  UNL     1     -34.734  15.936  -1.877  1.00 20.00     0.287 C 
BRANCH   6   7
HETATM    7  C7  UNL     1     -33.995  17.073  -1.193  1.00 20.00     0.144 C 
HETATM    8 CL10 UNL     1     -34.702  17.441   0.400  1.00 20.00    -0.129 Cl
ENDBRANCH   6   7
ENDBRANCH   5   6
BRANCH   4   9
HETATM    9  O9  UNL     1     -34.869  12.959  -5.202  1.00 20.00    -0.389 OA
HETATM   10  C5  UNL     1     -35.097  13.894  -6.248  1.00 20.00     0.202 C 
ENDBRANCH   4   9
TORSDOF 3
ENDMDL
MODEL 3
REMARK VINA RESULT:      -3.8      2.055      2.526
REMARK  3 active torsions:
REMARK  status: ('A' for Active; 'I' for Inactive)
REMARK    1  A    between atoms: C4_4  and  O9_9 
REMARK    2  A    between atoms: C6_6  and  C7_7 
REMARK    3  A    between atoms: C6_6  and  N8_8 
ROOT
HETATM    1  C1  UNL     1     -35.195  13.409  -4.337  1.00 20.00     0.064 C 
HETATM    2  C2  UNL     1     -34.552  14.108  -5.527  1.00 20.00     0.275 C 
HETATM    3  C3  UNL     1     -35.867  15.734  -4.521  1.00 20.00     0.304 C 
HETATM    4  C4  UNL     1     -36.123  14.455  -3.730  1.00 20.00     0.150 C 
HETATM    5  N8  UNL     1     -34.585  15.544  -5.212  1.00 20.00     0.092 N 
ENDROOT
BRANCH   5   6
HETATM    6  C6  UNL     1     -33.456  15.936  -4.369  1.00 20.00     0.287 C 
BRANCH   6   7
HETATM    7  C7  UNL     1     -33.754  17.164  -3.526  1.00 20.00     0.144 C 
HETATM    8 CL10 UNL     1     -33.735  16.778  -1.788  1.00 20.00    -0.129 Cl
ENDBRANCH   6   7
ENDBRANCH   5   6
BRANCH   4   9
HETATM    9  O9  UNL     1     -37.481  14.067  -3.872  1.00 20.00    -0.389 OA
HETATM   10  C5  UNL     1     -38.355  15.184  -3.794  1.00 20.00     0.202 C 
ENDBRANCH   4   9
TORSDOF 3
ENDMDL
MODEL 4
REMARK VINA RESULT:      -3.7      3.225      4.524
REMARK  3 active torsions:
REMARK  status: ('A' for Active; 'I' for Inactive)
REMARK    1  A    between atoms: C4_4  and  O9_9 
REMARK    2  A    between atoms: C6_6  and  C7_7 
REMARK    3  A    between atoms: C6_6  and  N8_8 
ROOT
HETATM    1  C1  UNL     1     -33.160  15.388  -3.535  1.00 20.00     0.064 C 
HETATM    2  C2  UNL     1     -33.998  14.120  -3.620  1.00 20.00     0.275 C 
HETATM    3  C3  UNL     1     -35.433  15.724  -2.751  1.00 20.00     0.304 C 
HETATM    4  C4  UNL     1     -34.079  16.415  -2.885  1.00 20.00     0.150 C 
HETATM    5  N8  UNL     1     -35.397  14.568  -3.657  1.00 20.00     0.092 N 
ENDROOT
BRANCH   5   6
HETATM    6  C6  UNL     1     -35.810  14.935  -5.012  1.00 20.00     0.287 C 
BRANCH   6   7
HETATM    7  C7  UNL     1     -35.185  14.047  -6.074  1.00 20.00     0.144 C 
HETATM    8 CL10 UNL     1     -34.283  15.007  -7.273  1.00 20.00    -0.129 Cl
ENDBRANCH   6   7
ENDBRANCH   5   6
BRANCH   4   9
HETATM    9  O9  UNL     1     -33.598  16.780  -1.600  1.00 20.00    -0.389 OA
HETATM   10  C5  UNL     1     -34.637  16.768  -0.630  1.00 20.00     0.202 C 
ENDBRANCH   4   9
TORSDOF 3
ENDMDL
MODEL 5
REMARK VINA RESULT:      -3.5      1.876      2.604
REMARK  3 active torsions:
REMARK  status: ('A' for Active; 'I' for Inactive)
REMARK    1  A    between atoms: C4_4  and  O9_9 
REMARK    2  A    between atoms: C6_6  and  C7_7 
REMARK    3  A    between atoms: C6_6  and  N8_8 
ROOT
HETATM    1  C1  UNL     1     -32.978  15.705  -4.157  1.00 20.00     0.064 C 
HETATM    2  C2  UNL     1     -33.937  16.716  -4.771  1.00 20.00     0.275 C 
HETATM    3  C3  UNL     1     -35.242  15.468  -3.313  1.00 20.00     0.304 C 
HETATM    4  C4  UNL     1     -33.856  14.834  -3.266  1.00 20.00     0.150 C 
HETATM    5  N8  UNL     1     -35.055  16.833  -3.824  1.00 20.00     0.092 N 
ENDROOT
BRANCH   5   6
HETATM    6  C6  UNL     1     -34.750  17.773  -2.745  1.00 20.00     0.287 C 
BRANCH   6   7
HETATM    7  C7  UNL     1     -35.654  17.591  -1.538  1.00 20.00     0.144 C 
HETATM    8 CL10 UNL     1     -34.743  16.986  -0.133  1.00 20.00    -0.129 Cl
ENDBRANCH   6   7
ENDBRANCH   5   6
BRANCH   4   9
HETATM    9  O9  UNL     1     -33.919  13.506  -3.764  1.00 20.00    -0.389 OA
HETATM   10  C5  UNL     1     -35.156  13.250  -4.415  1.00 20.00     0.202 C 
ENDBRANCH   4   9
TORSDOF 3
ENDMDL
MODEL 6
REMARK VINA RESULT:      -3.5     12.106     13.206
REMARK  3 active torsions:
REMARK  status: ('A' for Active; 'I' for Inactive)
REMARK    1  A    between atoms: C4_4  and  O9_9 
REMARK    2  A    between atoms: C6_6  and  C7_7 
REMARK    3  A    between atoms: C6_6  and  N8_8 
ROOT
HETATM    1  C1  UNL     1     -40.711   5.969  -0.190  1.00 20.00     0.064 C 
HETATM    2  C2  UNL     1     -41.667   4.797  -0.024  1.00 20.00     0.275 C 
HETATM    3  C3  UNL     1     -42.435   5.930  -1.898  1.00 20.00     0.304 C 
HETATM    4  C4  UNL     1     -41.268   6.758  -1.370  1.00 20.00     0.150 C 
HETATM    5  N8  UNL     1     -42.265   4.578  -1.349  1.00 20.00     0.092 N 
ENDROOT
BRANCH   5   6
HETATM    6  C6  UNL     1     -41.403   3.757  -2.200  1.00 20.00     0.287 C 
BRANCH   6   7
HETATM    7  C7  UNL     1     -42.174   2.689  -2.956  1.00 20.00     0.144 C 
HETATM    8 CL10 UNL     1     -41.101   1.748  -4.022  1.00 20.00    -0.129 Cl
ENDBRANCH   6   7
ENDBRANCH   5   6
BRANCH   4   9
HETATM    9  O9  UNL     1     -41.735   8.031  -0.949  1.00 20.00    -0.389 OA
HETATM   10  C5  UNL     1     -43.152   8.058  -0.841  1.00 20.00     0.202 C 
ENDBRANCH   4   9
TORSDOF 3
ENDMDL
MODEL 7
REMARK VINA RESULT:      -3.4      3.281      4.478
REMARK  3 active torsions:
REMARK  status: ('A' for Active; 'I' for Inactive)
REMARK    1  A    between atoms: C4_4  and  O9_9 
REMARK    2  A    between atoms: C6_6  and  C7_7 
REMARK    3  A    between atoms: C6_6  and  N8_8 
ROOT
HETATM    1  C1  UNL     1     -34.814  16.259  -1.577  1.00 20.00     0.064 C 
HETATM    2  C2  UNL     1     -35.600  15.771  -2.787  1.00 20.00     0.275 C 
HETATM    3  C3  UNL     1     -33.654  16.676  -3.668  1.00 20.00     0.304 C 
HETATM    4  C4  UNL     1     -33.578  16.928  -2.166  1.00 20.00     0.150 C 
HETATM    5  N8  UNL     1     -34.610  15.577  -3.855  1.00 20.00     0.092 N 
ENDROOT
BRANCH   5   6
HETATM    6  C6  UNL     1     -33.955  14.272  -3.752  1.00 20.00     0.287 C 
BRANCH   6   7
HETATM    7  C7  UNL     1     -34.469  13.277  -4.777  1.00 20.00     0.144 C 
HETATM    8 CL10 UNL     1     -35.123  14.105  -6.212  1.00 20.00    -0.129 Cl
ENDBRANCH   6   7
ENDBRANCH   5   6
BRANCH   4   9
HETATM    9  O9  UNL     1     -33.593  18.325  -1.913  1.00 20.00    -0.389 OA
HETATM   10  C5  UNL     1     -33.680  19.074  -3.117  1.00 20.00     0.202 C 
ENDBRANCH   4   9
TORSDOF 3
ENDMDL
MODEL 8
REMARK VINA RESULT:      -3.4      2.859      3.592
REMARK  3 active torsions:
REMARK  status: ('A' for Active; 'I' for Inactive)
REMARK    1  A    between atoms: C4_4  and  O9_9 
REMARK    2  A    between atoms: C6_6  and  C7_7 
REMARK    3  A    between atoms: C6_6  and  N8_8 
ROOT
HETATM    1  C1  UNL     1     -36.566  16.011  -3.473  1.00 20.00     0.064 C 
HETATM    2  C2  UNL     1     -35.212  15.594  -2.917  1.00 20.00     0.275 C 
HETATM    3  C3  UNL     1     -35.889  13.808  -4.235  1.00 20.00     0.304 C 
HETATM    4  C4  UNL     1     -37.045  14.802  -4.268  1.00 20.00     0.150 C 
HETATM    5  N8  UNL     1     -34.698  14.572  -3.839  1.00 20.00     0.092 N 
ENDROOT
BRANCH   5   6
HETATM    6  C6  UNL     1     -34.038  15.175  -4.998  1.00 20.00     0.287 C 
BRANCH   6   7
HETATM    7  C7  UNL     1     -33.127  16.329  -4.617  1.00 20.00     0.144 C 
HETATM    8 CL10 UNL     1     -33.529  17.802  -5.533  1.00 20.00    -0.129 Cl
ENDBRANCH   6   7
ENDBRANCH   5   6
BRANCH   4   9
HETATM    9  O9  UNL     1     -38.193  14.225  -3.664  1.00 20.00    -0.389 OA
HETATM   10  C5  UNL     1     -39.274  15.145  -3.610  1.00 20.00     0.202 C 
ENDBRANCH   4   9
TORSDOF 3
ENDMDL
MODEL 9
REMARK VINA RESULT:      -3.3      3.463      4.786
REMARK  3 active torsions:
REMARK  status: ('A' for Active; 'I' for Inactive)
REMARK    1  A    between atoms: C4_4  and  O9_9 
REMARK    2  A    between atoms: C6_6  and  C7_7 
REMARK    3  A    between atoms: C6_6  and  N8_8 
ROOT
HETATM    1  C1  UNL     1     -35.072  15.501  -2.568  1.00 20.00     0.064 C 
HETATM    2  C2  UNL     1     -35.765  15.914  -3.859  1.00 20.00     0.275 C 
HETATM    3  C3  UNL     1     -33.690  16.950  -3.941  1.00 20.00     0.304 C 
HETATM    4  C4  UNL     1     -33.745  16.251  -2.586  1.00 20.00     0.150 C 
HETATM    5  N8  UNL     1     -34.690  16.287  -4.789  1.00 20.00     0.092 N 
ENDROOT
BRANCH   5   6
HETATM    6  C6  UNL     1     -34.130  15.115  -5.463  1.00 20.00     0.287 C 
BRANCH   6   7
HETATM    7  C7  UNL     1     -35.199  14.217  -6.059  1.00 20.00     0.144 C 
HETATM    8 CL10 UNL     1     -35.357  14.474  -7.814  1.00 20.00    -0.129 Cl
ENDBRANCH   6   7
ENDBRANCH   5   6
BRANCH   4   9
HETATM    9  O9  UNL     1     -33.698  17.216  -1.546  1.00 20.00    -0.389 OA
HETATM   10  C5  UNL     1     -34.593  16.891  -0.491  1.00 20.00     0.202 C 
ENDBRANCH   4   9
TORSDOF 3
ENDMDL
