MODEL 1
REMARK VINA RESULT:      -4.5      0.000      0.000
REMARK  2 active torsions:
REMARK  status: ('A' for Active; 'I' for Inactive)
REMARK    1  A    between atoms: C1_1  and  C6_6 
REMARK    2  A    between atoms: C2_2  and  C7_7 
ROOT
HETATM    1  C1  UNL     1     -33.119   6.834   3.465  1.00 20.00    -0.015 C 
HETATM    2  C2  UNL     1     -33.277   5.693   4.155  1.00 20.00    -0.021 C 
ENDROOT
BRANCH   2   3
HETATM    3  C7  UNL     1     -34.516   5.225   4.904  1.00 20.00    -0.034 C 
HETATM    4  C3  UNL     1     -35.754   5.609   4.073  1.00 20.00     0.018 C 
HETATM    5  C4  UNL     1     -34.559   3.709   5.172  1.00 20.00     0.018 C 
HETATM    6  C5  UNL     1     -34.569   5.961   6.255  1.00 20.00     0.018 C 
ENDBRANCH   2   3
BRANCH   1   7
HETATM    7  C6  UNL     1     -31.856   7.198   2.754  1.00 20.00     0.141 C 
HETATM    8 CL8  UNL     1     -32.142   8.592   1.689  1.00 20.00    -0.126 Cl
ENDBRANCH   1   7
TORSDOF 2
ENDMDL
MODEL 2
REMARK VINA RESULT:      -3.8     11.299     12.262
REMARK  2 active torsions:
REMARK  status: ('A' for Active; 'I' for Inactive)
REMARK    1  A    between atoms: C1_1  and  C6_6 
REMARK    2  A    between atoms: C2_2  and  C7_7 
ROOT
HETATM    1  C1  UNL     1     -34.554  16.275  -1.735  1.00 20.00    -0.015 C 
HETATM    2  C2  UNL     1     -33.882  15.946  -2.850  1.00 20.00    -0.021 C 
ENDROOT
BRANCH   2   3
HETATM    3  C7  UNL     1     -34.304  14.963  -3.932  1.00 20.00    -0.034 C 
HETATM    4  C3  UNL     1     -35.788  14.617  -3.715  1.00 20.00     0.018 C 
HETATM    5  C4  UNL     1     -34.131  15.491  -5.368  1.00 20.00     0.018 C 
HETATM    6  C5  UNL     1     -33.461  13.684  -3.776  1.00 20.00     0.018 C 
ENDBRANCH   2   3
BRANCH   1   7
HETATM    7  C6  UNL     1     -34.053  17.263  -0.732  1.00 20.00     0.141 C 
HETATM    8 CL8  UNL     1     -35.125  17.285   0.684  1.00 20.00    -0.126 Cl
ENDBRANCH   1   7
TORSDOF 2
ENDMDL
MODEL 3
REMARK VINA RESULT:      -3.8     11.282     12.262
REMARK  2 active torsions:
REMARK  status: ('A' for Active; 'I' for Inactive)
REMARK    1  A    between atoms: C1_1  and  C6_6 
REMARK    2  A    between atoms: C2_2  and  C7_7 
ROOT
HETATM    1  C1  UNL     1     -34.576  16.275  -1.734  1.00 20.00    -0.015 C 
HETATM    2  C2  UNL     1     -33.889  15.904  -2.826  1.00 20.00    -0.021 C 
ENDROOT
BRANCH   2   3
HETATM    3  C7  UNL     1     -34.319  14.917  -3.902  1.00 20.00    -0.034 C 
HETATM    4  C3  UNL     1     -33.445  13.656  -3.775  1.00 20.00     0.018 C 
HETATM    5  C4  UNL     1     -35.798  14.496  -3.820  1.00 20.00     0.018 C 
HETATM    6  C5  UNL     1     -34.070  15.565  -5.276  1.00 20.00     0.018 C 
ENDBRANCH   2   3
BRANCH   1   7
HETATM    7  C6  UNL     1     -34.064  17.262  -0.735  1.00 20.00     0.141 C 
HETATM    8 CL8  UNL     1     -35.122  17.282   0.692  1.00 20.00    -0.126 Cl
ENDBRANCH   1   7
TORSDOF 2
ENDMDL
MODEL 4
REMARK VINA RESULT:      -3.8     11.308     12.237
REMARK  2 active torsions:
REMARK  status: ('A' for Active; 'I' for Inactive)
REMARK    1  A    between atoms: C1_1  and  C6_6 
REMARK    2  A    between atoms: C2_2  and  C7_7 
ROOT
HETATM    1  C1  UNL     1     -34.516  16.279  -1.617  1.00 20.00    -0.015 C 
HETATM    2  C2  UNL     1     -33.886  16.051  -2.781  1.00 20.00    -0.021 C 
ENDROOT
BRANCH   2   3
HETATM    3  C7  UNL     1     -34.241  15.019  -3.842  1.00 20.00    -0.034 C 
HETATM    4  C3  UNL     1     -34.002  15.651  -5.225  1.00 20.00     0.018 C 
HETATM    5  C4  UNL     1     -33.426  13.715  -3.754  1.00 20.00     0.018 C 
HETATM    6  C5  UNL     1     -35.734  14.674  -3.697  1.00 20.00     0.018 C 
ENDBRANCH   2   3
BRANCH   1   7
HETATM    7  C6  UNL     1     -34.090  17.328  -0.642  1.00 20.00     0.141 C 
HETATM    8 CL8  UNL     1     -35.158  17.304   0.777  1.00 20.00    -0.126 Cl
ENDBRANCH   1   7
TORSDOF 2
ENDMDL
MODEL 5
REMARK VINA RESULT:      -3.7     11.783     12.533
REMARK  2 active torsions:
REMARK  status: ('A' for Active; 'I' for Inactive)
REMARK    1  A    between atoms: C1_1  and  C6_6 
REMARK    2  A    between atoms: C2_2  and  C7_7 
ROOT
HETATM    1  C1  UNL     1     -34.730  16.290  -1.474  1.00 20.00    -0.015 C 
HETATM    2  C2  UNL     1     -33.748  16.353  -2.387  1.00 20.00    -0.021 C 
ENDROOT
BRANCH   2   3
HETATM    3  C7  UNL     1     -33.645  15.581  -3.694  1.00 20.00    -0.034 C 
HETATM    4  C3  UNL     1     -34.974  14.839  -3.920  1.00 20.00     0.018 C 
HETATM    5  C4  UNL     1     -33.360  16.459  -4.927  1.00 20.00     0.018 C 
HETATM    6  C5  UNL     1     -32.510  14.549  -3.556  1.00 20.00     0.018 C 
ENDBRANCH   2   3
BRANCH   1   7
HETATM    7  C6  UNL     1     -34.740  17.100  -0.218  1.00 20.00     0.141 C 
HETATM    8 CL8  UNL     1     -33.317  18.162  -0.171  1.00 20.00    -0.126 Cl
ENDBRANCH   1   7
TORSDOF 2
ENDMDL
MODEL 6
REMARK VINA RESULT:      -3.5     11.469     12.293
REMARK  2 active torsions:
REMARK  status: ('A' for Active; 'I' for Inactive)
REMARK    1  A    between atoms: C1_1  and  C6_6 
REMARK    2  A    between atoms: C2_2  and  C7_7 
ROOT
HETATM    1  C1  UNL     1     -34.227  16.004  -2.556  1.00 20.00    -0.015 C 
HETATM    2  C2  UNL     1     -34.810  16.305  -1.384  1.00 20.00    -0.021 C 
ENDROOT
BRANCH   2   3
HETATM    3  C7  UNL     1     -34.671  17.591  -0.581  1.00 20.00    -0.034 C 
HETATM    4  C3  UNL     1     -35.569  18.661  -1.227  1.00 20.00     0.018 C 
HETATM    5  C4  UNL     1     -35.061  17.455   0.902  1.00 20.00     0.018 C 
HETATM    6  C5  UNL     1     -33.204  18.051  -0.661  1.00 20.00     0.018 C 
ENDBRANCH   2   3
BRANCH   1   7
HETATM    7  C6  UNL     1     -34.437  14.709  -3.271  1.00 20.00     0.141 C 
HETATM    8 CL8  UNL     1     -32.868  13.954  -3.627  1.00 20.00    -0.126 Cl
ENDBRANCH   1   7
TORSDOF 2
ENDMDL
MODEL 7
REMARK VINA RESULT:      -3.4     11.292     12.451
REMARK  2 active torsions:
REMARK  status: ('A' for Active; 'I' for Inactive)
REMARK    1  A    between atoms: C1_1  and  C6_6 
REMARK    2  A    between atoms: C2_2  and  C7_7 
ROOT
HETATM    1  C1  UNL     1     -33.901  15.023  -3.221  1.00 20.00    -0.015 C 
HETATM    2  C2  UNL     1     -34.906  15.636  -2.575  1.00 20.00    -0.021 C 
ENDROOT
BRANCH   2   3
HETATM    3  C7  UNL     1     -34.894  17.019  -1.940  1.00 20.00    -0.034 C 
HETATM    4  C3  UNL     1     -34.678  16.851  -0.426  1.00 20.00     0.018 C 
HETATM    5  C4  UNL     1     -33.803  17.957  -2.488  1.00 20.00     0.018 C 
HETATM    6  C5  UNL     1     -36.267  17.672  -2.183  1.00 20.00     0.018 C 
ENDBRANCH   2   3
BRANCH   1   7
HETATM    7  C6  UNL     1     -34.017  13.657  -3.817  1.00 20.00     0.141 C 
HETATM    8 CL8  UNL     1     -34.802  13.757  -5.408  1.00 20.00    -0.126 Cl
ENDBRANCH   1   7
TORSDOF 2
ENDMDL
MODEL 8
REMARK VINA RESULT:      -3.3      9.044     10.415
REMARK  2 active torsions:
REMARK  status: ('A' for Active; 'I' for Inactive)
REMARK    1  A    between atoms: C1_1  and  C6_6 
REMARK    2  A    between atoms: C2_2  and  C7_7 
ROOT
HETATM    1  C1  UNL     1     -42.160   7.286  -2.789  1.00 20.00    -0.015 C 
HETATM    2  C2  UNL     1     -42.273   6.093  -2.185  1.00 20.00    -0.021 C 
ENDROOT
BRANCH   2   3
HETATM    3  C7  UNL     1     -41.593   5.633  -0.904  1.00 20.00    -0.034 C 
HETATM    4  C3  UNL     1     -40.673   6.766  -0.415  1.00 20.00     0.018 C 
HETATM    5  C4  UNL     1     -42.565   5.267   0.233  1.00 20.00     0.018 C 
HETATM    6  C5  UNL     1     -40.736   4.396  -1.231  1.00 20.00     0.018 C 
ENDBRANCH   2   3
BRANCH   1   7
HETATM    7  C6  UNL     1     -42.881   7.644  -4.049  1.00 20.00     0.141 C 
HETATM    8 CL8  UNL     1     -41.932   8.827  -4.974  1.00 20.00    -0.126 Cl
ENDBRANCH   1   7
TORSDOF 2
ENDMDL
MODEL 9
REMARK VINA RESULT:      -3.3      9.132     10.500
REMARK  2 active torsions:
REMARK  status: ('A' for Active; 'I' for Inactive)
REMARK    1  A    between atoms: C1_1  and  C6_6 
REMARK    2  A    between atoms: C2_2  and  C7_7 
ROOT
HETATM    1  C1  UNL     1     -42.195   7.261  -2.830  1.00 20.00    -0.015 C 
HETATM    2  C2  UNL     1     -42.301   6.023  -2.323  1.00 20.00    -0.021 C 
ENDROOT
BRANCH   2   3
HETATM    3  C7  UNL     1     -41.638   5.474  -1.067  1.00 20.00    -0.034 C 
HETATM    4  C3  UNL     1     -40.806   4.242  -1.462  1.00 20.00     0.018 C 
HETATM    5  C4  UNL     1     -40.716   6.477  -0.349  1.00 20.00     0.018 C 
HETATM    6  C5  UNL     1     -42.745   5.041  -0.089  1.00 20.00     0.018 C 
ENDBRANCH   2   3
BRANCH   1   7
HETATM    7  C6  UNL     1     -42.896   7.705  -4.073  1.00 20.00     0.141 C 
HETATM    8 CL8  UNL     1     -41.858   8.819  -4.989  1.00 20.00    -0.126 Cl
ENDBRANCH   1   7
TORSDOF 2
ENDMDL
