MODEL 1
REMARK VINA RESULT:      -5.5      0.000      0.000
REMARK  3 active torsions:
REMARK  status: ('A' for Active; 'I' for Inactive)
REMARK    1  A    between atoms: C1_1  and  C5_5 
REMARK    2  A    between atoms: C2_2  and  C6_6 
REMARK    3  A    between atoms: C6_6  and  C7_7 
ROOT
HETATM    1  C1  UNL     1     -34.345   5.567   3.684  1.00 20.00    -0.026 C 
HETATM    2  C2  UNL     1     -33.172   6.202   3.833  1.00 20.00    -0.029 C 
ENDROOT
BRANCH   1   3
HETATM    3  C5  UNL     1     -35.237   5.143   4.777  1.00 20.00     0.008 A 
HETATM    4  C3  UNL     1     -34.863   3.931   5.570  1.00 20.00     0.009 A 
HETATM    5  C4  UNL     1     -34.756   5.295   6.185  1.00 20.00     0.009 A 
ENDBRANCH   1   3
BRANCH   2   6
HETATM    6  C6  UNL     1     -32.294   6.623   2.690  1.00 20.00     0.042 C 
BRANCH   6   7
HETATM    7  C7  UNL     1     -32.154   8.137   2.579  1.00 20.00     0.118 C 
HETATM    8 CL8  UNL     1     -31.797   8.645   0.910  1.00 20.00    -0.130 Cl
ENDBRANCH   6   7
ENDBRANCH   2   6
TORSDOF 3
ENDMDL
MODEL 2
REMARK VINA RESULT:      -4.8      0.926      1.353
REMARK  3 active torsions:
REMARK  status: ('A' for Active; 'I' for Inactive)
REMARK    1  A    between atoms: C1_1  and  C5_5 
REMARK    2  A    between atoms: C2_2  and  C6_6 
REMARK    3  A    between atoms: C6_6  and  C7_7 
ROOT
HETATM    1  C1  UNL     1     -33.357   6.292   4.293  1.00 20.00    -0.026 C 
HETATM    2  C2  UNL     1     -32.483   6.479   3.292  1.00 20.00    -0.029 C 
ENDROOT
BRANCH   1   3
HETATM    3  C5  UNL     1     -34.073   5.038   4.585  1.00 20.00     0.008 A 
HETATM    4  C3  UNL     1     -34.950   4.984   5.794  1.00 20.00     0.009 A 
HETATM    5  C4  UNL     1     -35.560   5.015   4.425  1.00 20.00     0.009 A 
ENDBRANCH   1   3
BRANCH   2   6
HETATM    6  C6  UNL     1     -31.768   7.774   3.033  1.00 20.00     0.042 C 
BRANCH   6   7
HETATM    7  C7  UNL     1     -31.978   8.290   1.613  1.00 20.00     0.118 C 
HETATM    8 CL8  UNL     1     -32.567   9.971   1.604  1.00 20.00    -0.130 Cl
ENDBRANCH   6   7
ENDBRANCH   2   6
TORSDOF 3
ENDMDL
MODEL 3
REMARK VINA RESULT:      -4.8      2.552      4.669
REMARK  3 active torsions:
REMARK  status: ('A' for Active; 'I' for Inactive)
REMARK    1  A    between atoms: C1_1  and  C5_5 
REMARK    2  A    between atoms: C2_2  and  C6_6 
REMARK    3  A    between atoms: C6_6  and  C7_7 
ROOT
HETATM    1  C1  UNL     1     -33.309   6.291   3.731  1.00 20.00    -0.026 C 
HETATM    2  C2  UNL     1     -34.265   5.438   3.328  1.00 20.00    -0.029 C 
ENDROOT
BRANCH   1   3
HETATM    3  C5  UNL     1     -32.153   6.726   2.929  1.00 20.00     0.008 A 
HETATM    4  C3  UNL     1     -32.207   8.069   2.273  1.00 20.00     0.009 A 
HETATM    5  C4  UNL     1     -31.306   7.843   3.451  1.00 20.00     0.009 A 
ENDBRANCH   1   3
BRANCH   2   6
HETATM    6  C6  UNL     1     -35.433   5.024   4.177  1.00 20.00     0.042 C 
BRANCH   6   7
HETATM    7  C7  UNL     1     -35.010   4.464   5.531  1.00 20.00     0.118 C 
HETATM    8 CL8  UNL     1     -34.597   5.761   6.680  1.00 20.00    -0.130 Cl
ENDBRANCH   6   7
ENDBRANCH   2   6
TORSDOF 3
ENDMDL
MODEL 4
REMARK VINA RESULT:      -4.7      2.393      4.833
REMARK  3 active torsions:
REMARK  status: ('A' for Active; 'I' for Inactive)
REMARK    1  A    between atoms: C1_1  and  C5_5 
REMARK    2  A    between atoms: C2_2  and  C6_6 
REMARK    3  A    between atoms: C6_6  and  C7_7 
ROOT
HETATM    1  C1  UNL     1     -32.665   6.742   2.892  1.00 20.00    -0.026 C 
HETATM    2  C2  UNL     1     -33.696   6.681   3.750  1.00 20.00    -0.029 C 
ENDROOT
BRANCH   1   3
HETATM    3  C5  UNL     1     -31.894   7.953   2.562  1.00 20.00     0.008 A 
HETATM    4  C3  UNL     1     -31.771   8.349   1.125  1.00 20.00     0.009 A 
HETATM    5  C4  UNL     1     -32.633   9.150   2.054  1.00 20.00     0.009 A 
ENDBRANCH   1   3
BRANCH   2   6
HETATM    6  C6  UNL     1     -34.453   5.423   4.064  1.00 20.00     0.042 C 
BRANCH   6   7
HETATM    7  C7  UNL     1     -34.648   5.208   5.561  1.00 20.00     0.118 C 
HETATM    8 CL8  UNL     1     -34.027   6.583   6.508  1.00 20.00    -0.130 Cl
ENDBRANCH   6   7
ENDBRANCH   2   6
TORSDOF 3
ENDMDL
MODEL 5
REMARK VINA RESULT:      -4.5      2.888      5.215
REMARK  3 active torsions:
REMARK  status: ('A' for Active; 'I' for Inactive)
REMARK    1  A    between atoms: C1_1  and  C5_5 
REMARK    2  A    between atoms: C2_2  and  C6_6 
REMARK    3  A    between atoms: C6_6  and  C7_7 
ROOT
HETATM    1  C1  UNL     1     -32.557   7.116   2.551  1.00 20.00    -0.026 C 
HETATM    2  C2  UNL     1     -33.048   6.879   3.778  1.00 20.00    -0.029 C 
ENDROOT
BRANCH   1   3
HETATM    3  C5  UNL     1     -31.789   8.307   2.148  1.00 20.00     0.008 A 
HETATM    4  C3  UNL     1     -31.793   8.701   0.706  1.00 20.00     0.009 A 
HETATM    5  C4  UNL     1     -32.541   9.524   1.712  1.00 20.00     0.009 A 
ENDBRANCH   1   3
BRANCH   2   6
HETATM    6  C6  UNL     1     -33.823   5.648   4.150  1.00 20.00     0.042 C 
BRANCH   6   7
HETATM    7  C7  UNL     1     -34.356   5.694   5.577  1.00 20.00     0.118 C 
HETATM    8 CL8  UNL     1     -35.114   4.152   6.047  1.00 20.00    -0.130 Cl
ENDBRANCH   6   7
ENDBRANCH   2   6
TORSDOF 3
ENDMDL
MODEL 6
REMARK VINA RESULT:      -4.2      2.704      4.723
REMARK  3 active torsions:
REMARK  status: ('A' for Active; 'I' for Inactive)
REMARK    1  A    between atoms: C1_1  and  C5_5 
REMARK    2  A    between atoms: C2_2  and  C6_6 
REMARK    3  A    between atoms: C6_6  and  C7_7 
ROOT
HETATM    1  C1  UNL     1     -33.419   6.323   3.911  1.00 20.00    -0.026 C 
HETATM    2  C2  UNL     1     -33.357   6.444   5.247  1.00 20.00    -0.029 C 
ENDROOT
BRANCH   1   3
HETATM    3  C5  UNL     1     -32.331   6.637   2.969  1.00 20.00     0.008 A 
HETATM    4  C3  UNL     1     -32.321   7.981   2.316  1.00 20.00     0.009 A 
HETATM    5  C4  UNL     1     -31.311   7.653   3.374  1.00 20.00     0.009 A 
ENDBRANCH   1   3
BRANCH   2   6
HETATM    6  C6  UNL     1     -34.489   6.107   6.174  1.00 20.00     0.042 C 
BRANCH   6   7
HETATM    7  C7  UNL     1     -34.630   4.607   6.413  1.00 20.00     0.118 C 
HETATM    8 CL8  UNL     1     -35.181   3.757   4.949  1.00 20.00    -0.130 Cl
ENDBRANCH   6   7
ENDBRANCH   2   6
TORSDOF 3
ENDMDL
MODEL 7
REMARK VINA RESULT:      -3.9     11.294     11.903
REMARK  3 active torsions:
REMARK  status: ('A' for Active; 'I' for Inactive)
REMARK    1  A    between atoms: C1_1  and  C5_5 
REMARK    2  A    between atoms: C2_2  and  C6_6 
REMARK    3  A    between atoms: C6_6  and  C7_7 
ROOT
HETATM    1  C1  UNL     1     -34.671  15.463  -2.453  1.00 20.00    -0.026 C 
HETATM    2  C2  UNL     1     -33.698  15.103  -3.306  1.00 20.00    -0.029 C 
ENDROOT
BRANCH   1   3
HETATM    3  C5  UNL     1     -34.832  16.798  -1.850  1.00 20.00     0.008 A 
HETATM    4  C3  UNL     1     -34.743  16.921  -0.363  1.00 20.00     0.009 A 
HETATM    5  C4  UNL     1     -33.636  17.446  -1.228  1.00 20.00     0.009 A 
ENDBRANCH   1   3
BRANCH   2   6
HETATM    6  C6  UNL     1     -33.572  13.731  -3.904  1.00 20.00     0.042 C 
BRANCH   6   7
HETATM    7  C7  UNL     1     -34.708  13.400  -4.866  1.00 20.00     0.118 C 
HETATM    8 CL8  UNL     1     -34.690  14.462  -6.296  1.00 20.00    -0.130 Cl
ENDBRANCH   6   7
ENDBRANCH   2   6
TORSDOF 3
ENDMDL
MODEL 8
REMARK VINA RESULT:      -3.8     11.263     12.050
REMARK  3 active torsions:
REMARK  status: ('A' for Active; 'I' for Inactive)
REMARK    1  A    between atoms: C1_1  and  C5_5 
REMARK    2  A    between atoms: C2_2  and  C6_6 
REMARK    3  A    between atoms: C6_6  and  C7_7 
ROOT
HETATM    1  C1  UNL     1     -33.743  15.947  -2.629  1.00 20.00    -0.026 C 
HETATM    2  C2  UNL     1     -34.682  16.212  -1.707  1.00 20.00    -0.029 C 
ENDROOT
BRANCH   1   3
HETATM    3  C5  UNL     1     -33.932  15.119  -3.833  1.00 20.00     0.008 A 
HETATM    4  C3  UNL     1     -33.441  13.707  -3.809  1.00 20.00     0.009 A 
HETATM    5  C4  UNL     1     -34.913  13.992  -3.773  1.00 20.00     0.009 A 
ENDBRANCH   1   3
BRANCH   2   6
HETATM    6  C6  UNL     1     -34.450  17.068  -0.495  1.00 20.00     0.042 C 
BRANCH   6   7
HETATM    7  C7  UNL     1     -33.782  18.398  -0.829  1.00 20.00     0.118 C 
HETATM    8 CL8  UNL     1     -32.319  18.664   0.150  1.00 20.00    -0.130 Cl
ENDBRANCH   6   7
ENDBRANCH   2   6
TORSDOF 3
ENDMDL
MODEL 9
REMARK VINA RESULT:      -3.8     11.183     11.973
REMARK  3 active torsions:
REMARK  status: ('A' for Active; 'I' for Inactive)
REMARK    1  A    between atoms: C1_1  and  C5_5 
REMARK    2  A    between atoms: C2_2  and  C6_6 
REMARK    3  A    between atoms: C6_6  and  C7_7 
ROOT
HETATM    1  C1  UNL     1     -34.631  16.085  -1.826  1.00 20.00    -0.026 C 
HETATM    2  C2  UNL     1     -33.591  16.140  -2.673  1.00 20.00    -0.029 C 
ENDROOT
BRANCH   1   3
HETATM    3  C5  UNL     1     -34.714  16.768  -0.523  1.00 20.00     0.008 A 
HETATM    4  C3  UNL     1     -33.801  17.923  -0.266  1.00 20.00     0.009 A 
HETATM    5  C4  UNL     1     -35.267  18.157  -0.482  1.00 20.00     0.009 A 
ENDBRANCH   1   3
BRANCH   2   6
HETATM    6  C6  UNL     1     -33.548  15.433  -3.997  1.00 20.00     0.042 C 
BRANCH   6   7
HETATM    7  C7  UNL     1     -33.576  13.915  -3.857  1.00 20.00     0.118 C 
HETATM    8 CL8  UNL     1     -35.186  13.249  -4.226  1.00 20.00    -0.130 Cl
ENDBRANCH   6   7
ENDBRANCH   2   6
TORSDOF 3
ENDMDL
