MODEL 1
REMARK VINA RESULT:      -4.4      0.000      0.000
REMARK  2 active torsions:
REMARK  status: ('A' for Active; 'I' for Inactive)
REMARK    1  A    between atoms: C2_2  and  C4_4 
REMARK    2  A    between atoms: C4_4  and  C5_5 
ROOT
HETATM    1  C1  UNL     1     -32.930   6.177   3.338  1.00 20.00    -0.035 C 
HETATM    2  C2  UNL     1     -34.162   6.238   3.867  1.00 20.00    -0.030 C 
HETATM    3  C3  UNL     1     -32.198   7.304   2.734  1.00 20.00     0.036 C 
ENDROOT
BRANCH   2   4
HETATM    4  C4  UNL     1     -34.873   5.065   4.478  1.00 20.00     0.042 C 
BRANCH   4   5
HETATM    5  C5  UNL     1     -34.835   5.082   6.003  1.00 20.00     0.118 C 
HETATM    6 CL6  UNL     1     -34.070   6.565   6.626  1.00 20.00    -0.130 Cl
ENDBRANCH   4   5
ENDBRANCH   2   4
TORSDOF 2
ENDMDL
MODEL 2
REMARK VINA RESULT:      -4.1      2.342      3.922
REMARK  2 active torsions:
REMARK  status: ('A' for Active; 'I' for Inactive)
REMARK    1  A    between atoms: C2_2  and  C4_4 
REMARK    2  A    between atoms: C4_4  and  C5_5 
ROOT
HETATM    1  C1  UNL     1     -34.697   5.069   4.733  1.00 20.00    -0.035 C 
HETATM    2  C2  UNL     1     -33.653   5.874   4.483  1.00 20.00    -0.030 C 
HETATM    3  C3  UNL     1     -35.121   4.602   6.065  1.00 20.00     0.036 C 
ENDROOT
BRANCH   2   4
HETATM    4  C4  UNL     1     -33.257   6.332   3.109  1.00 20.00     0.042 C 
BRANCH   4   5
HETATM    5  C5  UNL     1     -32.025   7.231   3.119  1.00 20.00     0.118 C 
HETATM    6 CL6  UNL     1     -32.016   8.350   1.733  1.00 20.00    -0.130 Cl
ENDBRANCH   4   5
ENDBRANCH   2   4
TORSDOF 2
ENDMDL
MODEL 3
REMARK VINA RESULT:      -4.0      2.689      3.104
REMARK  2 active torsions:
REMARK  status: ('A' for Active; 'I' for Inactive)
REMARK    1  A    between atoms: C2_2  and  C4_4 
REMARK    2  A    between atoms: C4_4  and  C5_5 
ROOT
HETATM    1  C1  UNL     1     -34.071   6.531   6.110  1.00 20.00    -0.035 C 
HETATM    2  C2  UNL     1     -34.380   5.241   6.311  1.00 20.00    -0.030 C 
HETATM    3  C3  UNL     1     -33.417   7.419   7.087  1.00 20.00     0.036 C 
ENDROOT
BRANCH   2   4
HETATM    4  C4  UNL     1     -35.043   4.367   5.285  1.00 20.00     0.042 C 
BRANCH   4   5
HETATM    5  C5  UNL     1     -35.494   5.143   4.051  1.00 20.00     0.118 C 
HETATM    6 CL6  UNL     1     -34.181   5.299   2.857  1.00 20.00    -0.130 Cl
ENDBRANCH   4   5
ENDBRANCH   2   4
TORSDOF 2
ENDMDL
MODEL 4
REMARK VINA RESULT:      -3.9      2.559      4.169
REMARK  2 active torsions:
REMARK  status: ('A' for Active; 'I' for Inactive)
REMARK    1  A    between atoms: C2_2  and  C4_4 
REMARK    2  A    between atoms: C4_4  and  C5_5 
ROOT
HETATM    1  C1  UNL     1     -34.045   6.267   4.087  1.00 20.00    -0.035 C 
HETATM    2  C2  UNL     1     -33.010   6.304   3.234  1.00 20.00    -0.030 C 
HETATM    3  C3  UNL     1     -35.031   5.177   4.194  1.00 20.00     0.036 C 
ENDROOT
BRANCH   2   4
HETATM    4  C4  UNL     1     -32.023   7.434   3.159  1.00 20.00     0.042 C 
BRANCH   4   5
HETATM    5  C5  UNL     1     -31.970   8.081   1.779  1.00 20.00     0.118 C 
HETATM    6 CL6  UNL     1     -32.589   9.751   1.811  1.00 20.00    -0.130 Cl
ENDBRANCH   4   5
ENDBRANCH   2   4
TORSDOF 2
ENDMDL
MODEL 5
REMARK VINA RESULT:      -3.9      1.614      1.684
REMARK  2 active torsions:
REMARK  status: ('A' for Active; 'I' for Inactive)
REMARK    1  A    between atoms: C2_2  and  C4_4 
REMARK    2  A    between atoms: C4_4  and  C5_5 
ROOT
HETATM    1  C1  UNL     1     -32.646   6.898   4.007  1.00 20.00    -0.035 C 
HETATM    2  C2  UNL     1     -33.765   6.345   4.498  1.00 20.00    -0.030 C 
HETATM    3  C3  UNL     1     -32.301   7.012   2.579  1.00 20.00     0.036 C 
ENDROOT
BRANCH   2   4
HETATM    4  C4  UNL     1     -34.082   6.253   5.963  1.00 20.00     0.042 C 
BRANCH   4   5
HETATM    5  C5  UNL     1     -34.816   4.967   6.329  1.00 20.00     0.118 C 
HETATM    6 CL6  UNL     1     -35.129   3.958   4.894  1.00 20.00    -0.130 Cl
ENDBRANCH   4   5
ENDBRANCH   2   4
TORSDOF 2
ENDMDL
MODEL 6
REMARK VINA RESULT:      -3.6      1.949      2.888
REMARK  2 active torsions:
REMARK  status: ('A' for Active; 'I' for Inactive)
REMARK    1  A    between atoms: C2_2  and  C4_4 
REMARK    2  A    between atoms: C4_4  and  C5_5 
ROOT
HETATM    1  C1  UNL     1     -32.635   8.339   1.923  1.00 20.00    -0.035 C 
HETATM    2  C2  UNL     1     -31.880   7.571   2.723  1.00 20.00    -0.030 C 
HETATM    3  C3  UNL     1     -32.237   9.642   1.359  1.00 20.00     0.036 C 
ENDROOT
BRANCH   2   4
HETATM    4  C4  UNL     1     -32.321   6.245   3.273  1.00 20.00     0.042 C 
BRANCH   4   5
HETATM    5  C5  UNL     1     -33.556   6.356   4.162  1.00 20.00     0.118 C 
HETATM    6 CL6  UNL     1     -34.902   5.367   3.545  1.00 20.00    -0.130 Cl
ENDBRANCH   4   5
ENDBRANCH   2   4
TORSDOF 2
ENDMDL
MODEL 7
REMARK VINA RESULT:      -3.3     11.627     12.248
REMARK  2 active torsions:
REMARK  status: ('A' for Active; 'I' for Inactive)
REMARK    1  A    between atoms: C2_2  and  C4_4 
REMARK    2  A    between atoms: C4_4  and  C5_5 
ROOT
HETATM    1  C1  UNL     1     -34.666  16.188  -1.780  1.00 20.00    -0.035 C 
HETATM    2  C2  UNL     1     -33.625  16.173  -2.628  1.00 20.00    -0.030 C 
HETATM    3  C3  UNL     1     -34.695  16.862  -0.470  1.00 20.00     0.036 C 
ENDROOT
BRANCH   2   4
HETATM    4  C4  UNL     1     -33.638  15.477  -3.958  1.00 20.00     0.042 C 
BRANCH   4   5
HETATM    5  C5  UNL     1     -33.586  13.958  -3.831  1.00 20.00     0.118 C 
HETATM    6 CL6  UNL     1     -35.149  13.210  -4.242  1.00 20.00    -0.130 Cl
ENDBRANCH   4   5
ENDBRANCH   2   4
TORSDOF 2
ENDMDL
MODEL 8
REMARK VINA RESULT:      -3.2     11.880     12.235
REMARK  2 active torsions:
REMARK  status: ('A' for Active; 'I' for Inactive)
REMARK    1  A    between atoms: C2_2  and  C4_4 
REMARK    2  A    between atoms: C4_4  and  C5_5 
ROOT
HETATM    1  C1  UNL     1     -34.337  17.195  -0.448  1.00 20.00    -0.035 C 
HETATM    2  C2  UNL     1     -34.735  16.343  -1.404  1.00 20.00    -0.030 C 
HETATM    3  C3  UNL     1     -35.085  17.518   0.781  1.00 20.00     0.036 C 
ENDROOT
BRANCH   2   4
HETATM    4  C4  UNL     1     -33.940  16.037  -2.640  1.00 20.00     0.042 C 
BRANCH   4   5
HETATM    5  C5  UNL     1     -34.479  14.833  -3.406  1.00 20.00     0.118 C 
HETATM    6 CL6  UNL     1     -33.200  13.637  -3.736  1.00 20.00    -0.130 Cl
ENDBRANCH   4   5
ENDBRANCH   2   4
TORSDOF 2
ENDMDL
MODEL 9
REMARK VINA RESULT:      -3.1     12.513     12.818
REMARK  2 active torsions:
REMARK  status: ('A' for Active; 'I' for Inactive)
REMARK    1  A    between atoms: C2_2  and  C4_4 
REMARK    2  A    between atoms: C4_4  and  C5_5 
ROOT
HETATM    1  C1  UNL     1     -34.768  16.794  -0.581  1.00 20.00    -0.035 C 
HETATM    2  C2  UNL     1     -34.047  16.603  -1.697  1.00 20.00    -0.030 C 
HETATM    3  C3  UNL     1     -34.472  17.780   0.472  1.00 20.00     0.036 C 
ENDROOT
BRANCH   2   4
HETATM    4  C4  UNL     1     -34.385  15.588  -2.751  1.00 20.00     0.042 C 
BRANCH   4   5
HETATM    5  C5  UNL     1     -33.202  15.259  -3.655  1.00 20.00     0.118 C 
HETATM    6 CL6  UNL     1     -33.149  16.322  -5.083  1.00 20.00    -0.130 Cl
ENDBRANCH   4   5
ENDBRANCH   2   4
TORSDOF 2
ENDMDL
