MODEL 1
REMARK VINA RESULT:      -4.2      0.000      0.000
REMARK  0 active torsions:
REMARK  status: ('A' for Active; 'I' for Inactive)
ROOT
HETATM    1  C1  UNL     1     -34.222  16.156  -2.512  1.00 20.00    -0.088 C 
HETATM    2  C2  UNL     1     -34.587  16.446  -1.255  1.00 20.00     0.014 C 
HETATM    3  C3  UNL     1     -33.871  17.220  -3.518  1.00 20.00     0.033 C 
HETATM    4  C4  UNL     1     -34.149  14.742  -3.031  1.00 20.00     0.042 C 
HETATM    5  C5  UNL     1     -34.701  17.063  -4.791  1.00 20.00     0.005 C 
HETATM    6  C6  UNL     1     -34.628  15.640  -5.353  1.00 20.00     0.009 C 
HETATM    7  C7  UNL     1     -34.992  14.549  -4.315  1.00 20.00    -0.044 C 
HETATM    8  C8  UNL     1     -34.683  13.165  -4.915  1.00 20.00     0.015 C 
HETATM    9  C9  UNL     1     -36.498  14.600  -3.985  1.00 20.00     0.015 C 
ENDROOT
TORSDOF 0
ENDMDL
MODEL 2
REMARK VINA RESULT:      -4.2     11.460     13.033
REMARK  0 active torsions:
REMARK  status: ('A' for Active; 'I' for Inactive)
ROOT
HETATM    1  C1  UNL     1     -41.079   5.803  -1.095  1.00 20.00    -0.088 C 
HETATM    2  C2  UNL     1     -40.680   6.136   0.141  1.00 20.00     0.014 C 
HETATM    3  C3  UNL     1     -41.663   6.805  -2.054  1.00 20.00     0.033 C 
HETATM    4  C4  UNL     1     -40.994   4.393  -1.622  1.00 20.00     0.042 C 
HETATM    5  C5  UNL     1     -43.020   6.336  -2.576  1.00 20.00     0.005 C 
HETATM    6  C6  UNL     1     -42.958   4.913  -3.140  1.00 20.00     0.009 C 
HETATM    7  C7  UNL     1     -42.359   3.884  -2.148  1.00 20.00    -0.044 C 
HETATM    8  C8  UNL     1     -42.148   2.546  -2.881  1.00 20.00     0.015 C 
HETATM    9  C9  UNL     1     -43.330   3.637  -0.976  1.00 20.00     0.015 C 
ENDROOT
TORSDOF 0
ENDMDL
MODEL 3
REMARK VINA RESULT:      -4.1      1.005      3.398
REMARK  0 active torsions:
REMARK  status: ('A' for Active; 'I' for Inactive)
ROOT
HETATM    1  C1  UNL     1     -36.299  14.884  -4.087  1.00 20.00    -0.088 C 
HETATM    2  C2  UNL     1     -37.587  14.686  -3.776  1.00 20.00     0.014 C 
HETATM    3  C3  UNL     1     -35.373  13.755  -4.456  1.00 20.00     0.033 C 
HETATM    4  C4  UNL     1     -35.662  16.251  -4.078  1.00 20.00     0.042 C 
HETATM    5  C5  UNL     1     -34.121  13.767  -3.580  1.00 20.00     0.005 C 
HETATM    6  C6  UNL     1     -33.440  15.139  -3.569  1.00 20.00     0.009 C 
HETATM    7  C7  UNL     1     -34.396  16.297  -3.187  1.00 20.00    -0.044 C 
HETATM    8  C8  UNL     1     -33.673  17.638  -3.412  1.00 20.00     0.015 C 
HETATM    9  C9  UNL     1     -34.781  16.208  -1.697  1.00 20.00     0.015 C 
ENDROOT
TORSDOF 0
ENDMDL
MODEL 4
REMARK VINA RESULT:      -4.1     11.067     12.845
REMARK  0 active torsions:
REMARK  status: ('A' for Active; 'I' for Inactive)
ROOT
HETATM    1  C1  UNL     1     -42.331   6.902  -2.014  1.00 20.00    -0.088 C 
HETATM    2  C2  UNL     1     -42.313   7.499  -3.215  1.00 20.00     0.014 C 
HETATM    3  C3  UNL     1     -41.447   7.343  -0.878  1.00 20.00     0.033 C 
HETATM    4  C4  UNL     1     -43.225   5.727  -1.705  1.00 20.00     0.042 C 
HETATM    5  C5  UNL     1     -40.636   6.170  -0.331  1.00 20.00     0.005 C 
HETATM    6  C6  UNL     1     -41.522   4.969   0.014  1.00 20.00     0.009 C 
HETATM    7  C7  UNL     1     -42.428   4.517  -1.159  1.00 20.00    -0.044 C 
HETATM    8  C8  UNL     1     -43.417   3.455  -0.646  1.00 20.00     0.015 C 
HETATM    9  C9  UNL     1     -41.582   3.878  -2.279  1.00 20.00     0.015 C 
ENDROOT
TORSDOF 0
ENDMDL
MODEL 5
REMARK VINA RESULT:      -4.0     12.199     13.356
REMARK  0 active torsions:
REMARK  status: ('A' for Active; 'I' for Inactive)
ROOT
HETATM    1  C1  UNL     1     -34.164   6.465   6.087  1.00 20.00    -0.088 C 
HETATM    2  C2  UNL     1     -33.318   7.264   6.752  1.00 20.00     0.014 C 
HETATM    3  C3  UNL     1     -34.736   5.211   6.692  1.00 20.00     0.033 C 
HETATM    4  C4  UNL     1     -34.601   6.744   4.670  1.00 20.00     0.042 C 
HETATM    5  C5  UNL     1     -34.476   4.003   5.794  1.00 20.00     0.005 C 
HETATM    6  C6  UNL     1     -34.931   4.250   4.352  1.00 20.00     0.009 C 
HETATM    7  C7  UNL     1     -34.338   5.540   3.732  1.00 20.00    -0.044 C 
HETATM    8  C8  UNL     1     -35.018   5.803   2.376  1.00 20.00     0.015 C 
HETATM    9  C9  UNL     1     -32.825   5.372   3.482  1.00 20.00     0.015 C 
ENDROOT
TORSDOF 0
ENDMDL
MODEL 6
REMARK VINA RESULT:      -4.0      1.161      2.144
REMARK  0 active torsions:
REMARK  status: ('A' for Active; 'I' for Inactive)
ROOT
HETATM    1  C1  UNL     1     -36.075  16.033  -2.955  1.00 20.00    -0.088 C 
HETATM    2  C2  UNL     1     -37.051  16.936  -3.124  1.00 20.00     0.014 C 
HETATM    3  C3  UNL     1     -34.930  16.248  -2.001  1.00 20.00     0.033 C 
HETATM    4  C4  UNL     1     -36.029  14.733  -3.719  1.00 20.00     0.042 C 
HETATM    5  C5  UNL     1     -33.588  16.079  -2.710  1.00 20.00     0.005 C 
HETATM    6  C6  UNL     1     -33.505  14.756  -3.477  1.00 20.00     0.009 C 
HETATM    7  C7  UNL     1     -34.683  14.540  -4.460  1.00 20.00    -0.044 C 
HETATM    8  C8  UNL     1     -34.617  13.105  -5.014  1.00 20.00     0.015 C 
HETATM    9  C9  UNL     1     -34.578  15.515  -5.651  1.00 20.00     0.015 C 
ENDROOT
TORSDOF 0
ENDMDL
MODEL 7
REMARK VINA RESULT:      -3.9      1.380      1.832
REMARK  0 active torsions:
REMARK  status: ('A' for Active; 'I' for Inactive)
ROOT
HETATM    1  C1  UNL     1     -34.525  15.768  -2.573  1.00 20.00    -0.088 C 
HETATM    2  C2  UNL     1     -34.600  16.344  -1.366  1.00 20.00     0.014 C 
HETATM    3  C3  UNL     1     -33.218  15.557  -3.290  1.00 20.00     0.033 C 
HETATM    4  C4  UNL     1     -35.744  15.297  -3.325  1.00 20.00     0.042 C 
HETATM    5  C5  UNL     1     -33.260  16.161  -4.692  1.00 20.00     0.005 C 
HETATM    6  C6  UNL     1     -34.478  15.682  -5.488  1.00 20.00     0.009 C 
HETATM    7  C7  UNL     1     -35.821  15.903  -4.748  1.00 20.00    -0.044 C 
HETATM    8  C8  UNL     1     -36.946  15.202  -5.532  1.00 20.00     0.015 C 
HETATM    9  C9  UNL     1     -36.157  17.406  -4.677  1.00 20.00     0.015 C 
ENDROOT
TORSDOF 0
ENDMDL
MODEL 8
REMARK VINA RESULT:      -3.9      1.553      2.590
REMARK  0 active torsions:
REMARK  status: ('A' for Active; 'I' for Inactive)
ROOT
HETATM    1  C1  UNL     1     -33.644  16.951  -5.449  1.00 20.00    -0.088 C 
HETATM    2  C2  UNL     1     -33.659  18.244  -5.094  1.00 20.00     0.014 C 
HETATM    3  C3  UNL     1     -34.265  16.456  -6.728  1.00 20.00     0.033 C 
HETATM    4  C4  UNL     1     -33.019  15.881  -4.590  1.00 20.00     0.042 C 
HETATM    5  C5  UNL     1     -35.259  15.330  -6.453  1.00 20.00     0.005 C 
HETATM    6  C6  UNL     1     -34.644  14.216  -5.600  1.00 20.00     0.009 C 
HETATM    7  C7  UNL     1     -34.009  14.729  -4.283  1.00 20.00    -0.044 C 
HETATM    8  C8  UNL     1     -33.242  13.574  -3.614  1.00 20.00     0.015 C 
HETATM    9  C9  UNL     1     -35.102  15.205  -3.306  1.00 20.00     0.015 C 
ENDROOT
TORSDOF 0
ENDMDL
MODEL 9
REMARK VINA RESULT:      -3.9      1.516      3.057
REMARK  0 active torsions:
REMARK  status: ('A' for Active; 'I' for Inactive)
ROOT
HETATM    1  C1  UNL     1     -34.339  14.232  -4.719  1.00 20.00    -0.088 C 
HETATM    2  C2  UNL     1     -35.130  13.251  -4.260  1.00 20.00     0.014 C 
HETATM    3  C3  UNL     1     -33.259  14.860  -3.878  1.00 20.00     0.033 C 
HETATM    4  C4  UNL     1     -34.474  14.801  -6.109  1.00 20.00     0.042 C 
HETATM    5  C5  UNL     1     -33.416  16.378  -3.832  1.00 20.00     0.005 C 
HETATM    6  C6  UNL     1     -33.534  16.987  -5.234  1.00 20.00     0.009 C 
HETATM    7  C7  UNL     1     -34.648  16.339  -6.094  1.00 20.00    -0.044 C 
HETATM    8  C8  UNL     1     -34.541  16.870  -7.535  1.00 20.00     0.015 C 
HETATM    9  C9  UNL     1     -36.040  16.719  -5.549  1.00 20.00     0.015 C 
ENDROOT
TORSDOF 0
ENDMDL
