MODEL 1
REMARK VINA RESULT:      -4.5      0.000      0.000
REMARK  4 active torsions:
REMARK  status: ('A' for Active; 'I' for Inactive)
REMARK    1  A    between atoms: C2_2  and  C4_4 
REMARK    2  A    between atoms: C3_3  and  O7_7 
REMARK    3  A    between atoms: C4_4  and  C5_5 
REMARK    4  A    between atoms: C5_5  and  C6_6 
ROOT
HETATM    1  C1  UNL     1     -34.113   5.693   5.686  1.00 20.00     0.039 A 
HETATM    2  C2  UNL     1     -34.516   5.966   4.263  1.00 20.00     0.017 A 
HETATM    3  C3  UNL     1     -35.323   5.014   5.107  1.00 20.00     0.122 A 
ENDROOT
BRANCH   2   4
HETATM    4  C4  UNL     1     -33.649   5.475   3.115  1.00 20.00     0.008 C 
BRANCH   4   5
HETATM    5  C5  UNL     1     -32.293   6.179   3.097  1.00 20.00     0.015 C 
BRANCH   5   6
HETATM    6  C6  UNL     1     -32.460   7.688   2.984  1.00 20.00     0.114 C 
HETATM    7 CL8  UNL     1     -31.810   8.271   1.434  1.00 20.00    -0.130 Cl
ENDBRANCH   5   6
ENDBRANCH   4   5
ENDBRANCH   2   4
BRANCH   3   8
HETATM    8  O7  UNL     1     -35.187   3.610   4.834  1.00 20.00    -0.395 OA
HETATM    9  H19 UNL     1     -35.573   3.154   5.592  1.00 20.00     0.210 HD
ENDBRANCH   3   8
TORSDOF 4
ENDMDL
MODEL 2
REMARK VINA RESULT:      -4.2      3.213      4.334
REMARK  4 active torsions:
REMARK  status: ('A' for Active; 'I' for Inactive)
REMARK    1  A    between atoms: C2_2  and  C4_4 
REMARK    2  A    between atoms: C3_3  and  O7_7 
REMARK    3  A    between atoms: C4_4  and  C5_5 
REMARK    4  A    between atoms: C5_5  and  C6_6 
ROOT
HETATM    1  C1  UNL     1     -31.472   7.395   3.706  1.00 20.00     0.039 A 
HETATM    2  C2  UNL     1     -32.602   6.549   3.186  1.00 20.00     0.017 A 
HETATM    3  C3  UNL     1     -32.027   7.648   2.331  1.00 20.00     0.122 A 
ENDROOT
BRANCH   2   4
HETATM    4  C4  UNL     1     -33.987   6.661   3.803  1.00 20.00     0.008 C 
BRANCH   4   5
HETATM    5  C5  UNL     1     -34.768   5.354   3.669  1.00 20.00     0.015 C 
BRANCH   5   6
HETATM    6  C6  UNL     1     -35.101   4.772   5.036  1.00 20.00     0.114 C 
HETATM    7 CL8  UNL     1     -34.396   5.774   6.327  1.00 20.00    -0.130 Cl
ENDBRANCH   5   6
ENDBRANCH   4   5
ENDBRANCH   2   4
BRANCH   3   8
HETATM    8  O7  UNL     1     -32.807   8.843   2.177  1.00 20.00    -0.395 OA
HETATM    9  H19 UNL     1     -32.522   9.439   2.882  1.00 20.00     0.210 HD
ENDBRANCH   3   8
TORSDOF 4
ENDMDL
MODEL 3
REMARK VINA RESULT:      -4.2      1.294      1.467
REMARK  4 active torsions:
REMARK  status: ('A' for Active; 'I' for Inactive)
REMARK    1  A    between atoms: C2_2  and  C4_4 
REMARK    2  A    between atoms: C3_3  and  O7_7 
REMARK    3  A    between atoms: C4_4  and  C5_5 
REMARK    4  A    between atoms: C5_5  and  C6_6 
ROOT
HETATM    1  C1  UNL     1     -35.493   5.029   4.387  1.00 20.00     0.039 A 
HETATM    2  C2  UNL     1     -34.002   5.200   4.286  1.00 20.00     0.017 A 
HETATM    3  C3  UNL     1     -34.626   4.787   5.593  1.00 20.00     0.122 A 
ENDROOT
BRANCH   2   4
HETATM    4  C4  UNL     1     -33.402   6.583   4.090  1.00 20.00     0.008 C 
BRANCH   4   5
HETATM    5  C5  UNL     1     -32.532   6.644   2.836  1.00 20.00     0.015 C 
BRANCH   5   6
HETATM    6  C6  UNL     1     -31.825   7.989   2.723  1.00 20.00     0.114 C 
HETATM    7 CL8  UNL     1     -31.923   8.605   1.057  1.00 20.00    -0.130 Cl
ENDBRANCH   5   6
ENDBRANCH   4   5
ENDBRANCH   2   4
BRANCH   3   8
HETATM    8  O7  UNL     1     -34.701   5.776   6.632  1.00 20.00    -0.395 OA
HETATM    9  H19 UNL     1     -35.642   5.912   6.801  1.00 20.00     0.210 HD
ENDBRANCH   3   8
TORSDOF 4
ENDMDL
MODEL 4
REMARK VINA RESULT:      -3.9     11.507     11.957
REMARK  4 active torsions:
REMARK  status: ('A' for Active; 'I' for Inactive)
REMARK    1  A    between atoms: C2_2  and  C4_4 
REMARK    2  A    between atoms: C3_3  and  O7_7 
REMARK    3  A    between atoms: C4_4  and  C5_5 
REMARK    4  A    between atoms: C5_5  and  C6_6 
ROOT
HETATM    1  C1  UNL     1     -34.688  14.569  -5.464  1.00 20.00     0.039 A 
HETATM    2  C2  UNL     1     -33.996  14.686  -4.133  1.00 20.00     0.017 A 
HETATM    3  C3  UNL     1     -34.282  13.327  -4.717  1.00 20.00     0.122 A 
ENDROOT
BRANCH   2   4
HETATM    4  C4  UNL     1     -34.751  15.208  -2.921  1.00 20.00     0.008 C 
BRANCH   4   5
HETATM    5  C5  UNL     1     -33.984  16.331  -2.224  1.00 20.00     0.015 C 
BRANCH   5   6
HETATM    6  C6  UNL     1     -34.596  16.651  -0.867  1.00 20.00     0.114 C 
HETATM    7 CL8  UNL     1     -33.698  17.968  -0.076  1.00 20.00    -0.130 Cl
ENDBRANCH   5   6
ENDBRANCH   4   5
ENDBRANCH   2   4
BRANCH   3   8
HETATM    8  O7  UNL     1     -35.350  12.567  -4.131  1.00 20.00    -0.395 OA
HETATM    9  H19 UNL     1     -35.639  11.946  -4.813  1.00 20.00     0.210 HD
ENDBRANCH   3   8
TORSDOF 4
ENDMDL
MODEL 5
REMARK VINA RESULT:      -3.8      2.900      4.034
REMARK  4 active torsions:
REMARK  status: ('A' for Active; 'I' for Inactive)
REMARK    1  A    between atoms: C2_2  and  C4_4 
REMARK    2  A    between atoms: C3_3  and  O7_7 
REMARK    3  A    between atoms: C4_4  and  C5_5 
REMARK    4  A    between atoms: C5_5  and  C6_6 
ROOT
HETATM    1  C1  UNL     1     -32.159   5.412   3.164  1.00 20.00     0.039 A 
HETATM    2  C2  UNL     1     -33.431   6.167   2.891  1.00 20.00     0.017 A 
HETATM    3  C3  UNL     1     -32.108   6.886   2.866  1.00 20.00     0.122 A 
ENDROOT
BRANCH   2   4
HETATM    4  C4  UNL     1     -34.441   6.392   4.006  1.00 20.00     0.008 C 
BRANCH   4   5
HETATM    5  C5  UNL     1     -34.871   5.074   4.647  1.00 20.00     0.015 C 
BRANCH   5   6
HETATM    6  C6  UNL     1     -34.677   5.111   6.158  1.00 20.00     0.114 C 
HETATM    7 CL8  UNL     1     -33.960   6.661   6.655  1.00 20.00    -0.130 Cl
ENDBRANCH   5   6
ENDBRANCH   4   5
ENDBRANCH   2   4
BRANCH   3   8
HETATM    8  O7  UNL     1     -31.800   7.743   3.976  1.00 20.00    -0.395 OA
HETATM    9  H19 UNL     1     -32.625   7.849   4.467  1.00 20.00     0.210 HD
ENDBRANCH   3   8
TORSDOF 4
ENDMDL
MODEL 6
REMARK VINA RESULT:      -3.8      1.528      1.877
REMARK  4 active torsions:
REMARK  status: ('A' for Active; 'I' for Inactive)
REMARK    1  A    between atoms: C2_2  and  C4_4 
REMARK    2  A    between atoms: C3_3  and  O7_7 
REMARK    3  A    between atoms: C4_4  and  C5_5 
REMARK    4  A    between atoms: C5_5  and  C6_6 
ROOT
HETATM    1  C1  UNL     1     -35.075   5.445   3.794  1.00 20.00     0.039 A 
HETATM    2  C2  UNL     1     -33.634   5.843   3.627  1.00 20.00     0.017 A 
HETATM    3  C3  UNL     1     -34.122   5.317   4.952  1.00 20.00     0.122 A 
ENDROOT
BRANCH   2   4
HETATM    4  C4  UNL     1     -33.261   7.305   3.437  1.00 20.00     0.008 C 
BRANCH   4   5
HETATM    5  C5  UNL     1     -31.880   7.452   2.800  1.00 20.00     0.015 C 
BRANCH   5   6
HETATM    6  C6  UNL     1     -31.955   8.257   1.509  1.00 20.00     0.114 C 
HETATM    7 CL8  UNL     1     -32.597   9.885   1.828  1.00 20.00    -0.130 Cl
ENDBRANCH   5   6
ENDBRANCH   4   5
ENDBRANCH   2   4
BRANCH   3   8
HETATM    8  O7  UNL     1     -34.294   6.266   6.017  1.00 20.00    -0.395 OA
HETATM    9  H19 UNL     1     -34.727   5.785   6.733  1.00 20.00     0.210 HD
ENDBRANCH   3   8
TORSDOF 4
ENDMDL
MODEL 7
REMARK VINA RESULT:      -3.8      3.216      4.336
REMARK  4 active torsions:
REMARK  status: ('A' for Active; 'I' for Inactive)
REMARK    1  A    between atoms: C2_2  and  C4_4 
REMARK    2  A    between atoms: C3_3  and  O7_7 
REMARK    3  A    between atoms: C4_4  and  C5_5 
REMARK    4  A    between atoms: C5_5  and  C6_6 
ROOT
HETATM    1  C1  UNL     1     -32.644   5.726   3.075  1.00 20.00     0.039 A 
HETATM    2  C2  UNL     1     -33.505   6.595   3.950  1.00 20.00     0.017 A 
HETATM    3  C3  UNL     1     -32.512   7.223   3.008  1.00 20.00     0.122 A 
ENDROOT
BRANCH   2   4
HETATM    4  C4  UNL     1     -33.297   6.609   5.456  1.00 20.00     0.008 C 
BRANCH   4   5
HETATM    5  C5  UNL     1     -34.500   6.024   6.194  1.00 20.00     0.015 C 
BRANCH   5   6
HETATM    6  C6  UNL     1     -34.435   4.503   6.228  1.00 20.00     0.114 C 
HETATM    7 CL8  UNL     1     -35.235   3.815   4.795  1.00 20.00    -0.130 Cl
ENDBRANCH   5   6
ENDBRANCH   4   5
ENDBRANCH   2   4
BRANCH   3   8
HETATM    8  O7  UNL     1     -31.316   7.775   3.581  1.00 20.00    -0.395 OA
HETATM    9  H19 UNL     1     -31.159   7.282   4.396  1.00 20.00     0.210 HD
ENDBRANCH   3   8
TORSDOF 4
ENDMDL
MODEL 8
REMARK VINA RESULT:      -3.6     11.940     12.734
REMARK  4 active torsions:
REMARK  status: ('A' for Active; 'I' for Inactive)
REMARK    1  A    between atoms: C2_2  and  C4_4 
REMARK    2  A    between atoms: C3_3  and  O7_7 
REMARK    3  A    between atoms: C4_4  and  C5_5 
REMARK    4  A    between atoms: C5_5  and  C6_6 
ROOT
HETATM    1  C1  UNL     1     -34.114  15.326  -3.019  1.00 20.00     0.039 A 
HETATM    2  C2  UNL     1     -33.828  14.012  -3.694  1.00 20.00     0.017 A 
HETATM    3  C3  UNL     1     -32.760  15.073  -3.624  1.00 20.00     0.122 A 
ENDROOT
BRANCH   2   4
HETATM    4  C4  UNL     1     -34.517  13.659  -5.003  1.00 20.00     0.008 C 
BRANCH   4   5
HETATM    5  C5  UNL     1     -35.865  14.365  -5.135  1.00 20.00     0.015 C 
BRANCH   5   6
HETATM    6  C6  UNL     1     -35.968  15.107  -6.461  1.00 20.00     0.114 C 
HETATM    7 CL8  UNL     1     -34.489  14.872  -7.421  1.00 20.00    -0.130 Cl
ENDBRANCH   5   6
ENDBRANCH   4   5
ENDBRANCH   2   4
BRANCH   3   8
HETATM    8  O7  UNL     1     -32.465  15.794  -4.831  1.00 20.00    -0.395 OA
HETATM    9  H19 UNL     1     -31.755  16.409  -4.605  1.00 20.00     0.210 HD
ENDBRANCH   3   8
TORSDOF 4
ENDMDL
MODEL 9
REMARK VINA RESULT:      -3.6     11.843     12.557
REMARK  4 active torsions:
REMARK  status: ('A' for Active; 'I' for Inactive)
REMARK    1  A    between atoms: C2_2  and  C4_4 
REMARK    2  A    between atoms: C3_3  and  O7_7 
REMARK    3  A    between atoms: C4_4  and  C5_5 
REMARK    4  A    between atoms: C5_5  and  C6_6 
ROOT
HETATM    1  C1  UNL     1     -33.693  14.169  -3.551  1.00 20.00     0.039 A 
HETATM    2  C2  UNL     1     -34.414  15.455  -3.254  1.00 20.00     0.017 A 
HETATM    3  C3  UNL     1     -33.810  15.226  -4.615  1.00 20.00     0.122 A 
ENDROOT
BRANCH   2   4
HETATM    4  C4  UNL     1     -33.821  16.456  -2.275  1.00 20.00     0.008 C 
BRANCH   4   5
HETATM    5  C5  UNL     1     -34.635  16.528  -0.984  1.00 20.00     0.015 C 
BRANCH   5   6
HETATM    6  C6  UNL     1     -34.510  17.899  -0.333  1.00 20.00     0.114 C 
HETATM    7 CL8  UNL     1     -32.799  18.313  -0.079  1.00 20.00    -0.130 Cl
ENDBRANCH   5   6
ENDBRANCH   4   5
ENDBRANCH   2   4
BRANCH   3   8
HETATM    8  O7  UNL     1     -32.603  15.938  -4.930  1.00 20.00    -0.395 OA
HETATM    9  H19 UNL     1     -32.733  16.838  -4.605  1.00 20.00     0.210 HD
ENDBRANCH   3   8
TORSDOF 4
ENDMDL
