MODEL 1
REMARK VINA RESULT:      -4.3      0.000      0.000
REMARK  2 active torsions:
REMARK  status: ('A' for Active; 'I' for Inactive)
REMARK    1  A    between atoms: C2_2  and  C6_6 
REMARK    2  A    between atoms: C3_3  and  O7_7 
ROOT
HETATM    1  C1  UNL     1     -34.136   6.438   5.467  1.00 20.00     0.045 A 
HETATM    2  C2  UNL     1     -33.363   5.667   4.429  1.00 20.00     0.022 A 
HETATM    3  C3  UNL     1     -34.742   5.207   4.841  1.00 20.00     0.058 A 
HETATM    4  C4  UNL     1     -34.900   3.964   5.650  1.00 20.00     0.046 C 
ENDROOT
BRANCH   3   5
HETATM    5  O7  UNL     1     -35.819   5.439   3.917  1.00 20.00    -0.390 OA
HETATM    6  H19 UNL     1     -36.627   5.419   4.446  1.00 20.00     0.210 HD
ENDBRANCH   3   5
BRANCH   2   7
HETATM    7  C6  UNL     1     -33.109   6.265   3.088  1.00 20.00     0.003 C 
HETATM    8  C5  UNL     1     -32.009   7.295   3.101  1.00 20.00     0.005 C 
ENDBRANCH   2   7
TORSDOF 2
ENDMDL
MODEL 2
REMARK VINA RESULT:      -3.8      1.728      3.458
REMARK  2 active torsions:
REMARK  status: ('A' for Active; 'I' for Inactive)
REMARK    1  A    between atoms: C2_2  and  C6_6 
REMARK    2  A    between atoms: C3_3  and  O7_7 
ROOT
HETATM    1  C1  UNL     1     -33.060   6.775   4.807  1.00 20.00     0.045 A 
HETATM    2  C2  UNL     1     -34.143   6.491   3.799  1.00 20.00     0.022 A 
HETATM    3  C3  UNL     1     -32.704   6.602   3.352  1.00 20.00     0.058 A 
HETATM    4  C4  UNL     1     -32.263   7.780   2.549  1.00 20.00     0.046 C 
ENDROOT
BRANCH   3   5
HETATM    5  O7  UNL     1     -32.021   5.383   3.014  1.00 20.00    -0.390 OA
HETATM    6  H19 UNL     1     -32.359   5.124   2.147  1.00 20.00     0.210 HD
ENDBRANCH   3   5
BRANCH   2   7
HETATM    7  C6  UNL     1     -34.854   5.183   3.815  1.00 20.00     0.003 C 
HETATM    8  C5  UNL     1     -35.082   4.654   5.208  1.00 20.00     0.005 C 
ENDBRANCH   2   7
TORSDOF 2
ENDMDL
MODEL 3
REMARK VINA RESULT:      -3.7     11.792     12.551
REMARK  2 active torsions:
REMARK  status: ('A' for Active; 'I' for Inactive)
REMARK    1  A    between atoms: C2_2  and  C6_6 
REMARK    2  A    between atoms: C3_3  and  O7_7 
ROOT
HETATM    1  C1  UNL     1     -34.403  15.969  -4.473  1.00 20.00     0.045 A 
HETATM    2  C2  UNL     1     -34.522  15.675  -3.000  1.00 20.00     0.022 A 
HETATM    3  C3  UNL     1     -33.741  14.743  -3.896  1.00 20.00     0.058 A 
HETATM    4  C4  UNL     1     -34.281  13.389  -4.212  1.00 20.00     0.046 C 
ENDROOT
BRANCH   3   5
HETATM    5  O7  UNL     1     -32.307  14.789  -3.807  1.00 20.00    -0.390 OA
HETATM    6  H19 UNL     1     -32.083  14.385  -2.959  1.00 20.00     0.210 HD
ENDBRANCH   3   5
BRANCH   2   7
HETATM    7  C6  UNL     1     -33.842  16.552  -2.006  1.00 20.00     0.003 C 
HETATM    8  C5  UNL     1     -34.616  16.697  -0.721  1.00 20.00     0.005 C 
ENDBRANCH   2   7
TORSDOF 2
ENDMDL
MODEL 4
REMARK VINA RESULT:      -3.7      1.526      2.674
REMARK  2 active torsions:
REMARK  status: ('A' for Active; 'I' for Inactive)
REMARK    1  A    between atoms: C2_2  and  C6_6 
REMARK    2  A    between atoms: C3_3  and  O7_7 
ROOT
HETATM    1  C1  UNL     1     -34.880   3.909   4.800  1.00 20.00     0.045 A 
HETATM    2  C2  UNL     1     -34.112   5.132   5.230  1.00 20.00     0.022 A 
HETATM    3  C3  UNL     1     -34.862   5.133   3.918  1.00 20.00     0.058 A 
HETATM    4  C4  UNL     1     -34.109   5.109   2.631  1.00 20.00     0.046 C 
ENDROOT
BRANCH   3   5
HETATM    5  O7  UNL     1     -36.088   5.880   3.859  1.00 20.00    -0.390 OA
HETATM    6  H19 UNL     1     -36.798   5.225   3.881  1.00 20.00     0.210 HD
ENDBRANCH   3   5
BRANCH   2   7
HETATM    7  C6  UNL     1     -34.578   5.936   6.394  1.00 20.00     0.003 C 
HETATM    8  C5  UNL     1     -33.674   7.103   6.704  1.00 20.00     0.005 C 
ENDBRANCH   2   7
TORSDOF 2
ENDMDL
MODEL 5
REMARK VINA RESULT:      -3.6     11.606     12.168
REMARK  2 active torsions:
REMARK  status: ('A' for Active; 'I' for Inactive)
REMARK    1  A    between atoms: C2_2  and  C6_6 
REMARK    2  A    between atoms: C3_3  and  O7_7 
ROOT
HETATM    1  C1  UNL     1     -33.334  13.978  -3.842  1.00 20.00     0.045 A 
HETATM    2  C2  UNL     1     -34.411  15.025  -3.725  1.00 20.00     0.022 A 
HETATM    3  C3  UNL     1     -34.656  13.778  -4.540  1.00 20.00     0.058 A 
HETATM    4  C4  UNL     1     -34.731  13.865  -6.028  1.00 20.00     0.046 C 
ENDROOT
BRANCH   3   5
HETATM    5  O7  UNL     1     -35.518  12.777  -3.974  1.00 20.00    -0.390 OA
HETATM    6  H19 UNL     1     -35.046  11.939  -4.068  1.00 20.00     0.210 HD
ENDBRANCH   3   5
BRANCH   2   7
HETATM    7  C6  UNL     1     -35.096  15.250  -2.421  1.00 20.00     0.003 C 
HETATM    8  C5  UNL     1     -34.459  16.343  -1.601  1.00 20.00     0.005 C 
ENDBRANCH   2   7
TORSDOF 2
ENDMDL
MODEL 6
REMARK VINA RESULT:      -3.6      1.800      2.505
REMARK  2 active torsions:
REMARK  status: ('A' for Active; 'I' for Inactive)
REMARK    1  A    between atoms: C2_2  and  C6_6 
REMARK    2  A    between atoms: C3_3  and  O7_7 
ROOT
HETATM    1  C1  UNL     1     -32.223   5.515   3.182  1.00 20.00     0.045 A 
HETATM    2  C2  UNL     1     -32.811   6.760   2.572  1.00 20.00     0.022 A 
HETATM    3  C3  UNL     1     -33.455   6.138   3.789  1.00 20.00     0.058 A 
HETATM    4  C4  UNL     1     -34.774   5.452   3.663  1.00 20.00     0.046 C 
ENDROOT
BRANCH   3   5
HETATM    5  O7  UNL     1     -33.265   6.802   5.050  1.00 20.00    -0.390 OA
HETATM    6  H19 UNL     1     -34.131   7.153   5.295  1.00 20.00     0.210 HD
ENDBRANCH   3   5
BRANCH   2   7
HETATM    7  C6  UNL     1     -32.074   8.053   2.657  1.00 20.00     0.003 C 
HETATM    8  C5  UNL     1     -32.014   8.784   1.340  1.00 20.00     0.005 C 
ENDBRANCH   2   7
TORSDOF 2
ENDMDL
MODEL 7
REMARK VINA RESULT:      -3.5     11.357     12.831
REMARK  2 active torsions:
REMARK  status: ('A' for Active; 'I' for Inactive)
REMARK    1  A    between atoms: C2_2  and  C6_6 
REMARK    2  A    between atoms: C3_3  and  O7_7 
ROOT
HETATM    1  C1  UNL     1     -35.258  15.063  -3.992  1.00 20.00     0.045 A 
HETATM    2  C2  UNL     1     -34.657  14.784  -5.345  1.00 20.00     0.022 A 
HETATM    3  C3  UNL     1     -34.427  13.823  -4.203  1.00 20.00     0.058 A 
HETATM    4  C4  UNL     1     -33.076  13.720  -3.578  1.00 20.00     0.046 C 
ENDROOT
BRANCH   3   5
HETATM    5  O7  UNL     1     -35.150  12.581  -4.229  1.00 20.00    -0.390 OA
HETATM    6  H19 UNL     1     -35.908  12.730  -4.808  1.00 20.00     0.210 HD
ENDBRANCH   3   5
BRANCH   2   7
HETATM    7  C6  UNL     1     -35.536  14.431  -6.495  1.00 20.00     0.003 C 
HETATM    8  C5  UNL     1     -34.957  14.839  -7.826  1.00 20.00     0.005 C 
ENDBRANCH   2   7
TORSDOF 2
ENDMDL
MODEL 8
REMARK VINA RESULT:      -3.5     12.200     13.364
REMARK  2 active torsions:
REMARK  status: ('A' for Active; 'I' for Inactive)
REMARK    1  A    between atoms: C2_2  and  C6_6 
REMARK    2  A    between atoms: C3_3  and  O7_7 
ROOT
HETATM    1  C1  UNL     1     -33.964  13.718  -4.328  1.00 20.00     0.045 A 
HETATM    2  C2  UNL     1     -34.634  14.811  -5.120  1.00 20.00     0.022 A 
HETATM    3  C3  UNL     1     -33.586  15.158  -4.089  1.00 20.00     0.058 A 
HETATM    4  C4  UNL     1     -33.986  15.830  -2.818  1.00 20.00     0.046 C 
ENDROOT
BRANCH   3   5
HETATM    5  O7  UNL     1     -32.291  15.553  -4.571  1.00 20.00    -0.390 OA
HETATM    6  H19 UNL     1     -32.052  14.905  -5.247  1.00 20.00     0.210 HD
ENDBRANCH   3   5
BRANCH   2   7
HETATM    7  C6  UNL     1     -34.367  14.948  -6.579  1.00 20.00     0.003 C 
HETATM    8  C5  UNL     1     -35.496  14.434  -7.435  1.00 20.00     0.005 C 
ENDBRANCH   2   7
TORSDOF 2
ENDMDL
MODEL 9
REMARK VINA RESULT:      -3.5     11.837     13.176
REMARK  2 active torsions:
REMARK  status: ('A' for Active; 'I' for Inactive)
REMARK    1  A    between atoms: C2_2  and  C6_6 
REMARK    2  A    between atoms: C3_3  and  O7_7 
ROOT
HETATM    1  C1  UNL     1     -33.685  16.197  -2.660  1.00 20.00     0.045 A 
HETATM    2  C2  UNL     1     -34.482  15.327  -3.597  1.00 20.00     0.022 A 
HETATM    3  C3  UNL     1     -33.398  16.228  -4.140  1.00 20.00     0.058 A 
HETATM    4  C4  UNL     1     -33.764  17.432  -4.942  1.00 20.00     0.046 C 
ENDROOT
BRANCH   3   5
HETATM    5  O7  UNL     1     -32.169  15.608  -4.553  1.00 20.00    -0.390 OA
HETATM    6  H19 UNL     1     -31.480  15.990  -3.993  1.00 20.00     0.210 HD
ENDBRANCH   3   5
BRANCH   2   7
HETATM    7  C6  UNL     1     -34.320  13.847  -3.562  1.00 20.00     0.003 C 
HETATM    8  C5  UNL     1     -34.987  13.154  -4.723  1.00 20.00     0.005 C 
ENDBRANCH   2   7
TORSDOF 2
ENDMDL
