MODEL 1
REMARK VINA RESULT:      -4.6      0.000      0.000
REMARK  3 active torsions:
REMARK  status: ('A' for Active; 'I' for Inactive)
REMARK    1  A    between atoms: C6_6  and  C8_8 
REMARK    2  A    between atoms: C6_6  and  C9_9 
REMARK    3  A    between atoms: C9_9  and  O10_10 
ROOT
HETATM    1  C1  UNL     1     -34.970  16.433  -1.912  1.00 20.00     0.000 C 
HETATM    2  C2  UNL     1     -36.091  16.261  -2.932  1.00 20.00     0.001 C 
HETATM    3  C3  UNL     1     -33.593  16.289  -2.550  1.00 20.00     0.001 C 
HETATM    4  C4  UNL     1     -35.962  14.945  -3.696  1.00 20.00     0.011 C 
HETATM    5  C5  UNL     1     -33.460  14.972  -3.315  1.00 20.00     0.011 C 
HETATM    6  C6  UNL     1     -34.578  14.752  -4.359  1.00 20.00    -0.019 C 
ENDROOT
BRANCH   6   7
HETATM    7  C8  UNL     1     -34.407  15.719  -5.547  1.00 20.00     0.007 C 
HETATM    8  C7  UNL     1     -34.499  14.998  -6.846  1.00 20.00     0.006 C 
ENDBRANCH   6   7
BRANCH   6   9
HETATM    9  C9  UNL     1     -34.479  13.313  -4.903  1.00 20.00     0.173 C 
BRANCH   9  10
HETATM   10  O10 UNL     1     -35.341  12.499  -4.138  1.00 20.00    -0.400 OA
HETATM   11  H28 UNL     1     -34.869  11.666  -3.957  1.00 20.00     0.209 HD
ENDBRANCH   9  10
ENDBRANCH   6   9
TORSDOF 3
ENDMDL
MODEL 2
REMARK VINA RESULT:      -4.4      2.219      3.684
REMARK  3 active torsions:
REMARK  status: ('A' for Active; 'I' for Inactive)
REMARK    1  A    between atoms: C6_6  and  C8_8 
REMARK    2  A    between atoms: C6_6  and  C9_9 
REMARK    3  A    between atoms: C9_9  and  O10_10 
ROOT
HETATM    1  C1  UNL     1     -34.627  13.354  -4.541  1.00 20.00     0.000 C 
HETATM    2  C2  UNL     1     -35.849  14.184  -4.162  1.00 20.00     0.001 C 
HETATM    3  C3  UNL     1     -33.402  13.735  -3.716  1.00 20.00     0.001 C 
HETATM    4  C4  UNL     1     -35.562  15.682  -4.244  1.00 20.00     0.011 C 
HETATM    5  C5  UNL     1     -33.112  15.234  -3.796  1.00 20.00     0.011 C 
HETATM    6  C6  UNL     1     -34.325  16.116  -3.424  1.00 20.00    -0.019 C 
ENDROOT
BRANCH   6   7
HETATM    7  C8  UNL     1     -34.617  16.025  -1.914  1.00 20.00     0.007 C 
HETATM    8  C7  UNL     1     -33.937  17.120  -1.167  1.00 20.00     0.006 C 
ENDBRANCH   6   7
BRANCH   6   9
HETATM    9  C9  UNL     1     -33.996  17.585  -3.755  1.00 20.00     0.173 C 
BRANCH   9  10
HETATM   10  O10 UNL     1     -33.314  17.612  -4.989  1.00 20.00    -0.400 OA
HETATM   11  H28 UNL     1     -32.718  16.841  -5.009  1.00 20.00     0.209 HD
ENDBRANCH   9  10
ENDBRANCH   6   9
TORSDOF 3
ENDMDL
MODEL 3
REMARK VINA RESULT:      -4.3      1.186      3.220
REMARK  3 active torsions:
REMARK  status: ('A' for Active; 'I' for Inactive)
REMARK    1  A    between atoms: C6_6  and  C8_8 
REMARK    2  A    between atoms: C6_6  and  C9_9 
REMARK    3  A    between atoms: C9_9  and  O10_10 
ROOT
HETATM    1  C1  UNL     1     -34.227  16.877  -6.521  1.00 20.00     0.000 C 
HETATM    2  C2  UNL     1     -33.494  17.142  -5.210  1.00 20.00     0.001 C 
HETATM    3  C3  UNL     1     -35.512  16.085  -6.304  1.00 20.00     0.001 C 
HETATM    4  C4  UNL     1     -33.233  15.850  -4.438  1.00 20.00     0.011 C 
HETATM    5  C5  UNL     1     -35.254  14.791  -5.532  1.00 20.00     0.011 C 
HETATM    6  C6  UNL     1     -34.509  15.010  -4.196  1.00 20.00    -0.019 C 
ENDROOT
BRANCH   6   7
HETATM    7  C8  UNL     1     -35.427  15.704  -3.171  1.00 20.00     0.007 C 
HETATM    8  C7  UNL     1     -34.686  16.038  -1.924  1.00 20.00     0.006 C 
ENDBRANCH   6   7
BRANCH   6   9
HETATM    9  C9  UNL     1     -34.104  13.641  -3.618  1.00 20.00     0.173 C 
BRANCH   9  10
HETATM   10  O10 UNL     1     -35.040  12.685  -4.066  1.00 20.00    -0.400 OA
HETATM   11  H28 UNL     1     -35.271  12.912  -4.984  1.00 20.00     0.209 HD
ENDBRANCH   9  10
ENDBRANCH   6   9
TORSDOF 3
ENDMDL
MODEL 4
REMARK VINA RESULT:      -4.2     11.915     12.958
REMARK  3 active torsions:
REMARK  status: ('A' for Active; 'I' for Inactive)
REMARK    1  A    between atoms: C6_6  and  C8_8 
REMARK    2  A    between atoms: C6_6  and  C9_9 
REMARK    3  A    between atoms: C9_9  and  O10_10 
ROOT
HETATM    1  C1  UNL     1     -41.228   7.208  -0.888  1.00 20.00     0.000 C 
HETATM    2  C2  UNL     1     -41.726   6.800  -2.271  1.00 20.00     0.001 C 
HETATM    3  C3  UNL     1     -40.672   6.021  -0.110  1.00 20.00     0.001 C 
HETATM    4  C4  UNL     1     -42.736   5.657  -2.193  1.00 20.00     0.011 C 
HETATM    5  C5  UNL     1     -41.681   4.875  -0.029  1.00 20.00     0.011 C 
HETATM    6  C6  UNL     1     -42.217   4.430  -1.409  1.00 20.00    -0.019 C 
ENDROOT
BRANCH   6   7
HETATM    7  C8  UNL     1     -41.117   3.703  -2.208  1.00 20.00     0.007 C 
HETATM    8  C7  UNL     1     -41.696   2.647  -3.083  1.00 20.00     0.006 C 
ENDBRANCH   6   7
BRANCH   6   9
HETATM    9  C9  UNL     1     -43.380   3.441  -1.199  1.00 20.00     0.173 C 
BRANCH   9  10
HETATM   10  O10 UNL     1     -43.271   2.910   0.104  1.00 20.00    -0.400 OA
HETATM   11  H28 UNL     1     -43.734   3.519   0.706  1.00 20.00     0.209 HD
ENDBRANCH   9  10
ENDBRANCH   6   9
TORSDOF 3
ENDMDL
MODEL 5
REMARK VINA RESULT:      -4.2      1.767      2.437
REMARK  3 active torsions:
REMARK  status: ('A' for Active; 'I' for Inactive)
REMARK    1  A    between atoms: C6_6  and  C8_8 
REMARK    2  A    between atoms: C6_6  and  C9_9 
REMARK    3  A    between atoms: C9_9  and  O10_10 
ROOT
HETATM    1  C1  UNL     1     -32.860  15.064  -3.602  1.00 20.00     0.000 C 
HETATM    2  C2  UNL     1     -33.285  16.061  -4.675  1.00 20.00     0.001 C 
HETATM    3  C3  UNL     1     -33.478  13.689  -3.827  1.00 20.00     0.001 C 
HETATM    4  C4  UNL     1     -34.805  16.144  -4.799  1.00 20.00     0.011 C 
HETATM    5  C5  UNL     1     -35.000  13.767  -3.950  1.00 20.00     0.011 C 
HETATM    6  C6  UNL     1     -35.479  14.770  -5.024  1.00 20.00    -0.019 C 
ENDROOT
BRANCH   6   7
HETATM    7  C8  UNL     1     -35.166  14.239  -6.437  1.00 20.00     0.007 C 
HETATM    8  C7  UNL     1     -35.518  15.243  -7.479  1.00 20.00     0.006 C 
ENDBRANCH   6   7
BRANCH   6   9
HETATM    9  C9  UNL     1     -37.006  14.936  -4.909  1.00 20.00     0.173 C 
BRANCH   9  10
HETATM   10  O10 UNL     1     -37.449  14.152  -3.824  1.00 20.00    -0.400 OA
HETATM   11  H28 UNL     1     -36.712  14.088  -3.190  1.00 20.00     0.209 HD
ENDBRANCH   9  10
ENDBRANCH   6   9
TORSDOF 3
ENDMDL
MODEL 6
REMARK VINA RESULT:      -4.2      1.970      3.379
REMARK  3 active torsions:
REMARK  status: ('A' for Active; 'I' for Inactive)
REMARK    1  A    between atoms: C6_6  and  C8_8 
REMARK    2  A    between atoms: C6_6  and  C9_9 
REMARK    3  A    between atoms: C9_9  and  O10_10 
ROOT
HETATM    1  C1  UNL     1     -37.031  15.593  -5.021  1.00 20.00     0.000 C 
HETATM    2  C2  UNL     1     -36.262  16.862  -4.668  1.00 20.00     0.001 C 
HETATM    3  C3  UNL     1     -36.756  14.467  -4.030  1.00 20.00     0.001 C 
HETATM    4  C4  UNL     1     -34.765  16.594  -4.524  1.00 20.00     0.011 C 
HETATM    5  C5  UNL     1     -35.259  14.196  -3.884  1.00 20.00     0.011 C 
HETATM    6  C6  UNL     1     -34.437  15.456  -3.530  1.00 20.00    -0.019 C 
ENDROOT
BRANCH   6   7
HETATM    7  C8  UNL     1     -34.726  15.901  -2.083  1.00 20.00     0.007 C 
HETATM    8  C7  UNL     1     -33.799  16.985  -1.658  1.00 20.00     0.006 C 
ENDBRANCH   6   7
BRANCH   6   9
HETATM    9  C9  UNL     1     -32.937  15.120  -3.630  1.00 20.00     0.173 C 
BRANCH   9  10
HETATM   10  O10 UNL     1     -32.419  15.776  -4.766  1.00 20.00    -0.400 OA
HETATM   11  H28 UNL     1     -31.556  15.371  -4.969  1.00 20.00     0.209 HD
ENDBRANCH   9  10
ENDBRANCH   6   9
TORSDOF 3
ENDMDL
MODEL 7
REMARK VINA RESULT:      -4.2      1.108      1.417
REMARK  3 active torsions:
REMARK  status: ('A' for Active; 'I' for Inactive)
REMARK    1  A    between atoms: C6_6  and  C8_8 
REMARK    2  A    between atoms: C6_6  and  C9_9 
REMARK    3  A    between atoms: C9_9  and  O10_10 
ROOT
HETATM    1  C1  UNL     1     -33.711  17.113  -2.608  1.00 20.00     0.000 C 
HETATM    2  C2  UNL     1     -34.830  16.186  -2.146  1.00 20.00     0.001 C 
HETATM    3  C3  UNL     1     -33.687  17.264  -4.125  1.00 20.00     0.001 C 
HETATM    4  C4  UNL     1     -34.764  14.829  -2.843  1.00 20.00     0.011 C 
HETATM    5  C5  UNL     1     -33.620  15.908  -4.827  1.00 20.00     0.011 C 
HETATM    6  C6  UNL     1     -34.735  14.932  -4.386  1.00 20.00    -0.019 C 
ENDROOT
BRANCH   6   7
HETATM    7  C8  UNL     1     -36.103  15.395  -4.924  1.00 20.00     0.007 C 
HETATM    8  C7  UNL     1     -36.136  15.360  -6.412  1.00 20.00     0.006 C 
ENDBRANCH   6   7
BRANCH   6   9
HETATM    9  C9  UNL     1     -34.442  13.538  -4.975  1.00 20.00     0.173 C 
BRANCH   9  10
HETATM   10  O10 UNL     1     -35.162  12.587  -4.222  1.00 20.00    -0.400 OA
HETATM   11  H28 UNL     1     -35.388  11.852  -4.821  1.00 20.00     0.209 HD
ENDBRANCH   9  10
ENDBRANCH   6   9
TORSDOF 3
ENDMDL
MODEL 8
REMARK VINA RESULT:      -4.1      1.430      3.585
REMARK  3 active torsions:
REMARK  status: ('A' for Active; 'I' for Inactive)
REMARK    1  A    between atoms: C6_6  and  C8_8 
REMARK    2  A    between atoms: C6_6  and  C9_9 
REMARK    3  A    between atoms: C9_9  and  O10_10 
ROOT
HETATM    1  C1  UNL     1     -34.548  14.455  -6.361  1.00 20.00     0.000 C 
HETATM    2  C2  UNL     1     -34.804  13.513  -5.190  1.00 20.00     0.001 C 
HETATM    3  C3  UNL     1     -34.213  15.867  -5.892  1.00 20.00     0.001 C 
HETATM    4  C4  UNL     1     -35.876  14.060  -4.249  1.00 20.00     0.011 C 
HETATM    5  C5  UNL     1     -35.284  16.418  -4.952  1.00 20.00     0.011 C 
HETATM    6  C6  UNL     1     -35.582  15.494  -3.750  1.00 20.00    -0.019 C 
ENDROOT
BRANCH   6   7
HETATM    7  C8  UNL     1     -34.397  15.490  -2.763  1.00 20.00     0.007 C 
HETATM    8  C7  UNL     1     -34.693  16.321  -1.564  1.00 20.00     0.006 C 
ENDBRANCH   6   7
BRANCH   6   9
HETATM    9  C9  UNL     1     -36.818  16.027  -3.001  1.00 20.00     0.173 C 
BRANCH   9  10
HETATM   10  O10 UNL     1     -37.772  14.990  -2.942  1.00 20.00    -0.400 OA
HETATM   11  H28 UNL     1     -38.026  14.774  -3.857  1.00 20.00     0.209 HD
ENDBRANCH   9  10
ENDBRANCH   6   9
TORSDOF 3
ENDMDL
MODEL 9
REMARK VINA RESULT:      -4.1      1.235      3.351
REMARK  3 active torsions:
REMARK  status: ('A' for Active; 'I' for Inactive)
REMARK    1  A    between atoms: C6_6  and  C8_8 
REMARK    2  A    between atoms: C6_6  and  C9_9 
REMARK    3  A    between atoms: C9_9  and  O10_10 
ROOT
HETATM    1  C1  UNL     1     -35.105  16.426  -7.471  1.00 20.00     0.000 C 
HETATM    2  C2  UNL     1     -34.342  15.110  -7.368  1.00 20.00     0.001 C 
HETATM    3  C3  UNL     1     -35.222  17.123  -6.120  1.00 20.00     0.001 C 
HETATM    4  C4  UNL     1     -34.947  14.187  -6.312  1.00 20.00     0.011 C 
HETATM    5  C5  UNL     1     -35.828  16.203  -5.060  1.00 20.00     0.011 C 
HETATM    6  C6  UNL     1     -35.089  14.852  -4.923  1.00 20.00    -0.019 C 
ENDROOT
BRANCH   6   7
HETATM    7  C8  UNL     1     -33.705  15.057  -4.277  1.00 20.00     0.007 C 
HETATM    8  C7  UNL     1     -33.824  15.702  -2.941  1.00 20.00     0.006 C 
ENDBRANCH   6   7
BRANCH   6   9
HETATM    9  C9  UNL     1     -35.907  13.924  -4.005  1.00 20.00     0.173 C 
BRANCH   9  10
HETATM   10  O10 UNL     1     -35.386  12.619  -4.128  1.00 20.00    -0.400 OA
HETATM   11  H28 UNL     1     -34.606  12.561  -3.546  1.00 20.00     0.209 HD
ENDBRANCH   9  10
ENDBRANCH   6   9
TORSDOF 3
ENDMDL
