MODEL 1
REMARK VINA RESULT:      -5.3      0.000      0.000
REMARK  3 active torsions:
REMARK  status: ('A' for Active; 'I' for Inactive)
REMARK    1  A    between atoms: C1_1  and  C6_6 
REMARK    2  A    between atoms: C2_2  and  C7_7 
REMARK    3  A    between atoms: C3_3  and  C7_7 
ROOT
HETATM    1  C1  UNL     1     -34.511   5.430   3.766  1.00 20.00    -0.026 C 
HETATM    2  C2  UNL     1     -33.295   5.998   3.760  1.00 20.00    -0.020 C 
ENDROOT
BRANCH   2   3
HETATM    3  C7  UNL     1     -32.543   6.348   2.514  1.00 20.00     0.140 C 
BRANCH   3   4
HETATM    4  C3  UNL     1     -31.912   7.720   2.718  1.00 20.00     0.176 C 
HETATM    5  O8  UNL     1     -31.272   7.862   3.799  1.00 20.00    -0.648 OA
HETATM    6  O9  UNL     1     -32.119   8.551   1.789  1.00 20.00    -0.648 OA
ENDBRANCH   3   4
ENDBRANCH   2   3
BRANCH   1   7
HETATM    7  C6  UNL     1     -35.281   5.060   4.967  1.00 20.00     0.008 A 
HETATM    8  C4  UNL     1     -34.755   3.965   5.839  1.00 20.00     0.009 A 
HETATM    9  C5  UNL     1     -34.707   5.388   6.309  1.00 20.00     0.009 A 
ENDBRANCH   1   7
TORSDOF 3
ENDMDL
MODEL 2
REMARK VINA RESULT:      -5.0      2.744      4.588
REMARK  3 active torsions:
REMARK  status: ('A' for Active; 'I' for Inactive)
REMARK    1  A    between atoms: C1_1  and  C6_6 
REMARK    2  A    between atoms: C2_2  and  C7_7 
REMARK    3  A    between atoms: C3_3  and  C7_7 
ROOT
HETATM    1  C1  UNL     1     -33.094   5.793   3.289  1.00 20.00    -0.026 C 
HETATM    2  C2  UNL     1     -34.247   6.284   3.768  1.00 20.00    -0.020 C 
ENDROOT
BRANCH   2   3
HETATM    3  C7  UNL     1     -35.409   5.435   4.183  1.00 20.00     0.140 C 
BRANCH   3   4
HETATM    4  C3  UNL     1     -35.038   4.738   5.486  1.00 20.00     0.176 C 
HETATM    5  O8  UNL     1     -34.804   5.509   6.460  1.00 20.00    -0.648 OA
HETATM    6  O9  UNL     1     -34.994   3.477   5.429  1.00 20.00    -0.648 OA
ENDBRANCH   3   4
ENDBRANCH   2   3
BRANCH   1   7
HETATM    7  C6  UNL     1     -31.931   6.591   2.860  1.00 20.00     0.008 A 
HETATM    8  C4  UNL     1     -32.171   7.971   2.338  1.00 20.00     0.009 A 
HETATM    9  C5  UNL     1     -31.541   7.777   3.684  1.00 20.00     0.009 A 
ENDBRANCH   1   7
TORSDOF 3
ENDMDL
MODEL 3
REMARK VINA RESULT:      -4.9      2.502      4.822
REMARK  3 active torsions:
REMARK  status: ('A' for Active; 'I' for Inactive)
REMARK    1  A    between atoms: C1_1  and  C6_6 
REMARK    2  A    between atoms: C2_2  and  C7_7 
REMARK    3  A    between atoms: C3_3  and  C7_7 
ROOT
HETATM    1  C1  UNL     1     -32.659   6.782   2.884  1.00 20.00    -0.026 C 
HETATM    2  C2  UNL     1     -33.650   6.718   3.787  1.00 20.00    -0.020 C 
ENDROOT
BRANCH   2   3
HETATM    3  C7  UNL     1     -34.415   5.470   4.102  1.00 20.00     0.140 C 
BRANCH   3   4
HETATM    4  C3  UNL     1     -34.545   5.370   5.617  1.00 20.00     0.176 C 
HETATM    5  O8  UNL     1     -34.077   6.351   6.263  1.00 20.00    -0.648 OA
HETATM    6  O9  UNL     1     -35.091   4.312   6.041  1.00 20.00    -0.648 OA
ENDBRANCH   3   4
ENDBRANCH   2   3
BRANCH   1   7
HETATM    7  C6  UNL     1     -31.888   7.988   2.537  1.00 20.00     0.008 A 
HETATM    8  C4  UNL     1     -31.777   8.370   1.096  1.00 20.00     0.009 A 
HETATM    9  C5  UNL     1     -32.629   9.182   2.024  1.00 20.00     0.009 A 
ENDBRANCH   1   7
TORSDOF 3
ENDMDL
MODEL 4
REMARK VINA RESULT:      -4.8      1.175      1.431
REMARK  3 active torsions:
REMARK  status: ('A' for Active; 'I' for Inactive)
REMARK    1  A    between atoms: C1_1  and  C6_6 
REMARK    2  A    between atoms: C2_2  and  C7_7 
REMARK    3  A    between atoms: C3_3  and  C7_7 
ROOT
HETATM    1  C1  UNL     1     -33.405   5.922   4.093  1.00 20.00    -0.026 C 
HETATM    2  C2  UNL     1     -33.186   6.980   3.297  1.00 20.00    -0.020 C 
ENDROOT
BRANCH   2   3
HETATM    3  C7  UNL     1     -31.850   7.329   2.720  1.00 20.00     0.140 C 
BRANCH   3   4
HETATM    4  C3  UNL     1     -32.040   8.516   1.783  1.00 20.00     0.176 C 
HETATM    5  O8  UNL     1     -31.421   8.438   0.684  1.00 20.00    -0.648 OA
HETATM    6  O9  UNL     1     -32.781   9.438   2.227  1.00 20.00    -0.648 OA
ENDBRANCH   3   4
ENDBRANCH   2   3
BRANCH   1   7
HETATM    7  C6  UNL     1     -34.699   5.548   4.690  1.00 20.00     0.008 A 
HETATM    8  C4  UNL     1     -34.876   4.146   5.180  1.00 20.00     0.009 A 
HETATM    9  C5  UNL     1     -34.751   5.274   6.160  1.00 20.00     0.009 A 
ENDBRANCH   1   7
TORSDOF 3
ENDMDL
MODEL 5
REMARK VINA RESULT:      -4.8      1.139      1.254
REMARK  3 active torsions:
REMARK  status: ('A' for Active; 'I' for Inactive)
REMARK    1  A    between atoms: C1_1  and  C6_6 
REMARK    2  A    between atoms: C2_2  and  C7_7 
REMARK    3  A    between atoms: C3_3  and  C7_7 
ROOT
HETATM    1  C1  UNL     1     -33.541   5.765   3.853  1.00 20.00    -0.026 C 
HETATM    2  C2  UNL     1     -33.117   6.987   3.496  1.00 20.00    -0.020 C 
ENDROOT
BRANCH   2   3
HETATM    3  C7  UNL     1     -31.849   7.244   2.742  1.00 20.00     0.140 C 
BRANCH   3   4
HETATM    4  C3  UNL     1     -32.075   8.454   1.844  1.00 20.00     0.176 C 
HETATM    5  O8  UNL     1     -32.831   9.346   2.324  1.00 20.00    -0.648 OA
HETATM    6  O9  UNL     1     -31.491   8.409   0.724  1.00 20.00    -0.648 OA
ENDBRANCH   3   4
ENDBRANCH   2   3
BRANCH   1   7
HETATM    7  C6  UNL     1     -34.775   5.468   4.602  1.00 20.00     0.008 A 
HETATM    8  C4  UNL     1     -34.902   4.131   5.259  1.00 20.00     0.009 A 
HETATM    9  C5  UNL     1     -34.694   5.359   6.092  1.00 20.00     0.009 A 
ENDBRANCH   1   7
TORSDOF 3
ENDMDL
MODEL 6
REMARK VINA RESULT:      -4.6     10.932     11.781
REMARK  3 active torsions:
REMARK  status: ('A' for Active; 'I' for Inactive)
REMARK    1  A    between atoms: C1_1  and  C6_6 
REMARK    2  A    between atoms: C2_2  and  C7_7 
REMARK    3  A    between atoms: C3_3  and  C7_7 
ROOT
HETATM    1  C1  UNL     1     -34.803  15.896  -2.142  1.00 20.00    -0.026 C 
HETATM    2  C2  UNL     1     -33.862  15.619  -3.058  1.00 20.00    -0.020 C 
ENDROOT
BRANCH   2   3
HETATM    3  C7  UNL     1     -34.136  14.917  -4.352  1.00 20.00     0.140 C 
BRANCH   3   4
HETATM    4  C3  UNL     1     -34.013  13.418  -4.106  1.00 20.00     0.176 C 
HETATM    5  O8  UNL     1     -32.876  13.029  -3.713  1.00 20.00    -0.648 OA
HETATM    6  O9  UNL     1     -35.057  12.747  -4.341  1.00 20.00    -0.648 OA
ENDBRANCH   3   4
ENDBRANCH   2   3
BRANCH   1   7
HETATM    7  C6  UNL     1     -34.577  16.575  -0.854  1.00 20.00     0.008 A 
HETATM    8  C4  UNL     1     -33.614  17.718  -0.813  1.00 20.00     0.009 A 
HETATM    9  C5  UNL     1     -35.086  17.971  -0.688  1.00 20.00     0.009 A 
ENDBRANCH   1   7
TORSDOF 3
ENDMDL
MODEL 7
REMARK VINA RESULT:      -4.6     11.196     11.892
REMARK  3 active torsions:
REMARK  status: ('A' for Active; 'I' for Inactive)
REMARK    1  A    between atoms: C1_1  and  C6_6 
REMARK    2  A    between atoms: C2_2  and  C7_7 
REMARK    3  A    between atoms: C3_3  and  C7_7 
ROOT
HETATM    1  C1  UNL     1     -34.476  15.561  -2.347  1.00 20.00    -0.026 C 
HETATM    2  C2  UNL     1     -33.490  15.277  -3.211  1.00 20.00    -0.020 C 
ENDROOT
BRANCH   2   3
HETATM    3  C7  UNL     1     -33.241  13.914  -3.778  1.00 20.00     0.140 C 
BRANCH   3   4
HETATM    4  C3  UNL     1     -34.373  13.597  -4.748  1.00 20.00     0.176 C 
HETATM    5  O8  UNL     1     -34.428  14.339  -5.770  1.00 20.00    -0.648 OA
HETATM    6  O9  UNL     1     -35.125  12.642  -4.404  1.00 20.00    -0.648 OA
ENDBRANCH   3   4
ENDBRANCH   2   3
BRANCH   1   7
HETATM    7  C6  UNL     1     -34.750  16.884  -1.758  1.00 20.00     0.008 A 
HETATM    8  C4  UNL     1     -34.776  17.006  -0.268  1.00 20.00     0.009 A 
HETATM    9  C5  UNL     1     -33.638  17.590  -1.049  1.00 20.00     0.009 A 
ENDBRANCH   1   7
TORSDOF 3
ENDMDL
MODEL 8
REMARK VINA RESULT:      -4.2      2.661      4.953
REMARK  3 active torsions:
REMARK  status: ('A' for Active; 'I' for Inactive)
REMARK    1  A    between atoms: C1_1  and  C6_6 
REMARK    2  A    between atoms: C2_2  and  C7_7 
REMARK    3  A    between atoms: C3_3  and  C7_7 
ROOT
HETATM    1  C1  UNL     1     -32.237   6.990   2.690  1.00 20.00    -0.026 C 
HETATM    2  C2  UNL     1     -33.186   6.683   3.588  1.00 20.00    -0.020 C 
ENDROOT
BRANCH   2   3
HETATM    3  C7  UNL     1     -33.604   5.284   3.918  1.00 20.00     0.140 C 
BRANCH   3   4
HETATM    4  C3  UNL     1     -35.025   5.337   4.463  1.00 20.00     0.176 C 
HETATM    5  O8  UNL     1     -35.917   5.621   3.614  1.00 20.00    -0.648 OA
HETATM    6  O9  UNL     1     -35.136   5.105   5.701  1.00 20.00    -0.648 OA
ENDBRANCH   3   4
ENDBRANCH   2   3
BRANCH   1   7
HETATM    7  C6  UNL     1     -31.802   8.351   2.328  1.00 20.00     0.008 A 
HETATM    8  C4  UNL     1     -31.722   8.709   0.878  1.00 20.00     0.009 A 
HETATM    9  C5  UNL     1     -32.809   9.285   1.735  1.00 20.00     0.009 A 
ENDBRANCH   1   7
TORSDOF 3
ENDMDL
MODEL 9
REMARK VINA RESULT:      -3.7     12.102     12.605
REMARK  3 active torsions:
REMARK  status: ('A' for Active; 'I' for Inactive)
REMARK    1  A    between atoms: C1_1  and  C6_6 
REMARK    2  A    between atoms: C2_2  and  C7_7 
REMARK    3  A    between atoms: C3_3  and  C7_7 
ROOT
HETATM    1  C1  UNL     1     -34.773  15.924  -2.073  1.00 20.00    -0.026 C 
HETATM    2  C2  UNL     1     -33.765  15.590  -2.892  1.00 20.00    -0.020 C 
ENDROOT
BRANCH   2   3
HETATM    3  C7  UNL     1     -33.947  14.870  -4.192  1.00 20.00     0.140 C 
BRANCH   3   4
HETATM    4  C3  UNL     1     -33.823  15.893  -5.315  1.00 20.00     0.176 C 
HETATM    5  O8  UNL     1     -32.932  16.772  -5.145  1.00 20.00    -0.648 OA
HETATM    6  O9  UNL     1     -34.638  15.745  -6.270  1.00 20.00    -0.648 OA
ENDBRANCH   3   4
ENDBRANCH   2   3
BRANCH   1   7
HETATM    7  C6  UNL     1     -34.638  16.622  -0.782  1.00 20.00     0.008 A 
HETATM    8  C4  UNL     1     -33.643  17.732  -0.676  1.00 20.00     0.009 A 
HETATM    9  C5  UNL     1     -35.110  18.038  -0.688  1.00 20.00     0.009 A 
ENDBRANCH   1   7
TORSDOF 3
ENDMDL
