MODEL 1
REMARK VINA RESULT:      -4.6      0.000      0.000
REMARK  3 active torsions:
REMARK  status: ('A' for Active; 'I' for Inactive)
REMARK    1  A    between atoms: C4_4  and  C5_5 
REMARK    2  A    between atoms: C5_5  and  C6_6 
REMARK    3  A    between atoms: C6_6  and  N8_8 
ROOT
HETATM    1  C1  UNL     1     -32.115   8.022   2.203  1.00 20.00     0.177 C 
HETATM    2  N7  UNL     1     -32.127   8.920   1.469  1.00 20.00    -0.172 NA
HETATM    3  N8  UNL     1     -32.132   6.958   3.064  1.00 20.00    -0.329 N 
HETATM    4  H18 UNL     1     -31.428   6.967   3.837  1.00 20.00     0.171 HD
ENDROOT
BRANCH   3   5
HETATM    5  C6  UNL     1     -33.269   6.113   3.309  1.00 20.00     0.132 C 
BRANCH   5   6
HETATM    6  C5  UNL     1     -33.798   6.253   4.731  1.00 20.00     0.025 C 
BRANCH   6   7
HETATM    7  C4  UNL     1     -34.973   5.327   5.015  1.00 20.00    -0.013 A 
HETATM    8  C2  UNL     1     -34.755   3.846   5.150  1.00 20.00     0.005 A 
HETATM    9  C3  UNL     1     -35.107   4.667   6.360  1.00 20.00     0.005 A 
ENDBRANCH   6   7
ENDBRANCH   5   6
ENDBRANCH   3   5
TORSDOF 3
ENDMDL
MODEL 2
REMARK VINA RESULT:      -4.3      0.975      1.232
REMARK  3 active torsions:
REMARK  status: ('A' for Active; 'I' for Inactive)
REMARK    1  A    between atoms: C4_4  and  C5_5 
REMARK    2  A    between atoms: C5_5  and  C6_6 
REMARK    3  A    between atoms: C6_6  and  N8_8 
ROOT
HETATM    1  C1  UNL     1     -32.184   8.846   1.797  1.00 20.00     0.177 C 
HETATM    2  N7  UNL     1     -32.521   9.889   1.420  1.00 20.00    -0.172 NA
HETATM    3  N8  UNL     1     -31.801   7.620   2.269  1.00 20.00    -0.329 N 
HETATM    4  H18 UNL     1     -30.917   7.220   1.878  1.00 20.00     0.171 HD
ENDROOT
BRANCH   3   5
HETATM    5  C6  UNL     1     -32.191   7.065   3.537  1.00 20.00     0.132 C 
BRANCH   5   6
HETATM    6  C5  UNL     1     -33.190   5.924   3.388  1.00 20.00     0.025 C 
BRANCH   6   7
HETATM    7  C4  UNL     1     -34.350   6.026   4.368  1.00 20.00    -0.013 A 
HETATM    8  C2  UNL     1     -35.360   4.916   4.465  1.00 20.00     0.005 A 
HETATM    9  C3  UNL     1     -34.387   5.148   5.589  1.00 20.00     0.005 A 
ENDBRANCH   6   7
ENDBRANCH   5   6
ENDBRANCH   3   5
TORSDOF 3
ENDMDL
MODEL 3
REMARK VINA RESULT:      -4.1     11.322     12.182
REMARK  3 active torsions:
REMARK  status: ('A' for Active; 'I' for Inactive)
REMARK    1  A    between atoms: C4_4  and  C5_5 
REMARK    2  A    between atoms: C5_5  and  C6_6 
REMARK    3  A    between atoms: C6_6  and  N8_8 
ROOT
HETATM    1  C1  UNL     1     -34.005  13.637  -4.326  1.00 20.00     0.177 C 
HETATM    2  N7  UNL     1     -34.789  12.807  -4.527  1.00 20.00    -0.172 NA
HETATM    3  N8  UNL     1     -33.096  14.636  -4.106  1.00 20.00    -0.329 N 
HETATM    4  H18 UNL     1     -32.102  14.344  -3.958  1.00 20.00     0.171 HD
ENDROOT
BRANCH   3   5
HETATM    5  C6  UNL     1     -33.256  16.003  -4.522  1.00 20.00     0.132 C 
BRANCH   5   6
HETATM    6  C5  UNL     1     -34.051  16.826  -3.515  1.00 20.00     0.025 C 
BRANCH   6   7
HETATM    7  C4  UNL     1     -33.677  16.512  -2.073  1.00 20.00    -0.013 A 
HETATM    8  C2  UNL     1     -33.661  17.604  -1.040  1.00 20.00     0.005 A 
HETATM    9  C3  UNL     1     -34.725  16.543  -0.996  1.00 20.00     0.005 A 
ENDBRANCH   6   7
ENDBRANCH   5   6
ENDBRANCH   3   5
TORSDOF 3
ENDMDL
MODEL 4
REMARK VINA RESULT:      -4.0      2.716      4.732
REMARK  3 active torsions:
REMARK  status: ('A' for Active; 'I' for Inactive)
REMARK    1  A    between atoms: C4_4  and  C5_5 
REMARK    2  A    between atoms: C5_5  and  C6_6 
REMARK    3  A    between atoms: C6_6  and  N8_8 
ROOT
HETATM    1  C1  UNL     1     -35.104   4.650   5.673  1.00 20.00     0.177 C 
HETATM    2  N7  UNL     1     -34.731   4.542   6.765  1.00 20.00    -0.172 NA
HETATM    3  N8  UNL     1     -35.518   4.792   4.376  1.00 20.00    -0.329 N 
HETATM    4  H18 UNL     1     -36.551   4.817   4.212  1.00 20.00     0.171 HD
ENDROOT
BRANCH   3   5
HETATM    5  C6  UNL     1     -34.737   5.375   3.320  1.00 20.00     0.132 C 
BRANCH   5   6
HETATM    6  C5  UNL     1     -33.865   6.525   3.811  1.00 20.00     0.025 C 
BRANCH   6   7
HETATM    7  C4  UNL     1     -32.537   6.612   3.073  1.00 20.00    -0.013 A 
HETATM    8  C2  UNL     1     -32.165   7.864   2.328  1.00 20.00     0.005 A 
HETATM    9  C3  UNL     1     -31.439   7.500   3.593  1.00 20.00     0.005 A 
ENDBRANCH   6   7
ENDBRANCH   5   6
ENDBRANCH   3   5
TORSDOF 3
ENDMDL
MODEL 5
REMARK VINA RESULT:      -4.0      1.968      5.072
REMARK  3 active torsions:
REMARK  status: ('A' for Active; 'I' for Inactive)
REMARK    1  A    between atoms: C4_4  and  C5_5 
REMARK    2  A    between atoms: C5_5  and  C6_6 
REMARK    3  A    between atoms: C6_6  and  N8_8 
ROOT
HETATM    1  C1  UNL     1     -34.140   6.006   5.212  1.00 20.00     0.177 C 
HETATM    2  N7  UNL     1     -34.463   5.732   6.291  1.00 20.00    -0.172 NA
HETATM    3  N8  UNL     1     -33.729   6.324   3.946  1.00 20.00    -0.329 N 
HETATM    4  H18 UNL     1     -34.335   6.986   3.407  1.00 20.00     0.171 HD
ENDROOT
BRANCH   3   5
HETATM    5  C6  UNL     1     -32.373   6.246   3.474  1.00 20.00     0.132 C 
BRANCH   5   6
HETATM    6  C5  UNL     1     -31.807   7.614   3.111  1.00 20.00     0.025 C 
BRANCH   6   7
HETATM    7  C4  UNL     1     -32.476   8.221   1.886  1.00 20.00    -0.013 A 
HETATM    8  C2  UNL     1     -32.399   9.702   1.637  1.00 20.00     0.005 A 
HETATM    9  C3  UNL     1     -31.641   8.751   0.753  1.00 20.00     0.005 A 
ENDBRANCH   6   7
ENDBRANCH   5   6
ENDBRANCH   3   5
TORSDOF 3
ENDMDL
MODEL 6
REMARK VINA RESULT:      -3.9      2.942      4.567
REMARK  3 active torsions:
REMARK  status: ('A' for Active; 'I' for Inactive)
REMARK    1  A    between atoms: C4_4  and  C5_5 
REMARK    2  A    between atoms: C5_5  and  C6_6 
REMARK    3  A    between atoms: C6_6  and  N8_8 
ROOT
HETATM    1  C1  UNL     1     -34.875   4.356   5.676  1.00 20.00     0.177 C 
HETATM    2  N7  UNL     1     -35.106   3.491   4.939  1.00 20.00    -0.172 NA
HETATM    3  N8  UNL     1     -34.585   5.392   6.521  1.00 20.00    -0.329 N 
HETATM    4  H18 UNL     1     -34.542   5.168   7.543  1.00 20.00     0.171 HD
ENDROOT
BRANCH   3   5
HETATM    5  C6  UNL     1     -33.883   6.590   6.149  1.00 20.00     0.132 C 
BRANCH   5   6
HETATM    6  C5  UNL     1     -33.908   6.832   4.645  1.00 20.00     0.025 C 
BRANCH   6   7
HETATM    7  C4  UNL     1     -32.525   6.757   4.014  1.00 20.00    -0.013 A 
HETATM    8  C2  UNL     1     -32.291   5.900   2.800  1.00 20.00     0.005 A 
HETATM    9  C3  UNL     1     -32.266   7.399   2.679  1.00 20.00     0.005 A 
ENDBRANCH   6   7
ENDBRANCH   5   6
ENDBRANCH   3   5
TORSDOF 3
ENDMDL
MODEL 7
REMARK VINA RESULT:      -3.8     11.168     11.864
REMARK  3 active torsions:
REMARK  status: ('A' for Active; 'I' for Inactive)
REMARK    1  A    between atoms: C4_4  and  C5_5 
REMARK    2  A    between atoms: C5_5  and  C6_6 
REMARK    3  A    between atoms: C6_6  and  N8_8 
ROOT
HETATM    1  C1  UNL     1     -34.627  13.549  -4.069  1.00 20.00     0.177 C 
HETATM    2  N7  UNL     1     -34.632  12.676  -4.833  1.00 20.00    -0.172 NA
HETATM    3  N8  UNL     1     -34.650  14.587  -3.178  1.00 20.00    -0.329 N 
HETATM    4  H18 UNL     1     -33.724  14.973  -2.880  1.00 20.00     0.171 HD
ENDROOT
BRANCH   3   5
HETATM    5  C6  UNL     1     -35.753  15.489  -2.990  1.00 20.00     0.132 C 
BRANCH   5   6
HETATM    6  C5  UNL     1     -35.324  16.807  -2.356  1.00 20.00     0.025 C 
BRANCH   6   7
HETATM    7  C4  UNL     1     -34.498  16.610  -1.093  1.00 20.00    -0.013 A 
HETATM    8  C2  UNL     1     -33.677  17.742  -0.540  1.00 20.00     0.005 A 
HETATM    9  C3  UNL     1     -34.907  17.278   0.191  1.00 20.00     0.005 A 
ENDBRANCH   6   7
ENDBRANCH   5   6
ENDBRANCH   3   5
TORSDOF 3
ENDMDL
MODEL 8
REMARK VINA RESULT:      -3.8      2.802      4.246
REMARK  3 active torsions:
REMARK  status: ('A' for Active; 'I' for Inactive)
REMARK    1  A    between atoms: C4_4  and  C5_5 
REMARK    2  A    between atoms: C5_5  and  C6_6 
REMARK    3  A    between atoms: C6_6  and  N8_8 
ROOT
HETATM    1  C1  UNL     1     -34.366   6.061   6.386  1.00 20.00     0.177 C 
HETATM    2  N7  UNL     1     -33.848   6.932   6.952  1.00 20.00    -0.172 NA
HETATM    3  N8  UNL     1     -34.963   5.044   5.692  1.00 20.00    -0.329 N 
HETATM    4  H18 UNL     1     -35.878   4.697   6.060  1.00 20.00     0.171 HD
ENDROOT
BRANCH   3   5
HETATM    5  C6  UNL     1     -34.731   4.745   4.305  1.00 20.00     0.132 C 
BRANCH   5   6
HETATM    6  C5  UNL     1     -34.408   5.991   3.489  1.00 20.00     0.025 C 
BRANCH   6   7
HETATM    7  C4  UNL     1     -32.944   6.061   3.078  1.00 20.00    -0.013 A 
HETATM    8  C2  UNL     1     -32.421   7.263   2.341  1.00 20.00     0.005 A 
HETATM    9  C3  UNL     1     -32.010   7.017   3.767  1.00 20.00     0.005 A 
ENDBRANCH   6   7
ENDBRANCH   5   6
ENDBRANCH   3   5
TORSDOF 3
ENDMDL
MODEL 9
REMARK VINA RESULT:      -3.6     11.173     13.551
REMARK  3 active torsions:
REMARK  status: ('A' for Active; 'I' for Inactive)
REMARK    1  A    between atoms: C4_4  and  C5_5 
REMARK    2  A    between atoms: C5_5  and  C6_6 
REMARK    3  A    between atoms: C6_6  and  N8_8 
ROOT
HETATM    1  C1  UNL     1     -34.056  13.573  -4.180  1.00 20.00     0.177 C 
HETATM    2  N7  UNL     1     -34.907  12.789  -4.261  1.00 20.00    -0.172 NA
HETATM    3  N8  UNL     1     -33.073  14.521  -4.095  1.00 20.00    -0.329 N 
HETATM    4  H18 UNL     1     -32.088  14.188  -4.209  1.00 20.00     0.171 HD
ENDROOT
BRANCH   3   5
HETATM    5  C6  UNL     1     -33.256  15.925  -4.344  1.00 20.00     0.132 C 
BRANCH   5   6
HETATM    6  C5  UNL     1     -34.414  16.198  -5.296  1.00 20.00     0.025 C 
BRANCH   6   7
HETATM    7  C4  UNL     1     -34.054  15.935  -6.751  1.00 20.00    -0.013 A 
HETATM    8  C2  UNL     1     -34.812  14.908  -7.545  1.00 20.00     0.005 A 
HETATM    9  C3  UNL     1     -34.983  16.370  -7.851  1.00 20.00     0.005 A 
ENDBRANCH   6   7
ENDBRANCH   5   6
ENDBRANCH   3   5
TORSDOF 3
ENDMDL
