MODEL 1
REMARK VINA RESULT:      -5.2      0.000      0.000
REMARK  1 active torsions:
REMARK  status: ('A' for Active; 'I' for Inactive)
REMARK    1  A    between atoms: C1_1  and  C7_7 
ROOT
HETATM    1  C2  UNL     1     -33.399  18.115  -4.733  1.00 20.00     0.002 C 
HETATM    2  C3  UNL     1     -33.843  17.083  -3.707  1.00 20.00     0.010 C 
HETATM    3  C4  UNL     1     -34.386  18.224  -5.898  1.00 20.00     0.009 C 
HETATM    4  C5  UNL     1     -33.155  14.581  -3.716  1.00 20.00     0.026 A 
HETATM    5  C6  UNL     1     -34.110  15.685  -5.838  1.00 20.00     0.019 C 
HETATM    6  C7  UNL     1     -34.635  14.633  -3.456  1.00 20.00     0.096 A 
HETATM    7  C8  UNL     1     -33.972  15.702  -4.323  1.00 20.00    -0.025 A 
HETATM    8  C9  UNL     1     -34.954  16.861  -6.377  1.00 20.00    -0.047 C 
HETATM    9  C10 UNL     1     -36.423  16.713  -5.928  1.00 20.00     0.015 C 
HETATM   10  C11 UNL     1     -34.935  16.819  -7.918  1.00 20.00     0.015 C 
ENDROOT
BRANCH   6  11
HETATM   11  C1  UNL     1     -35.467  13.618  -4.070  1.00 20.00     0.177 C 
HETATM   12  O12 UNL     1     -34.841  12.666  -4.614  1.00 20.00    -0.648 OA
HETATM   13  O13 UNL     1     -36.710  13.823  -3.978  1.00 20.00    -0.648 OA
ENDBRANCH   6  11
TORSDOF 1
ENDMDL
MODEL 2
REMARK VINA RESULT:      -5.0      1.253      1.632
REMARK  1 active torsions:
REMARK  status: ('A' for Active; 'I' for Inactive)
REMARK    1  A    between atoms: C1_1  and  C7_7 
ROOT
HETATM    1  C2  UNL     1     -35.739  18.146  -4.736  1.00 20.00     0.002 C 
HETATM    2  C3  UNL     1     -35.681  17.041  -3.693  1.00 20.00     0.010 C 
HETATM    3  C4  UNL     1     -36.044  17.599  -6.133  1.00 20.00     0.009 C 
HETATM    4  C5  UNL     1     -33.533  15.766  -2.989  1.00 20.00     0.026 A 
HETATM    5  C6  UNL     1     -34.160  16.002  -5.476  1.00 20.00     0.019 C 
HETATM    6  C7  UNL     1     -34.614  14.740  -3.183  1.00 20.00     0.096 A 
HETATM    7  C8  UNL     1     -34.610  16.016  -4.022  1.00 20.00    -0.025 A 
HETATM    8  C9  UNL     1     -35.318  16.268  -6.464  1.00 20.00    -0.047 C 
HETATM    9  C10 UNL     1     -36.321  15.097  -6.438  1.00 20.00     0.015 C 
HETATM   10  C11 UNL     1     -34.740  16.349  -7.891  1.00 20.00     0.015 C 
ENDROOT
BRANCH   6  11
HETATM   11  C1  UNL     1     -34.247  13.475  -3.788  1.00 20.00     0.177 C 
HETATM   12  O12 UNL     1     -35.203  12.820  -4.287  1.00 20.00    -0.648 OA
HETATM   13  O13 UNL     1     -33.015  13.200  -3.735  1.00 20.00    -0.648 OA
ENDBRANCH   6  11
TORSDOF 1
ENDMDL
MODEL 3
REMARK VINA RESULT:      -5.0      1.264      1.747
REMARK  1 active torsions:
REMARK  status: ('A' for Active; 'I' for Inactive)
REMARK    1  A    between atoms: C1_1  and  C7_7 
ROOT
HETATM    1  C2  UNL     1     -33.672  17.865  -2.611  1.00 20.00     0.002 C 
HETATM    2  C3  UNL     1     -33.890  16.407  -2.237  1.00 20.00     0.010 C 
HETATM    3  C4  UNL     1     -34.798  18.403  -3.497  1.00 20.00     0.009 C 
HETATM    4  C5  UNL     1     -32.979  14.374  -3.568  1.00 20.00     0.026 A 
HETATM    5  C6  UNL     1     -34.282  16.245  -4.765  1.00 20.00     0.019 C 
HETATM    6  C7  UNL     1     -34.415  14.078  -3.234  1.00 20.00     0.096 A 
HETATM    7  C8  UNL     1     -33.963  15.519  -3.466  1.00 20.00    -0.025 A 
HETATM    8  C9  UNL     1     -35.291  17.400  -4.574  1.00 20.00    -0.047 C 
HETATM    9  C10 UNL     1     -36.674  16.840  -4.182  1.00 20.00     0.015 C 
HETATM   10  C11 UNL     1     -35.455  18.140  -5.917  1.00 20.00     0.015 C 
ENDROOT
BRANCH   6  11
HETATM   11  C1  UNL     1     -35.217  13.402  -4.234  1.00 20.00     0.177 C 
HETATM   12  O12 UNL     1     -36.458  13.619  -4.164  1.00 20.00    -0.648 OA
HETATM   13  O13 UNL     1     -34.563  12.685  -5.042  1.00 20.00    -0.648 OA
ENDBRANCH   6  11
TORSDOF 1
ENDMDL
MODEL 4
REMARK VINA RESULT:      -4.9      2.562      3.710
REMARK  1 active torsions:
REMARK  status: ('A' for Active; 'I' for Inactive)
REMARK    1  A    between atoms: C1_1  and  C7_7 
ROOT
HETATM    1  C2  UNL     1     -34.483  13.278  -4.186  1.00 20.00     0.002 C 
HETATM    2  C3  UNL     1     -33.689  14.350  -3.456  1.00 20.00     0.010 C 
HETATM    3  C4  UNL     1     -34.938  13.746  -5.570  1.00 20.00     0.009 C 
HETATM    4  C5  UNL     1     -34.700  16.116  -1.846  1.00 20.00     0.026 A 
HETATM    5  C6  UNL     1     -35.700  15.758  -4.191  1.00 20.00     0.019 C 
HETATM    6  C7  UNL     1     -33.745  16.839  -2.754  1.00 20.00     0.096 A 
HETATM    7  C8  UNL     1     -34.506  15.615  -3.260  1.00 20.00    -0.025 A 
HETATM    8  C9  UNL     1     -35.421  15.221  -5.613  1.00 20.00    -0.047 C 
HETATM    9  C10 UNL     1     -34.368  16.102  -6.318  1.00 20.00     0.015 C 
HETATM   10  C11 UNL     1     -36.721  15.304  -6.438  1.00 20.00     0.015 C 
ENDROOT
BRANCH   6  11
HETATM   11  C1  UNL     1     -34.118  18.162  -3.213  1.00 20.00     0.177 C 
HETATM   12  O12 UNL     1     -33.483  18.582  -4.220  1.00 20.00    -0.648 OA
HETATM   13  O13 UNL     1     -35.032  18.719  -2.542  1.00 20.00    -0.648 OA
ENDBRANCH   6  11
TORSDOF 1
ENDMDL
MODEL 5
REMARK VINA RESULT:      -4.9      1.459      2.906
REMARK  1 active torsions:
REMARK  status: ('A' for Active; 'I' for Inactive)
REMARK    1  A    between atoms: C1_1  and  C7_7 
ROOT
HETATM    1  C2  UNL     1     -33.913  18.266  -5.225  1.00 20.00     0.002 C 
HETATM    2  C3  UNL     1     -33.546  16.838  -5.600  1.00 20.00     0.010 C 
HETATM    3  C4  UNL     1     -34.078  18.437  -3.713  1.00 20.00     0.009 C 
HETATM    4  C5  UNL     1     -35.245  14.970  -6.197  1.00 20.00     0.026 A 
HETATM    5  C6  UNL     1     -35.529  16.359  -4.047  1.00 20.00     0.019 C 
HETATM    6  C7  UNL     1     -34.242  14.371  -5.251  1.00 20.00     0.096 A 
HETATM    7  C8  UNL     1     -34.606  15.851  -5.145  1.00 20.00    -0.025 A 
HETATM    8  C9  UNL     1     -34.800  17.252  -3.017  1.00 20.00    -0.047 C 
HETATM    9  C10 UNL     1     -33.786  16.415  -2.210  1.00 20.00     0.015 C 
HETATM   10  C11 UNL     1     -35.838  17.807  -2.022  1.00 20.00     0.015 C 
ENDROOT
BRANCH   6  11
HETATM   11  C1  UNL     1     -34.726  13.435  -4.255  1.00 20.00     0.177 C 
HETATM   12  O12 UNL     1     -35.923  13.064  -4.402  1.00 20.00    -0.648 OA
HETATM   13  O13 UNL     1     -33.880  13.116  -3.373  1.00 20.00    -0.648 OA
ENDBRANCH   6  11
TORSDOF 1
ENDMDL
MODEL 6
REMARK VINA RESULT:      -4.9      1.410      1.819
REMARK  1 active torsions:
REMARK  status: ('A' for Active; 'I' for Inactive)
REMARK    1  A    between atoms: C1_1  and  C7_7 
ROOT
HETATM    1  C2  UNL     1     -36.517  17.733  -4.632  1.00 20.00     0.002 C 
HETATM    2  C3  UNL     1     -36.349  16.520  -3.730  1.00 20.00     0.010 C 
HETATM    3  C4  UNL     1     -36.509  17.349  -6.114  1.00 20.00     0.009 C 
HETATM    4  C5  UNL     1     -34.080  15.620  -2.851  1.00 20.00     0.026 A 
HETATM    5  C6  UNL     1     -34.418  16.090  -5.360  1.00 20.00     0.019 C 
HETATM    6  C7  UNL     1     -34.870  14.435  -3.332  1.00 20.00     0.096 A 
HETATM    7  C8  UNL     1     -35.043  15.796  -4.004  1.00 20.00    -0.025 A 
HETATM    8  C9  UNL     1     -35.467  16.258  -6.481  1.00 20.00    -0.047 C 
HETATM    9  C10 UNL     1     -36.179  14.917  -6.751  1.00 20.00     0.015 C 
HETATM   10  C11 UNL     1     -34.744  16.668  -7.779  1.00 20.00     0.015 C 
ENDROOT
BRANCH   6  11
HETATM   11  C1  UNL     1     -34.155  13.376  -4.016  1.00 20.00     0.177 C 
HETATM   12  O12 UNL     1     -32.916  13.321  -3.777  1.00 20.00    -0.648 OA
HETATM   13  O13 UNL     1     -34.869  12.650  -4.762  1.00 20.00    -0.648 OA
ENDBRANCH   6  11
TORSDOF 1
ENDMDL
MODEL 7
REMARK VINA RESULT:      -4.8      1.824      2.402
REMARK  1 active torsions:
REMARK  status: ('A' for Active; 'I' for Inactive)
REMARK    1  A    between atoms: C1_1  and  C7_7 
ROOT
HETATM    1  C2  UNL     1     -33.771  17.186  -1.478  1.00 20.00     0.002 C 
HETATM    2  C3  UNL     1     -34.655  15.996  -1.818  1.00 20.00     0.010 C 
HETATM    3  C4  UNL     1     -34.023  18.372  -2.412  1.00 20.00     0.009 C 
HETATM    4  C5  UNL     1     -34.007  14.070  -3.431  1.00 20.00     0.026 A 
HETATM    5  C6  UNL     1     -33.763  16.527  -4.161  1.00 20.00     0.019 C 
HETATM    6  C7  UNL     1     -35.412  14.481  -3.774  1.00 20.00     0.096 A 
HETATM    7  C8  UNL     1     -34.421  15.513  -3.238  1.00 20.00    -0.025 A 
HETATM    8  C9  UNL     1     -34.237  17.974  -3.897  1.00 20.00    -0.047 C 
HETATM    9  C10 UNL     1     -35.724  18.126  -4.277  1.00 20.00     0.015 C 
HETATM   10  C11 UNL     1     -33.430  18.931  -4.797  1.00 20.00     0.015 C 
ENDROOT
BRANCH   6  11
HETATM   11  C1  UNL     1     -35.790  14.501  -5.173  1.00 20.00     0.177 C 
HETATM   12  O12 UNL     1     -35.015  13.877  -5.949  1.00 20.00    -0.648 OA
HETATM   13  O13 UNL     1     -36.848  15.143  -5.428  1.00 20.00    -0.648 OA
ENDBRANCH   6  11
TORSDOF 1
ENDMDL
MODEL 8
REMARK VINA RESULT:      -4.8      2.331      4.034
REMARK  1 active torsions:
REMARK  status: ('A' for Active; 'I' for Inactive)
REMARK    1  A    between atoms: C1_1  and  C7_7 
ROOT
HETATM    1  C2  UNL     1     -37.070  17.409  -2.972  1.00 20.00     0.002 C 
HETATM    2  C3  UNL     1     -36.292  16.690  -4.064  1.00 20.00     0.010 C 
HETATM    3  C4  UNL     1     -36.143  18.024  -1.920  1.00 20.00     0.009 C 
HETATM    4  C5  UNL     1     -35.666  14.172  -4.036  1.00 20.00     0.026 A 
HETATM    5  C6  UNL     1     -35.149  15.672  -2.008  1.00 20.00     0.019 C 
HETATM    6  C7  UNL     1     -34.438  14.929  -4.457  1.00 20.00     0.096 A 
HETATM    7  C8  UNL     1     -35.440  15.568  -3.497  1.00 20.00    -0.025 A 
HETATM    8  C9  UNL     1     -34.934  17.128  -1.539  1.00 20.00    -0.047 C 
HETATM    9  C10 UNL     1     -33.638  17.700  -2.150  1.00 20.00     0.015 C 
HETATM   10  C11 UNL     1     -34.765  17.134  -0.006  1.00 20.00     0.015 C 
ENDROOT
BRANCH   6  11
HETATM   11  C1  UNL     1     -33.155  14.470  -3.962  1.00 20.00     0.177 C 
HETATM   12  O12 UNL     1     -32.237  15.335  -3.962  1.00 20.00    -0.648 OA
HETATM   13  O13 UNL     1     -33.130  13.261  -3.597  1.00 20.00    -0.648 OA
ENDBRANCH   6  11
TORSDOF 1
ENDMDL
MODEL 9
REMARK VINA RESULT:      -4.5      1.805      3.669
REMARK  1 active torsions:
REMARK  status: ('A' for Active; 'I' for Inactive)
REMARK    1  A    between atoms: C1_1  and  C7_7 
ROOT
HETATM    1  C2  UNL     1     -34.589  18.867  -3.945  1.00 20.00     0.002 C 
HETATM    2  C3  UNL     1     -35.187  17.825  -4.879  1.00 20.00     0.010 C 
HETATM    3  C4  UNL     1     -33.787  18.224  -2.811  1.00 20.00     0.009 C 
HETATM    4  C5  UNL     1     -37.549  16.780  -4.630  1.00 20.00     0.026 A 
HETATM    5  C6  UNL     1     -35.924  16.834  -2.633  1.00 20.00     0.019 C 
HETATM    6  C7  UNL     1     -36.595  15.655  -4.917  1.00 20.00     0.096 A 
HETATM    7  C8  UNL     1     -36.121  16.882  -4.141  1.00 20.00    -0.025 A 
HETATM    8  C9  UNL     1     -34.440  16.947  -2.218  1.00 20.00    -0.047 C 
HETATM    9  C10 UNL     1     -33.662  15.695  -2.674  1.00 20.00     0.015 C 
HETATM   10  C11 UNL     1     -34.359  17.006  -0.679  1.00 20.00     0.015 C 
ENDROOT
BRANCH   6  11
HETATM   11  C1  UNL     1     -36.802  14.398  -4.225  1.00 20.00     0.177 C 
HETATM   12  O12 UNL     1     -37.947  14.246  -3.716  1.00 20.00    -0.648 OA
HETATM   13  O13 UNL     1     -35.805  13.622  -4.226  1.00 20.00    -0.648 OA
ENDBRANCH   6  11
TORSDOF 1
ENDMDL
