MODEL 1
REMARK VINA RESULT:      -3.4      0.000      0.000
REMARK  0 active torsions:
REMARK  status: ('A' for Active; 'I' for Inactive)
ROOT
HETATM    1  C1  UNL     1     -33.145  14.136  -3.539  1.00 20.00     0.290 C 
HETATM    2  C2  UNL     1     -35.158  13.269  -4.383  1.00 20.00     0.344 C 
HETATM    3  C3  UNL     1     -33.873  15.481  -3.696  1.00 20.00     0.029 C 
HETATM    4  C4  UNL     1     -33.410  16.248  -4.939  1.00 20.00     0.028 C 
HETATM    5  C5  UNL     1     -33.733  16.345  -2.446  1.00 20.00     0.028 C 
HETATM    6  N6  UNL     1     -33.705  13.208  -4.525  1.00 20.00     0.093 N 
HETATM    7  S7  UNL     1     -35.610  14.966  -3.929  1.00 20.00    -0.128 SA
HETATM    8  H18 UNL     1     -33.455  13.532  -5.459  1.00 20.00     0.316 HD
ENDROOT
TORSDOF 0
ENDMDL
MODEL 2
REMARK VINA RESULT:      -3.2     11.501     12.623
REMARK  0 active torsions:
REMARK  status: ('A' for Active; 'I' for Inactive)
ROOT
HETATM    1  C1  UNL     1     -41.561   4.763  -0.065  1.00 20.00     0.290 C 
HETATM    2  C2  UNL     1     -41.537   3.893  -2.247  1.00 20.00     0.344 C 
HETATM    3  C3  UNL     1     -42.162   5.994  -0.762  1.00 20.00     0.029 C 
HETATM    4  C4  UNL     1     -41.133   7.116  -0.945  1.00 20.00     0.028 C 
HETATM    5  C5  UNL     1     -43.395   6.511  -0.024  1.00 20.00     0.028 C 
HETATM    6  N6  UNL     1     -40.725   4.062  -1.044  1.00 20.00     0.093 N 
HETATM    7  S7  UNL     1     -42.624   5.337  -2.401  1.00 20.00    -0.128 SA
HETATM    8  H18 UNL     1     -39.923   4.649  -1.271  1.00 20.00     0.316 HD
ENDROOT
TORSDOF 0
ENDMDL
MODEL 3
REMARK VINA RESULT:      -3.2      1.981      2.539
REMARK  0 active torsions:
REMARK  status: ('A' for Active; 'I' for Inactive)
ROOT
HETATM    1  C1  UNL     1     -34.024  15.936  -4.598  1.00 20.00     0.290 C 
HETATM    2  C2  UNL     1     -33.337  13.844  -3.782  1.00 20.00     0.344 C 
HETATM    3  C3  UNL     1     -34.927  15.081  -5.501  1.00 20.00     0.029 C 
HETATM    4  C4  UNL     1     -34.377  14.968  -6.928  1.00 20.00     0.028 C 
HETATM    5  C5  UNL     1     -36.362  15.601  -5.516  1.00 20.00     0.028 C 
HETATM    6  N6  UNL     1     -32.845  15.135  -4.259  1.00 20.00     0.093 N 
HETATM    7  S7  UNL     1     -34.847  13.441  -4.702  1.00 20.00    -0.128 SA
HETATM    8  H18 UNL     1     -32.297  14.983  -5.105  1.00 20.00     0.316 HD
ENDROOT
TORSDOF 0
ENDMDL
MODEL 4
REMARK VINA RESULT:      -3.2      1.658      2.602
REMARK  0 active torsions:
REMARK  status: ('A' for Active; 'I' for Inactive)
ROOT
HETATM    1  C1  UNL     1     -33.934  14.546  -3.849  1.00 20.00     0.290 C 
HETATM    2  C2  UNL     1     -33.166  16.403  -5.065  1.00 20.00     0.344 C 
HETATM    3  C3  UNL     1     -34.980  15.548  -3.336  1.00 20.00     0.029 C 
HETATM    4  C4  UNL     1     -34.661  16.046  -1.922  1.00 20.00     0.028 C 
HETATM    5  C5  UNL     1     -36.391  14.968  -3.397  1.00 20.00     0.028 C 
HETATM    6  N6  UNL     1     -32.731  15.303  -4.207  1.00 20.00     0.093 N 
HETATM    7  S7  UNL     1     -34.808  16.938  -4.508  1.00 20.00    -0.128 SA
HETATM    8  H18 UNL     1     -32.324  15.693  -3.358  1.00 20.00     0.316 HD
ENDROOT
TORSDOF 0
ENDMDL
MODEL 5
REMARK VINA RESULT:      -3.2      1.582      2.860
REMARK  0 active torsions:
REMARK  status: ('A' for Active; 'I' for Inactive)
ROOT
HETATM    1  C1  UNL     1     -34.618  13.209  -4.898  1.00 20.00     0.290 C 
HETATM    2  C2  UNL     1     -33.137  14.576  -3.692  1.00 20.00     0.344 C 
HETATM    3  C3  UNL     1     -35.421  14.512  -5.031  1.00 20.00     0.029 C 
HETATM    4  C4  UNL     1     -36.615  14.557  -4.071  1.00 20.00     0.028 C 
HETATM    5  C5  UNL     1     -35.876  14.748  -6.469  1.00 20.00     0.028 C 
HETATM    6  N6  UNL     1     -33.835  13.292  -3.662  1.00 20.00     0.093 N 
HETATM    7  S7  UNL     1     -34.206  15.779  -4.528  1.00 20.00    -0.128 SA
HETATM    8  H18 UNL     1     -34.473  13.286  -2.868  1.00 20.00     0.316 HD
ENDROOT
TORSDOF 0
ENDMDL
MODEL 6
REMARK VINA RESULT:      -3.2      1.287      1.614
REMARK  0 active torsions:
REMARK  status: ('A' for Active; 'I' for Inactive)
ROOT
HETATM    1  C1  UNL     1     -34.843  13.615  -3.827  1.00 20.00     0.290 C 
HETATM    2  C2  UNL     1     -35.032  14.287  -6.070  1.00 20.00     0.344 C 
HETATM    3  C3  UNL     1     -34.094  14.949  -3.683  1.00 20.00     0.029 C 
HETATM    4  C4  UNL     1     -32.574  14.756  -3.624  1.00 20.00     0.028 C 
HETATM    5  C5  UNL     1     -34.584  15.742  -2.474  1.00 20.00     0.028 C 
HETATM    6  N6  UNL     1     -34.679  13.159  -5.210  1.00 20.00     0.093 N 
HETATM    7  S7  UNL     1     -34.523  15.814  -5.233  1.00 20.00    -0.128 SA
HETATM    8  H18 UNL     1     -33.700  12.925  -5.365  1.00 20.00     0.316 HD
ENDROOT
TORSDOF 0
ENDMDL
MODEL 7
REMARK VINA RESULT:      -3.1      1.797      2.942
REMARK  0 active torsions:
REMARK  status: ('A' for Active; 'I' for Inactive)
ROOT
HETATM    1  C1  UNL     1     -35.123  15.397  -5.611  1.00 20.00     0.290 C 
HETATM    2  C2  UNL     1     -33.164  16.221  -4.611  1.00 20.00     0.344 C 
HETATM    3  C3  UNL     1     -35.314  14.719  -4.245  1.00 20.00     0.029 C 
HETATM    4  C4  UNL     1     -34.950  13.230  -4.282  1.00 20.00     0.028 C 
HETATM    5  C5  UNL     1     -36.733  14.913  -3.715  1.00 20.00     0.028 C 
HETATM    6  N6  UNL     1     -33.684  15.583  -5.818  1.00 20.00     0.093 N 
HETATM    7  S7  UNL     1     -34.110  15.599  -3.193  1.00 20.00    -0.128 SA
HETATM    8  H18 UNL     1     -33.246  14.669  -5.919  1.00 20.00     0.316 HD
ENDROOT
TORSDOF 0
ENDMDL
MODEL 8
REMARK VINA RESULT:      -3.1      1.610      2.221
REMARK  0 active torsions:
REMARK  status: ('A' for Active; 'I' for Inactive)
ROOT
HETATM    1  C1  UNL     1     -35.633  15.548  -4.493  1.00 20.00     0.290 C 
HETATM    2  C2  UNL     1     -35.198  13.246  -4.327  1.00 20.00     0.344 C 
HETATM    3  C3  UNL     1     -34.326  15.664  -3.693  1.00 20.00     0.029 C 
HETATM    4  C4  UNL     1     -34.580  15.962  -2.210  1.00 20.00     0.028 C 
HETATM    5  C5  UNL     1     -33.387  16.705  -4.298  1.00 20.00     0.028 C 
HETATM    6  N6  UNL     1     -36.242  14.256  -4.166  1.00 20.00     0.093 N 
HETATM    7  S7  UNL     1     -33.614  13.990  -3.849  1.00 20.00    -0.128 SA
HETATM    8  H18 UNL     1     -36.535  14.269  -3.190  1.00 20.00     0.316 HD
ENDROOT
TORSDOF 0
ENDMDL
MODEL 9
REMARK VINA RESULT:      -3.0      1.638      1.958
REMARK  0 active torsions:
REMARK  status: ('A' for Active; 'I' for Inactive)
ROOT
HETATM    1  C1  UNL     1     -34.101  14.168  -4.470  1.00 20.00     0.290 C 
HETATM    2  C2  UNL     1     -36.398  14.388  -4.034  1.00 20.00     0.344 C 
HETATM    3  C3  UNL     1     -34.350  15.368  -5.397  1.00 20.00     0.029 C 
HETATM    4  C4  UNL     1     -34.429  14.954  -6.871  1.00 20.00     0.028 C 
HETATM    5  C5  UNL     1     -33.299  16.458  -5.199  1.00 20.00     0.028 C 
HETATM    6  N6  UNL     1     -35.356  13.419  -4.365  1.00 20.00     0.093 N 
HETATM    7  S7  UNL     1     -35.992  15.955  -4.855  1.00 20.00    -0.128 SA
HETATM    8  H18 UNL     1     -35.569  13.007  -5.272  1.00 20.00     0.316 HD
ENDROOT
TORSDOF 0
ENDMDL
