MODEL 1
REMARK VINA RESULT:      -4.1      0.000      0.000
REMARK  4 active torsions:
REMARK  status: ('A' for Active; 'I' for Inactive)
REMARK    1  A    between atoms: C2_2  and  C8_8 
REMARK    2  A    between atoms: C2_2  and  C9_9 
REMARK    3  A    between atoms: C3_3  and  C8_8 
REMARK    4  A    between atoms: C3_3  and  C10_10 
ROOT
HETATM    1  C3  UNL     1     -33.874  16.190  -4.458  1.00 20.00     0.138 C 
HETATM    2  O11 UNL     1     -32.781  16.421  -4.981  1.00 20.00    -0.297 OA
ENDROOT
BRANCH   1   3
HETATM    3  C8  UNL     1     -34.688  17.313  -3.817  1.00 20.00     0.112 C 
BRANCH   3   4
HETATM    4  C2  UNL     1     -33.934  17.945  -2.675  1.00 20.00    -0.083 C 
HETATM    5  C1  UNL     1     -33.582  19.241  -2.709  1.00 20.00     0.014 C 
BRANCH   4   6
HETATM    6  C9  UNL     1     -33.581  17.070  -1.495  1.00 20.00     0.029 C 
HETATM    7  C4  UNL     1     -34.778  16.772  -0.601  1.00 20.00     0.010 C 
ENDBRANCH   4   6
ENDBRANCH   3   4
ENDBRANCH   1   3
BRANCH   1   8
HETATM    8  C10 UNL     1     -34.473  14.768  -4.448  1.00 20.00     0.010 C 
HETATM    9  C5  UNL     1     -35.777  14.777  -3.640  1.00 20.00     0.022 C 
HETATM   10  C6  UNL     1     -34.733  14.287  -5.882  1.00 20.00     0.022 C 
HETATM   11  C7  UNL     1     -33.483  13.797  -3.781  1.00 20.00     0.022 C 
ENDBRANCH   1   8
TORSDOF 4
ENDMDL
MODEL 2
REMARK VINA RESULT:      -4.1      0.032      1.307
REMARK  4 active torsions:
REMARK  status: ('A' for Active; 'I' for Inactive)
REMARK    1  A    between atoms: C2_2  and  C8_8 
REMARK    2  A    between atoms: C2_2  and  C9_9 
REMARK    3  A    between atoms: C3_3  and  C8_8 
REMARK    4  A    between atoms: C3_3  and  C10_10 
ROOT
HETATM    1  C3  UNL     1     -33.856  16.169  -4.454  1.00 20.00     0.138 C 
HETATM    2  O11 UNL     1     -32.757  16.402  -4.963  1.00 20.00    -0.297 OA
ENDROOT
BRANCH   1   3
HETATM    3  C8  UNL     1     -34.679  17.290  -3.822  1.00 20.00     0.112 C 
BRANCH   3   4
HETATM    4  C2  UNL     1     -33.929  17.941  -2.689  1.00 20.00    -0.083 C 
HETATM    5  C1  UNL     1     -33.578  19.237  -2.742  1.00 20.00     0.014 C 
BRANCH   4   6
HETATM    6  C9  UNL     1     -33.577  17.086  -1.494  1.00 20.00     0.029 C 
HETATM    7  C4  UNL     1     -34.786  16.751  -0.630  1.00 20.00     0.010 C 
ENDBRANCH   4   6
ENDBRANCH   3   4
ENDBRANCH   1   3
BRANCH   1   8
HETATM    8  C10 UNL     1     -34.454  14.747  -4.454  1.00 20.00     0.010 C 
HETATM    9  C5  UNL     1     -34.741  14.322  -5.900  1.00 20.00     0.022 C 
HETATM   10  C6  UNL     1     -33.487  13.760  -3.786  1.00 20.00     0.022 C 
HETATM   11  C7  UNL     1     -35.775  14.743  -3.666  1.00 20.00     0.022 C 
ENDBRANCH   1   8
TORSDOF 4
ENDMDL
MODEL 3
REMARK VINA RESULT:      -4.1      1.076      1.679
REMARK  4 active torsions:
REMARK  status: ('A' for Active; 'I' for Inactive)
REMARK    1  A    between atoms: C2_2  and  C8_8 
REMARK    2  A    between atoms: C2_2  and  C9_9 
REMARK    3  A    between atoms: C3_3  and  C8_8 
REMARK    4  A    between atoms: C3_3  and  C10_10 
ROOT
HETATM    1  C3  UNL     1     -33.899  15.687  -4.766  1.00 20.00     0.138 C 
HETATM    2  O11 UNL     1     -33.472  16.450  -5.636  1.00 20.00    -0.297 OA
ENDROOT
BRANCH   1   3
HETATM    3  C8  UNL     1     -33.287  15.674  -3.367  1.00 20.00     0.112 C 
BRANCH   3   4
HETATM    4  C2  UNL     1     -33.926  16.716  -2.485  1.00 20.00    -0.083 C 
HETATM    5  C1  UNL     1     -33.720  18.026  -2.698  1.00 20.00     0.014 C 
BRANCH   4   6
HETATM    6  C9  UNL     1     -34.800  16.238  -1.349  1.00 20.00     0.029 C 
HETATM    7  C4  UNL     1     -34.742  17.154  -0.133  1.00 20.00     0.010 C 
ENDBRANCH   4   6
ENDBRANCH   3   4
ENDBRANCH   1   3
BRANCH   1   8
HETATM    8  C10 UNL     1     -35.080  14.734  -5.047  1.00 20.00     0.010 C 
HETATM    9  C5  UNL     1     -34.920  13.470  -4.192  1.00 20.00     0.022 C 
HETATM   10  C6  UNL     1     -36.413  15.427  -4.737  1.00 20.00     0.022 C 
HETATM   11  C7  UNL     1     -35.075  14.331  -6.532  1.00 20.00     0.022 C 
ENDBRANCH   1   8
TORSDOF 4
ENDMDL
MODEL 4
REMARK VINA RESULT:      -4.1      0.142      1.318
REMARK  4 active torsions:
REMARK  status: ('A' for Active; 'I' for Inactive)
REMARK    1  A    between atoms: C2_2  and  C8_8 
REMARK    2  A    between atoms: C2_2  and  C9_9 
REMARK    3  A    between atoms: C3_3  and  C8_8 
REMARK    4  A    between atoms: C3_3  and  C10_10 
ROOT
HETATM    1  C3  UNL     1     -33.871  16.117  -4.464  1.00 20.00     0.138 C 
HETATM    2  O11 UNL     1     -32.747  16.312  -4.934  1.00 20.00    -0.297 OA
ENDROOT
BRANCH   1   3
HETATM    3  C8  UNL     1     -34.683  17.269  -3.875  1.00 20.00     0.112 C 
BRANCH   3   4
HETATM    4  C2  UNL     1     -34.012  17.835  -2.650  1.00 20.00    -0.083 C 
HETATM    5  C1  UNL     1     -33.696  19.138  -2.571  1.00 20.00     0.014 C 
BRANCH   4   6
HETATM    6  C9  UNL     1     -33.699  16.885  -1.517  1.00 20.00     0.029 C 
HETATM    7  C4  UNL     1     -34.757  16.904  -0.421  1.00 20.00     0.010 C 
ENDBRANCH   4   6
ENDBRANCH   3   4
ENDBRANCH   1   3
BRANCH   1   8
HETATM    8  C10 UNL     1     -34.510  14.713  -4.474  1.00 20.00     0.010 C 
HETATM    9  C5  UNL     1     -33.532  13.711  -3.846  1.00 20.00     0.022 C 
HETATM   10  C6  UNL     1     -35.837  14.723  -3.704  1.00 20.00     0.022 C 
HETATM   11  C7  UNL     1     -34.793  14.286  -5.925  1.00 20.00     0.022 C 
ENDBRANCH   1   8
TORSDOF 4
ENDMDL
MODEL 5
REMARK VINA RESULT:      -4.0      1.865      2.998
REMARK  4 active torsions:
REMARK  status: ('A' for Active; 'I' for Inactive)
REMARK    1  A    between atoms: C2_2  and  C8_8 
REMARK    2  A    between atoms: C2_2  and  C9_9 
REMARK    3  A    between atoms: C3_3  and  C8_8 
REMARK    4  A    between atoms: C3_3  and  C10_10 
ROOT
HETATM    1  C3  UNL     1     -35.046  14.038  -5.116  1.00 20.00     0.138 C 
HETATM    2  O11 UNL     1     -34.778  12.864  -5.387  1.00 20.00    -0.297 OA
ENDROOT
BRANCH   1   3
HETATM    3  C8  UNL     1     -35.102  14.513  -3.666  1.00 20.00     0.112 C 
BRANCH   3   4
HETATM    4  C2  UNL     1     -33.792  15.127  -3.245  1.00 20.00    -0.083 C 
HETATM    5  C1  UNL     1     -32.626  14.504  -3.481  1.00 20.00     0.014 C 
BRANCH   4   6
HETATM    6  C9  UNL     1     -33.834  16.464  -2.540  1.00 20.00     0.029 C 
HETATM    7  C4  UNL     1     -34.632  16.424  -1.244  1.00 20.00     0.010 C 
ENDBRANCH   4   6
ENDBRANCH   3   4
ENDBRANCH   1   3
BRANCH   1   8
HETATM    8  C10 UNL     1     -35.309  15.076  -6.227  1.00 20.00     0.010 C 
HETATM    9  C5  UNL     1     -36.450  16.003  -5.790  1.00 20.00     0.022 C 
HETATM   10  C6  UNL     1     -34.038  15.887  -6.515  1.00 20.00     0.022 C 
HETATM   11  C7  UNL     1     -35.727  14.352  -7.519  1.00 20.00     0.022 C 
ENDBRANCH   1   8
TORSDOF 4
ENDMDL
MODEL 6
REMARK VINA RESULT:      -4.0      2.274      3.292
REMARK  4 active torsions:
REMARK  status: ('A' for Active; 'I' for Inactive)
REMARK    1  A    between atoms: C2_2  and  C8_8 
REMARK    2  A    between atoms: C2_2  and  C9_9 
REMARK    3  A    between atoms: C3_3  and  C8_8 
REMARK    4  A    between atoms: C3_3  and  C10_10 
ROOT
HETATM    1  C3  UNL     1     -36.369  14.424  -4.423  1.00 20.00     0.138 C 
HETATM    2  O11 UNL     1     -37.421  14.258  -3.801  1.00 20.00    -0.297 OA
ENDROOT
BRANCH   1   3
HETATM    3  C8  UNL     1     -35.054  13.845  -3.904  1.00 20.00     0.112 C 
BRANCH   3   4
HETATM    4  C2  UNL     1     -34.209  14.912  -3.257  1.00 20.00    -0.083 C 
HETATM    5  C1  UNL     1     -32.944  15.132  -3.653  1.00 20.00     0.014 C 
BRANCH   4   6
HETATM    6  C9  UNL     1     -34.829  15.723  -2.143  1.00 20.00     0.029 C 
HETATM    7  C4  UNL     1     -33.921  16.841  -1.649  1.00 20.00     0.010 C 
ENDBRANCH   4   6
ENDBRANCH   3   4
ENDBRANCH   1   3
BRANCH   1   8
HETATM    8  C10 UNL     1     -36.341  15.200  -5.756  1.00 20.00     0.010 C 
HETATM    9  C5  UNL     1     -37.740  15.170  -6.384  1.00 20.00     0.022 C 
HETATM   10  C6  UNL     1     -35.886  16.647  -5.524  1.00 20.00     0.022 C 
HETATM   11  C7  UNL     1     -35.350  14.528  -6.722  1.00 20.00     0.022 C 
ENDBRANCH   1   8
TORSDOF 4
ENDMDL
MODEL 7
REMARK VINA RESULT:      -3.9      1.783      4.051
REMARK  4 active torsions:
REMARK  status: ('A' for Active; 'I' for Inactive)
REMARK    1  A    between atoms: C2_2  and  C8_8 
REMARK    2  A    between atoms: C2_2  and  C9_9 
REMARK    3  A    between atoms: C3_3  and  C8_8 
REMARK    4  A    between atoms: C3_3  and  C10_10 
ROOT
HETATM    1  C3  UNL     1     -34.061  16.236  -4.579  1.00 20.00     0.138 C 
HETATM    2  O11 UNL     1     -32.850  16.466  -4.632  1.00 20.00    -0.297 OA
ENDROOT
BRANCH   1   3
HETATM    3  C8  UNL     1     -35.025  16.889  -5.568  1.00 20.00     0.112 C 
BRANCH   3   4
HETATM    4  C2  UNL     1     -34.644  16.566  -6.990  1.00 20.00    -0.083 C 
HETATM    5  C1  UNL     1     -34.538  17.532  -7.917  1.00 20.00     0.014 C 
BRANCH   4   6
HETATM    6  C9  UNL     1     -34.393  15.117  -7.340  1.00 20.00     0.029 C 
HETATM    7  C4  UNL     1     -35.677  14.342  -7.605  1.00 20.00     0.010 C 
ENDBRANCH   4   6
ENDBRANCH   3   4
ENDBRANCH   1   3
BRANCH   1   8
HETATM    8  C10 UNL     1     -34.647  15.266  -3.533  1.00 20.00     0.010 C 
HETATM    9  C5  UNL     1     -33.925  13.916  -3.638  1.00 20.00     0.022 C 
HETATM   10  C6  UNL     1     -34.497  15.847  -2.121  1.00 20.00     0.022 C 
HETATM   11  C7  UNL     1     -36.144  15.049  -3.812  1.00 20.00     0.022 C 
ENDBRANCH   1   8
TORSDOF 4
ENDMDL
MODEL 8
REMARK VINA RESULT:      -3.8      1.871      3.270
REMARK  4 active torsions:
REMARK  status: ('A' for Active; 'I' for Inactive)
REMARK    1  A    between atoms: C2_2  and  C8_8 
REMARK    2  A    between atoms: C2_2  and  C9_9 
REMARK    3  A    between atoms: C3_3  and  C8_8 
REMARK    4  A    between atoms: C3_3  and  C10_10 
ROOT
HETATM    1  C3  UNL     1     -33.658  17.198  -5.295  1.00 20.00     0.138 C 
HETATM    2  O11 UNL     1     -33.354  18.366  -5.040  1.00 20.00    -0.297 OA
ENDROOT
BRANCH   1   3
HETATM    3  C8  UNL     1     -33.136  16.048  -4.435  1.00 20.00     0.112 C 
BRANCH   3   4
HETATM    4  C2  UNL     1     -33.989  15.858  -3.208  1.00 20.00    -0.083 C 
HETATM    5  C1  UNL     1     -33.807  16.614  -2.112  1.00 20.00     0.014 C 
BRANCH   4   6
HETATM    6  C9  UNL     1     -35.051  14.784  -3.247  1.00 20.00     0.029 C 
HETATM    7  C4  UNL     1     -34.571  13.502  -3.914  1.00 20.00     0.010 C 
ENDBRANCH   4   6
ENDBRANCH   3   4
ENDBRANCH   1   3
BRANCH   1   8
HETATM    8  C10 UNL     1     -34.592  16.853  -6.473  1.00 20.00     0.010 C 
HETATM    9  C5  UNL     1     -34.251  15.449  -6.991  1.00 20.00     0.022 C 
HETATM   10  C6  UNL     1     -36.059  16.920  -6.031  1.00 20.00     0.022 C 
HETATM   11  C7  UNL     1     -34.380  17.865  -7.612  1.00 20.00     0.022 C 
ENDBRANCH   1   8
TORSDOF 4
ENDMDL
MODEL 9
REMARK VINA RESULT:      -3.8      1.059      4.221
REMARK  4 active torsions:
REMARK  status: ('A' for Active; 'I' for Inactive)
REMARK    1  A    between atoms: C2_2  and  C8_8 
REMARK    2  A    between atoms: C2_2  and  C9_9 
REMARK    3  A    between atoms: C3_3  and  C8_8 
REMARK    4  A    between atoms: C3_3  and  C10_10 
ROOT
HETATM    1  C3  UNL     1     -33.512  16.447  -4.022  1.00 20.00     0.138 C 
HETATM    2  O11 UNL     1     -32.958  17.113  -4.901  1.00 20.00    -0.297 OA
ENDROOT
BRANCH   1   3
HETATM    3  C8  UNL     1     -33.331  14.931  -3.957  1.00 20.00     0.112 C 
BRANCH   3   4
HETATM    4  C2  UNL     1     -34.381  14.225  -4.776  1.00 20.00    -0.083 C 
HETATM    5  C1  UNL     1     -35.156  13.269  -4.236  1.00 20.00     0.014 C 
BRANCH   4   6
HETATM    6  C9  UNL     1     -34.527  14.621  -6.227  1.00 20.00     0.029 C 
HETATM    7  C4  UNL     1     -35.946  15.047  -6.583  1.00 20.00     0.010 C 
ENDBRANCH   4   6
ENDBRANCH   3   4
ENDBRANCH   1   3
BRANCH   1   8
HETATM    8  C10 UNL     1     -34.388  17.117  -2.943  1.00 20.00     0.010 C 
HETATM    9  C5  UNL     1     -35.778  17.399  -3.527  1.00 20.00     0.022 C 
HETATM   10  C6  UNL     1     -34.498  16.215  -1.706  1.00 20.00     0.022 C 
HETATM   11  C7  UNL     1     -33.750  18.451  -2.517  1.00 20.00     0.022 C 
ENDBRANCH   1   8
TORSDOF 4
ENDMDL
