MODEL 1
REMARK VINA RESULT:      -4.3      0.000      0.000
REMARK  3 active torsions:
REMARK  status: ('A' for Active; 'I' for Inactive)
REMARK    1  A    between atoms: C1_1  and  C5_5 
REMARK    2  A    between atoms: C3_3  and  C5_5 
REMARK    3  A    between atoms: C4_4  and  C5_5 
ROOT
HETATM    1  C5  UNL     1     -33.890   5.523   5.120  1.00 20.00     0.085 C 
ENDROOT
BRANCH   1   2
HETATM    2  C1  UNL     1     -35.061   4.715   4.562  1.00 20.00     0.224 C 
HETATM    3  O6  UNL     1     -35.246   3.539   4.868  1.00 20.00    -0.279 OA
HETATM    4 CL7  UNL     1     -36.061   5.642   3.478  1.00 20.00    -0.043 Cl
ENDBRANCH   1   2
BRANCH   1   5
HETATM    5  C3  UNL     1     -33.495   6.622   4.118  1.00 20.00     0.010 C 
HETATM    6  C2  UNL     1     -32.353   6.202   3.202  1.00 20.00     0.006 C 
ENDBRANCH   1   5
BRANCH   1   7
HETATM    7  C4  UNL     1     -34.286   6.154   6.460  1.00 20.00     0.128 C 
HETATM    8 CL8  UNL     1     -33.187   7.486   6.905  1.00 20.00    -0.130 Cl
ENDBRANCH   1   7
TORSDOF 3
ENDMDL
MODEL 2
REMARK VINA RESULT:      -4.1      2.181      3.095
REMARK  3 active torsions:
REMARK  status: ('A' for Active; 'I' for Inactive)
REMARK    1  A    between atoms: C1_1  and  C5_5 
REMARK    2  A    between atoms: C3_3  and  C5_5 
REMARK    3  A    between atoms: C4_4  and  C5_5 
ROOT
HETATM    1  C5  UNL     1     -34.057   6.433   4.289  1.00 20.00     0.085 C 
ENDROOT
BRANCH   1   2
HETATM    2  C1  UNL     1     -34.079   6.150   5.791  1.00 20.00     0.224 C 
HETATM    3  O6  UNL     1     -33.545   6.903   6.604  1.00 20.00    -0.279 OA
HETATM    4 CL7  UNL     1     -34.926   4.680   6.186  1.00 20.00    -0.043 Cl
ENDBRANCH   1   2
BRANCH   1   5
HETATM    5  C3  UNL     1     -32.626   6.257   3.750  1.00 20.00     0.010 C 
HETATM    6  C2  UNL     1     -32.126   7.480   2.995  1.00 20.00     0.006 C 
ENDBRANCH   1   5
BRANCH   1   7
HETATM    7  C4  UNL     1     -35.011   5.474   3.567  1.00 20.00     0.128 C 
HETATM    8 CL8  UNL     1     -34.304   4.876   2.042  1.00 20.00    -0.130 Cl
ENDBRANCH   1   7
TORSDOF 3
ENDMDL
MODEL 3
REMARK VINA RESULT:      -4.0      2.062      2.788
REMARK  3 active torsions:
REMARK  status: ('A' for Active; 'I' for Inactive)
REMARK    1  A    between atoms: C1_1  and  C5_5 
REMARK    2  A    between atoms: C3_3  and  C5_5 
REMARK    3  A    between atoms: C4_4  and  C5_5 
ROOT
HETATM    1  C5  UNL     1     -34.350   6.134   4.584  1.00 20.00     0.085 C 
ENDROOT
BRANCH   1   2
HETATM    2  C1  UNL     1     -33.524   6.024   3.302  1.00 20.00     0.224 C 
HETATM    3  O6  UNL     1     -33.862   5.297   2.370  1.00 20.00    -0.279 OA
HETATM    4 CL7  UNL     1     -32.099   7.025   3.332  1.00 20.00    -0.043 Cl
ENDBRANCH   1   2
BRANCH   1   5
HETATM    5  C3  UNL     1     -35.303   4.931   4.691  1.00 20.00     0.010 C 
HETATM    6  C2  UNL     1     -34.956   4.005   5.849  1.00 20.00     0.006 C 
ENDBRANCH   1   5
BRANCH   1   7
HETATM    7  C4  UNL     1     -33.416   6.173   5.799  1.00 20.00     0.128 C 
HETATM    8 CL8  UNL     1     -33.889   7.456   6.945  1.00 20.00    -0.130 Cl
ENDBRANCH   1   7
TORSDOF 3
ENDMDL
MODEL 4
REMARK VINA RESULT:      -4.0      2.166      2.821
REMARK  3 active torsions:
REMARK  status: ('A' for Active; 'I' for Inactive)
REMARK    1  A    between atoms: C1_1  and  C5_5 
REMARK    2  A    between atoms: C3_3  and  C5_5 
REMARK    3  A    between atoms: C4_4  and  C5_5 
ROOT
HETATM    1  C5  UNL     1     -33.949   6.437   4.414  1.00 20.00     0.085 C 
ENDROOT
BRANCH   1   2
HETATM    2  C1  UNL     1     -34.563   5.234   3.698  1.00 20.00     0.224 C 
HETATM    3  O6  UNL     1     -34.549   5.127   2.474  1.00 20.00    -0.279 OA
HETATM    4 CL7  UNL     1     -35.259   4.079   4.801  1.00 20.00    -0.043 Cl
ENDBRANCH   1   2
BRANCH   1   5
HETATM    5  C3  UNL     1     -34.035   6.233   5.937  1.00 20.00     0.010 C 
HETATM    6  C2  UNL     1     -33.358   7.350   6.720  1.00 20.00     0.006 C 
ENDBRANCH   1   5
BRANCH   1   7
HETATM    7  C4  UNL     1     -32.485   6.602   3.989  1.00 20.00     0.128 C 
HETATM    8 CL8  UNL     1     -32.333   7.684   2.579  1.00 20.00    -0.130 Cl
ENDBRANCH   1   7
TORSDOF 3
ENDMDL
MODEL 5
REMARK VINA RESULT:      -4.0      1.992      2.740
REMARK  3 active torsions:
REMARK  status: ('A' for Active; 'I' for Inactive)
REMARK    1  A    between atoms: C1_1  and  C5_5 
REMARK    2  A    between atoms: C3_3  and  C5_5 
REMARK    3  A    between atoms: C4_4  and  C5_5 
ROOT
HETATM    1  C5  UNL     1     -34.326   6.227   4.877  1.00 20.00     0.085 C 
ENDROOT
BRANCH   1   2
HETATM    2  C1  UNL     1     -33.295   6.256   3.748  1.00 20.00     0.224 C 
HETATM    3  O6  UNL     1     -32.255   6.906   3.833  1.00 20.00    -0.279 OA
HETATM    4 CL7  UNL     1     -33.769   5.288   2.380  1.00 20.00    -0.043 Cl
ENDBRANCH   1   2
BRANCH   1   5
HETATM    5  C3  UNL     1     -35.281   5.037   4.675  1.00 20.00     0.010 C 
HETATM    6  C2  UNL     1     -35.034   3.907   5.665  1.00 20.00     0.006 C 
ENDBRANCH   1   5
BRANCH   1   7
HETATM    7  C4  UNL     1     -33.612   6.101   6.228  1.00 20.00     0.128 C 
HETATM    8 CL8  UNL     1     -33.552   7.666   7.082  1.00 20.00    -0.130 Cl
ENDBRANCH   1   7
TORSDOF 3
ENDMDL
MODEL 6
REMARK VINA RESULT:      -3.9     12.021     12.445
REMARK  3 active torsions:
REMARK  status: ('A' for Active; 'I' for Inactive)
REMARK    1  A    between atoms: C1_1  and  C5_5 
REMARK    2  A    between atoms: C3_3  and  C5_5 
REMARK    3  A    between atoms: C4_4  and  C5_5 
ROOT
HETATM    1  C5  UNL     1     -34.350  14.613  -3.086  1.00 20.00     0.085 C 
ENDROOT
BRANCH   1   2
HETATM    2  C1  UNL     1     -35.199  13.780  -4.046  1.00 20.00     0.224 C 
HETATM    3  O6  UNL     1     -34.786  12.734  -4.542  1.00 20.00    -0.279 OA
HETATM    4 CL7  UNL     1     -36.768  14.481  -4.337  1.00 20.00    -0.043 Cl
ENDBRANCH   1   2
BRANCH   1   5
HETATM    5  C3  UNL     1     -33.044  15.033  -3.781  1.00 20.00     0.010 C 
HETATM    6  C2  UNL     1     -33.235  16.200  -4.741  1.00 20.00     0.006 C 
ENDBRANCH   1   5
BRANCH   1   7
HETATM    7  C4  UNL     1     -35.133  15.855  -2.645  1.00 20.00     0.128 C 
HETATM    8 CL8  UNL     1     -34.622  16.409  -1.028  1.00 20.00    -0.130 Cl
ENDBRANCH   1   7
TORSDOF 3
ENDMDL
MODEL 7
REMARK VINA RESULT:      -3.8     12.032     12.884
REMARK  3 active torsions:
REMARK  status: ('A' for Active; 'I' for Inactive)
REMARK    1  A    between atoms: C1_1  and  C5_5 
REMARK    2  A    between atoms: C3_3  and  C5_5 
REMARK    3  A    between atoms: C4_4  and  C5_5 
ROOT
HETATM    1  C5  UNL     1     -34.931  15.091  -3.537  1.00 20.00     0.085 C 
ENDROOT
BRANCH   1   2
HETATM    2  C1  UNL     1     -34.362  13.700  -3.818  1.00 20.00     0.224 C 
HETATM    3  O6  UNL     1     -35.064  12.783  -4.239  1.00 20.00    -0.279 OA
HETATM    4 CL7  UNL     1     -32.658  13.589  -3.477  1.00 20.00    -0.043 Cl
ENDBRANCH   1   2
BRANCH   1   5
HETATM    5  C3  UNL     1     -33.984  15.858  -2.597  1.00 20.00     0.010 C 
HETATM    6  C2  UNL     1     -34.689  16.394  -1.359  1.00 20.00     0.006 C 
ENDBRANCH   1   5
BRANCH   1   7
HETATM    7  C4  UNL     1     -35.096  15.859  -4.854  1.00 20.00     0.128 C 
HETATM    8 CL8  UNL     1     -33.539  16.514  -5.427  1.00 20.00    -0.130 Cl
ENDBRANCH   1   7
TORSDOF 3
ENDMDL
MODEL 8
REMARK VINA RESULT:      -3.7      1.851      3.115
REMARK  3 active torsions:
REMARK  status: ('A' for Active; 'I' for Inactive)
REMARK    1  A    between atoms: C1_1  and  C5_5 
REMARK    2  A    between atoms: C3_3  and  C5_5 
REMARK    3  A    between atoms: C4_4  and  C5_5 
ROOT
HETATM    1  C5  UNL     1     -33.945   5.400   4.896  1.00 20.00     0.085 C 
ENDROOT
BRANCH   1   2
HETATM    2  C1  UNL     1     -34.347   5.868   6.294  1.00 20.00     0.224 C 
HETATM    3  O6  UNL     1     -35.223   5.302   6.944  1.00 20.00    -0.279 OA
HETATM    4 CL7  UNL     1     -33.437   7.256   6.825  1.00 20.00    -0.043 Cl
ENDBRANCH   1   2
BRANCH   1   5
HETATM    5  C3  UNL     1     -35.162   4.774   4.190  1.00 20.00     0.010 C 
HETATM    6  C2  UNL     1     -35.989   5.797   3.423  1.00 20.00     0.006 C 
ENDBRANCH   1   5
BRANCH   1   7
HETATM    7  C4  UNL     1     -33.421   6.588   4.081  1.00 20.00     0.128 C 
HETATM    8 CL8  UNL     1     -32.091   6.101   2.998  1.00 20.00    -0.130 Cl
ENDBRANCH   1   7
TORSDOF 3
ENDMDL
MODEL 9
REMARK VINA RESULT:      -3.7     12.354     12.840
REMARK  3 active torsions:
REMARK  status: ('A' for Active; 'I' for Inactive)
REMARK    1  A    between atoms: C1_1  and  C5_5 
REMARK    2  A    between atoms: C3_3  and  C5_5 
REMARK    3  A    between atoms: C4_4  and  C5_5 
ROOT
HETATM    1  C5  UNL     1     -34.815  14.565  -3.365  1.00 20.00     0.085 C 
ENDROOT
BRANCH   1   2
HETATM    2  C1  UNL     1     -34.707  13.805  -4.687  1.00 20.00     0.224 C 
HETATM    3  O6  UNL     1     -34.804  12.582  -4.745  1.00 20.00    -0.279 OA
HETATM    4 CL7  UNL     1     -34.439  14.859  -6.048  1.00 20.00    -0.043 Cl
ENDBRANCH   1   2
BRANCH   1   5
HETATM    5  C3  UNL     1     -33.568  15.445  -3.171  1.00 20.00     0.010 C 
HETATM    6  C2  UNL     1     -33.800  16.589  -2.193  1.00 20.00     0.006 C 
ENDBRANCH   1   5
BRANCH   1   7
HETATM    7  C4  UNL     1     -36.076  15.438  -3.371  1.00 20.00     0.128 C 
HETATM    8 CL8  UNL     1     -37.484  14.545  -4.004  1.00 20.00    -0.130 Cl
ENDBRANCH   1   7
TORSDOF 3
ENDMDL
