MODEL 1
REMARK VINA RESULT:      -5.0      0.000      0.000
REMARK  2 active torsions:
REMARK  status: ('A' for Active; 'I' for Inactive)
REMARK    1  A    between atoms: C1_1  and  C2_2 
REMARK    2  A    between atoms: C1_1  and  C3_3 
ROOT
HETATM    1  C1  UNL     1     -34.087   6.278   4.561  1.00 20.00     0.299 C 
HETATM    2  F4  UNL     1     -32.789   6.323   4.143  1.00 20.00    -0.238 F 
ENDROOT
BRANCH   1   3
HETATM    3  C2  UNL     1     -34.091   5.927   6.031  1.00 20.00     0.392 C 
HETATM    4  F5  UNL     1     -34.149   7.054   6.781  1.00 20.00    -0.211 F 
HETATM    5  F6  UNL     1     -35.204   5.206   6.319  1.00 20.00    -0.211 F 
ENDBRANCH   1   3
BRANCH   1   6
HETATM    6  C3  UNL     1     -34.815   5.261   3.711  1.00 20.00     0.392 C 
HETATM    7  F7  UNL     1     -34.229   5.164   2.493  1.00 20.00    -0.211 F 
HETATM    8  F8  UNL     1     -36.089   5.679   3.502  1.00 20.00    -0.211 F 
ENDBRANCH   1   6
TORSDOF 2
ENDMDL
MODEL 2
REMARK VINA RESULT:      -5.0      1.364      3.385
REMARK  2 active torsions:
REMARK  status: ('A' for Active; 'I' for Inactive)
REMARK    1  A    between atoms: C1_1  and  C2_2 
REMARK    2  A    between atoms: C1_1  and  C3_3 
ROOT
HETATM    1  C1  UNL     1     -35.166   5.047   4.784  1.00 20.00     0.299 C 
HETATM    2  F4  UNL     1     -35.231   3.718   4.486  1.00 20.00    -0.238 F 
ENDROOT
BRANCH   1   3
HETATM    3  C2  UNL     1     -34.111   5.672   3.900  1.00 20.00     0.392 C 
HETATM    4  F5  UNL     1     -34.204   5.179   2.641  1.00 20.00    -0.211 F 
HETATM    5  F6  UNL     1     -34.327   7.008   3.816  1.00 20.00    -0.211 F 
ENDBRANCH   1   3
BRANCH   1   6
HETATM    6  C3  UNL     1     -34.853   5.179   6.257  1.00 20.00     0.392 C 
HETATM    7  F7  UNL     1     -34.325   6.400   6.515  1.00 20.00    -0.211 F 
HETATM    8  F8  UNL     1     -33.913   4.264   6.600  1.00 20.00    -0.211 F 
ENDBRANCH   1   6
TORSDOF 2
ENDMDL
MODEL 3
REMARK VINA RESULT:      -4.9      1.149      3.126
REMARK  2 active torsions:
REMARK  status: ('A' for Active; 'I' for Inactive)
REMARK    1  A    between atoms: C1_1  and  C2_2 
REMARK    2  A    between atoms: C1_1  and  C3_3 
ROOT
HETATM    1  C1  UNL     1     -34.051   5.767   4.770  1.00 20.00     0.299 C 
HETATM    2  F4  UNL     1     -34.082   7.016   4.222  1.00 20.00    -0.238 F 
ENDROOT
BRANCH   1   3
HETATM    3  C2  UNL     1     -34.974   4.883   3.964  1.00 20.00     0.392 C 
HETATM    4  F5  UNL     1     -35.243   3.742   4.646  1.00 20.00    -0.211 F 
HETATM    5  F6  UNL     1     -36.159   5.518   3.781  1.00 20.00    -0.211 F 
ENDBRANCH   1   3
BRANCH   1   6
HETATM    6  C3  UNL     1     -34.465   5.884   6.219  1.00 20.00     0.392 C 
HETATM    7  F7  UNL     1     -33.931   7.002   6.769  1.00 20.00    -0.211 F 
HETATM    8  F8  UNL     1     -33.970   4.829   6.914  1.00 20.00    -0.211 F 
ENDBRANCH   1   6
TORSDOF 2
ENDMDL
MODEL 4
REMARK VINA RESULT:      -4.9      1.193      2.304
REMARK  2 active torsions:
REMARK  status: ('A' for Active; 'I' for Inactive)
REMARK    1  A    between atoms: C1_1  and  C2_2 
REMARK    2  A    between atoms: C1_1  and  C3_3 
ROOT
HETATM    1  C1  UNL     1     -34.924   4.921   4.394  1.00 20.00     0.299 C 
HETATM    2  F4  UNL     1     -36.117   5.416   3.958  1.00 20.00    -0.238 F 
ENDROOT
BRANCH   1   3
HETATM    3  C2  UNL     1     -35.005   4.769   5.896  1.00 20.00     0.392 C 
HETATM    4  F5  UNL     1     -34.034   3.931   6.335  1.00 20.00    -0.211 F 
HETATM    5  F6  UNL     1     -34.780   5.971   6.483  1.00 20.00    -0.211 F 
ENDBRANCH   1   3
BRANCH   1   6
HETATM    6  C3  UNL     1     -33.836   5.876   3.958  1.00 20.00     0.392 C 
HETATM    7  F7  UNL     1     -34.325   7.136   3.876  1.00 20.00    -0.211 F 
HETATM    8  F8  UNL     1     -33.413   5.537   2.714  1.00 20.00    -0.211 F 
ENDBRANCH   1   6
TORSDOF 2
ENDMDL
MODEL 5
REMARK VINA RESULT:      -4.8      1.091      3.257
REMARK  2 active torsions:
REMARK  status: ('A' for Active; 'I' for Inactive)
REMARK    1  A    between atoms: C1_1  and  C2_2 
REMARK    2  A    between atoms: C1_1  and  C3_3 
ROOT
HETATM    1  C1  UNL     1     -35.101   5.078   4.595  1.00 20.00     0.299 C 
HETATM    2  F4  UNL     1     -35.165   3.773   4.204  1.00 20.00    -0.238 F 
ENDROOT
BRANCH   1   3
HETATM    3  C2  UNL     1     -34.193   5.808   3.631  1.00 20.00     0.392 C 
HETATM    4  F5  UNL     1     -32.914   5.779   4.079  1.00 20.00    -0.211 F 
HETATM    5  F6  UNL     1     -34.203   5.170   2.433  1.00 20.00    -0.211 F 
ENDBRANCH   1   3
BRANCH   1   6
HETATM    6  C3  UNL     1     -34.595   5.113   6.019  1.00 20.00     0.392 C 
HETATM    7  F7  UNL     1     -35.469   4.483   6.841  1.00 20.00    -0.211 F 
HETATM    8  F8  UNL     1     -34.521   6.401   6.438  1.00 20.00    -0.211 F 
ENDBRANCH   1   6
TORSDOF 2
ENDMDL
MODEL 6
REMARK VINA RESULT:      -4.8      1.224      2.991
REMARK  2 active torsions:
REMARK  status: ('A' for Active; 'I' for Inactive)
REMARK    1  A    between atoms: C1_1  and  C2_2 
REMARK    2  A    between atoms: C1_1  and  C3_3 
ROOT
HETATM    1  C1  UNL     1     -33.937   5.599   5.126  1.00 20.00     0.299 C 
HETATM    2  F4  UNL     1     -34.066   6.704   5.915  1.00 20.00    -0.238 F 
ENDROOT
BRANCH   1   3
HETATM    3  C2  UNL     1     -33.817   6.063   3.692  1.00 20.00     0.392 C 
HETATM    4  F5  UNL     1     -32.548   5.890   3.249  1.00 20.00    -0.211 F 
HETATM    5  F6  UNL     1     -34.615   5.299   2.904  1.00 20.00    -0.211 F 
ENDBRANCH   1   3
BRANCH   1   6
HETATM    6  C3  UNL     1     -35.141   4.716   5.360  1.00 20.00     0.392 C 
HETATM    7  F7  UNL     1     -35.569   4.838   6.640  1.00 20.00    -0.211 F 
HETATM    8  F8  UNL     1     -34.787   3.418   5.186  1.00 20.00    -0.211 F 
ENDBRANCH   1   6
TORSDOF 2
ENDMDL
MODEL 7
REMARK VINA RESULT:      -4.8      0.943      2.698
REMARK  2 active torsions:
REMARK  status: ('A' for Active; 'I' for Inactive)
REMARK    1  A    between atoms: C1_1  and  C2_2 
REMARK    2  A    between atoms: C1_1  and  C3_3 
ROOT
HETATM    1  C1  UNL     1     -33.850   5.651   4.972  1.00 20.00     0.299 C 
HETATM    2  F4  UNL     1     -34.158   6.639   5.861  1.00 20.00    -0.238 F 
ENDROOT
BRANCH   1   3
HETATM    3  C2  UNL     1     -33.563   6.299   3.637  1.00 20.00     0.392 C 
HETATM    4  F5  UNL     1     -32.276   6.723   3.590  1.00 20.00    -0.211 F 
HETATM    5  F6  UNL     1     -33.711   5.381   2.649  1.00 20.00    -0.211 F 
ENDBRANCH   1   3
BRANCH   1   6
HETATM    6  C3  UNL     1     -35.018   4.691   4.920  1.00 20.00     0.392 C 
HETATM    7  F7  UNL     1     -36.038   5.234   4.212  1.00 20.00    -0.211 F 
HETATM    8  F8  UNL     1     -35.481   4.480   6.178  1.00 20.00    -0.211 F 
ENDBRANCH   1   6
TORSDOF 2
ENDMDL
MODEL 8
REMARK VINA RESULT:      -4.7      0.843      3.411
REMARK  2 active torsions:
REMARK  status: ('A' for Active; 'I' for Inactive)
REMARK    1  A    between atoms: C1_1  and  C2_2 
REMARK    2  A    between atoms: C1_1  and  C3_3 
ROOT
HETATM    1  C1  UNL     1     -34.818   5.897   4.513  1.00 20.00     0.299 C 
HETATM    2  F4  UNL     1     -35.849   5.137   4.044  1.00 20.00    -0.238 F 
ENDROOT
BRANCH   1   3
HETATM    3  C2  UNL     1     -33.672   5.781   3.533  1.00 20.00     0.392 C 
HETATM    4  F5  UNL     1     -34.102   5.221   2.375  1.00 20.00    -0.211 F 
HETATM    5  F6  UNL     1     -33.217   7.021   3.224  1.00 20.00    -0.211 F 
ENDBRANCH   1   3
BRANCH   1   6
HETATM    6  C3  UNL     1     -34.462   5.398   5.895  1.00 20.00     0.392 C 
HETATM    7  F7  UNL     1     -35.429   4.567   6.355  1.00 20.00    -0.211 F 
HETATM    8  F8  UNL     1     -34.406   6.448   6.751  1.00 20.00    -0.211 F 
ENDBRANCH   1   6
TORSDOF 2
ENDMDL
MODEL 9
REMARK VINA RESULT:      -4.7      1.096      2.164
REMARK  2 active torsions:
REMARK  status: ('A' for Active; 'I' for Inactive)
REMARK    1  A    between atoms: C1_1  and  C2_2 
REMARK    2  A    between atoms: C1_1  and  C3_3 
ROOT
HETATM    1  C1  UNL     1     -34.704   5.090   4.168  1.00 20.00     0.299 C 
HETATM    2  F4  UNL     1     -36.001   5.476   4.000  1.00 20.00    -0.238 F 
ENDROOT
BRANCH   1   3
HETATM    3  C2  UNL     1     -34.521   4.695   5.616  1.00 20.00     0.392 C 
HETATM    4  F5  UNL     1     -35.179   5.562   6.424  1.00 20.00    -0.211 F 
HETATM    5  F6  UNL     1     -35.071   3.472   5.822  1.00 20.00    -0.211 F 
ENDBRANCH   1   3
BRANCH   1   6
HETATM    6  C3  UNL     1     -33.817   6.243   3.757  1.00 20.00     0.392 C 
HETATM    7  F7  UNL     1     -32.931   5.839   2.815  1.00 20.00    -0.211 F 
HETATM    8  F8  UNL     1     -33.093   6.657   4.827  1.00 20.00    -0.211 F 
ENDBRANCH   1   6
TORSDOF 2
ENDMDL
