MODEL 1
REMARK VINA RESULT:      -4.0      0.000      0.000
REMARK  5 active torsions:
REMARK  status: ('A' for Active; 'I' for Inactive)
REMARK    1  A    between atoms: C4_4  and  C7_7 
REMARK    2  A    between atoms: C5_5  and  C9_9 
REMARK    3  A    between atoms: C6_6  and  C9_9 
REMARK    4  A    between atoms: C7_7  and  C9_9 
REMARK    5  A    between atoms: C8_8  and  C9_9 
ROOT
HETATM    1  C9  UNL     1     -34.564  15.377  -3.472  1.00 20.00    -0.029 C 
ENDROOT
BRANCH   1   2
HETATM    2  C5  UNL     1     -33.368  16.250  -3.978  1.00 20.00     0.006 C 
HETATM    3  C2  UNL     1     -33.491  16.813  -5.388  1.00 20.00     0.006 C 
ENDBRANCH   1   2
BRANCH   1   4
HETATM    4  C6  UNL     1     -34.221  13.855  -3.556  1.00 20.00     0.006 C 
HETATM    5  C3  UNL     1     -34.504  13.172  -4.889  1.00 20.00     0.006 C 
ENDBRANCH   1   4
BRANCH   1   6
HETATM    6  C7  UNL     1     -34.836  15.813  -1.994  1.00 20.00     0.010 C 
BRANCH   6   7
HETATM    7  C4  UNL     1     -33.964  16.951  -1.451  1.00 20.00    -0.004 C 
HETATM    8  C1  UNL     1     -34.466  17.428  -0.094  1.00 20.00     0.005 C 
ENDBRANCH   6   7
ENDBRANCH   1   6
BRANCH   1   9
HETATM    9  C8  UNL     1     -35.825  15.585  -4.364  1.00 20.00     0.124 C 
HETATM   10 CL10 UNL     1     -37.348  15.018  -3.632  1.00 20.00    -0.130 Cl
ENDBRANCH   1   9
TORSDOF 5
ENDMDL
MODEL 2
REMARK VINA RESULT:      -3.9      0.893      3.433
REMARK  5 active torsions:
REMARK  status: ('A' for Active; 'I' for Inactive)
REMARK    1  A    between atoms: C4_4  and  C7_7 
REMARK    2  A    between atoms: C5_5  and  C9_9 
REMARK    3  A    between atoms: C6_6  and  C9_9 
REMARK    4  A    between atoms: C7_7  and  C9_9 
REMARK    5  A    between atoms: C8_8  and  C9_9 
ROOT
HETATM    1  C9  UNL     1     -34.264  16.252  -3.274  1.00 20.00    -0.029 C 
ENDROOT
BRANCH   1   2
HETATM    2  C5  UNL     1     -33.770  16.906  -1.941  1.00 20.00     0.006 C 
HETATM    3  C2  UNL     1     -34.646  16.684  -0.714  1.00 20.00     0.006 C 
ENDBRANCH   1   2
BRANCH   1   4
HETATM    4  C6  UNL     1     -33.249  16.509  -4.434  1.00 20.00     0.006 C 
HETATM    5  C3  UNL     1     -33.818  17.130  -5.704  1.00 20.00     0.006 C 
ENDBRANCH   1   4
BRANCH   1   6
HETATM    6  C7  UNL     1     -34.416  14.721  -2.986  1.00 20.00     0.010 C 
BRANCH   6   7
HETATM    7  C4  UNL     1     -33.722  13.775  -3.973  1.00 20.00    -0.004 C 
HETATM    8  C1  UNL     1     -34.725  13.156  -4.938  1.00 20.00     0.005 C 
ENDBRANCH   6   7
ENDBRANCH   1   6
BRANCH   1   9
HETATM    9  C8  UNL     1     -35.615  16.876  -3.737  1.00 20.00     0.124 C 
HETATM   10 CL10 UNL     1     -37.018  15.787  -3.598  1.00 20.00    -0.130 Cl
ENDBRANCH   1   9
TORSDOF 5
ENDMDL
MODEL 3
REMARK VINA RESULT:      -3.9      1.075      3.719
REMARK  5 active torsions:
REMARK  status: ('A' for Active; 'I' for Inactive)
REMARK    1  A    between atoms: C4_4  and  C7_7 
REMARK    2  A    between atoms: C5_5  and  C9_9 
REMARK    3  A    between atoms: C6_6  and  C9_9 
REMARK    4  A    between atoms: C7_7  and  C9_9 
REMARK    5  A    between atoms: C8_8  and  C9_9 
ROOT
HETATM    1  C9  UNL     1     -34.355  15.985  -3.471  1.00 20.00    -0.029 C 
ENDROOT
BRANCH   1   2
HETATM    2  C5  UNL     1     -34.487  14.433  -3.325  1.00 20.00     0.006 C 
HETATM    3  C2  UNL     1     -33.274  13.610  -3.743  1.00 20.00     0.006 C 
ENDBRANCH   1   2
BRANCH   1   4
HETATM    4  C6  UNL     1     -33.774  16.623  -2.168  1.00 20.00     0.006 C 
HETATM    5  C3  UNL     1     -34.666  16.567  -0.933  1.00 20.00     0.006 C 
ENDBRANCH   1   4
BRANCH   1   6
HETATM    6  C7  UNL     1     -33.409  16.237  -4.692  1.00 20.00     0.010 C 
BRANCH   6   7
HETATM    7  C4  UNL     1     -34.092  16.612  -6.012  1.00 20.00    -0.004 C 
HETATM    8  C1  UNL     1     -34.262  15.392  -6.908  1.00 20.00     0.005 C 
ENDBRANCH   6   7
ENDBRANCH   1   6
BRANCH   1   9
HETATM    9  C8  UNL     1     -35.749  16.648  -3.690  1.00 20.00     0.124 C 
HETATM   10 CL10 UNL     1     -37.109  15.499  -3.776  1.00 20.00    -0.130 Cl
ENDBRANCH   1   9
TORSDOF 5
ENDMDL
MODEL 4
REMARK VINA RESULT:      -3.9      1.809      3.958
REMARK  5 active torsions:
REMARK  status: ('A' for Active; 'I' for Inactive)
REMARK    1  A    between atoms: C4_4  and  C7_7 
REMARK    2  A    between atoms: C5_5  and  C9_9 
REMARK    3  A    between atoms: C6_6  and  C9_9 
REMARK    4  A    between atoms: C7_7  and  C9_9 
REMARK    5  A    between atoms: C8_8  and  C9_9 
ROOT
HETATM    1  C9  UNL     1     -34.244  16.349  -2.980  1.00 20.00    -0.029 C 
ENDROOT
BRANCH   1   2
HETATM    2  C5  UNL     1     -35.764  15.987  -2.904  1.00 20.00     0.006 C 
HETATM    3  C2  UNL     1     -36.700  16.810  -3.781  1.00 20.00     0.006 C 
ENDBRANCH   1   2
BRANCH   1   4
HETATM    4  C6  UNL     1     -33.727  16.887  -1.607  1.00 20.00     0.006 C 
HETATM    5  C3  UNL     1     -34.720  16.854  -0.451  1.00 20.00     0.006 C 
ENDBRANCH   1   4
BRANCH   1   6
HETATM    6  C7  UNL     1     -33.496  15.036  -3.389  1.00 20.00     0.010 C 
BRANCH   6   7
HETATM    7  C4  UNL     1     -34.360  13.777  -3.522  1.00 20.00    -0.004 C 
HETATM    8  C1  UNL     1     -34.479  13.344  -4.977  1.00 20.00     0.005 C 
ENDBRANCH   6   7
ENDBRANCH   1   6
BRANCH   1   9
HETATM    9  C8  UNL     1     -33.990  17.488  -4.013  1.00 20.00     0.124 C 
HETATM   10 CL10 UNL     1     -33.486  16.923  -5.627  1.00 20.00    -0.130 Cl
ENDBRANCH   1   9
TORSDOF 5
ENDMDL
MODEL 5
REMARK VINA RESULT:      -3.8      1.281      2.567
REMARK  5 active torsions:
REMARK  status: ('A' for Active; 'I' for Inactive)
REMARK    1  A    between atoms: C4_4  and  C7_7 
REMARK    2  A    between atoms: C5_5  and  C9_9 
REMARK    3  A    between atoms: C6_6  and  C9_9 
REMARK    4  A    between atoms: C7_7  and  C9_9 
REMARK    5  A    between atoms: C8_8  and  C9_9 
ROOT
HETATM    1  C9  UNL     1     -34.549  15.377  -3.446  1.00 20.00    -0.029 C 
ENDROOT
BRANCH   1   2
HETATM    2  C5  UNL     1     -35.858  15.707  -4.236  1.00 20.00     0.006 C 
HETATM    3  C2  UNL     1     -37.148  15.111  -3.686  1.00 20.00     0.006 C 
ENDBRANCH   1   2
BRANCH   1   4
HETATM    4  C6  UNL     1     -33.317  16.108  -4.071  1.00 20.00     0.006 C 
HETATM    5  C3  UNL     1     -33.522  16.713  -5.455  1.00 20.00     0.006 C 
ENDBRANCH   1   4
BRANCH   1   6
HETATM    6  C7  UNL     1     -34.792  15.843  -1.971  1.00 20.00     0.010 C 
BRANCH   6   7
HETATM    7  C4  UNL     1     -33.928  17.009  -1.478  1.00 20.00    -0.004 C 
HETATM    8  C1  UNL     1     -34.403  17.510  -0.121  1.00 20.00     0.005 C 
ENDBRANCH   6   7
ENDBRANCH   1   6
BRANCH   1   9
HETATM    9  C8  UNL     1     -34.224  13.854  -3.509  1.00 20.00     0.124 C 
HETATM   10 CL10 UNL     1     -34.516  13.102  -5.098  1.00 20.00    -0.130 Cl
ENDBRANCH   1   9
TORSDOF 5
ENDMDL
MODEL 6
REMARK VINA RESULT:      -3.8      1.814      3.301
REMARK  5 active torsions:
REMARK  status: ('A' for Active; 'I' for Inactive)
REMARK    1  A    between atoms: C4_4  and  C7_7 
REMARK    2  A    between atoms: C5_5  and  C9_9 
REMARK    3  A    between atoms: C6_6  and  C9_9 
REMARK    4  A    between atoms: C7_7  and  C9_9 
REMARK    5  A    between atoms: C8_8  and  C9_9 
ROOT
HETATM    1  C9  UNL     1     -34.118  16.196  -3.150  1.00 20.00    -0.029 C 
ENDROOT
BRANCH   1   2
HETATM    2  C5  UNL     1     -33.713  16.889  -1.808  1.00 20.00     0.006 C 
HETATM    3  C2  UNL     1     -34.675  16.712  -0.639  1.00 20.00     0.006 C 
ENDBRANCH   1   2
BRANCH   1   4
HETATM    4  C6  UNL     1     -33.022  15.181  -3.610  1.00 20.00     0.006 C 
HETATM    5  C3  UNL     1     -33.470  13.733  -3.775  1.00 20.00     0.006 C 
ENDBRANCH   1   4
BRANCH   1   6
HETATM    6  C7  UNL     1     -35.480  15.471  -2.882  1.00 20.00     0.010 C 
BRANCH   6   7
HETATM    7  C4  UNL     1     -36.660  15.901  -3.761  1.00 20.00    -0.004 C 
HETATM    8  C1  UNL     1     -37.635  14.750  -3.971  1.00 20.00     0.005 C 
ENDBRANCH   6   7
ENDBRANCH   1   6
BRANCH   1   9
HETATM    9  C8  UNL     1     -34.250  17.237  -4.302  1.00 20.00     0.124 C 
HETATM   10 CL10 UNL     1     -33.780  16.627  -5.909  1.00 20.00    -0.130 Cl
ENDBRANCH   1   9
TORSDOF 5
ENDMDL
MODEL 7
REMARK VINA RESULT:      -3.8      1.802      2.477
REMARK  5 active torsions:
REMARK  status: ('A' for Active; 'I' for Inactive)
REMARK    1  A    between atoms: C4_4  and  C7_7 
REMARK    2  A    between atoms: C5_5  and  C9_9 
REMARK    3  A    between atoms: C6_6  and  C9_9 
REMARK    4  A    between atoms: C7_7  and  C9_9 
REMARK    5  A    between atoms: C8_8  and  C9_9 
ROOT
HETATM    1  C9  UNL     1     -34.213  16.151  -3.199  1.00 20.00    -0.029 C 
ENDROOT
BRANCH   1   2
HETATM    2  C5  UNL     1     -33.064  15.170  -3.603  1.00 20.00     0.006 C 
HETATM    3  C2  UNL     1     -33.457  13.709  -3.792  1.00 20.00     0.006 C 
ENDBRANCH   1   2
BRANCH   1   4
HETATM    4  C6  UNL     1     -35.563  15.385  -3.010  1.00 20.00     0.006 C 
HETATM    5  C3  UNL     1     -36.714  15.813  -3.913  1.00 20.00     0.006 C 
ENDBRANCH   1   4
BRANCH   1   6
HETATM    6  C7  UNL     1     -33.763  16.836  -1.865  1.00 20.00     0.010 C 
BRANCH   6   7
HETATM    7  C4  UNL     1     -34.702  16.668  -0.666  1.00 20.00    -0.004 C 
HETATM    8  C1  UNL     1     -34.467  17.756   0.373  1.00 20.00     0.005 C 
ENDBRANCH   6   7
ENDBRANCH   1   6
BRANCH   1   9
HETATM    9  C8  UNL     1     -34.470  17.206  -4.317  1.00 20.00     0.124 C 
HETATM   10 CL10 UNL     1     -33.718  16.818  -5.885  1.00 20.00    -0.130 Cl
ENDBRANCH   1   9
TORSDOF 5
ENDMDL
MODEL 8
REMARK VINA RESULT:      -3.8      1.829      3.918
REMARK  5 active torsions:
REMARK  status: ('A' for Active; 'I' for Inactive)
REMARK    1  A    between atoms: C4_4  and  C7_7 
REMARK    2  A    between atoms: C5_5  and  C9_9 
REMARK    3  A    between atoms: C6_6  and  C9_9 
REMARK    4  A    between atoms: C7_7  and  C9_9 
REMARK    5  A    between atoms: C8_8  and  C9_9 
ROOT
HETATM    1  C9  UNL     1     -34.439  15.909  -3.499  1.00 20.00    -0.029 C 
ENDROOT
BRANCH   1   2
HETATM    2  C5  UNL     1     -33.787  16.560  -2.235  1.00 20.00     0.006 C 
HETATM    3  C2  UNL     1     -34.631  16.564  -0.966  1.00 20.00     0.006 C 
ENDBRANCH   1   2
BRANCH   1   4
HETATM    4  C6  UNL     1     -35.909  16.404  -3.689  1.00 20.00     0.006 C 
HETATM    5  C3  UNL     1     -36.992  15.332  -3.654  1.00 20.00     0.006 C 
ENDBRANCH   1   4
BRANCH   1   6
HETATM    6  C7  UNL     1     -33.546  16.317  -4.718  1.00 20.00     0.010 C 
BRANCH   6   7
HETATM    7  C4  UNL     1     -34.279  16.578  -6.038  1.00 20.00    -0.004 C 
HETATM    8  C1  UNL     1     -34.264  15.343  -6.928  1.00 20.00     0.005 C 
ENDBRANCH   6   7
ENDBRANCH   1   6
BRANCH   1   9
HETATM    9  C8  UNL     1     -34.521  14.360  -3.354  1.00 20.00     0.124 C 
HETATM   10 CL10 UNL     1     -32.991  13.505  -3.675  1.00 20.00    -0.130 Cl
ENDBRANCH   1   9
TORSDOF 5
ENDMDL
MODEL 9
REMARK VINA RESULT:      -3.8      1.871      4.098
REMARK  5 active torsions:
REMARK  status: ('A' for Active; 'I' for Inactive)
REMARK    1  A    between atoms: C4_4  and  C7_7 
REMARK    2  A    between atoms: C5_5  and  C9_9 
REMARK    3  A    between atoms: C6_6  and  C9_9 
REMARK    4  A    between atoms: C7_7  and  C9_9 
REMARK    5  A    between atoms: C8_8  and  C9_9 
ROOT
HETATM    1  C9  UNL     1     -34.829  15.594  -3.928  1.00 20.00    -0.029 C 
ENDROOT
BRANCH   1   2
HETATM    2  C5  UNL     1     -34.565  14.074  -3.669  1.00 20.00     0.006 C 
HETATM    3  C2  UNL     1     -33.104  13.645  -3.595  1.00 20.00     0.006 C 
ENDBRANCH   1   2
BRANCH   1   4
HETATM    4  C6  UNL     1     -33.486  16.376  -4.094  1.00 20.00     0.006 C 
HETATM    5  C3  UNL     1     -33.549  17.660  -4.913  1.00 20.00     0.006 C 
ENDBRANCH   1   4
BRANCH   1   6
HETATM    6  C7  UNL     1     -35.695  15.679  -5.229  1.00 20.00     0.010 C 
BRANCH   6   7
HETATM    7  C4  UNL     1     -35.518  14.537  -6.235  1.00 20.00    -0.004 C 
HETATM    8  C1  UNL     1     -34.581  14.942  -7.366  1.00 20.00     0.005 C 
ENDBRANCH   6   7
ENDBRANCH   1   6
BRANCH   1   9
HETATM    9  C8  UNL     1     -35.562  16.249  -2.718  1.00 20.00     0.124 C 
HETATM   10 CL10 UNL     1     -34.600  16.318  -1.220  1.00 20.00    -0.130 Cl
ENDBRANCH   1   9
TORSDOF 5
ENDMDL
