MODEL 1
REMARK VINA RESULT:      -4.8      0.000      0.000
REMARK  0 active torsions:
REMARK  status: ('A' for Active; 'I' for Inactive)
ROOT
HETATM    1  C1  UNL     1     -34.234   6.132   5.969  1.00 20.00    -0.021 C 
HETATM    2  C2  UNL     1     -34.733   4.885   5.994  1.00 20.00    -0.025 C 
HETATM    3  C3  UNL     1     -33.382   5.795   3.694  1.00 20.00    -0.076 C 
HETATM    4  C4  UNL     1     -32.302   6.234   3.044  1.00 20.00    -0.027 C 
HETATM    5  C5  UNL     1     -33.926   4.371   3.688  1.00 20.00     0.043 C 
HETATM    6  C6  UNL     1     -35.651   5.945   4.154  1.00 20.00     0.022 C 
HETATM    7  C7  UNL     1     -34.333   6.623   4.542  1.00 20.00     0.037 C 
HETATM    8  C8  UNL     1     -35.178   4.550   4.584  1.00 20.00     0.013 C 
HETATM    9  C9  UNL     1     -31.815   7.645   3.086  1.00 20.00     0.036 C 
ENDROOT
TORSDOF 0
ENDMDL
MODEL 2
REMARK VINA RESULT:      -4.8     11.649     12.685
REMARK  0 active torsions:
REMARK  status: ('A' for Active; 'I' for Inactive)
ROOT
HETATM    1  C1  UNL     1     -33.354  16.002  -4.828  1.00 20.00    -0.021 C 
HETATM    2  C2  UNL     1     -34.191  15.217  -5.526  1.00 20.00    -0.025 C 
HETATM    3  C3  UNL     1     -34.610  15.583  -2.764  1.00 20.00    -0.076 C 
HETATM    4  C4  UNL     1     -34.887  16.327  -1.691  1.00 20.00    -0.027 C 
HETATM    5  C5  UNL     1     -35.587  14.693  -3.525  1.00 20.00     0.043 C 
HETATM    6  C6  UNL     1     -33.347  13.935  -3.797  1.00 20.00     0.022 C 
HETATM    7  C7  UNL     1     -33.257  15.421  -3.435  1.00 20.00     0.037 C 
HETATM    8  C8  UNL     1     -34.641  14.104  -4.601  1.00 20.00     0.013 C 
HETATM    9  C9  UNL     1     -33.887  17.182  -0.984  1.00 20.00     0.036 C 
ENDROOT
TORSDOF 0
ENDMDL
MODEL 3
REMARK VINA RESULT:      -4.6     11.594     13.124
REMARK  0 active torsions:
REMARK  status: ('A' for Active; 'I' for Inactive)
ROOT
HETATM    1  C1  UNL     1     -35.548  14.722  -3.580  1.00 20.00    -0.021 C 
HETATM    2  C2  UNL     1     -34.735  15.465  -2.812  1.00 20.00    -0.025 C 
HETATM    3  C3  UNL     1     -34.171  15.178  -5.558  1.00 20.00    -0.076 C 
HETATM    4  C4  UNL     1     -34.451  15.340  -6.852  1.00 20.00    -0.027 C 
HETATM    5  C5  UNL     1     -33.231  16.038  -4.720  1.00 20.00     0.043 C 
HETATM    6  C6  UNL     1     -33.423  13.845  -3.813  1.00 20.00     0.022 C 
HETATM    7  C7  UNL     1     -34.689  14.079  -4.645  1.00 20.00     0.037 C 
HETATM    8  C8  UNL     1     -33.330  15.306  -3.357  1.00 20.00     0.013 C 
HETATM    9  C9  UNL     1     -35.382  14.464  -7.625  1.00 20.00     0.036 C 
ENDROOT
TORSDOF 0
ENDMDL
MODEL 4
REMARK VINA RESULT:      -4.5     11.586     12.836
REMARK  0 active torsions:
REMARK  status: ('A' for Active; 'I' for Inactive)
ROOT
HETATM    1  C1  UNL     1     -35.039  13.767  -3.822  1.00 20.00    -0.021 C 
HETATM    2  C2  UNL     1     -34.332  13.735  -4.964  1.00 20.00    -0.025 C 
HETATM    3  C3  UNL     1     -34.141  15.983  -3.275  1.00 20.00    -0.076 C 
HETATM    4  C4  UNL     1     -33.820  16.584  -2.128  1.00 20.00    -0.027 C 
HETATM    5  C5  UNL     1     -33.316  15.978  -4.557  1.00 20.00     0.043 C 
HETATM    6  C6  UNL     1     -35.628  15.650  -5.024  1.00 20.00     0.022 C 
HETATM    7  C7  UNL     1     -35.415  15.210  -3.572  1.00 20.00     0.037 C 
HETATM    8  C8  UNL     1     -34.250  15.157  -5.482  1.00 20.00     0.013 C 
HETATM    9  C9  UNL     1     -34.669  16.555  -0.900  1.00 20.00     0.036 C 
ENDROOT
TORSDOF 0
ENDMDL
MODEL 5
REMARK VINA RESULT:      -4.5      8.610     10.206
REMARK  0 active torsions:
REMARK  status: ('A' for Active; 'I' for Inactive)
ROOT
HETATM    1  C1  UNL     1     -42.080   6.966  -1.824  1.00 20.00    -0.021 C 
HETATM    2  C2  UNL     1     -41.013   7.131  -1.025  1.00 20.00    -0.025 C 
HETATM    3  C3  UNL     1     -41.806   4.529  -1.763  1.00 20.00    -0.076 C 
HETATM    4  C4  UNL     1     -42.021   3.560  -2.654  1.00 20.00    -0.027 C 
HETATM    5  C5  UNL     1     -40.585   4.678  -0.862  1.00 20.00     0.043 C 
HETATM    6  C6  UNL     1     -42.488   5.743   0.093  1.00 20.00     0.022 C 
HETATM    7  C7  UNL     1     -42.746   5.672  -1.416  1.00 20.00     0.037 C 
HETATM    8  C8  UNL     1     -40.978   5.952  -0.073  1.00 20.00     0.013 C 
HETATM    9  C9  UNL     1     -43.240   3.465  -3.512  1.00 20.00     0.036 C 
ENDROOT
TORSDOF 0
ENDMDL
MODEL 6
REMARK VINA RESULT:      -4.3     11.513     13.203
REMARK  0 active torsions:
REMARK  status: ('A' for Active; 'I' for Inactive)
ROOT
HETATM    1  C1  UNL     1     -33.246  15.911  -4.420  1.00 20.00    -0.021 C 
HETATM    2  C2  UNL     1     -32.974  14.882  -3.600  1.00 20.00    -0.025 C 
HETATM    3  C3  UNL     1     -34.722  14.499  -5.777  1.00 20.00    -0.076 C 
HETATM    4  C4  UNL     1     -35.007  14.456  -7.080  1.00 20.00    -0.027 C 
HETATM    5  C5  UNL     1     -34.431  13.306  -4.874  1.00 20.00     0.043 C 
HETATM    6  C6  UNL     1     -35.272  15.145  -3.618  1.00 20.00     0.022 C 
HETATM    7  C7  UNL     1     -34.670  15.737  -4.897  1.00 20.00     0.037 C 
HETATM    8  C8  UNL     1     -34.225  14.029  -3.519  1.00 20.00     0.013 C 
HETATM    9  C9  UNL     1     -35.285  15.661  -7.917  1.00 20.00     0.036 C 
ENDROOT
TORSDOF 0
ENDMDL
MODEL 7
REMARK VINA RESULT:      -4.3      8.651     10.143
REMARK  0 active torsions:
REMARK  status: ('A' for Active; 'I' for Inactive)
ROOT
HETATM    1  C1  UNL     1     -43.152   4.908  -0.751  1.00 20.00    -0.021 C 
HETATM    2  C2  UNL     1     -42.384   5.002   0.347  1.00 20.00    -0.025 C 
HETATM    3  C3  UNL     1     -41.837   6.644  -1.877  1.00 20.00    -0.076 C 
HETATM    4  C4  UNL     1     -42.144   7.607  -2.749  1.00 20.00    -0.027 C 
HETATM    5  C5  UNL     1     -40.949   6.787  -0.646  1.00 20.00     0.043 C 
HETATM    6  C6  UNL     1     -40.975   4.538  -1.428  1.00 20.00     0.022 C 
HETATM    7  C7  UNL     1     -42.264   5.188  -1.942  1.00 20.00     0.037 C 
HETATM    8  C8  UNL     1     -40.979   5.332  -0.115  1.00 20.00     0.013 C 
HETATM    9  C9  UNL     1     -43.021   7.409  -3.941  1.00 20.00     0.036 C 
ENDROOT
TORSDOF 0
ENDMDL
MODEL 8
REMARK VINA RESULT:      -4.3     11.406     13.124
REMARK  0 active torsions:
REMARK  status: ('A' for Active; 'I' for Inactive)
ROOT
HETATM    1  C1  UNL     1     -33.007  15.065  -3.748  1.00 20.00    -0.021 C 
HETATM    2  C2  UNL     1     -33.253  13.749  -3.645  1.00 20.00    -0.025 C 
HETATM    3  C3  UNL     1     -34.552  15.252  -5.644  1.00 20.00    -0.076 C 
HETATM    4  C4  UNL     1     -34.565  16.005  -6.745  1.00 20.00    -0.027 C 
HETATM    5  C5  UNL     1     -34.849  13.759  -5.565  1.00 20.00     0.043 C 
HETATM    6  C6  UNL     1     -35.291  14.831  -3.486  1.00 20.00     0.022 C 
HETATM    7  C7  UNL     1     -34.284  15.721  -4.224  1.00 20.00     0.037 C 
HETATM    8  C8  UNL     1     -34.700  13.529  -4.040  1.00 20.00     0.013 C 
HETATM    9  C9  UNL     1     -34.266  17.469  -6.763  1.00 20.00     0.036 C 
ENDROOT
TORSDOF 0
ENDMDL
MODEL 9
REMARK VINA RESULT:      -4.2     11.436     12.707
REMARK  0 active torsions:
REMARK  status: ('A' for Active; 'I' for Inactive)
ROOT
HETATM    1  C1  UNL     1     -34.416  13.299  -4.573  1.00 20.00    -0.021 C 
HETATM    2  C2  UNL     1     -33.382  13.640  -3.787  1.00 20.00    -0.025 C 
HETATM    3  C3  UNL     1     -35.787  15.100  -3.629  1.00 20.00    -0.076 C 
HETATM    4  C4  UNL     1     -37.090  15.221  -3.368  1.00 20.00    -0.027 C 
HETATM    5  C5  UNL     1     -34.638  15.511  -2.714  1.00 20.00     0.043 C 
HETATM    6  C6  UNL     1     -33.962  15.524  -4.997  1.00 20.00     0.022 C 
HETATM    7  C7  UNL     1     -35.160  14.572  -4.908  1.00 20.00     0.037 C 
HETATM    8  C8  UNL     1     -33.428  15.145  -3.610  1.00 20.00     0.013 C 
HETATM    9  C9  UNL     1     -38.175  14.800  -4.305  1.00 20.00     0.036 C 
ENDROOT
TORSDOF 0
ENDMDL
