MODEL 1
REMARK VINA RESULT:      -5.4      0.000      0.000
REMARK  3 active torsions:
REMARK  status: ('A' for Active; 'I' for Inactive)
REMARK    1  A    between atoms: C2_2  and  C6_6 
REMARK    2  A    between atoms: C6_6  and  C7_7 
REMARK    3  A    between atoms: C7_7  and  C8_8 
ROOT
HETATM    1  C6  UNL     1     -33.611   5.841   2.868  1.00 20.00     0.027 C 
ENDROOT
BRANCH   1   2
HETATM    2  C2  UNL     1     -32.265   6.292   3.356  1.00 20.00    -0.031 C 
HETATM    3  C1  UNL     1     -31.670   7.426   2.960  1.00 20.00    -0.035 C 
HETATM    4  C3  UNL     1     -32.271   8.383   1.986  1.00 20.00     0.035 C 
ENDBRANCH   1   2
BRANCH   1   5
HETATM    5  C7  UNL     1     -34.671   5.810   3.976  1.00 20.00     0.007 C 
BRANCH   5   6
HETATM    6  C8  UNL     1     -34.189   5.278   5.341  1.00 20.00    -0.022 C 
HETATM    7  C4  UNL     1     -34.167   6.420   6.361  1.00 20.00     0.009 C 
HETATM    8  C5  UNL     1     -35.062   4.137   5.863  1.00 20.00     0.009 C 
ENDBRANCH   5   6
ENDBRANCH   1   5
TORSDOF 3
ENDMDL
MODEL 2
REMARK VINA RESULT:      -5.0      0.674      1.419
REMARK  3 active torsions:
REMARK  status: ('A' for Active; 'I' for Inactive)
REMARK    1  A    between atoms: C2_2  and  C6_6 
REMARK    2  A    between atoms: C6_6  and  C7_7 
REMARK    3  A    between atoms: C7_7  and  C8_8 
ROOT
HETATM    1  C6  UNL     1     -33.727   6.885   3.582  1.00 20.00     0.027 C 
ENDROOT
BRANCH   1   2
HETATM    2  C2  UNL     1     -32.314   6.787   3.085  1.00 20.00    -0.031 C 
HETATM    3  C1  UNL     1     -31.735   7.704   2.297  1.00 20.00    -0.035 C 
HETATM    4  C3  UNL     1     -32.422   8.938   1.815  1.00 20.00     0.035 C 
ENDBRANCH   1   2
BRANCH   1   5
HETATM    5  C7  UNL     1     -34.334   5.522   3.937  1.00 20.00     0.007 C 
BRANCH   5   6
HETATM    6  C8  UNL     1     -34.887   5.396   5.371  1.00 20.00    -0.022 C 
HETATM    7  C4  UNL     1     -34.824   3.934   5.822  1.00 20.00     0.009 C 
HETATM    8  C5  UNL     1     -34.129   6.275   6.367  1.00 20.00     0.009 C 
ENDBRANCH   5   6
ENDBRANCH   1   5
TORSDOF 3
ENDMDL
MODEL 3
REMARK VINA RESULT:      -4.8      0.868      4.298
REMARK  3 active torsions:
REMARK  status: ('A' for Active; 'I' for Inactive)
REMARK    1  A    between atoms: C2_2  and  C6_6 
REMARK    2  A    between atoms: C6_6  and  C7_7 
REMARK    3  A    between atoms: C7_7  and  C8_8 
ROOT
HETATM    1  C6  UNL     1     -34.057   6.463   3.782  1.00 20.00     0.027 C 
ENDROOT
BRANCH   1   2
HETATM    2  C2  UNL     1     -35.009   5.310   3.916  1.00 20.00    -0.031 C 
HETATM    3  C1  UNL     1     -35.223   4.649   5.062  1.00 20.00    -0.035 C 
HETATM    4  C3  UNL     1     -34.543   4.976   6.349  1.00 20.00     0.035 C 
ENDBRANCH   1   2
BRANCH   1   5
HETATM    5  C7  UNL     1     -32.810   6.118   2.958  1.00 20.00     0.007 C 
BRANCH   5   6
HETATM    6  C8  UNL     1     -31.745   7.231   2.870  1.00 20.00    -0.022 C 
HETATM    7  C4  UNL     1     -32.237   8.343   1.940  1.00 20.00     0.009 C 
HETATM    8  C5  UNL     1     -31.403   7.819   4.240  1.00 20.00     0.009 C 
ENDBRANCH   5   6
ENDBRANCH   1   5
TORSDOF 3
ENDMDL
MODEL 4
REMARK VINA RESULT:      -4.7      0.743      4.047
REMARK  3 active torsions:
REMARK  status: ('A' for Active; 'I' for Inactive)
REMARK    1  A    between atoms: C2_2  and  C6_6 
REMARK    2  A    between atoms: C6_6  and  C7_7 
REMARK    3  A    between atoms: C7_7  and  C8_8 
ROOT
HETATM    1  C6  UNL     1     -34.554   5.905   3.549  1.00 20.00     0.027 C 
ENDROOT
BRANCH   1   2
HETATM    2  C2  UNL     1     -34.746   4.897   4.645  1.00 20.00    -0.031 C 
HETATM    3  C1  UNL     1     -34.539   5.159   5.943  1.00 20.00    -0.035 C 
HETATM    4  C3  UNL     1     -34.094   6.486   6.462  1.00 20.00     0.035 C 
ENDBRANCH   1   2
BRANCH   1   5
HETATM    5  C7  UNL     1     -33.091   6.044   3.110  1.00 20.00     0.007 C 
BRANCH   5   6
HETATM    6  C8  UNL     1     -32.523   7.477   3.139  1.00 20.00    -0.022 C 
HETATM    7  C4  UNL     1     -31.311   7.533   4.073  1.00 20.00     0.009 C 
HETATM    8  C5  UNL     1     -32.124   7.974   1.749  1.00 20.00     0.009 C 
ENDBRANCH   5   6
ENDBRANCH   1   5
TORSDOF 3
ENDMDL
MODEL 5
REMARK VINA RESULT:      -4.7      1.045      2.107
REMARK  3 active torsions:
REMARK  status: ('A' for Active; 'I' for Inactive)
REMARK    1  A    between atoms: C2_2  and  C6_6 
REMARK    2  A    between atoms: C6_6  and  C7_7 
REMARK    3  A    between atoms: C7_7  and  C8_8 
ROOT
HETATM    1  C6  UNL     1     -32.202   7.445   3.338  1.00 20.00     0.027 C 
ENDROOT
BRANCH   1   2
HETATM    2  C2  UNL     1     -31.828   7.657   1.900  1.00 20.00    -0.031 C 
HETATM    3  C1  UNL     1     -32.045   8.800   1.234  1.00 20.00    -0.035 C 
HETATM    4  C3  UNL     1     -32.683  10.006   1.838  1.00 20.00     0.035 C 
ENDBRANCH   1   2
BRANCH   1   5
HETATM    5  C7  UNL     1     -32.968   6.137   3.573  1.00 20.00     0.007 C 
BRANCH   5   6
HETATM    6  C8  UNL     1     -34.228   6.255   4.453  1.00 20.00    -0.022 C 
HETATM    7  C4  UNL     1     -35.127   5.035   4.234  1.00 20.00     0.009 C 
HETATM    8  C5  UNL     1     -33.890   6.385   5.939  1.00 20.00     0.009 C 
ENDBRANCH   5   6
ENDBRANCH   1   5
TORSDOF 3
ENDMDL
MODEL 6
REMARK VINA RESULT:      -4.3      0.825      4.595
REMARK  3 active torsions:
REMARK  status: ('A' for Active; 'I' for Inactive)
REMARK    1  A    between atoms: C2_2  and  C6_6 
REMARK    2  A    between atoms: C6_6  and  C7_7 
REMARK    3  A    between atoms: C7_7  and  C8_8 
ROOT
HETATM    1  C6  UNL     1     -32.231   6.307   3.292  1.00 20.00     0.027 C 
ENDROOT
BRANCH   1   2
HETATM    2  C2  UNL     1     -33.669   6.050   2.948  1.00 20.00    -0.031 C 
HETATM    3  C1  UNL     1     -34.599   5.699   3.847  1.00 20.00    -0.035 C 
HETATM    4  C3  UNL     1     -34.323   5.520   5.302  1.00 20.00     0.035 C 
ENDBRANCH   1   2
BRANCH   1   5
HETATM    5  C7  UNL     1     -31.807   7.761   3.050  1.00 20.00     0.007 C 
BRANCH   5   6
HETATM    6  C8  UNL     1     -32.431   8.437   1.813  1.00 20.00    -0.022 C 
HETATM    7  C4  UNL     1     -32.756   9.899   2.131  1.00 20.00     0.009 C 
HETATM    8  C5  UNL     1     -31.518   8.368   0.588  1.00 20.00     0.009 C 
ENDBRANCH   5   6
ENDBRANCH   1   5
TORSDOF 3
ENDMDL
MODEL 7
REMARK VINA RESULT:      -3.9     11.024     12.044
REMARK  3 active torsions:
REMARK  status: ('A' for Active; 'I' for Inactive)
REMARK    1  A    between atoms: C2_2  and  C6_6 
REMARK    2  A    between atoms: C6_6  and  C7_7 
REMARK    3  A    between atoms: C7_7  and  C8_8 
ROOT
HETATM    1  C6  UNL     1     -33.113  14.856  -3.635  1.00 20.00     0.027 C 
ENDROOT
BRANCH   1   2
HETATM    2  C2  UNL     1     -34.133  13.755  -3.589  1.00 20.00    -0.031 C 
HETATM    3  C1  UNL     1     -34.931  13.436  -4.617  1.00 20.00    -0.035 C 
HETATM    4  C3  UNL     1     -34.907  14.134  -5.936  1.00 20.00     0.035 C 
ENDBRANCH   1   2
BRANCH   1   5
HETATM    5  C7  UNL     1     -33.634  16.180  -3.062  1.00 20.00     0.007 C 
BRANCH   5   6
HETATM    6  C8  UNL     1     -34.878  16.067  -2.158  1.00 20.00    -0.022 C 
HETATM    7  C4  UNL     1     -34.575  16.670  -0.784  1.00 20.00     0.009 C 
HETATM    8  C5  UNL     1     -36.102  16.756  -2.764  1.00 20.00     0.009 C 
ENDBRANCH   5   6
ENDBRANCH   1   5
TORSDOF 3
ENDMDL
MODEL 8
REMARK VINA RESULT:      -3.9     11.058     11.988
REMARK  3 active torsions:
REMARK  status: ('A' for Active; 'I' for Inactive)
REMARK    1  A    between atoms: C2_2  and  C6_6 
REMARK    2  A    between atoms: C6_6  and  C7_7 
REMARK    3  A    between atoms: C7_7  and  C8_8 
ROOT
HETATM    1  C6  UNL     1     -34.112  16.331  -2.212  1.00 20.00     0.027 C 
ENDROOT
BRANCH   1   2
HETATM    2  C2  UNL     1     -34.691  16.648  -0.863  1.00 20.00    -0.031 C 
HETATM    3  C1  UNL     1     -34.202  17.589  -0.045  1.00 20.00    -0.035 C 
HETATM    4  C3  UNL     1     -33.022  18.442  -0.371  1.00 20.00     0.035 C 
ENDBRANCH   1   2
BRANCH   1   5
HETATM    5  C7  UNL     1     -34.986  15.370  -3.029  1.00 20.00     0.007 C 
BRANCH   5   6
HETATM    6  C8  UNL     1     -34.341  14.010  -3.363  1.00 20.00    -0.022 C 
HETATM    7  C4  UNL     1     -35.047  13.386  -4.570  1.00 20.00     0.009 C 
HETATM    8  C5  UNL     1     -32.844  14.129  -3.648  1.00 20.00     0.009 C 
ENDBRANCH   5   6
ENDBRANCH   1   5
TORSDOF 3
ENDMDL
MODEL 9
REMARK VINA RESULT:      -3.8     11.094     12.159
REMARK  3 active torsions:
REMARK  status: ('A' for Active; 'I' for Inactive)
REMARK    1  A    between atoms: C2_2  and  C6_6 
REMARK    2  A    between atoms: C6_6  and  C7_7 
REMARK    3  A    between atoms: C7_7  and  C8_8 
ROOT
HETATM    1  C6  UNL     1     -33.523  15.125  -3.490  1.00 20.00     0.027 C 
ENDROOT
BRANCH   1   2
HETATM    2  C2  UNL     1     -33.865  13.690  -3.769  1.00 20.00    -0.031 C 
HETATM    3  C1  UNL     1     -34.522  13.279  -4.863  1.00 20.00    -0.035 C 
HETATM    4  C3  UNL     1     -34.994  14.196  -5.942  1.00 20.00     0.035 C 
ENDBRANCH   1   2
BRANCH   1   5
HETATM    5  C7  UNL     1     -34.518  15.806  -2.542  1.00 20.00     0.007 C 
BRANCH   5   6
HETATM    6  C8  UNL     1     -33.909  16.841  -1.574  1.00 20.00    -0.022 C 
HETATM    7  C4  UNL     1     -33.805  18.200  -2.272  1.00 20.00     0.009 C 
HETATM    8  C5  UNL     1     -34.723  16.984  -0.288  1.00 20.00     0.009 C 
ENDBRANCH   5   6
ENDBRANCH   1   5
TORSDOF 3
ENDMDL
