MODEL 1
REMARK VINA RESULT:      -5.1      0.000      0.000
REMARK  3 active torsions:
REMARK  status: ('A' for Active; 'I' for Inactive)
REMARK    1  A    between atoms: C5_5  and  C7_7 
REMARK    2  A    between atoms: C5_5  and  N8_8 
REMARK    3  A    between atoms: C6_6  and  C7_7 
ROOT
HETATM    1  C1  UNL     1     -32.079   7.819   2.481  1.00 20.00     0.157 C 
HETATM    2  N8  UNL     1     -32.070   7.008   3.330  1.00 20.00    -0.275 NA
HETATM    3  S9  UNL     1     -32.067   8.933   1.342  1.00 20.00    -0.055 SA
ENDROOT
BRANCH   2   4
HETATM    4  C5  UNL     1     -33.073   5.951   3.182  1.00 20.00     0.155 C 
BRANCH   4   5
HETATM    5  C7  UNL     1     -34.244   6.165   4.160  1.00 20.00     0.005 C 
HETATM    6  C4  UNL     1     -35.517   5.523   3.589  1.00 20.00     0.012 C 
BRANCH   5   7
HETATM    7  C6  UNL     1     -33.938   5.675   5.606  1.00 20.00    -0.017 C 
HETATM    8  C2  UNL     1     -33.868   6.839   6.604  1.00 20.00     0.010 C 
HETATM    9  C3  UNL     1     -34.979   4.665   6.107  1.00 20.00     0.010 C 
ENDBRANCH   5   7
ENDBRANCH   4   5
ENDBRANCH   2   4
TORSDOF 3
ENDMDL
MODEL 2
REMARK VINA RESULT:      -4.5      0.706      1.884
REMARK  3 active torsions:
REMARK  status: ('A' for Active; 'I' for Inactive)
REMARK    1  A    between atoms: C5_5  and  C7_7 
REMARK    2  A    between atoms: C5_5  and  N8_8 
REMARK    3  A    between atoms: C6_6  and  C7_7 
ROOT
HETATM    1  C1  UNL     1     -32.129   7.771   2.371  1.00 20.00     0.157 C 
HETATM    2  N8  UNL     1     -32.257   6.988   3.237  1.00 20.00    -0.275 NA
HETATM    3  S9  UNL     1     -31.926   8.820   1.190  1.00 20.00    -0.055 SA
ENDROOT
BRANCH   2   4
HETATM    4  C5  UNL     1     -33.522   7.085   3.970  1.00 20.00     0.155 C 
BRANCH   4   5
HETATM    5  C7  UNL     1     -33.588   6.029   5.091  1.00 20.00     0.005 C 
HETATM    6  C4  UNL     1     -33.907   6.715   6.427  1.00 20.00     0.012 C 
BRANCH   5   7
HETATM    7  C6  UNL     1     -34.569   4.860   4.781  1.00 20.00    -0.017 C 
HETATM    8  C2  UNL     1     -35.154   4.247   6.060  1.00 20.00     0.010 C 
HETATM    9  C3  UNL     1     -35.728   5.303   3.878  1.00 20.00     0.010 C 
ENDBRANCH   5   7
ENDBRANCH   4   5
ENDBRANCH   2   4
TORSDOF 3
ENDMDL
MODEL 3
REMARK VINA RESULT:      -4.4      0.770      1.951
REMARK  3 active torsions:
REMARK  status: ('A' for Active; 'I' for Inactive)
REMARK    1  A    between atoms: C5_5  and  C7_7 
REMARK    2  A    between atoms: C5_5  and  N8_8 
REMARK    3  A    between atoms: C6_6  and  C7_7 
ROOT
HETATM    1  C1  UNL     1     -32.194   7.591   2.497  1.00 20.00     0.157 C 
HETATM    2  N8  UNL     1     -32.431   6.799   3.331  1.00 20.00    -0.275 NA
HETATM    3  S9  UNL     1     -31.845   8.652   1.361  1.00 20.00    -0.055 SA
ENDROOT
BRANCH   2   4
HETATM    4  C5  UNL     1     -33.693   7.014   4.043  1.00 20.00     0.155 C 
BRANCH   4   5
HETATM    5  C7  UNL     1     -33.755   6.155   5.320  1.00 20.00     0.005 C 
HETATM    6  C4  UNL     1     -33.679   7.062   6.557  1.00 20.00     0.012 C 
BRANCH   5   7
HETATM    7  C6  UNL     1     -34.987   5.204   5.365  1.00 20.00    -0.017 C 
HETATM    8  C2  UNL     1     -35.646   5.050   3.987  1.00 20.00     0.010 C 
HETATM    9  C3  UNL     1     -34.621   3.809   5.888  1.00 20.00     0.010 C 
ENDBRANCH   5   7
ENDBRANCH   4   5
ENDBRANCH   2   4
TORSDOF 3
ENDMDL
MODEL 4
REMARK VINA RESULT:      -3.7     11.722     12.290
REMARK  3 active torsions:
REMARK  status: ('A' for Active; 'I' for Inactive)
REMARK    1  A    between atoms: C5_5  and  C7_7 
REMARK    2  A    between atoms: C5_5  and  N8_8 
REMARK    3  A    between atoms: C6_6  and  C7_7 
ROOT
HETATM    1  C1  UNL     1     -38.479  15.082  -3.562  1.00 20.00     0.157 C 
HETATM    2  N8  UNL     1     -37.642  14.292  -3.792  1.00 20.00    -0.275 NA
HETATM    3  S9  UNL     1     -39.634  16.131  -3.240  1.00 20.00    -0.055 SA
ENDROOT
BRANCH   2   4
HETATM    4  C5  UNL     1     -36.404  14.850  -4.342  1.00 20.00     0.155 C 
BRANCH   4   5
HETATM    5  C7  UNL     1     -35.174  14.103  -3.791  1.00 20.00     0.005 C 
HETATM    6  C4  UNL     1     -34.544  13.255  -4.906  1.00 20.00     0.012 C 
BRANCH   5   7
HETATM    7  C6  UNL     1     -34.136  15.043  -3.110  1.00 20.00    -0.017 C 
HETATM    8  C2  UNL     1     -33.333  15.853  -4.136  1.00 20.00     0.010 C 
HETATM    9  C3  UNL     1     -34.797  16.018  -2.127  1.00 20.00     0.010 C 
ENDBRANCH   5   7
ENDBRANCH   4   5
ENDBRANCH   2   4
TORSDOF 3
ENDMDL
MODEL 5
REMARK VINA RESULT:      -3.7     11.132     12.093
REMARK  3 active torsions:
REMARK  status: ('A' for Active; 'I' for Inactive)
REMARK    1  A    between atoms: C5_5  and  C7_7 
REMARK    2  A    between atoms: C5_5  and  N8_8 
REMARK    3  A    between atoms: C6_6  and  C7_7 
ROOT
HETATM    1  C1  UNL     1     -34.744  16.985  -0.318  1.00 20.00     0.157 C 
HETATM    2  N8  UNL     1     -34.586  16.251  -1.221  1.00 20.00    -0.275 NA
HETATM    3  S9  UNL     1     -34.970  17.957   0.923  1.00 20.00    -0.055 SA
ENDROOT
BRANCH   2   4
HETATM    4  C5  UNL     1     -33.948  16.849  -2.396  1.00 20.00     0.155 C 
BRANCH   4   5
HETATM    5  C7  UNL     1     -34.301  16.062  -3.672  1.00 20.00     0.005 C 
HETATM    6  C4  UNL     1     -33.221  16.298  -4.739  1.00 20.00     0.012 C 
BRANCH   5   7
HETATM    7  C6  UNL     1     -34.550  14.547  -3.414  1.00 20.00    -0.017 C 
HETATM    8  C2  UNL     1     -35.737  14.013  -4.226  1.00 20.00     0.010 C 
HETATM    9  C3  UNL     1     -33.315  13.695  -3.738  1.00 20.00     0.010 C 
ENDBRANCH   5   7
ENDBRANCH   4   5
ENDBRANCH   2   4
TORSDOF 3
ENDMDL
MODEL 6
REMARK VINA RESULT:      -3.6     11.370     12.663
REMARK  3 active torsions:
REMARK  status: ('A' for Active; 'I' for Inactive)
REMARK    1  A    between atoms: C5_5  and  C7_7 
REMARK    2  A    between atoms: C5_5  and  N8_8 
REMARK    3  A    between atoms: C6_6  and  C7_7 
ROOT
HETATM    1  C1  UNL     1     -33.983  17.103  -2.821  1.00 20.00     0.157 C 
HETATM    2  N8  UNL     1     -33.657  17.389  -3.912  1.00 20.00    -0.275 NA
HETATM    3  S9  UNL     1     -34.432  16.744  -1.335  1.00 20.00    -0.055 SA
ENDROOT
BRANCH   2   4
HETATM    4  C5  UNL     1     -33.189  16.267  -4.729  1.00 20.00     0.155 C 
BRANCH   4   5
HETATM    5  C7  UNL     1     -34.375  15.536  -5.386  1.00 20.00     0.005 C 
HETATM    6  C4  UNL     1     -34.200  15.538  -6.912  1.00 20.00     0.012 C 
BRANCH   5   7
HETATM    7  C6  UNL     1     -34.605  14.102  -4.824  1.00 20.00    -0.017 C 
HETATM    8  C2  UNL     1     -33.484  13.673  -3.868  1.00 20.00     0.010 C 
HETATM    9  C3  UNL     1     -35.947  13.978  -4.091  1.00 20.00     0.010 C 
ENDBRANCH   5   7
ENDBRANCH   4   5
ENDBRANCH   2   4
TORSDOF 3
ENDMDL
MODEL 7
REMARK VINA RESULT:      -3.6     11.168     12.668
REMARK  3 active torsions:
REMARK  status: ('A' for Active; 'I' for Inactive)
REMARK    1  A    between atoms: C5_5  and  C7_7 
REMARK    2  A    between atoms: C5_5  and  N8_8 
REMARK    3  A    between atoms: C6_6  and  C7_7 
ROOT
HETATM    1  C1  UNL     1     -34.716  16.475  -1.239  1.00 20.00     0.157 C 
HETATM    2  N8  UNL     1     -34.759  15.774  -2.181  1.00 20.00    -0.275 NA
HETATM    3  S9  UNL     1     -34.688  17.417   0.045  1.00 20.00    -0.055 SA
ENDROOT
BRANCH   2   4
HETATM    4  C5  UNL     1     -33.538  15.756  -2.990  1.00 20.00     0.155 C 
BRANCH   4   5
HETATM    5  C7  UNL     1     -33.738  14.915  -4.265  1.00 20.00     0.005 C 
HETATM    6  C4  UNL     1     -34.512  13.634  -3.923  1.00 20.00     0.012 C 
BRANCH   5   7
HETATM    7  C6  UNL     1     -34.401  15.709  -5.430  1.00 20.00    -0.017 C 
HETATM    8  C2  UNL     1     -33.692  17.044  -5.693  1.00 20.00     0.010 C 
HETATM    9  C3  UNL     1     -34.426  14.904  -6.736  1.00 20.00     0.010 C 
ENDBRANCH   5   7
ENDBRANCH   4   5
ENDBRANCH   2   4
TORSDOF 3
ENDMDL
MODEL 8
REMARK VINA RESULT:      -3.5     11.342     12.841
REMARK  3 active torsions:
REMARK  status: ('A' for Active; 'I' for Inactive)
REMARK    1  A    between atoms: C5_5  and  C7_7 
REMARK    2  A    between atoms: C5_5  and  N8_8 
REMARK    3  A    between atoms: C6_6  and  C7_7 
ROOT
HETATM    1  C1  UNL     1     -34.058  17.121  -1.112  1.00 20.00     0.157 C 
HETATM    2  N8  UNL     1     -34.638  16.144  -1.409  1.00 20.00    -0.275 NA
HETATM    3  S9  UNL     1     -33.275  18.439  -0.679  1.00 20.00    -0.055 SA
ENDROOT
BRANCH   2   4
HETATM    4  C5  UNL     1     -34.839  15.962  -2.848  1.00 20.00     0.155 C 
BRANCH   4   5
HETATM    5  C7  UNL     1     -33.525  15.548  -3.538  1.00 20.00     0.005 C 
HETATM    6  C4  UNL     1     -33.503  14.025  -3.733  1.00 20.00     0.012 C 
BRANCH   5   7
HETATM    7  C6  UNL     1     -33.257  16.314  -4.867  1.00 20.00    -0.017 C 
HETATM    8  C2  UNL     1     -34.058  15.731  -6.038  1.00 20.00     0.010 C 
HETATM    9  C3  UNL     1     -33.583  17.808  -4.748  1.00 20.00     0.010 C 
ENDBRANCH   5   7
ENDBRANCH   4   5
ENDBRANCH   2   4
TORSDOF 3
ENDMDL
MODEL 9
REMARK VINA RESULT:      -3.5     11.660     12.332
REMARK  3 active torsions:
REMARK  status: ('A' for Active; 'I' for Inactive)
REMARK    1  A    between atoms: C5_5  and  C7_7 
REMARK    2  A    between atoms: C5_5  and  N8_8 
REMARK    3  A    between atoms: C6_6  and  C7_7 
ROOT
HETATM    1  C1  UNL     1     -35.014  14.226  -6.402  1.00 20.00     0.157 C 
HETATM    2  N8  UNL     1     -34.471  13.939  -5.401  1.00 20.00    -0.275 NA
HETATM    3  S9  UNL     1     -35.724  14.608  -7.776  1.00 20.00    -0.055 SA
ENDROOT
BRANCH   2   4
HETATM    4  C5  UNL     1     -35.280  14.107  -4.192  1.00 20.00     0.155 C 
BRANCH   4   5
HETATM    5  C7  UNL     1     -34.472  14.809  -3.085  1.00 20.00     0.005 C 
HETATM    6  C4  UNL     1     -33.070  15.154  -3.608  1.00 20.00     0.012 C 
BRANCH   5   7
HETATM    7  C6  UNL     1     -35.196  16.051  -2.485  1.00 20.00    -0.017 C 
HETATM    8  C2  UNL     1     -34.584  16.481  -1.145  1.00 20.00     0.010 C 
HETATM    9  C3  UNL     1     -35.172  17.251  -3.440  1.00 20.00     0.010 C 
ENDBRANCH   5   7
ENDBRANCH   4   5
ENDBRANCH   2   4
TORSDOF 3
ENDMDL
