MODEL 1
REMARK VINA RESULT:      -4.3      0.000      0.000
REMARK  3 active torsions:
REMARK  status: ('A' for Active; 'I' for Inactive)
REMARK    1  A    between atoms: C1_1  and  C8_8 
REMARK       I    between atoms: C1_1  and  N10_10 
REMARK    2  A    between atoms: C4_4  and  C9_9 
REMARK    3  A    between atoms: C9_9  and  N10_10 
ROOT
HETATM    1  C1  UNL     1     -36.131  14.744  -3.649  1.00 20.00     0.219 C 
HETATM    2  C7  UNL     1     -37.349  16.926  -3.491  1.00 20.00     0.152 C 
HETATM    3  N10 UNL     1     -36.124  16.135  -3.500  1.00 20.00    -0.356 N 
HETATM    4  O11 UNL     1     -37.162  14.080  -3.785  1.00 20.00    -0.273 OA
ENDROOT
BRANCH   3   5
HETATM    5  C9  UNL     1     -34.890  16.900  -3.341  1.00 20.00     0.130 C 
BRANCH   5   6
HETATM    6  C4  UNL     1     -34.797  17.493  -1.976  1.00 20.00     0.008 A 
HETATM    7  C2  UNL     1     -34.735  16.598  -0.765  1.00 20.00     0.011 A 
HETATM    8  C3  UNL     1     -33.518  17.380  -1.188  1.00 20.00    -0.013 A 
HETATM    9  C5  UNL     1     -33.043  18.527  -0.365  1.00 20.00     0.010 C 
ENDBRANCH   5   6
ENDBRANCH   3   5
BRANCH   1  10
HETATM   10  C8  UNL     1     -34.770  14.062  -3.636  1.00 20.00     0.098 C 
HETATM   11  C6  UNL     1     -34.534  13.203  -4.869  1.00 20.00     0.014 C 
ENDBRANCH   1  10
TORSDOF 3
ENDMDL
MODEL 2
REMARK VINA RESULT:      -4.3      2.010      2.518
REMARK  3 active torsions:
REMARK  status: ('A' for Active; 'I' for Inactive)
REMARK    1  A    between atoms: C1_1  and  C8_8 
REMARK       I    between atoms: C1_1  and  N10_10 
REMARK    2  A    between atoms: C4_4  and  C9_9 
REMARK    3  A    between atoms: C9_9  and  N10_10 
ROOT
HETATM    1  C1  UNL     1     -34.066  15.059  -5.458  1.00 20.00     0.219 C 
HETATM    2  C7  UNL     1     -33.434  17.477  -5.309  1.00 20.00     0.152 C 
HETATM    3  N10 UNL     1     -33.593  16.151  -4.723  1.00 20.00    -0.356 N 
HETATM    4  O11 UNL     1     -34.383  15.126  -6.649  1.00 20.00    -0.273 OA
ENDROOT
BRANCH   3   5
HETATM    5  C9  UNL     1     -33.223  16.046  -3.314  1.00 20.00     0.130 C 
BRANCH   5   6
HETATM    6  C4  UNL     1     -34.087  16.918  -2.466  1.00 20.00     0.008 A 
HETATM    7  C2  UNL     1     -35.571  16.663  -2.386  1.00 20.00     0.011 A 
HETATM    8  C3  UNL     1     -34.692  16.376  -1.196  1.00 20.00    -0.013 A 
HETATM    9  C5  UNL     1     -34.772  17.235   0.018  1.00 20.00     0.010 C 
ENDBRANCH   5   6
ENDBRANCH   3   5
BRANCH   1  10
HETATM   10  C8  UNL     1     -34.178  13.741  -4.704  1.00 20.00     0.098 C 
HETATM   11  C6  UNL     1     -35.602  13.435  -4.268  1.00 20.00     0.014 C 
ENDBRANCH   1  10
TORSDOF 3
ENDMDL
MODEL 3
REMARK VINA RESULT:      -4.2      1.485      2.468
REMARK  3 active torsions:
REMARK  status: ('A' for Active; 'I' for Inactive)
REMARK    1  A    between atoms: C1_1  and  C8_8 
REMARK       I    between atoms: C1_1  and  N10_10 
REMARK    2  A    between atoms: C4_4  and  C9_9 
REMARK    3  A    between atoms: C9_9  and  N10_10 
ROOT
HETATM    1  C1  UNL     1     -35.366  14.004  -3.946  1.00 20.00     0.219 C 
HETATM    2  C7  UNL     1     -32.936  14.454  -3.544  1.00 20.00     0.152 C 
HETATM    3  N10 UNL     1     -34.335  14.863  -3.549  1.00 20.00    -0.356 N 
HETATM    4  O11 UNL     1     -35.178  12.843  -4.319  1.00 20.00    -0.273 OA
ENDROOT
BRANCH   3   5
HETATM    5  C9  UNL     1     -34.584  16.234  -3.110  1.00 20.00     0.130 C 
BRANCH   5   6
HETATM    6  C4  UNL     1     -34.195  16.419  -1.682  1.00 20.00     0.008 A 
HETATM    7  C2  UNL     1     -33.372  17.612  -1.270  1.00 20.00     0.011 A 
HETATM    8  C3  UNL     1     -34.821  17.520  -0.865  1.00 20.00    -0.013 A 
HETATM    9  C5  UNL     1     -35.186  17.279   0.558  1.00 20.00     0.010 C 
ENDBRANCH   5   6
ENDBRANCH   3   5
BRANCH   1  10
HETATM   10  C8  UNL     1     -36.775  14.579  -3.897  1.00 20.00     0.098 C 
HETATM   11  C6  UNL     1     -37.237  15.113  -5.244  1.00 20.00     0.014 C 
ENDBRANCH   1  10
TORSDOF 3
ENDMDL
MODEL 4
REMARK VINA RESULT:      -4.2      2.186      3.139
REMARK  3 active torsions:
REMARK  status: ('A' for Active; 'I' for Inactive)
REMARK    1  A    between atoms: C1_1  and  C8_8 
REMARK       I    between atoms: C1_1  and  N10_10 
REMARK    2  A    between atoms: C4_4  and  C9_9 
REMARK    3  A    between atoms: C9_9  and  N10_10 
ROOT
HETATM    1  C1  UNL     1     -34.828  15.328  -6.000  1.00 20.00     0.219 C 
HETATM    2  C7  UNL     1     -34.887  13.250  -4.606  1.00 20.00     0.152 C 
HETATM    3  N10 UNL     1     -35.176  14.662  -4.819  1.00 20.00    -0.356 N 
HETATM    4  O11 UNL     1     -34.256  14.781  -6.946  1.00 20.00    -0.273 OA
ENDROOT
BRANCH   3   5
HETATM    5  C9  UNL     1     -35.855  15.332  -3.713  1.00 20.00     0.130 C 
BRANCH   5   6
HETATM    6  C4  UNL     1     -34.953  15.469  -2.534  1.00 20.00     0.008 A 
HETATM    7  C2  UNL     1     -33.646  16.209  -2.663  1.00 20.00     0.011 A 
HETATM    8  C3  UNL     1     -34.776  16.810  -1.869  1.00 20.00    -0.013 A 
HETATM    9  C5  UNL     1     -34.683  16.901  -0.385  1.00 20.00     0.010 C 
ENDBRANCH   5   6
ENDBRANCH   3   5
BRANCH   1  10
HETATM   10  C8  UNL     1     -35.197  16.804  -6.071  1.00 20.00     0.098 C 
HETATM   11  C6  UNL     1     -33.979  17.713  -6.056  1.00 20.00     0.014 C 
ENDBRANCH   1  10
TORSDOF 3
ENDMDL
MODEL 5
REMARK VINA RESULT:      -4.1      1.999      2.851
REMARK  3 active torsions:
REMARK  status: ('A' for Active; 'I' for Inactive)
REMARK    1  A    between atoms: C1_1  and  C8_8 
REMARK       I    between atoms: C1_1  and  N10_10 
REMARK    2  A    between atoms: C4_4  and  C9_9 
REMARK    3  A    between atoms: C9_9  and  N10_10 
ROOT
HETATM    1  C1  UNL     1     -34.759  13.750  -5.017  1.00 20.00     0.219 C 
HETATM    2  C7  UNL     1     -32.820  13.873  -3.439  1.00 20.00     0.152 C 
HETATM    3  N10 UNL     1     -33.818  14.496  -4.299  1.00 20.00    -0.356 N 
HETATM    4  O11 UNL     1     -34.821  12.519  -4.982  1.00 20.00    -0.273 OA
ENDROOT
BRANCH   3   5
HETATM    5  C9  UNL     1     -33.765  15.955  -4.356  1.00 20.00     0.130 C 
BRANCH   5   6
HETATM    6  C4  UNL     1     -33.532  16.537  -3.003  1.00 20.00     0.008 A 
HETATM    7  C2  UNL     1     -33.809  17.997  -2.750  1.00 20.00     0.011 A 
HETATM    8  C3  UNL     1     -34.702  16.945  -2.144  1.00 20.00    -0.013 A 
HETATM    9  C5  UNL     1     -34.673  16.694  -0.676  1.00 20.00     0.010 C 
ENDBRANCH   5   6
ENDBRANCH   3   5
BRANCH   1  10
HETATM   10  C8  UNL     1     -35.735  14.547  -5.873  1.00 20.00     0.098 C 
HETATM   11  C6  UNL     1     -35.424  14.452  -7.358  1.00 20.00     0.014 C 
ENDBRANCH   1  10
TORSDOF 3
ENDMDL
MODEL 6
REMARK VINA RESULT:      -4.0      2.054      2.467
REMARK  3 active torsions:
REMARK  status: ('A' for Active; 'I' for Inactive)
REMARK    1  A    between atoms: C1_1  and  C8_8 
REMARK       I    between atoms: C1_1  and  N10_10 
REMARK    2  A    between atoms: C4_4  and  C9_9 
REMARK    3  A    between atoms: C9_9  and  N10_10 
ROOT
HETATM    1  C1  UNL     1     -33.490  15.932  -4.078  1.00 20.00     0.219 C 
HETATM    2  C7  UNL     1     -34.521  18.204  -3.868  1.00 20.00     0.152 C 
HETATM    3  N10 UNL     1     -34.402  16.805  -3.474  1.00 20.00    -0.356 N 
HETATM    4  O11 UNL     1     -32.722  16.270  -4.982  1.00 20.00    -0.273 OA
ENDROOT
BRANCH   3   5
HETATM    5  C9  UNL     1     -35.302  16.381  -2.404  1.00 20.00     0.130 C 
BRANCH   5   6
HETATM    6  C4  UNL     1     -34.653  16.524  -1.069  1.00 20.00     0.008 A 
HETATM    7  C2  UNL     1     -33.661  17.631  -0.826  1.00 20.00     0.011 A 
HETATM    8  C3  UNL     1     -35.017  17.678  -0.171  1.00 20.00    -0.013 A 
HETATM    9  C5  UNL     1     -35.148  17.470   1.297  1.00 20.00     0.010 C 
ENDBRANCH   5   6
ENDBRANCH   3   5
BRANCH   1  10
HETATM   10  C8  UNL     1     -33.487  14.501  -3.557  1.00 20.00     0.098 C 
HETATM   11  C6  UNL     1     -34.170  13.530  -4.507  1.00 20.00     0.014 C 
ENDBRANCH   1  10
TORSDOF 3
ENDMDL
MODEL 7
REMARK VINA RESULT:      -4.0      2.394      5.020
REMARK  3 active torsions:
REMARK  status: ('A' for Active; 'I' for Inactive)
REMARK    1  A    between atoms: C1_1  and  C8_8 
REMARK       I    between atoms: C1_1  and  N10_10 
REMARK    2  A    between atoms: C4_4  and  C9_9 
REMARK    3  A    between atoms: C9_9  and  N10_10 
ROOT
HETATM    1  C1  UNL     1     -33.981  17.308  -2.050  1.00 20.00     0.219 C 
HETATM    2  C7  UNL     1     -33.518  17.246  -4.509  1.00 20.00     0.152 C 
HETATM    3  N10 UNL     1     -34.071  16.668  -3.291  1.00 20.00    -0.356 N 
HETATM    4  O11 UNL     1     -33.433  18.401  -1.887  1.00 20.00    -0.273 OA
ENDROOT
BRANCH   3   5
HETATM    5  C9  UNL     1     -34.727  15.373  -3.459  1.00 20.00     0.130 C 
BRANCH   5   6
HETATM    6  C4  UNL     1     -34.302  14.718  -4.729  1.00 20.00     0.008 A 
HETATM    7  C2  UNL     1     -34.581  13.254  -4.955  1.00 20.00     0.011 A 
HETATM    8  C3  UNL     1     -35.334  14.295  -5.743  1.00 20.00    -0.013 A 
HETATM    9  C5  UNL     1     -35.067  14.470  -7.198  1.00 20.00     0.010 C 
ENDBRANCH   5   6
ENDBRANCH   3   5
BRANCH   1  10
HETATM   10  C8  UNL     1     -34.607  16.575  -0.870  1.00 20.00     0.098 C 
HETATM   11  C6  UNL     1     -34.834  17.481   0.329  1.00 20.00     0.014 C 
ENDBRANCH   1  10
TORSDOF 3
ENDMDL
MODEL 8
REMARK VINA RESULT:      -4.0      2.772      4.606
REMARK  3 active torsions:
REMARK  status: ('A' for Active; 'I' for Inactive)
REMARK    1  A    between atoms: C1_1  and  C8_8 
REMARK       I    between atoms: C1_1  and  N10_10 
REMARK    2  A    between atoms: C4_4  and  C9_9 
REMARK    3  A    between atoms: C9_9  and  N10_10 
ROOT
HETATM    1  C1  UNL     1     -33.741  16.040  -3.034  1.00 20.00     0.219 C 
HETATM    2  C7  UNL     1     -34.288  18.424  -3.567  1.00 20.00     0.152 C 
HETATM    3  N10 UNL     1     -33.816  17.098  -3.946  1.00 20.00    -0.356 N 
HETATM    4  O11 UNL     1     -34.066  16.141  -1.848  1.00 20.00    -0.273 OA
ENDROOT
BRANCH   3   5
HETATM    5  C9  UNL     1     -33.426  16.954  -5.347  1.00 20.00     0.130 C 
BRANCH   5   6
HETATM    6  C4  UNL     1     -34.584  16.529  -6.185  1.00 20.00     0.008 A 
HETATM    7  C2  UNL     1     -34.610  16.852  -7.657  1.00 20.00     0.011 A 
HETATM    8  C3  UNL     1     -34.418  15.428  -7.201  1.00 20.00    -0.013 A 
HETATM    9  C5  UNL     1     -35.501  14.426  -7.399  1.00 20.00     0.010 C 
ENDBRANCH   5   6
ENDBRANCH   3   5
BRANCH   1  10
HETATM   10  C8  UNL     1     -33.226  14.716  -3.583  1.00 20.00     0.098 C 
HETATM   11  C6  UNL     1     -34.323  13.673  -3.722  1.00 20.00     0.014 C 
ENDBRANCH   1  10
TORSDOF 3
ENDMDL
MODEL 9
REMARK VINA RESULT:      -3.9      1.958      3.072
REMARK  3 active torsions:
REMARK  status: ('A' for Active; 'I' for Inactive)
REMARK    1  A    between atoms: C1_1  and  C8_8 
REMARK       I    between atoms: C1_1  and  N10_10 
REMARK    2  A    between atoms: C4_4  and  C9_9 
REMARK    3  A    between atoms: C9_9  and  N10_10 
ROOT
HETATM    1  C1  UNL     1     -34.343  16.209  -4.920  1.00 20.00     0.219 C 
HETATM    2  C7  UNL     1     -34.465  14.089  -3.594  1.00 20.00     0.152 C 
HETATM    3  N10 UNL     1     -34.785  15.496  -3.800  1.00 20.00    -0.356 N 
HETATM    4  O11 UNL     1     -33.654  15.711  -5.814  1.00 20.00    -0.273 OA
ENDROOT
BRANCH   3   5
HETATM    5  C9  UNL     1     -35.602  16.108  -2.755  1.00 20.00     0.130 C 
BRANCH   5   6
HETATM    6  C4  UNL     1     -34.829  16.253  -1.487  1.00 20.00     0.008 A 
HETATM    7  C2  UNL     1     -33.679  17.224  -1.410  1.00 20.00     0.011 A 
HETATM    8  C3  UNL     1     -34.957  17.510  -0.665  1.00 20.00    -0.013 A 
HETATM    9  C5  UNL     1     -34.990  17.429   0.822  1.00 20.00     0.010 C 
ENDBRANCH   5   6
ENDBRANCH   3   5
BRANCH   1  10
HETATM   10  C8  UNL     1     -34.760  17.672  -4.992  1.00 20.00     0.098 C 
HETATM   11  C6  UNL     1     -33.572  18.616  -5.079  1.00 20.00     0.014 C 
ENDBRANCH   1  10
TORSDOF 3
ENDMDL
