MODEL 1
REMARK VINA RESULT:      -3.9      0.000      0.000
REMARK  1 active torsions:
REMARK  status: ('A' for Active; 'I' for Inactive)
REMARK       I    between atoms: C1_1  and  N8_8 
REMARK    1  A    between atoms: C5_5  and  N8_8 
ROOT
HETATM    1  C2  UNL     1     -33.774  17.641  -3.211  1.00 20.00     0.036 C 
HETATM    2  C3  UNL     1     -33.619  18.284  -1.842  1.00 20.00     0.076 C 
HETATM    3  C4  UNL     1     -34.788  15.863  -1.884  1.00 20.00     0.099 C 
HETATM    4  C5  UNL     1     -33.763  16.135  -2.977  1.00 20.00     0.096 C 
HETATM    5  S10 UNL     1     -34.591  17.241  -0.717  1.00 20.00    -0.167 SA
ENDROOT
BRANCH   4   6
HETATM    6  N8  UNL     1     -34.053  15.402  -4.180  1.00 20.00    -0.351 N 
HETATM    7  C1  UNL     1     -33.904  14.007  -4.257  1.00 20.00     0.215 C 
HETATM    8  C6  UNL     1     -34.818  13.265  -5.199  1.00 20.00     0.117 C 
HETATM    9  O9  UNL     1     -33.073  13.375  -3.599  1.00 20.00    -0.274 OA
HETATM   10  C7  UNL     1     -34.515  16.200  -5.324  1.00 20.00     0.153 C 
ENDBRANCH   4   6
TORSDOF 1
ENDMDL
MODEL 2
REMARK VINA RESULT:      -3.9      2.716      4.247
REMARK  1 active torsions:
REMARK  status: ('A' for Active; 'I' for Inactive)
REMARK       I    between atoms: C1_1  and  N8_8 
REMARK    1  A    between atoms: C5_5  and  N8_8 
ROOT
HETATM    1  C2  UNL     1     -35.822  15.521  -3.554  1.00 20.00     0.036 C 
HETATM    2  C3  UNL     1     -36.015  14.107  -4.080  1.00 20.00     0.076 C 
HETATM    3  C4  UNL     1     -33.471  14.888  -3.695  1.00 20.00     0.099 C 
HETATM    4  C5  UNL     1     -34.513  15.509  -2.775  1.00 20.00     0.096 C 
HETATM    5  S10 UNL     1     -34.352  13.545  -4.544  1.00 20.00    -0.167 SA
ENDROOT
BRANCH   4   6
HETATM    6  N8  UNL     1     -34.132  16.828  -2.345  1.00 20.00    -0.351 N 
HETATM    7  C1  UNL     1     -34.089  17.185  -0.987  1.00 20.00     0.215 C 
HETATM    8  C6  UNL     1     -33.087  18.236  -0.579  1.00 20.00     0.117 C 
HETATM    9  O9  UNL     1     -34.822  16.686  -0.128  1.00 20.00    -0.274 OA
HETATM   10  C7  UNL     1     -33.790  17.778  -3.411  1.00 20.00     0.153 C 
ENDBRANCH   4   6
TORSDOF 1
ENDMDL
MODEL 3
REMARK VINA RESULT:      -3.8      1.430      1.550
REMARK  1 active torsions:
REMARK  status: ('A' for Active; 'I' for Inactive)
REMARK       I    between atoms: C1_1  and  N8_8 
REMARK    1  A    between atoms: C5_5  and  N8_8 
ROOT
HETATM    1  C2  UNL     1     -33.743  18.128  -2.362  1.00 20.00     0.036 C 
HETATM    2  C3  UNL     1     -33.230  18.966  -1.201  1.00 20.00     0.076 C 
HETATM    3  C4  UNL     1     -34.676  16.797  -0.543  1.00 20.00     0.099 C 
HETATM    4  C5  UNL     1     -33.872  16.705  -1.833  1.00 20.00     0.096 C 
HETATM    5  S10 UNL     1     -34.072  18.307   0.267  1.00 20.00    -0.167 SA
ENDROOT
BRANCH   4   6
HETATM    6  N8  UNL     1     -34.493  15.830  -2.792  1.00 20.00    -0.351 N 
HETATM    7  C1  UNL     1     -33.778  14.812  -3.444  1.00 20.00     0.215 C 
HETATM    8  C6  UNL     1     -34.544  13.578  -3.848  1.00 20.00     0.117 C 
HETATM    9  O9  UNL     1     -32.571  14.883  -3.697  1.00 20.00    -0.274 OA
HETATM   10  C7  UNL     1     -35.921  16.065  -3.047  1.00 20.00     0.153 C 
ENDBRANCH   4   6
TORSDOF 1
ENDMDL
MODEL 4
REMARK VINA RESULT:      -3.8      3.227      4.124
REMARK  1 active torsions:
REMARK  status: ('A' for Active; 'I' for Inactive)
REMARK       I    between atoms: C1_1  and  N8_8 
REMARK    1  A    between atoms: C5_5  and  N8_8 
ROOT
HETATM    1  C2  UNL     1     -38.067  14.868  -3.783  1.00 20.00     0.036 C 
HETATM    2  C3  UNL     1     -39.204  15.209  -4.734  1.00 20.00     0.076 C 
HETATM    3  C4  UNL     1     -36.781  16.164  -5.400  1.00 20.00     0.099 C 
HETATM    4  C5  UNL     1     -36.798  14.853  -4.627  1.00 20.00     0.096 C 
HETATM    5  S10 UNL     1     -38.513  16.439  -5.876  1.00 20.00    -0.167 SA
ENDROOT
BRANCH   4   6
HETATM    6  N8  UNL     1     -35.618  14.689  -3.820  1.00 20.00    -0.351 N 
HETATM    7  C1  UNL     1     -34.714  13.635  -4.030  1.00 20.00     0.215 C 
HETATM    8  C6  UNL     1     -33.267  13.885  -3.686  1.00 20.00     0.117 C 
HETATM    9  O9  UNL     1     -35.045  12.532  -4.474  1.00 20.00    -0.274 OA
HETATM   10  C7  UNL     1     -35.416  15.691  -2.765  1.00 20.00     0.153 C 
ENDBRANCH   4   6
TORSDOF 1
ENDMDL
MODEL 5
REMARK VINA RESULT:      -3.7      1.968      2.163
REMARK  1 active torsions:
REMARK  status: ('A' for Active; 'I' for Inactive)
REMARK       I    between atoms: C1_1  and  N8_8 
REMARK    1  A    between atoms: C5_5  and  N8_8 
ROOT
HETATM    1  C2  UNL     1     -34.466  16.430  -1.363  1.00 20.00     0.036 C 
HETATM    2  C3  UNL     1     -35.158  17.514  -0.553  1.00 20.00     0.076 C 
HETATM    3  C4  UNL     1     -35.831  17.372  -3.151  1.00 20.00     0.099 C 
HETATM    4  C5  UNL     1     -35.426  16.063  -2.488  1.00 20.00     0.096 C 
HETATM    5  S10 UNL     1     -36.017  18.545  -1.777  1.00 20.00    -0.167 SA
ENDROOT
BRANCH   4   6
HETATM    6  N8  UNL     1     -34.830  15.147  -3.425  1.00 20.00    -0.351 N 
HETATM    7  C1  UNL     1     -35.605  14.289  -4.222  1.00 20.00     0.215 C 
HETATM    8  C6  UNL     1     -35.050  13.908  -5.571  1.00 20.00     0.117 C 
HETATM    9  O9  UNL     1     -36.701  13.839  -3.872  1.00 20.00    -0.274 OA
HETATM   10  C7  UNL     1     -33.363  15.166  -3.499  1.00 20.00     0.153 C 
ENDBRANCH   4   6
TORSDOF 1
ENDMDL
MODEL 6
REMARK VINA RESULT:      -3.7      1.464      1.644
REMARK  1 active torsions:
REMARK  status: ('A' for Active; 'I' for Inactive)
REMARK       I    between atoms: C1_1  and  N8_8 
REMARK    1  A    between atoms: C5_5  and  N8_8 
ROOT
HETATM    1  C2  UNL     1     -33.845  16.173  -2.275  1.00 20.00     0.036 C 
HETATM    2  C3  UNL     1     -34.473  16.767  -1.024  1.00 20.00     0.076 C 
HETATM    3  C4  UNL     1     -35.912  16.984  -3.284  1.00 20.00     0.099 C 
HETATM    4  C5  UNL     1     -35.002  15.768  -3.179  1.00 20.00     0.096 C 
HETATM    5  S10 UNL     1     -35.913  17.702  -1.615  1.00 20.00    -0.167 SA
ENDROOT
BRANCH   4   6
HETATM    6  N8  UNL     1     -34.546  15.324  -4.469  1.00 20.00    -0.351 N 
HETATM    7  C1  UNL     1     -34.994  14.124  -5.046  1.00 20.00     0.215 C 
HETATM    8  C6  UNL     1     -35.056  14.060  -6.551  1.00 20.00     0.117 C 
HETATM    9  O9  UNL     1     -35.333  13.138  -4.386  1.00 20.00    -0.274 OA
HETATM   10  C7  UNL     1     -33.585  16.203  -5.148  1.00 20.00     0.153 C 
ENDBRANCH   4   6
TORSDOF 1
ENDMDL
MODEL 7
REMARK VINA RESULT:      -3.6      3.187      4.043
REMARK  1 active torsions:
REMARK  status: ('A' for Active; 'I' for Inactive)
REMARK       I    between atoms: C1_1  and  N8_8 
REMARK    1  A    between atoms: C5_5  and  N8_8 
ROOT
HETATM    1  C2  UNL     1     -34.849  13.572  -4.661  1.00 20.00     0.036 C 
HETATM    2  C3  UNL     1     -33.582  13.650  -3.826  1.00 20.00     0.076 C 
HETATM    3  C4  UNL     1     -34.687  16.001  -4.514  1.00 20.00     0.099 C 
HETATM    4  C5  UNL     1     -35.646  14.831  -4.342  1.00 20.00     0.096 C 
HETATM    5  S10 UNL     1     -33.107  15.402  -3.846  1.00 20.00    -0.167 SA
ENDROOT
BRANCH   4   6
HETATM    6  N8  UNL     1     -36.807  14.960  -5.181  1.00 20.00    -0.351 N 
HETATM    7  C1  UNL     1     -38.111  14.919  -4.660  1.00 20.00     0.215 C 
HETATM    8  C6  UNL     1     -39.172  15.707  -5.386  1.00 20.00     0.117 C 
HETATM    9  O9  UNL     1     -38.421  14.277  -3.652  1.00 20.00    -0.274 OA
HETATM   10  C7  UNL     1     -36.547  15.137  -6.616  1.00 20.00     0.153 C 
ENDBRANCH   4   6
TORSDOF 1
ENDMDL
MODEL 8
REMARK VINA RESULT:      -3.5      2.909      4.453
REMARK  1 active torsions:
REMARK  status: ('A' for Active; 'I' for Inactive)
REMARK       I    between atoms: C1_1  and  N8_8 
REMARK    1  A    between atoms: C5_5  and  N8_8 
ROOT
HETATM    1  C2  UNL     1     -34.711  14.348  -6.137  1.00 20.00     0.036 C 
HETATM    2  C3  UNL     1     -35.380  14.582  -7.482  1.00 20.00     0.076 C 
HETATM    3  C4  UNL     1     -36.522  15.789  -5.368  1.00 20.00     0.099 C 
HETATM    4  C5  UNL     1     -35.016  15.577  -5.290  1.00 20.00     0.096 C 
HETATM    5  S10 UNL     1     -36.951  15.405  -7.092  1.00 20.00    -0.167 SA
ENDROOT
BRANCH   4   6
HETATM    6  N8  UNL     1     -34.565  15.421  -3.933  1.00 20.00    -0.351 N 
HETATM    7  C1  UNL     1     -34.334  16.523  -3.094  1.00 20.00     0.215 C 
HETATM    8  C6  UNL     1     -34.546  16.323  -1.614  1.00 20.00     0.117 C 
HETATM    9  O9  UNL     1     -33.969  17.628  -3.506  1.00 20.00    -0.274 OA
HETATM   10  C7  UNL     1     -34.362  14.039  -3.478  1.00 20.00     0.153 C 
ENDBRANCH   4   6
TORSDOF 1
ENDMDL
MODEL 9
REMARK VINA RESULT:      -3.5     13.525     15.178
REMARK  1 active torsions:
REMARK  status: ('A' for Active; 'I' for Inactive)
REMARK       I    between atoms: C1_1  and  N8_8 
REMARK    1  A    between atoms: C5_5  and  N8_8 
ROOT
HETATM    1  C2  UNL     1     -41.356   2.377  -3.292  1.00 20.00     0.036 C 
HETATM    2  C3  UNL     1     -41.989   1.072  -3.749  1.00 20.00     0.076 C 
HETATM    3  C4  UNL     1     -43.409   2.518  -1.983  1.00 20.00     0.099 C 
HETATM    4  C5  UNL     1     -42.510   3.304  -2.928  1.00 20.00     0.096 C 
HETATM    5  S10 UNL     1     -43.417   0.830  -2.655  1.00 20.00    -0.167 SA
ENDROOT
BRANCH   4   6
HETATM    6  N8  UNL     1     -42.047   4.530  -2.334  1.00 20.00    -0.351 N 
HETATM    7  C1  UNL     1     -42.630   5.771  -2.639  1.00 20.00     0.215 C 
HETATM    8  C6  UNL     1     -42.611   6.828  -1.563  1.00 20.00     0.117 C 
HETATM    9  O9  UNL     1     -43.147   6.030  -3.730  1.00 20.00    -0.274 OA
HETATM   10  C7  UNL     1     -40.930   4.405  -1.389  1.00 20.00     0.153 C 
ENDBRANCH   4   6
TORSDOF 1
ENDMDL
