MODEL 1
REMARK VINA RESULT:      -4.8      0.000      0.000
REMARK  1 active torsions:
REMARK  status: ('A' for Active; 'I' for Inactive)
REMARK    1  A    between atoms: C9_9  and  C10_10 
ROOT
HETATM    1  C1  UNL     1     -37.344  14.565  -3.927  1.00 20.00     0.064 C 
HETATM    2  C2  UNL     1     -33.895  15.668  -5.180  1.00 20.00     0.002 C 
HETATM    3  C3  UNL     1     -35.413  15.471  -5.174  1.00 20.00     0.019 C 
HETATM    4  C4  UNL     1     -33.301  15.895  -3.789  1.00 20.00     0.005 C 
HETATM    5  C7  UNL     1     -35.565  15.728  -2.660  1.00 20.00     0.024 C 
HETATM    6  C8  UNL     1     -35.897  14.837  -3.870  1.00 20.00     0.093 C 
HETATM    7  C10 UNL     1     -34.296  16.583  -2.848  1.00 20.00    -0.009 C 
HETATM    8  N11 UNL     1     -38.483  14.351  -3.973  1.00 20.00    -0.197 NA
ENDROOT
BRANCH   7   9
HETATM    9  C9  UNL     1     -33.660  16.907  -1.522  1.00 20.00    -0.010 A 
HETATM   10  C5  UNL     1     -33.746  18.299  -0.960  1.00 20.00     0.005 A 
HETATM   11  C6  UNL     1     -34.518  17.179  -0.318  1.00 20.00     0.005 A 
ENDBRANCH   7   9
TORSDOF 1
ENDMDL
MODEL 2
REMARK VINA RESULT:      -4.7      1.820      1.947
REMARK  1 active torsions:
REMARK  status: ('A' for Active; 'I' for Inactive)
REMARK    1  A    between atoms: C9_9  and  C10_10 
ROOT
HETATM    1  C1  UNL     1     -34.452  13.666  -4.442  1.00 20.00     0.064 C 
HETATM    2  C2  UNL     1     -33.987  17.406  -5.128  1.00 20.00     0.002 C 
HETATM    3  C3  UNL     1     -34.573  15.998  -5.249  1.00 20.00     0.019 C 
HETATM    4  C4  UNL     1     -33.521  17.757  -3.713  1.00 20.00     0.005 C 
HETATM    5  C7  UNL     1     -34.208  15.496  -2.794  1.00 20.00     0.024 C 
HETATM    6  C8  UNL     1     -33.948  15.035  -4.239  1.00 20.00     0.093 C 
HETATM    7  C10 UNL     1     -34.340  17.025  -2.645  1.00 20.00    -0.009 C 
HETATM    8  N11 UNL     1     -34.849  12.588  -4.602  1.00 20.00    -0.197 NA
ENDROOT
BRANCH   7   9
HETATM    9  C9  UNL     1     -33.950  17.468  -1.259  1.00 20.00    -0.010 A 
HETATM   10  C5  UNL     1     -34.774  18.495  -0.533  1.00 20.00     0.005 A 
HETATM   11  C6  UNL     1     -34.782  17.063  -0.074  1.00 20.00     0.005 A 
ENDBRANCH   7   9
TORSDOF 1
ENDMDL
MODEL 3
REMARK VINA RESULT:      -4.6      2.119      2.686
REMARK  1 active torsions:
REMARK  status: ('A' for Active; 'I' for Inactive)
REMARK    1  A    between atoms: C9_9  and  C10_10 
ROOT
HETATM    1  C1  UNL     1     -37.293  14.562  -3.761  1.00 20.00     0.064 C 
HETATM    2  C2  UNL     1     -33.528  13.860  -3.843  1.00 20.00     0.002 C 
HETATM    3  C3  UNL     1     -35.022  13.650  -4.099  1.00 20.00     0.019 C 
HETATM    4  C4  UNL     1     -33.106  15.331  -3.848  1.00 20.00     0.005 C 
HETATM    5  C7  UNL     1     -35.465  16.134  -4.317  1.00 20.00     0.024 C 
HETATM    6  C8  UNL     1     -35.854  14.831  -3.597  1.00 20.00     0.093 C 
HETATM    7  C10 UNL     1     -33.991  16.176  -4.769  1.00 20.00    -0.009 C 
HETATM    8  N11 UNL     1     -38.426  14.350  -3.891  1.00 20.00    -0.197 NA
ENDROOT
BRANCH   7   9
HETATM    9  C9  UNL     1     -33.493  17.595  -4.855  1.00 20.00    -0.010 A 
HETATM   10  C5  UNL     1     -33.634  18.371  -6.135  1.00 20.00     0.005 A 
HETATM   11  C6  UNL     1     -34.468  18.735  -4.938  1.00 20.00     0.005 A 
ENDBRANCH   7   9
TORSDOF 1
ENDMDL
MODEL 4
REMARK VINA RESULT:      -4.5      2.867      5.142
REMARK  1 active torsions:
REMARK  status: ('A' for Active; 'I' for Inactive)
REMARK    1  A    between atoms: C9_9  and  C10_10 
ROOT
HETATM    1  C1  UNL     1     -35.230  17.831   2.008  1.00 20.00     0.064 C 
HETATM    2  C2  UNL     1     -32.547  19.255  -0.326  1.00 20.00     0.002 C 
HETATM    3  C3  UNL     1     -33.167  18.686   0.952  1.00 20.00     0.019 C 
HETATM    4  C4  UNL     1     -33.148  18.675  -1.609  1.00 20.00     0.005 C 
HETATM    5  C7  UNL     1     -34.748  17.181  -0.331  1.00 20.00     0.024 C 
HETATM    6  C8  UNL     1     -34.626  18.278   0.742  1.00 20.00     0.093 C 
HETATM    7  C10 UNL     1     -33.647  17.241  -1.409  1.00 20.00    -0.009 C 
HETATM    8  N11 UNL     1     -35.706  17.478   3.005  1.00 20.00    -0.197 NA
ENDROOT
BRANCH   7   9
HETATM    9  C9  UNL     1     -34.126  16.644  -2.705  1.00 20.00    -0.010 A 
HETATM   10  C5  UNL     1     -33.381  15.499  -3.333  1.00 20.00     0.005 A 
HETATM   11  C6  UNL     1     -34.736  15.270  -2.725  1.00 20.00     0.005 A 
ENDBRANCH   7   9
TORSDOF 1
ENDMDL
MODEL 5
REMARK VINA RESULT:      -4.5     10.986     12.722
REMARK  1 active torsions:
REMARK  status: ('A' for Active; 'I' for Inactive)
REMARK    1  A    between atoms: C9_9  and  C10_10 
ROOT
HETATM    1  C1  UNL     1     -42.154   3.099  -2.529  1.00 20.00     0.064 C 
HETATM    2  C2  UNL     1     -40.798   5.965  -0.379  1.00 20.00     0.002 C 
HETATM    3  C3  UNL     1     -40.798   4.658  -1.175  1.00 20.00     0.019 C 
HETATM    4  C4  UNL     1     -41.732   7.033  -0.954  1.00 20.00     0.005 C 
HETATM    5  C7  UNL     1     -42.480   5.530  -2.855  1.00 20.00     0.024 C 
HETATM    6  C8  UNL     1     -42.144   4.409  -1.855  1.00 20.00     0.093 C 
HETATM    7  C10 UNL     1     -41.884   6.900  -2.473  1.00 20.00    -0.009 C 
HETATM    8  N11 UNL     1     -42.161   2.067  -3.059  1.00 20.00    -0.197 NA
ENDROOT
BRANCH   7   9
HETATM    9  C9  UNL     1     -42.708   8.025  -3.040  1.00 20.00    -0.010 A 
HETATM   10  C5  UNL     1     -42.233   8.778  -4.251  1.00 20.00     0.005 A 
HETATM   11  C6  UNL     1     -43.416   7.856  -4.355  1.00 20.00     0.005 A 
ENDBRANCH   7   9
TORSDOF 1
ENDMDL
MODEL 6
REMARK VINA RESULT:      -4.3      1.785      2.010
REMARK  1 active torsions:
REMARK  status: ('A' for Active; 'I' for Inactive)
REMARK    1  A    between atoms: C9_9  and  C10_10 
ROOT
HETATM    1  C1  UNL     1     -37.095  15.569  -6.268  1.00 20.00     0.064 C 
HETATM    2  C2  UNL     1     -34.254  13.442  -4.826  1.00 20.00     0.002 C 
HETATM    3  C3  UNL     1     -35.041  14.262  -5.851  1.00 20.00     0.019 C 
HETATM    4  C4  UNL     1     -34.413  13.942  -3.388  1.00 20.00     0.005 C 
HETATM    5  C7  UNL     1     -35.959  15.827  -4.085  1.00 20.00     0.024 C 
HETATM    6  C8  UNL     1     -36.303  14.871  -5.240  1.00 20.00     0.093 C 
HETATM    7  C10 UNL     1     -34.665  15.452  -3.334  1.00 20.00    -0.009 C 
HETATM    8  N11 UNL     1     -37.718  16.119  -7.077  1.00 20.00    -0.197 NA
ENDROOT
BRANCH   7   9
HETATM    9  C9  UNL     1     -34.702  15.948  -1.913  1.00 20.00    -0.010 A 
HETATM   10  C5  UNL     1     -33.797  17.068  -1.478  1.00 20.00     0.005 A 
HETATM   11  C6  UNL     1     -35.278  17.301  -1.599  1.00 20.00     0.005 A 
ENDBRANCH   7   9
TORSDOF 1
ENDMDL
MODEL 7
REMARK VINA RESULT:      -4.3      2.799      4.639
REMARK  1 active torsions:
REMARK  status: ('A' for Active; 'I' for Inactive)
REMARK    1  A    between atoms: C9_9  and  C10_10 
ROOT
HETATM    1  C1  UNL     1     -33.765  17.762  -0.735  1.00 20.00     0.064 C 
HETATM    2  C2  UNL     1     -36.895  17.233  -2.880  1.00 20.00     0.002 C 
HETATM    3  C3  UNL     1     -35.695  17.956  -2.266  1.00 20.00     0.019 C 
HETATM    4  C4  UNL     1     -36.651  15.742  -3.128  1.00 20.00     0.005 C 
HETATM    5  C7  UNL     1     -34.286  15.852  -2.221  1.00 20.00     0.024 C 
HETATM    6  C8  UNL     1     -34.854  17.021  -1.396  1.00 20.00     0.093 C 
HETATM    7  C10 UNL     1     -35.176  15.445  -3.412  1.00 20.00    -0.009 C 
HETATM    8  N11 UNL     1     -32.908  18.345  -0.215  1.00 20.00    -0.197 NA
ENDROOT
BRANCH   7   9
HETATM    9  C9  UNL     1     -34.970  13.996  -3.770  1.00 20.00    -0.010 A 
HETATM   10  C5  UNL     1     -34.466  13.617  -5.135  1.00 20.00     0.005 A 
HETATM   11  C6  UNL     1     -33.579  13.448  -3.933  1.00 20.00     0.005 A 
ENDBRANCH   7   9
TORSDOF 1
ENDMDL
MODEL 8
REMARK VINA RESULT:      -4.2      2.606      4.941
REMARK  1 active torsions:
REMARK  status: ('A' for Active; 'I' for Inactive)
REMARK    1  A    between atoms: C9_9  and  C10_10 
ROOT
HETATM    1  C1  UNL     1     -33.701  17.506  -2.764  1.00 20.00     0.064 C 
HETATM    2  C2  UNL     1     -34.369  13.788  -3.400  1.00 20.00     0.002 C 
HETATM    3  C3  UNL     1     -34.486  15.164  -2.741  1.00 20.00     0.019 C 
HETATM    4  C4  UNL     1     -34.115  13.851  -4.908  1.00 20.00     0.005 C 
HETATM    5  C7  UNL     1     -34.126  16.386  -4.930  1.00 20.00     0.024 C 
HETATM    6  C8  UNL     1     -33.654  16.217  -3.475  1.00 20.00     0.093 C 
HETATM    7  C10 UNL     1     -34.729  15.104  -5.539  1.00 20.00    -0.009 C 
HETATM    8  N11 UNL     1     -33.738  18.522  -2.205  1.00 20.00    -0.197 NA
ENDROOT
BRANCH   7   9
HETATM    9  C9  UNL     1     -34.575  15.094  -7.037  1.00 20.00    -0.010 A 
HETATM   10  C5  UNL     1     -35.749  14.767  -7.918  1.00 20.00     0.005 A 
HETATM   11  C6  UNL     1     -35.211  16.171  -7.871  1.00 20.00     0.005 A 
ENDBRANCH   7   9
TORSDOF 1
ENDMDL
MODEL 9
REMARK VINA RESULT:      -4.2      2.199      4.033
REMARK  1 active torsions:
REMARK  status: ('A' for Active; 'I' for Inactive)
REMARK    1  A    between atoms: C9_9  and  C10_10 
ROOT
HETATM    1  C1  UNL     1     -34.951  16.046  -2.276  1.00 20.00     0.064 C 
HETATM    2  C2  UNL     1     -32.893  19.111  -1.253  1.00 20.00     0.002 C 
HETATM    3  C3  UNL     1     -33.850  18.248  -2.079  1.00 20.00     0.019 C 
HETATM    4  C4  UNL     1     -32.967  18.840   0.251  1.00 20.00     0.005 C 
HETATM    5  C7  UNL     1     -34.760  17.069  -0.031  1.00 20.00     0.024 C 
HETATM    6  C8  UNL     1     -34.110  16.896  -1.416  1.00 20.00     0.093 C 
HETATM    7  C10 UNL     1     -34.364  18.379   0.680  1.00 20.00    -0.009 C 
HETATM    8  N11 UNL     1     -35.614  15.377  -2.954  1.00 20.00    -0.197 NA
ENDROOT
BRANCH   7   9
HETATM    9  C9  UNL     1     -34.455  18.231   2.175  1.00 20.00    -0.010 A 
HETATM   10  C5  UNL     1     -35.316  19.167   2.978  1.00 20.00     0.005 A 
HETATM   11  C6  UNL     1     -35.723  17.730   2.810  1.00 20.00     0.005 A 
ENDBRANCH   7   9
TORSDOF 1
ENDMDL
