MODEL 1
REMARK VINA RESULT:      -5.2      0.000      0.000
REMARK  1 active torsions:
REMARK  status: ('A' for Active; 'I' for Inactive)
REMARK    1  A    between atoms: C8_8  and  C9_9 
ROOT
HETATM    1  C1  UNL     1     -34.834  13.799  -4.451  1.00 20.00     0.085 C 
HETATM    2  C2  UNL     1     -33.766  17.481  -4.222  1.00 20.00     0.003 C 
HETATM    3  C3  UNL     1     -33.651  17.550  -2.703  1.00 20.00     0.005 C 
HETATM    4  C6  UNL     1     -33.828  16.037  -4.719  1.00 20.00     0.041 C 
HETATM    5  C7  UNL     1     -34.838  15.324  -2.508  1.00 20.00     0.046 C 
HETATM    6  C9  UNL     1     -34.779  16.779  -2.006  1.00 20.00    -0.008 C 
HETATM    7  C10 UNL     1     -34.929  15.210  -4.039  1.00 20.00     0.125 C 
HETATM    8  N11 UNL     1     -34.759  12.687  -4.774  1.00 20.00    -0.195 NA
HETATM    9 CL12 UNL     1     -36.546  15.773  -4.596  1.00 20.00    -0.103 Cl
ENDROOT
BRANCH   6  10
HETATM   10  C8  UNL     1     -34.608  16.821  -0.508  1.00 20.00    -0.010 A 
HETATM   11  C4  UNL     1     -33.986  18.021   0.150  1.00 20.00     0.005 A 
HETATM   12  C5  UNL     1     -35.453  17.744   0.324  1.00 20.00     0.005 A 
ENDBRANCH   6  10
TORSDOF 1
ENDMDL
MODEL 2
REMARK VINA RESULT:      -4.7      2.064      2.854
REMARK  1 active torsions:
REMARK  status: ('A' for Active; 'I' for Inactive)
REMARK    1  A    between atoms: C8_8  and  C9_9 
ROOT
HETATM    1  C1  UNL     1     -36.599  15.127  -6.665  1.00 20.00     0.085 C 
HETATM    2  C2  UNL     1     -34.024  13.669  -4.217  1.00 20.00     0.003 C 
HETATM    3  C3  UNL     1     -34.316  14.611  -3.053  1.00 20.00     0.005 C 
HETATM    4  C6  UNL     1     -35.129  13.715  -5.273  1.00 20.00     0.041 C 
HETATM    5  C7  UNL     1     -35.674  16.094  -4.589  1.00 20.00     0.046 C 
HETATM    6  C9  UNL     1     -34.559  16.050  -3.527  1.00 20.00    -0.008 C 
HETATM    7  C10 UNL     1     -35.430  15.138  -5.769  1.00 20.00     0.125 C 
HETATM    8  N11 UNL     1     -37.521  15.119  -7.370  1.00 20.00    -0.195 NA
HETATM    9 CL12 UNL     1     -34.057  15.739  -6.767  1.00 20.00    -0.103 Cl
ENDROOT
BRANCH   6  10
HETATM   10  C8  UNL     1     -34.897  16.945  -2.361  1.00 20.00    -0.010 A 
HETATM   11  C4  UNL     1     -34.530  16.536  -0.961  1.00 20.00     0.005 A 
HETATM   12  C5  UNL     1     -33.806  17.673  -1.626  1.00 20.00     0.005 A 
ENDBRANCH   6  10
TORSDOF 1
ENDMDL
MODEL 3
REMARK VINA RESULT:      -4.5      3.206      4.816
REMARK  1 active torsions:
REMARK  status: ('A' for Active; 'I' for Inactive)
REMARK    1  A    between atoms: C8_8  and  C9_9 
ROOT
HETATM    1  C1  UNL     1     -35.255  17.773   0.686  1.00 20.00     0.085 C 
HETATM    2  C2  UNL     1     -34.791  18.645  -3.025  1.00 20.00     0.003 C 
HETATM    3  C3  UNL     1     -34.904  17.224  -3.569  1.00 20.00     0.005 C 
HETATM    4  C6  UNL     1     -35.292  18.741  -1.585  1.00 20.00     0.041 C 
HETATM    5  C7  UNL     1     -34.694  16.306  -1.220  1.00 20.00     0.046 C 
HETATM    6  C9  UNL     1     -34.186  16.208  -2.670  1.00 20.00    -0.008 C 
HETATM    7  C10 UNL     1     -34.620  17.729  -0.643  1.00 20.00     0.125 C 
HETATM    8  N11 UNL     1     -35.754  17.807   1.733  1.00 20.00    -0.195 NA
HETATM    9 CL12 UNL     1     -32.901  18.192  -0.378  1.00 20.00    -0.103 Cl
ENDROOT
BRANCH   6  10
HETATM   10  C8  UNL     1     -34.361  14.808  -3.204  1.00 20.00    -0.010 A 
HETATM   11  C4  UNL     1     -34.241  14.539  -4.679  1.00 20.00     0.005 A 
HETATM   12  C5  UNL     1     -33.177  14.049  -3.736  1.00 20.00     0.005 A 
ENDBRANCH   6  10
TORSDOF 1
ENDMDL
MODEL 4
REMARK VINA RESULT:      -4.5      1.808      2.062
REMARK  1 active torsions:
REMARK  status: ('A' for Active; 'I' for Inactive)
REMARK    1  A    between atoms: C8_8  and  C9_9 
ROOT
HETATM    1  C1  UNL     1     -37.772  14.794  -4.045  1.00 20.00     0.085 C 
HETATM    2  C2  UNL     1     -33.993  15.240  -4.565  1.00 20.00     0.003 C 
HETATM    3  C3  UNL     1     -33.638  15.548  -3.114  1.00 20.00     0.005 C 
HETATM    4  C6  UNL     1     -35.394  14.641  -4.690  1.00 20.00     0.041 C 
HETATM    5  C7  UNL     1     -36.091  15.848  -2.573  1.00 20.00     0.046 C 
HETATM    6  C9  UNL     1     -34.681  16.454  -2.448  1.00 20.00    -0.008 C 
HETATM    7  C10 UNL     1     -36.479  15.499  -4.020  1.00 20.00     0.125 C 
HETATM    8  N11 UNL     1     -38.791  14.238  -4.064  1.00 20.00    -0.195 NA
HETATM    9 CL12 UNL     1     -36.730  17.010  -4.965  1.00 20.00    -0.103 Cl
ENDROOT
BRANCH   6  10
HETATM   10  C8  UNL     1     -34.331  16.696  -1.001  1.00 20.00    -0.010 A 
HETATM   11  C4  UNL     1     -33.433  17.840  -0.620  1.00 20.00     0.005 A 
HETATM   12  C5  UNL     1     -34.896  17.886  -0.275  1.00 20.00     0.005 A 
ENDBRANCH   6  10
TORSDOF 1
ENDMDL
MODEL 5
REMARK VINA RESULT:      -4.3      2.779      5.094
REMARK  1 active torsions:
REMARK  status: ('A' for Active; 'I' for Inactive)
REMARK    1  A    between atoms: C8_8  and  C9_9 
ROOT
HETATM    1  C1  UNL     1     -33.380  18.544  -1.850  1.00 20.00     0.085 C 
HETATM    2  C2  UNL     1     -35.135  15.237  -2.708  1.00 20.00     0.003 C 
HETATM    3  C3  UNL     1     -34.581  15.091  -4.122  1.00 20.00     0.005 C 
HETATM    4  C6  UNL     1     -34.358  16.278  -1.902  1.00 20.00     0.041 C 
HETATM    5  C7  UNL     1     -33.752  17.481  -4.048  1.00 20.00     0.046 C 
HETATM    6  C9  UNL     1     -34.536  16.435  -4.862  1.00 20.00    -0.008 C 
HETATM    7  C10 UNL     1     -34.264  17.640  -2.606  1.00 20.00     0.125 C 
HETATM    8  N11 UNL     1     -32.683  19.256  -1.254  1.00 20.00    -0.195 NA
HETATM    9 CL12 UNL     1     -35.879  18.434  -2.617  1.00 20.00    -0.103 Cl
ENDROOT
BRANCH   6  10
HETATM   10  C8  UNL     1     -33.936  16.267  -6.235  1.00 20.00    -0.010 A 
HETATM   11  C4  UNL     1     -34.335  15.104  -7.100  1.00 20.00     0.005 A 
HETATM   12  C5  UNL     1     -34.776  16.495  -7.461  1.00 20.00     0.005 A 
ENDBRANCH   6  10
TORSDOF 1
ENDMDL
MODEL 6
REMARK VINA RESULT:      -4.2      1.975      2.624
REMARK  1 active torsions:
REMARK  status: ('A' for Active; 'I' for Inactive)
REMARK    1  A    between atoms: C8_8  and  C9_9 
ROOT
HETATM    1  C1  UNL     1     -34.614  14.857  -6.536  1.00 20.00     0.085 C 
HETATM    2  C2  UNL     1     -37.248  15.008  -3.745  1.00 20.00     0.003 C 
HETATM    3  C3  UNL     1     -36.508  15.989  -2.840  1.00 20.00     0.005 C 
HETATM    4  C6  UNL     1     -36.656  14.982  -5.154  1.00 20.00     0.041 C 
HETATM    5  C7  UNL     1     -34.407  15.678  -4.216  1.00 20.00     0.046 C 
HETATM    6  C9  UNL     1     -35.001  15.703  -2.795  1.00 20.00    -0.008 C 
HETATM    7  C10 UNL     1     -35.142  14.719  -5.168  1.00 20.00     0.125 C 
HETATM    8  N11 UNL     1     -34.199  14.967  -7.614  1.00 20.00    -0.195 NA
HETATM    9 CL12 UNL     1     -34.815  13.015  -4.689  1.00 20.00    -0.103 Cl
ENDROOT
BRANCH   6  10
HETATM   10  C8  UNL     1     -34.291  16.719  -1.937  1.00 20.00    -0.010 A 
HETATM   11  C4  UNL     1     -35.040  17.899  -1.383  1.00 20.00     0.005 A 
HETATM   12  C5  UNL     1     -34.583  16.801  -0.464  1.00 20.00     0.005 A 
ENDBRANCH   6  10
TORSDOF 1
ENDMDL
MODEL 7
REMARK VINA RESULT:      -4.1      2.483      4.159
REMARK  1 active torsions:
REMARK  status: ('A' for Active; 'I' for Inactive)
REMARK    1  A    between atoms: C8_8  and  C9_9 
ROOT
HETATM    1  C1  UNL     1     -37.225  14.750  -3.952  1.00 20.00     0.085 C 
HETATM    2  C2  UNL     1     -33.697  16.105  -3.265  1.00 20.00     0.003 C 
HETATM    3  C3  UNL     1     -33.807  17.361  -4.123  1.00 20.00     0.005 C 
HETATM    4  C6  UNL     1     -35.066  15.479  -3.001  1.00 20.00     0.041 C 
HETATM    5  C7  UNL     1     -35.930  16.466  -5.169  1.00 20.00     0.046 C 
HETATM    6  C9  UNL     1     -34.550  17.095  -5.438  1.00 20.00    -0.008 C 
HETATM    7  C10 UNL     1     -35.865  15.209  -4.285  1.00 20.00     0.125 C 
HETATM    8  N11 UNL     1     -38.296  14.390  -3.690  1.00 20.00    -0.195 NA
HETATM    9 CL12 UNL     1     -35.106  13.858  -5.202  1.00 20.00    -0.103 Cl
ENDROOT
BRANCH   6  10
HETATM   10  C8  UNL     1     -34.689  18.365  -6.238  1.00 20.00    -0.010 A 
HETATM   11  C4  UNL     1     -33.501  19.263  -6.449  1.00 20.00     0.005 A 
HETATM   12  C5  UNL     1     -34.060  18.475  -7.600  1.00 20.00     0.005 A 
ENDBRANCH   6  10
TORSDOF 1
ENDMDL
MODEL 8
REMARK VINA RESULT:      -4.1      3.206      4.516
REMARK  1 active torsions:
REMARK  status: ('A' for Active; 'I' for Inactive)
REMARK    1  A    between atoms: C8_8  and  C9_9 
ROOT
HETATM    1  C1  UNL     1     -33.845  18.125  -2.696  1.00 20.00     0.085 C 
HETATM    2  C2  UNL     1     -34.433  14.407  -3.461  1.00 20.00     0.003 C 
HETATM    3  C3  UNL     1     -35.815  14.560  -4.087  1.00 20.00     0.005 C 
HETATM    4  C6  UNL     1     -33.709  15.749  -3.355  1.00 20.00     0.041 C 
HETATM    5  C7  UNL     1     -35.944  16.938  -3.233  1.00 20.00     0.046 C 
HETATM    6  C9  UNL     1     -36.674  15.587  -3.338  1.00 20.00    -0.008 C 
HETATM    7  C10 UNL     1     -34.534  16.824  -2.630  1.00 20.00     0.125 C 
HETATM    8  N11 UNL     1     -33.303  19.149  -2.749  1.00 20.00    -0.195 NA
HETATM    9 CL12 UNL     1     -34.651  16.424  -0.878  1.00 20.00    -0.103 Cl
ENDROOT
BRANCH   6  10
HETATM   10  C8  UNL     1     -38.013  15.754  -4.012  1.00 20.00    -0.010 A 
HETATM   11  C4  UNL     1     -38.899  14.562  -4.245  1.00 20.00     0.005 A 
HETATM   12  C5  UNL     1     -39.282  15.593  -3.222  1.00 20.00     0.005 A 
ENDBRANCH   6  10
TORSDOF 1
ENDMDL
MODEL 9
REMARK VINA RESULT:      -4.1      2.234      2.916
REMARK  1 active torsions:
REMARK  status: ('A' for Active; 'I' for Inactive)
REMARK    1  A    between atoms: C8_8  and  C9_9 
ROOT
HETATM    1  C1  UNL     1     -35.793  17.443  -5.526  1.00 20.00     0.085 C 
HETATM    2  C2  UNL     1     -34.580  15.195  -2.658  1.00 20.00     0.003 C 
HETATM    3  C3  UNL     1     -34.492  16.282  -1.590  1.00 20.00     0.005 C 
HETATM    4  C6  UNL     1     -35.388  15.657  -3.870  1.00 20.00     0.041 C 
HETATM    5  C7  UNL     1     -34.750  18.059  -3.373  1.00 20.00     0.046 C 
HETATM    6  C9  UNL     1     -33.933  17.595  -2.153  1.00 20.00    -0.008 C 
HETATM    7  C10 UNL     1     -34.883  16.982  -4.463  1.00 20.00     0.125 C 
HETATM    8  N11 UNL     1     -36.510  17.807  -6.362  1.00 20.00    -0.195 NA
HETATM    9 CL12 UNL     1     -33.291  16.724  -5.263  1.00 20.00    -0.103 Cl
ENDROOT
BRANCH   6  10
HETATM   10  C8  UNL     1     -33.909  18.663  -1.089  1.00 20.00    -0.010 A 
HETATM   11  C4  UNL     1     -33.657  18.297   0.348  1.00 20.00     0.005 A 
HETATM   12  C5  UNL     1     -32.612  19.047  -0.431  1.00 20.00     0.005 A 
ENDBRANCH   6  10
TORSDOF 1
ENDMDL
