MODEL 1
REMARK VINA RESULT:      -4.7      0.000      0.000
REMARK  1 active torsions:
REMARK  status: ('A' for Active; 'I' for Inactive)
REMARK    1  A    between atoms: C8_8  and  C9_9 
ROOT
HETATM    1  C1  UNL     1     -34.536  16.576  -5.356  1.00 20.00     0.004 C 
HETATM    2  C2  UNL     1     -33.980  17.091  -4.026  1.00 20.00     0.005 C 
HETATM    3  C5  UNL     1     -34.104  15.135  -5.622  1.00 20.00     0.040 C 
HETATM    4  C6  UNL     1     -33.936  14.729  -3.117  1.00 20.00     0.045 C 
HETATM    5  C7  UNL     1     -35.636  13.330  -4.522  1.00 20.00     0.207 A 
HETATM    6  C9  UNL     1     -34.373  16.179  -2.850  1.00 20.00    -0.008 C 
HETATM    7  C10 UNL     1     -34.456  14.270  -4.449  1.00 20.00     0.083 A 
HETATM    8  O11 UNL     1     -34.287  12.867  -4.688  1.00 20.00    -0.375 OA
ENDROOT
BRANCH   6   9
HETATM    9  C8  UNL     1     -33.792  16.686  -1.558  1.00 20.00    -0.010 A 
HETATM   10  C3  UNL     1     -33.993  18.118  -1.146  1.00 20.00     0.005 A 
HETATM   11  C4  UNL     1     -34.693  17.016  -0.400  1.00 20.00     0.005 A 
ENDBRANCH   6   9
TORSDOF 1
ENDMDL
MODEL 2
REMARK VINA RESULT:      -4.4      1.411      2.413
REMARK  1 active torsions:
REMARK  status: ('A' for Active; 'I' for Inactive)
REMARK    1  A    between atoms: C8_8  and  C9_9 
ROOT
HETATM    1  C1  UNL     1     -33.787  13.443  -4.107  1.00 20.00     0.004 C 
HETATM    2  C2  UNL     1     -34.204  14.450  -3.032  1.00 20.00     0.005 C 
HETATM    3  C5  UNL     1     -34.790  13.408  -5.259  1.00 20.00     0.040 C 
HETATM    4  C6  UNL     1     -35.421  15.823  -4.776  1.00 20.00     0.045 C 
HETATM    5  C7  UNL     1     -34.385  15.218  -7.096  1.00 20.00     0.207 A 
HETATM    6  C9  UNL     1     -34.409  15.859  -3.619  1.00 20.00    -0.008 C 
HETATM    7  C10 UNL     1     -35.010  14.793  -5.788  1.00 20.00     0.083 A 
HETATM    8  O11 UNL     1     -35.767  14.839  -7.006  1.00 20.00    -0.375 OA
ENDROOT
BRANCH   6   9
HETATM    9  C8  UNL     1     -34.847  16.827  -2.552  1.00 20.00    -0.010 A 
HETATM   10  C3  UNL     1     -34.596  16.521  -1.102  1.00 20.00     0.005 A 
HETATM   11  C4  UNL     1     -33.826  17.619  -1.783  1.00 20.00     0.005 A 
ENDBRANCH   6   9
TORSDOF 1
ENDMDL
MODEL 3
REMARK VINA RESULT:      -4.4      1.552      2.037
REMARK  1 active torsions:
REMARK  status: ('A' for Active; 'I' for Inactive)
REMARK    1  A    between atoms: C8_8  and  C9_9 
ROOT
HETATM    1  C1  UNL     1     -32.729  15.311  -3.552  1.00 20.00     0.004 C 
HETATM    2  C2  UNL     1     -33.679  16.207  -2.755  1.00 20.00     0.005 C 
HETATM    3  C5  UNL     1     -33.259  13.881  -3.650  1.00 20.00     0.040 C 
HETATM    4  C6  UNL     1     -35.637  14.754  -3.435  1.00 20.00     0.045 C 
HETATM    5  C7  UNL     1     -34.939  13.486  -5.608  1.00 20.00     0.207 A 
HETATM    6  C9  UNL     1     -35.103  16.193  -3.340  1.00 20.00    -0.008 C 
HETATM    7  C10 UNL     1     -34.661  13.891  -4.180  1.00 20.00     0.083 A 
HETATM    8  O11 UNL     1     -35.168  12.590  -4.510  1.00 20.00    -0.375 OA
ENDROOT
BRANCH   6   9
HETATM    9  C8  UNL     1     -36.028  17.057  -2.524  1.00 20.00    -0.010 A 
HETATM   10  C3  UNL     1     -35.577  18.408  -2.044  1.00 20.00     0.005 A 
HETATM   11  C4  UNL     1     -36.622  18.304  -3.120  1.00 20.00     0.005 A 
ENDBRANCH   6   9
TORSDOF 1
ENDMDL
MODEL 4
REMARK VINA RESULT:      -4.3      1.143      1.246
REMARK  1 active torsions:
REMARK  status: ('A' for Active; 'I' for Inactive)
REMARK    1  A    between atoms: C8_8  and  C9_9 
ROOT
HETATM    1  C1  UNL     1     -34.075  17.593  -5.631  1.00 20.00     0.004 C 
HETATM    2  C2  UNL     1     -33.596  17.474  -4.182  1.00 20.00     0.005 C 
HETATM    3  C5  UNL     1     -34.040  16.242  -6.345  1.00 20.00     0.040 C 
HETATM    4  C6  UNL     1     -34.365  15.063  -4.116  1.00 20.00     0.045 C 
HETATM    5  C7  UNL     1     -36.168  14.776  -5.982  1.00 20.00     0.207 A 
HETATM    6  C9  UNL     1     -34.403  16.422  -3.399  1.00 20.00    -0.008 C 
HETATM    7  C10 UNL     1     -34.793  15.222  -5.546  1.00 20.00     0.083 A 
HETATM    8  O11 UNL     1     -35.000  13.980  -6.233  1.00 20.00    -0.375 OA
ENDROOT
BRANCH   6   9
HETATM    9  C8  UNL     1     -33.898  16.299  -1.986  1.00 20.00    -0.010 A 
HETATM   10  C3  UNL     1     -33.622  17.531  -1.170  1.00 20.00     0.005 A 
HETATM   11  C4  UNL     1     -34.791  16.650  -0.828  1.00 20.00     0.005 A 
ENDBRANCH   6   9
TORSDOF 1
ENDMDL
MODEL 5
REMARK VINA RESULT:      -4.3     11.694     13.928
REMARK  1 active torsions:
REMARK  status: ('A' for Active; 'I' for Inactive)
REMARK    1  A    between atoms: C8_8  and  C9_9 
ROOT
HETATM    1  C1  UNL     1     -40.522   5.247  -0.408  1.00 20.00     0.004 C 
HETATM    2  C2  UNL     1     -40.800   4.241  -1.527  1.00 20.00     0.005 C 
HETATM    3  C5  UNL     1     -40.904   6.667  -0.825  1.00 20.00     0.040 C 
HETATM    4  C6  UNL     1     -42.648   5.724  -2.416  1.00 20.00     0.045 C 
HETATM    5  C7  UNL     1     -43.417   7.262  -0.451  1.00 20.00     0.207 A 
HETATM    6  C9  UNL     1     -42.266   4.296  -1.994  1.00 20.00    -0.008 C 
HETATM    7  C10 UNL     1     -42.319   6.692  -1.318  1.00 20.00     0.083 A 
HETATM    8  O11 UNL     1     -42.838   8.012  -1.530  1.00 20.00    -0.375 OA
ENDROOT
BRANCH   6   9
HETATM    9  C8  UNL     1     -42.511   3.320  -3.114  1.00 20.00    -0.010 A 
HETATM   10  C3  UNL     1     -41.556   2.185  -3.352  1.00 20.00     0.005 A 
HETATM   11  C4  UNL     1     -42.931   1.908  -2.811  1.00 20.00     0.005 A 
ENDBRANCH   6   9
TORSDOF 1
ENDMDL
MODEL 6
REMARK VINA RESULT:      -4.2      1.605      1.867
REMARK  1 active torsions:
REMARK  status: ('A' for Active; 'I' for Inactive)
REMARK    1  A    between atoms: C8_8  and  C9_9 
ROOT
HETATM    1  C1  UNL     1     -33.326  15.762  -4.557  1.00 20.00     0.004 C 
HETATM    2  C2  UNL     1     -33.342  15.893  -3.032  1.00 20.00     0.005 C 
HETATM    3  C5  UNL     1     -34.488  14.906  -5.057  1.00 20.00     0.040 C 
HETATM    4  C6  UNL     1     -35.854  15.582  -3.022  1.00 20.00     0.045 C 
HETATM    5  C7  UNL     1     -36.720  16.215  -5.403  1.00 20.00     0.207 A 
HETATM    6  C9  UNL     1     -34.685  16.446  -2.520  1.00 20.00    -0.008 C 
HETATM    7  C10 UNL     1     -35.782  15.433  -4.513  1.00 20.00     0.083 A 
HETATM    8  O11 UNL     1     -36.947  14.831  -5.095  1.00 20.00    -0.375 OA
ENDROOT
BRANCH   6   9
HETATM    9  C8  UNL     1     -34.691  16.539  -1.018  1.00 20.00    -0.010 A 
HETATM   10  C3  UNL     1     -33.852  17.572  -0.319  1.00 20.00     0.005 A 
HETATM   11  C4  UNL     1     -35.349  17.705  -0.334  1.00 20.00     0.005 A 
ENDBRANCH   6   9
TORSDOF 1
ENDMDL
MODEL 7
REMARK VINA RESULT:      -4.2      2.205      3.349
REMARK  1 active torsions:
REMARK  status: ('A' for Active; 'I' for Inactive)
REMARK    1  A    between atoms: C8_8  and  C9_9 
ROOT
HETATM    1  C1  UNL     1     -34.880  15.681  -2.095  1.00 20.00     0.004 C 
HETATM    2  C2  UNL     1     -34.596  16.749  -1.036  1.00 20.00     0.005 C 
HETATM    3  C5  UNL     1     -35.351  16.305  -3.408  1.00 20.00     0.040 C 
HETATM    4  C6  UNL     1     -34.058  18.424  -2.857  1.00 20.00     0.045 C 
HETATM    5  C7  UNL     1     -33.422  17.065  -4.994  1.00 20.00     0.207 A 
HETATM    6  C9  UNL     1     -33.582  17.794  -1.538  1.00 20.00    -0.008 C 
HETATM    7  C10 UNL     1     -34.374  17.350  -3.857  1.00 20.00     0.083 A 
HETATM    8  O11 UNL     1     -34.615  17.841  -5.182  1.00 20.00    -0.375 OA
ENDROOT
BRANCH   6   9
HETATM    9  C8  UNL     1     -33.339  18.852  -0.494  1.00 20.00    -0.010 A 
HETATM   10  C3  UNL     1     -33.357  18.494   0.966  1.00 20.00     0.005 A 
HETATM   11  C4  UNL     1     -32.060  18.856   0.297  1.00 20.00     0.005 A 
ENDBRANCH   6   9
TORSDOF 1
ENDMDL
MODEL 8
REMARK VINA RESULT:      -4.1      2.350      4.476
REMARK  1 active torsions:
REMARK  status: ('A' for Active; 'I' for Inactive)
REMARK    1  A    between atoms: C8_8  and  C9_9 
ROOT
HETATM    1  C1  UNL     1     -34.271  18.396  -3.670  1.00 20.00     0.004 C 
HETATM    2  C2  UNL     1     -34.608  16.939  -3.997  1.00 20.00     0.005 C 
HETATM    3  C5  UNL     1     -34.730  18.775  -2.263  1.00 20.00     0.040 C 
HETATM    4  C6  UNL     1     -34.487  16.350  -1.538  1.00 20.00     0.045 C 
HETATM    5  C7  UNL     1     -33.027  18.177  -0.377  1.00 20.00     0.207 A 
HETATM    6  C9  UNL     1     -34.022  15.970  -2.954  1.00 20.00    -0.008 C 
HETATM    7  C10 UNL     1     -34.186  17.795  -1.267  1.00 20.00     0.083 A 
HETATM    8  O11 UNL     1     -34.382  18.184   0.099  1.00 20.00    -0.375 OA
ENDROOT
BRANCH   6   9
HETATM    9  C8  UNL     1     -34.390  14.546  -3.276  1.00 20.00    -0.010 A 
HETATM   10  C3  UNL     1     -34.383  14.066  -4.701  1.00 20.00     0.005 A 
HETATM   11  C4  UNL     1     -33.337  13.578  -3.739  1.00 20.00     0.005 A 
ENDBRANCH   6   9
TORSDOF 1
ENDMDL
MODEL 9
REMARK VINA RESULT:      -4.1      2.703      4.583
REMARK  1 active torsions:
REMARK  status: ('A' for Active; 'I' for Inactive)
REMARK    1  A    between atoms: C8_8  and  C9_9 
ROOT
HETATM    1  C1  UNL     1     -34.818  16.904  -0.876  1.00 20.00     0.004 C 
HETATM    2  C2  UNL     1     -34.257  16.010  -1.985  1.00 20.00     0.005 C 
HETATM    3  C5  UNL     1     -35.439  18.178  -1.446  1.00 20.00     0.040 C 
HETATM    4  C6  UNL     1     -35.949  16.953  -3.615  1.00 20.00     0.045 C 
HETATM    5  C7  UNL     1     -37.923  17.919  -2.206  1.00 20.00     0.207 A 
HETATM    6  C9  UNL     1     -35.326  15.670  -3.040  1.00 20.00    -0.008 C 
HETATM    7  C10 UNL     1     -36.445  17.829  -2.502  1.00 20.00     0.083 A 
HETATM    8  O11 UNL     1     -37.236  18.941  -2.944  1.00 20.00    -0.375 OA
ENDROOT
BRANCH   6   9
HETATM    9  C8  UNL     1     -34.747  14.816  -4.136  1.00 20.00    -0.010 A 
HETATM   10  C3  UNL     1     -33.752  13.737  -3.810  1.00 20.00     0.005 A 
HETATM   11  C4  UNL     1     -35.140  13.369  -4.256  1.00 20.00     0.005 A 
ENDBRANCH   6   9
TORSDOF 1
ENDMDL
