MODEL 1
REMARK VINA RESULT:      -4.6      0.000      0.000
REMARK  1 active torsions:
REMARK  status: ('A' for Active; 'I' for Inactive)
REMARK    1  A    between atoms: C8_8  and  C9_9 
ROOT
HETATM    1  C1  UNL     1     -34.395  17.112  -5.272  1.00 20.00     0.004 C 
HETATM    2  C2  UNL     1     -33.861  17.450  -3.879  1.00 20.00     0.005 C 
HETATM    3  C5  UNL     1     -34.020  15.691  -5.687  1.00 20.00     0.040 C 
HETATM    4  C6  UNL     1     -33.971  15.005  -3.232  1.00 20.00     0.045 C 
HETATM    5  C7  UNL     1     -34.764  13.288  -5.022  1.00 20.00     0.207 A 
HETATM    6  C9  UNL     1     -34.351  16.439  -2.828  1.00 20.00    -0.008 C 
HETATM    7  C10 UNL     1     -34.424  14.706  -4.632  1.00 20.00     0.083 A 
HETATM    8  O11 UNL     1     -35.783  14.257  -4.729  1.00 20.00    -0.375 OA
ENDROOT
BRANCH   6   9
HETATM    9  C8  UNL     1     -33.805  16.775  -1.464  1.00 20.00    -0.010 A 
HETATM   10  C3  UNL     1     -33.967  18.160  -0.904  1.00 20.00     0.005 A 
HETATM   11  C4  UNL     1     -34.742  17.016  -0.313  1.00 20.00     0.005 A 
ENDBRANCH   6   9
TORSDOF 1
ENDMDL
MODEL 2
REMARK VINA RESULT:      -4.4      1.438      2.430
REMARK  1 active torsions:
REMARK  status: ('A' for Active; 'I' for Inactive)
REMARK    1  A    between atoms: C8_8  and  C9_9 
ROOT
HETATM    1  C1  UNL     1     -33.809  13.440  -4.176  1.00 20.00     0.004 C 
HETATM    2  C2  UNL     1     -34.231  14.434  -3.093  1.00 20.00     0.005 C 
HETATM    3  C5  UNL     1     -34.804  13.416  -5.335  1.00 20.00     0.040 C 
HETATM    4  C6  UNL     1     -35.424  15.838  -4.830  1.00 20.00     0.045 C 
HETATM    5  C7  UNL     1     -35.431  15.006  -7.297  1.00 20.00     0.207 A 
HETATM    6  C9  UNL     1     -34.417  15.849  -3.668  1.00 20.00    -0.008 C 
HETATM    7  C10 UNL     1     -35.050  14.802  -5.851  1.00 20.00     0.083 A 
HETATM    8  O11 UNL     1     -34.097  15.250  -6.825  1.00 20.00    -0.375 OA
ENDROOT
BRANCH   6   9
HETATM    9  C8  UNL     1     -34.848  16.813  -2.593  1.00 20.00    -0.010 A 
HETATM   10  C3  UNL     1     -34.600  16.494  -1.146  1.00 20.00     0.005 A 
HETATM   11  C4  UNL     1     -33.820  17.589  -1.817  1.00 20.00     0.005 A 
ENDBRANCH   6   9
TORSDOF 1
ENDMDL
MODEL 3
REMARK VINA RESULT:      -4.3     11.973     14.144
REMARK  1 active torsions:
REMARK  status: ('A' for Active; 'I' for Inactive)
REMARK    1  A    between atoms: C8_8  and  C9_9 
ROOT
HETATM    1  C1  UNL     1     -40.619   5.397  -0.432  1.00 20.00     0.004 C 
HETATM    2  C2  UNL     1     -40.867   4.362  -1.531  1.00 20.00     0.005 C 
HETATM    3  C5  UNL     1     -41.000   6.803  -0.890  1.00 20.00     0.040 C 
HETATM    4  C6  UNL     1     -42.720   5.801  -2.483  1.00 20.00     0.045 C 
HETATM    5  C7  UNL     1     -43.216   8.089  -1.344  1.00 20.00     0.207 A 
HETATM    6  C9  UNL     1     -42.328   4.391  -2.012  1.00 20.00    -0.008 C 
HETATM    7  C10 UNL     1     -42.397   6.824  -1.433  1.00 20.00     0.083 A 
HETATM    8  O11 UNL     1     -43.417   6.992  -0.438  1.00 20.00    -0.375 OA
ENDROOT
BRANCH   6   9
HETATM    9  C8  UNL     1     -42.554   3.378  -3.104  1.00 20.00    -0.010 A 
HETATM   10  C3  UNL     1     -41.588   2.242  -3.295  1.00 20.00     0.005 A 
HETATM   11  C4  UNL     1     -42.967   1.973  -2.760  1.00 20.00     0.005 A 
ENDBRANCH   6   9
TORSDOF 1
ENDMDL
MODEL 4
REMARK VINA RESULT:      -4.3      2.132      4.408
REMARK  1 active torsions:
REMARK  status: ('A' for Active; 'I' for Inactive)
REMARK    1  A    between atoms: C8_8  and  C9_9 
ROOT
HETATM    1  C1  UNL     1     -33.890  18.478  -3.392  1.00 20.00     0.004 C 
HETATM    2  C2  UNL     1     -34.302  17.079  -3.854  1.00 20.00     0.005 C 
HETATM    3  C5  UNL     1     -34.524  18.834  -2.049  1.00 20.00     0.040 C 
HETATM    4  C6  UNL     1     -34.596  16.358  -1.445  1.00 20.00     0.045 C 
HETATM    5  C7  UNL     1     -34.187  18.117   0.430  1.00 20.00     0.207 A 
HETATM    6  C9  UNL     1     -33.956  16.013  -2.800  1.00 20.00    -0.008 C 
HETATM    7  C10 UNL     1     -34.257  17.762  -1.036  1.00 20.00     0.083 A 
HETATM    8  O11 UNL     1     -33.003  17.891  -0.352  1.00 20.00    -0.375 OA
ENDROOT
BRANCH   6   9
HETATM    9  C8  UNL     1     -34.380  14.643  -3.261  1.00 20.00    -0.010 A 
HETATM   10  C3  UNL     1     -34.312  14.280  -4.719  1.00 20.00     0.005 A 
HETATM   11  C4  UNL     1     -33.354  13.655  -3.743  1.00 20.00     0.005 A 
ENDBRANCH   6   9
TORSDOF 1
ENDMDL
MODEL 5
REMARK VINA RESULT:      -4.2      1.500      1.765
REMARK  1 active torsions:
REMARK  status: ('A' for Active; 'I' for Inactive)
REMARK    1  A    between atoms: C8_8  and  C9_9 
ROOT
HETATM    1  C1  UNL     1     -33.380  15.554  -4.528  1.00 20.00     0.004 C 
HETATM    2  C2  UNL     1     -33.404  15.719  -3.007  1.00 20.00     0.005 C 
HETATM    3  C5  UNL     1     -34.593  14.771  -5.026  1.00 20.00     0.040 C 
HETATM    4  C6  UNL     1     -35.933  15.605  -3.024  1.00 20.00     0.045 C 
HETATM    5  C7  UNL     1     -37.138  15.238  -5.302  1.00 20.00     0.207 A 
HETATM    6  C9  UNL     1     -34.705  16.390  -2.534  1.00 20.00    -0.008 C 
HETATM    7  C10 UNL     1     -35.863  15.373  -4.505  1.00 20.00     0.083 A 
HETATM    8  O11 UNL     1     -36.375  16.455  -5.297  1.00 20.00    -0.375 OA
ENDROOT
BRANCH   6   9
HETATM    9  C8  UNL     1     -34.721  16.531  -1.034  1.00 20.00    -0.010 A 
HETATM   10  C3  UNL     1     -33.859  17.563  -0.362  1.00 20.00     0.005 A 
HETATM   11  C4  UNL     1     -35.351  17.738  -0.395  1.00 20.00     0.005 A 
ENDBRANCH   6   9
TORSDOF 1
ENDMDL
MODEL 6
REMARK VINA RESULT:      -4.1      1.869      4.801
REMARK  1 active torsions:
REMARK  status: ('A' for Active; 'I' for Inactive)
REMARK    1  A    between atoms: C8_8  and  C9_9 
ROOT
HETATM    1  C1  UNL     1     -34.606  15.127  -3.043  1.00 20.00     0.004 C 
HETATM    2  C2  UNL     1     -34.302  14.824  -4.511  1.00 20.00     0.005 C 
HETATM    3  C5  UNL     1     -33.741  16.269  -2.515  1.00 20.00     0.040 C 
HETATM    4  C6  UNL     1     -33.598  17.229  -4.873  1.00 20.00     0.045 C 
HETATM    5  C7  UNL     1     -33.647  18.850  -2.836  1.00 20.00     0.207 A 
HETATM    6  C9  UNL     1     -34.471  16.074  -5.391  1.00 20.00    -0.008 C 
HETATM    7  C10 UNL     1     -33.840  17.467  -3.411  1.00 20.00     0.083 A 
HETATM    8  O11 UNL     1     -34.953  18.328  -3.129  1.00 20.00    -0.375 OA
ENDROOT
BRANCH   6   9
HETATM    9  C8  UNL     1     -34.154  15.765  -6.831  1.00 20.00    -0.010 A 
HETATM   10  C3  UNL     1     -34.920  14.699  -7.563  1.00 20.00     0.005 A 
HETATM   11  C4  UNL     1     -35.121  16.145  -7.918  1.00 20.00     0.005 A 
ENDBRANCH   6   9
TORSDOF 1
ENDMDL
MODEL 7
REMARK VINA RESULT:      -4.0      2.228      4.382
REMARK  1 active torsions:
REMARK  status: ('A' for Active; 'I' for Inactive)
REMARK    1  A    between atoms: C8_8  and  C9_9 
ROOT
HETATM    1  C1  UNL     1     -34.813  16.895  -0.922  1.00 20.00     0.004 C 
HETATM    2  C2  UNL     1     -34.240  15.986  -2.011  1.00 20.00     0.005 C 
HETATM    3  C5  UNL     1     -35.362  18.194  -1.508  1.00 20.00     0.040 C 
HETATM    4  C6  UNL     1     -35.839  16.984  -3.701  1.00 20.00     0.045 C 
HETATM    5  C7  UNL     1     -37.440  18.881  -2.916  1.00 20.00     0.207 A 
HETATM    6  C9  UNL     1     -35.285  15.682  -3.098  1.00 20.00    -0.008 C 
HETATM    7  C10 UNL     1     -36.324  17.908  -2.622  1.00 20.00     0.083 A 
HETATM    8  O11 UNL     1     -37.671  17.661  -2.194  1.00 20.00    -0.375 OA
ENDROOT
BRANCH   6   9
HETATM    9  C8  UNL     1     -34.703  14.799  -4.171  1.00 20.00    -0.010 A 
HETATM   10  C3  UNL     1     -33.705  13.732  -3.815  1.00 20.00     0.005 A 
HETATM   11  C4  UNL     1     -35.091  13.348  -4.250  1.00 20.00     0.005 A 
ENDBRANCH   6   9
TORSDOF 1
ENDMDL
MODEL 8
REMARK VINA RESULT:      -4.0      2.994      5.753
REMARK  1 active torsions:
REMARK  status: ('A' for Active; 'I' for Inactive)
REMARK    1  A    between atoms: C8_8  and  C9_9 
ROOT
HETATM    1  C1  UNL     1     -32.890  18.604   0.891  1.00 20.00     0.004 C 
HETATM    2  C2  UNL     1     -33.250  18.200  -0.540  1.00 20.00     0.005 C 
HETATM    3  C5  UNL     1     -34.086  19.214   1.619  1.00 20.00     0.040 C 
HETATM    4  C6  UNL     1     -35.657  17.838   0.156  1.00 20.00     0.045 C 
HETATM    5  C7  UNL     1     -36.315  18.328   2.627  1.00 20.00     0.207 A 
HETATM    6  C9  UNL     1     -34.444  17.230  -0.568  1.00 20.00    -0.008 C 
HETATM    7  C10 UNL     1     -35.279  18.309   1.530  1.00 20.00     0.083 A 
HETATM    8  O11 UNL     1     -35.326  17.290   2.538  1.00 20.00    -0.375 OA
ENDROOT
BRANCH   6   9
HETATM    9  C8  UNL     1     -34.798  16.853  -1.983  1.00 20.00    -0.010 A 
HETATM   10  C3  UNL     1     -33.715  16.505  -2.967  1.00 20.00     0.005 A 
HETATM   11  C4  UNL     1     -34.633  15.433  -2.451  1.00 20.00     0.005 A 
ENDBRANCH   6   9
TORSDOF 1
ENDMDL
MODEL 9
REMARK VINA RESULT:      -3.9     10.823     12.436
REMARK  1 active torsions:
REMARK  status: ('A' for Active; 'I' for Inactive)
REMARK    1  A    between atoms: C8_8  and  C9_9 
ROOT
HETATM    1  C1  UNL     1     -43.056   7.947  -0.676  1.00 20.00     0.004 C 
HETATM    2  C2  UNL     1     -43.417   8.338  -2.110  1.00 20.00     0.005 C 
HETATM    3  C5  UNL     1     -42.947   6.432  -0.519  1.00 20.00     0.040 C 
HETATM    4  C6  UNL     1     -42.297   6.240  -2.977  1.00 20.00     0.045 C 
HETATM    5  C7  UNL     1     -41.261   4.590  -1.250  1.00 20.00     0.207 A 
HETATM    6  C9  UNL     1     -42.409   7.767  -3.121  1.00 20.00    -0.008 C 
HETATM    7  C10 UNL     1     -42.024   5.856  -1.551  1.00 20.00     0.083 A 
HETATM    8  O11 UNL     1     -40.637   5.882  -1.187  1.00 20.00    -0.375 OA
ENDROOT
BRANCH   6   9
HETATM    9  C8  UNL     1     -42.785   8.147  -4.529  1.00 20.00    -0.010 A 
HETATM   10  C3  UNL     1     -43.333   9.515  -4.823  1.00 20.00     0.005 A 
HETATM   11  C4  UNL     1     -41.955   9.142  -5.292  1.00 20.00     0.005 A 
ENDBRANCH   6   9
TORSDOF 1
ENDMDL
