MODEL 1
REMARK VINA RESULT:      -5.1      0.000      0.000
REMARK  1 active torsions:
REMARK  status: ('A' for Active; 'I' for Inactive)
REMARK    1  A    between atoms: C10_10  and  C11_11 
ROOT
HETATM    1  C1  UNL     1     -34.716  13.663  -5.000  1.00 20.00     0.088 C 
HETATM    2  C2  UNL     1     -34.724  16.055  -4.721  1.00 20.00    -0.070 C 
HETATM    3  C3  UNL     1     -34.559  14.979  -5.503  1.00 20.00     0.096 C 
HETATM    4  C4  UNL     1     -34.561  17.461  -5.237  1.00 20.00     0.035 C 
HETATM    5  C5  UNL     1     -35.065  15.948  -3.257  1.00 20.00     0.039 C 
HETATM    6  C6  UNL     1     -33.560  18.238  -4.382  1.00 20.00     0.005 C 
HETATM    7  C7  UNL     1     -33.915  18.179  -2.895  1.00 20.00     0.005 C 
HETATM    8  C10 UNL     1     -34.051  16.728  -2.402  1.00 20.00    -0.007 C 
HETATM    9  N12 UNL     1     -34.843  12.583  -4.594  1.00 20.00    -0.192 NA
ENDROOT
BRANCH   8  10
HETATM   10  C11 UNL     1     -34.453  16.696  -0.929  1.00 20.00    -0.010 A 
HETATM   11  C8  UNL     1     -33.995  17.785  -0.013  1.00 20.00     0.005 A 
HETATM   12  C9  UNL     1     -35.442  17.690  -0.410  1.00 20.00     0.005 A 
ENDBRANCH   8  10
TORSDOF 1
ENDMDL
MODEL 2
REMARK VINA RESULT:      -4.9      1.867      2.067
REMARK  1 active torsions:
REMARK  status: ('A' for Active; 'I' for Inactive)
REMARK    1  A    between atoms: C10_10  and  C11_11 
ROOT
HETATM    1  C1  UNL     1     -37.801  14.634  -4.294  1.00 20.00     0.088 C 
HETATM    2  C2  UNL     1     -35.645  15.705  -4.376  1.00 20.00    -0.070 C 
HETATM    3  C3  UNL     1     -36.577  14.927  -4.946  1.00 20.00     0.096 C 
HETATM    4  C4  UNL     1     -34.338  16.026  -5.052  1.00 20.00     0.035 C 
HETATM    5  C5  UNL     1     -35.819  16.304  -3.005  1.00 20.00     0.039 C 
HETATM    6  C6  UNL     1     -33.160  15.674  -4.145  1.00 20.00     0.005 C 
HETATM    7  C7  UNL     1     -33.295  16.311  -2.761  1.00 20.00     0.005 C 
HETATM    8  C10 UNL     1     -34.633  15.941  -2.096  1.00 20.00    -0.007 C 
HETATM    9  N12 UNL     1     -38.806  14.392  -3.767  1.00 20.00    -0.192 NA
ENDROOT
BRANCH   8  10
HETATM   10  C11 UNL     1     -34.766  16.628  -0.738  1.00 20.00    -0.010 A 
HETATM   11  C8  UNL     1     -33.829  17.734  -0.373  1.00 20.00     0.005 A 
HETATM   12  C9  UNL     1     -35.273  18.033  -0.666  1.00 20.00     0.005 A 
ENDBRANCH   8  10
TORSDOF 1
ENDMDL
MODEL 3
REMARK VINA RESULT:      -4.8      2.340      3.368
REMARK  1 active torsions:
REMARK  status: ('A' for Active; 'I' for Inactive)
REMARK    1  A    between atoms: C10_10  and  C11_11 
ROOT
HETATM    1  C1  UNL     1     -34.046  18.132  -6.674  1.00 20.00     0.088 C 
HETATM    2  C2  UNL     1     -34.120  15.903  -5.767  1.00 20.00    -0.070 C 
HETATM    3  C3  UNL     1     -34.354  16.753  -6.777  1.00 20.00     0.096 C 
HETATM    4  C4  UNL     1     -34.441  14.434  -5.857  1.00 20.00     0.035 C 
HETATM    5  C5  UNL     1     -33.539  16.349  -4.450  1.00 20.00     0.039 C 
HETATM    6  C6  UNL     1     -35.328  14.001  -4.689  1.00 20.00     0.005 C 
HETATM    7  C7  UNL     1     -34.731  14.406  -3.340  1.00 20.00     0.005 C 
HETATM    8  C10 UNL     1     -34.438  15.915  -3.281  1.00 20.00    -0.007 C 
HETATM    9  N12 UNL     1     -33.797  19.263  -6.596  1.00 20.00    -0.192 NA
ENDROOT
BRANCH   8  10
HETATM   10  C11 UNL     1     -33.799  16.287  -1.944  1.00 20.00    -0.010 A 
HETATM   11  C8  UNL     1     -33.824  17.708  -1.481  1.00 20.00     0.005 A 
HETATM   12  C9  UNL     1     -34.670  16.674  -0.791  1.00 20.00     0.005 A 
ENDBRANCH   8  10
TORSDOF 1
ENDMDL
MODEL 4
REMARK VINA RESULT:      -4.8      2.530      3.333
REMARK  1 active torsions:
REMARK  status: ('A' for Active; 'I' for Inactive)
REMARK    1  A    between atoms: C10_10  and  C11_11 
ROOT
HETATM    1  C1  UNL     1     -38.847  15.468  -3.421  1.00 20.00     0.088 C 
HETATM    2  C2  UNL     1     -36.614  14.967  -4.172  1.00 20.00    -0.070 C 
HETATM    3  C3  UNL     1     -37.930  14.711  -4.193  1.00 20.00     0.096 C 
HETATM    4  C4  UNL     1     -35.625  14.174  -4.985  1.00 20.00     0.035 C 
HETATM    5  C5  UNL     1     -36.013  16.053  -3.318  1.00 20.00     0.039 C 
HETATM    6  C6  UNL     1     -34.513  13.620  -4.093  1.00 20.00     0.005 C 
HETATM    7  C7  UNL     1     -33.859  14.717  -3.250  1.00 20.00     0.005 C 
HETATM    8  C10 UNL     1     -34.900  15.488  -2.420  1.00 20.00    -0.007 C 
HETATM    9  N12 UNL     1     -39.603  16.084  -2.791  1.00 20.00    -0.192 NA
ENDROOT
BRANCH   8  10
HETATM   10  C11 UNL     1     -34.230  16.608  -1.625  1.00 20.00    -0.010 A 
HETATM   11  C8  UNL     1     -34.945  17.905  -1.427  1.00 20.00     0.005 A 
HETATM   12  C9  UNL     1     -34.751  16.966  -0.270  1.00 20.00     0.005 A 
ENDBRANCH   8  10
TORSDOF 1
ENDMDL
MODEL 5
REMARK VINA RESULT:      -4.7      2.258      3.352
REMARK  1 active torsions:
REMARK  status: ('A' for Active; 'I' for Inactive)
REMARK    1  A    between atoms: C10_10  and  C11_11 
ROOT
HETATM    1  C1  UNL     1     -37.516  16.805  -5.776  1.00 20.00     0.088 C 
HETATM    2  C2  UNL     1     -35.664  15.280  -5.559  1.00 20.00    -0.070 C 
HETATM    3  C3  UNL     1     -36.835  15.611  -6.121  1.00 20.00     0.096 C 
HETATM    4  C4  UNL     1     -34.927  14.016  -5.912  1.00 20.00     0.035 C 
HETATM    5  C5  UNL     1     -34.999  16.135  -4.512  1.00 20.00     0.039 C 
HETATM    6  C6  UNL     1     -34.615  13.202  -4.656  1.00 20.00     0.005 C 
HETATM    7  C7  UNL     1     -33.898  14.042  -3.596  1.00 20.00     0.005 C 
HETATM    8  C10 UNL     1     -34.693  15.313  -3.248  1.00 20.00    -0.007 C 
HETATM    9  N12 UNL     1     -38.077  17.782  -5.498  1.00 20.00    -0.192 NA
ENDROOT
BRANCH   8  10
HETATM   10  C11 UNL     1     -33.935  16.158  -2.226  1.00 20.00    -0.010 A 
HETATM   11  C8  UNL     1     -34.288  17.599  -2.050  1.00 20.00     0.005 A 
HETATM   12  C9  UNL     1     -34.626  16.602  -0.977  1.00 20.00     0.005 A 
ENDBRANCH   8  10
TORSDOF 1
ENDMDL
MODEL 6
REMARK VINA RESULT:      -4.7      1.792      2.412
REMARK  1 active torsions:
REMARK  status: ('A' for Active; 'I' for Inactive)
REMARK    1  A    between atoms: C10_10  and  C11_11 
ROOT
HETATM    1  C1  UNL     1     -34.094  13.420  -4.050  1.00 20.00     0.088 C 
HETATM    2  C2  UNL     1     -36.090  14.711  -3.660  1.00 20.00    -0.070 C 
HETATM    3  C3  UNL     1     -35.432  13.772  -4.356  1.00 20.00     0.096 C 
HETATM    4  C4  UNL     1     -37.511  15.098  -3.970  1.00 20.00     0.035 C 
HETATM    5  C5  UNL     1     -35.454  15.471  -2.525  1.00 20.00     0.039 C 
HETATM    6  C6  UNL     1     -37.626  16.607  -4.188  1.00 20.00     0.005 C 
HETATM    7  C7  UNL     1     -37.026  17.398  -3.024  1.00 20.00     0.005 C 
HETATM    8  C10 UNL     1     -35.567  16.988  -2.753  1.00 20.00    -0.007 C 
HETATM    9  N12 UNL     1     -32.998  13.127  -3.804  1.00 20.00    -0.192 NA
ENDROOT
BRANCH   8  10
HETATM   10  C11 UNL     1     -35.007  17.756  -1.558  1.00 20.00    -0.010 A 
HETATM   11  C8  UNL     1     -34.738  17.036  -0.276  1.00 20.00     0.005 A 
HETATM   12  C9  UNL     1     -33.595  17.519  -1.124  1.00 20.00     0.005 A 
ENDBRANCH   8  10
TORSDOF 1
ENDMDL
MODEL 7
REMARK VINA RESULT:      -4.5      2.747      4.427
REMARK  1 active torsions:
REMARK  status: ('A' for Active; 'I' for Inactive)
REMARK    1  A    between atoms: C10_10  and  C11_11 
ROOT
HETATM    1  C1  UNL     1     -34.458  17.024  -0.649  1.00 20.00     0.088 C 
HETATM    2  C2  UNL     1     -34.018  16.012  -2.789  1.00 20.00    -0.070 C 
HETATM    3  C3  UNL     1     -33.649  16.835  -1.797  1.00 20.00     0.096 C 
HETATM    4  C4  UNL     1     -33.172  15.798  -4.017  1.00 20.00     0.035 C 
HETATM    5  C5  UNL     1     -35.318  15.250  -2.769  1.00 20.00     0.039 C 
HETATM    6  C6  UNL     1     -33.984  16.062  -5.285  1.00 20.00     0.005 C 
HETATM    7  C7  UNL     1     -35.288  15.262  -5.305  1.00 20.00     0.005 C 
HETATM    8  C10 UNL     1     -36.131  15.525  -4.045  1.00 20.00    -0.007 C 
HETATM    9  N12 UNL     1     -35.115  17.184   0.294  1.00 20.00    -0.192 NA
ENDROOT
BRANCH   8  10
HETATM   10  C11 UNL     1     -37.404  14.679  -4.064  1.00 20.00    -0.010 A 
HETATM   11  C8  UNL     1     -38.665  15.226  -3.477  1.00 20.00     0.005 A 
HETATM   12  C9  UNL     1     -38.533  15.065  -4.965  1.00 20.00     0.005 A 
ENDBRANCH   8  10
TORSDOF 1
ENDMDL
MODEL 8
REMARK VINA RESULT:      -4.5      4.349      7.158
REMARK  1 active torsions:
REMARK  status: ('A' for Active; 'I' for Inactive)
REMARK    1  A    between atoms: C10_10  and  C11_11 
ROOT
HETATM    1  C1  UNL     1     -36.813  18.216   4.253  1.00 20.00     0.088 C 
HETATM    2  C2  UNL     1     -34.531  18.144   3.487  1.00 20.00    -0.070 C 
HETATM    3  C3  UNL     1     -35.421  18.386   4.460  1.00 20.00     0.096 C 
HETATM    4  C4  UNL     1     -33.048  18.320   3.687  1.00 20.00     0.035 C 
HETATM    5  C5  UNL     1     -34.940  17.699   2.107  1.00 20.00     0.039 C 
HETATM    6  C6  UNL     1     -32.463  19.240   2.617  1.00 20.00     0.005 C 
HETATM    7  C7  UNL     1     -32.830  18.779   1.205  1.00 20.00     0.005 C 
HETATM    8  C10 UNL     1     -34.352  18.632   1.035  1.00 20.00    -0.007 C 
HETATM    9  N12 UNL     1     -37.953  18.079   4.091  1.00 20.00    -0.192 NA
ENDROOT
BRANCH   8  10
HETATM   10  C11 UNL     1     -34.691  18.124  -0.365  1.00 20.00    -0.010 A 
HETATM   11  C8  UNL     1     -33.614  17.538  -1.220  1.00 20.00     0.005 A 
HETATM   12  C9  UNL     1     -34.682  16.654  -0.640  1.00 20.00     0.005 A 
ENDBRANCH   8  10
TORSDOF 1
ENDMDL
MODEL 9
REMARK VINA RESULT:      -4.5      1.334      3.761
REMARK  1 active torsions:
REMARK  status: ('A' for Active; 'I' for Inactive)
REMARK    1  A    between atoms: C10_10  and  C11_11 
ROOT
HETATM    1  C1  UNL     1     -34.603  13.540  -4.050  1.00 20.00     0.088 C 
HETATM    2  C2  UNL     1     -33.935  15.680  -3.170  1.00 20.00    -0.070 C 
HETATM    3  C3  UNL     1     -34.448  14.456  -2.980  1.00 20.00     0.096 C 
HETATM    4  C4  UNL     1     -33.764  16.668  -2.046  1.00 20.00     0.035 C 
HETATM    5  C5  UNL     1     -33.507  16.177  -4.526  1.00 20.00     0.039 C 
HETATM    6  C6  UNL     1     -34.442  17.995  -2.384  1.00 20.00     0.005 C 
HETATM    7  C7  UNL     1     -33.987  18.539  -3.739  1.00 20.00     0.005 C 
HETATM    8  C10 UNL     1     -34.197  17.509  -4.863  1.00 20.00    -0.007 C 
HETATM    9  N12 UNL     1     -34.731  12.785  -4.922  1.00 20.00    -0.192 NA
ENDROOT
BRANCH   8  10
HETATM   10  C11 UNL     1     -33.691  18.057  -6.196  1.00 20.00    -0.010 A 
HETATM   11  C8  UNL     1     -34.415  17.719  -7.458  1.00 20.00     0.005 A 
HETATM   12  C9  UNL     1     -34.474  19.115  -6.906  1.00 20.00     0.005 A 
ENDBRANCH   8  10
TORSDOF 1
ENDMDL
