MODEL 1
REMARK VINA RESULT:      -4.3      0.000      0.000
REMARK  1 active torsions:
REMARK  status: ('A' for Active; 'I' for Inactive)
REMARK    1  A    between atoms: C1_1  and  C2_2 
ROOT
HETATM    1  C1  UNL     1     -34.912   5.241   3.927  1.00 20.00     0.401 C 
HETATM    2  F3  UNL     1     -34.031   6.268   3.843  1.00 20.00    -0.210 F 
HETATM    3  F4  UNL     1     -36.077   5.682   3.391  1.00 20.00    -0.210 F 
ENDROOT
BRANCH   1   4
HETATM    4  C2  UNL     1     -35.138   4.868   5.371  1.00 20.00     0.330 C 
HETATM    5  F5  UNL     1     -34.687   3.602   5.570  1.00 20.00    -0.227 F 
HETATM    6 CL6  UNL     1     -34.274   5.969   6.458  1.00 20.00    -0.084 Cl
ENDBRANCH   1   4
TORSDOF 1
ENDMDL
MODEL 2
REMARK VINA RESULT:      -4.3      1.672      2.672
REMARK  1 active torsions:
REMARK  status: ('A' for Active; 'I' for Inactive)
REMARK    1  A    between atoms: C1_1  and  C2_2 
ROOT
HETATM    1  C1  UNL     1     -34.927   5.040   5.979  1.00 20.00     0.401 C 
HETATM    2  F3  UNL     1     -34.563   6.220   6.537  1.00 20.00    -0.210 F 
HETATM    3  F4  UNL     1     -34.059   4.105   6.441  1.00 20.00    -0.210 F 
ENDROOT
BRANCH   1   4
HETATM    4  C2  UNL     1     -34.816   5.121   4.476  1.00 20.00     0.330 C 
HETATM    5  F5  UNL     1     -36.048   5.376   3.962  1.00 20.00    -0.227 F 
HETATM    6 CL6  UNL     1     -33.705   6.412   3.986  1.00 20.00    -0.084 Cl
ENDBRANCH   1   4
TORSDOF 1
ENDMDL
MODEL 3
REMARK VINA RESULT:      -4.2      0.987      2.300
REMARK  1 active torsions:
REMARK  status: ('A' for Active; 'I' for Inactive)
REMARK    1  A    between atoms: C1_1  and  C2_2 
ROOT
HETATM    1  C1  UNL     1     -35.015   4.776   4.826  1.00 20.00     0.401 C 
HETATM    2  F3  UNL     1     -36.095   5.199   4.124  1.00 20.00    -0.210 F 
HETATM    3  F4  UNL     1     -35.451   4.499   6.081  1.00 20.00    -0.210 F 
ENDROOT
BRANCH   1   4
HETATM    4  C2  UNL     1     -33.977   5.869   4.890  1.00 20.00     0.330 C 
HETATM    5  F5  UNL     1     -34.268   6.801   3.944  1.00 20.00    -0.227 F 
HETATM    6 CL6  UNL     1     -33.962   6.644   6.483  1.00 20.00    -0.084 Cl
ENDBRANCH   1   4
TORSDOF 1
ENDMDL
MODEL 4
REMARK VINA RESULT:      -4.1      1.136      1.591
REMARK  1 active torsions:
REMARK  status: ('A' for Active; 'I' for Inactive)
REMARK    1  A    between atoms: C1_1  and  C2_2 
ROOT
HETATM    1  C1  UNL     1     -34.400   5.764   3.740  1.00 20.00     0.401 C 
HETATM    2  F3  UNL     1     -34.349   5.048   2.590  1.00 20.00    -0.210 F 
HETATM    3  F4  UNL     1     -33.122   5.884   4.181  1.00 20.00    -0.210 F 
ENDROOT
BRANCH   1   4
HETATM    4  C2  UNL     1     -35.216   5.027   4.774  1.00 20.00     0.330 C 
HETATM    5  F5  UNL     1     -35.090   3.691   4.557  1.00 20.00    -0.227 F 
HETATM    6 CL6  UNL     1     -34.657   5.403   6.413  1.00 20.00    -0.084 Cl
ENDBRANCH   1   4
TORSDOF 1
ENDMDL
MODEL 5
REMARK VINA RESULT:      -4.1      2.015      2.669
REMARK  1 active torsions:
REMARK  status: ('A' for Active; 'I' for Inactive)
REMARK    1  A    between atoms: C1_1  and  C2_2 
ROOT
HETATM    1  C1  UNL     1     -34.665   4.361   5.669  1.00 20.00     0.401 C 
HETATM    2  F3  UNL     1     -35.183   3.744   4.579  1.00 20.00    -0.210 F 
HETATM    3  F4  UNL     1     -35.588   4.250   6.656  1.00 20.00    -0.210 F 
ENDROOT
BRANCH   1   4
HETATM    4  C2  UNL     1     -34.426   5.821   5.374  1.00 20.00     0.330 C 
HETATM    5  F5  UNL     1     -33.882   6.404   6.474  1.00 20.00    -0.227 F 
HETATM    6 CL6  UNL     1     -33.321   6.024   4.004  1.00 20.00    -0.084 Cl
ENDBRANCH   1   4
TORSDOF 1
ENDMDL
MODEL 6
REMARK VINA RESULT:      -4.1      2.182      3.027
REMARK  1 active torsions:
REMARK  status: ('A' for Active; 'I' for Inactive)
REMARK    1  A    between atoms: C1_1  and  C2_2 
ROOT
HETATM    1  C1  UNL     1     -34.082   5.910   6.042  1.00 20.00     0.401 C 
HETATM    2  F3  UNL     1     -35.196   5.202   6.349  1.00 20.00    -0.210 F 
HETATM    3  F4  UNL     1     -34.137   7.057   6.765  1.00 20.00    -0.210 F 
ENDROOT
BRANCH   1   4
HETATM    4  C2  UNL     1     -34.071   6.250   4.571  1.00 20.00     0.330 C 
HETATM    5  F5  UNL     1     -32.872   5.881   4.049  1.00 20.00    -0.227 F 
HETATM    6 CL6  UNL     1     -35.364   5.398   3.710  1.00 20.00    -0.084 Cl
ENDBRANCH   1   4
TORSDOF 1
ENDMDL
MODEL 7
REMARK VINA RESULT:      -4.0      1.638      2.109
REMARK  1 active torsions:
REMARK  status: ('A' for Active; 'I' for Inactive)
REMARK    1  A    between atoms: C1_1  and  C2_2 
ROOT
HETATM    1  C1  UNL     1     -34.391   6.062   4.097  1.00 20.00     0.401 C 
HETATM    2  F3  UNL     1     -35.488   5.428   3.615  1.00 20.00    -0.210 F 
HETATM    3  F4  UNL     1     -33.361   5.739   3.274  1.00 20.00    -0.210 F 
ENDROOT
BRANCH   1   4
HETATM    4  C2  UNL     1     -34.083   5.578   5.493  1.00 20.00     0.330 C 
HETATM    5  F5  UNL     1     -34.348   6.582   6.370  1.00 20.00    -0.227 F 
HETATM    6 CL6  UNL     1     -35.070   4.168   5.911  1.00 20.00    -0.084 Cl
ENDBRANCH   1   4
TORSDOF 1
ENDMDL
MODEL 8
REMARK VINA RESULT:      -3.8      2.039      2.483
REMARK  1 active torsions:
REMARK  status: ('A' for Active; 'I' for Inactive)
REMARK    1  A    between atoms: C1_1  and  C2_2 
ROOT
HETATM    1  C1  UNL     1     -33.722   6.463   4.219  1.00 20.00     0.401 C 
HETATM    2  F3  UNL     1     -32.508   6.054   3.776  1.00 20.00    -0.210 F 
HETATM    3  F4  UNL     1     -33.680   6.412   5.574  1.00 20.00    -0.210 F 
ENDROOT
BRANCH   1   4
HETATM    4  C2  UNL     1     -34.799   5.532   3.719  1.00 20.00     0.330 C 
HETATM    5  F5  UNL     1     -34.388   4.981   2.546  1.00 20.00    -0.227 F 
HETATM    6 CL6  UNL     1     -35.116   4.238   4.887  1.00 20.00    -0.084 Cl
ENDBRANCH   1   4
TORSDOF 1
ENDMDL
MODEL 9
REMARK VINA RESULT:      -3.8      2.013      2.382
REMARK  1 active torsions:
REMARK  status: ('A' for Active; 'I' for Inactive)
REMARK    1  A    between atoms: C1_1  and  C2_2 
ROOT
HETATM    1  C1  UNL     1     -33.826   5.944   5.788  1.00 20.00     0.401 C 
HETATM    2  F3  UNL     1     -34.428   6.671   6.761  1.00 20.00    -0.210 F 
HETATM    3  F4  UNL     1     -33.657   6.775   4.729  1.00 20.00    -0.210 F 
ENDROOT
BRANCH   1   4
HETATM    4  C2  UNL     1     -34.709   4.791   5.380  1.00 20.00     0.330 C 
HETATM    5  F5  UNL     1     -35.538   4.490   6.414  1.00 20.00    -0.227 F 
HETATM    6 CL6  UNL     1     -35.684   5.205   3.959  1.00 20.00    -0.084 Cl
ENDBRANCH   1   4
TORSDOF 1
ENDMDL
