MODEL 1
REMARK VINA RESULT:      -4.2      0.000      0.000
REMARK  1 active torsions:
REMARK  status: ('A' for Active; 'I' for Inactive)
REMARK    1  A    between atoms: C1_1  and  C2_2 
ROOT
HETATM    1  C1  UNL     1     -34.731   5.811   3.847  1.00 20.00     0.385 C 
HETATM    2  F3  UNL     1     -36.038   5.456   3.778  1.00 20.00    -0.212 F 
HETATM    3  F4  UNL     1     -34.113   5.243   2.779  1.00 20.00    -0.212 F 
ENDROOT
BRANCH   1   4
HETATM    4  C2  UNL     1     -34.102   5.308   5.131  1.00 20.00     0.242 C 
HETATM    5 CL5  UNL     1     -34.018   6.613   6.335  1.00 20.00    -0.102 Cl
HETATM    6 CL6  UNL     1     -35.029   3.937   5.791  1.00 20.00    -0.102 Cl
ENDBRANCH   1   4
TORSDOF 1
ENDMDL
MODEL 2
REMARK VINA RESULT:      -4.2      1.554      2.062
REMARK  1 active torsions:
REMARK  status: ('A' for Active; 'I' for Inactive)
REMARK    1  A    between atoms: C1_1  and  C2_2 
ROOT
HETATM    1  C1  UNL     1     -35.272   5.033   4.624  1.00 20.00     0.385 C 
HETATM    2  F3  UNL     1     -35.225   3.678   4.617  1.00 20.00    -0.212 F 
HETATM    3  F4  UNL     1     -35.649   5.419   3.378  1.00 20.00    -0.212 F 
ENDROOT
BRANCH   1   4
HETATM    4  C2  UNL     1     -33.913   5.618   4.953  1.00 20.00     0.242 C 
HETATM    5 CL5  UNL     1     -33.318   6.605   3.600  1.00 20.00    -0.102 Cl
HETATM    6 CL6  UNL     1     -33.995   6.608   6.431  1.00 20.00    -0.102 Cl
ENDBRANCH   1   4
TORSDOF 1
ENDMDL
MODEL 3
REMARK VINA RESULT:      -4.1      1.586      2.090
REMARK  1 active torsions:
REMARK  status: ('A' for Active; 'I' for Inactive)
REMARK    1  A    between atoms: C1_1  and  C2_2 
ROOT
HETATM    1  C1  UNL     1     -35.007   5.199   3.940  1.00 20.00     0.385 C 
HETATM    2  F3  UNL     1     -36.178   5.655   3.431  1.00 20.00    -0.212 F 
HETATM    3  F4  UNL     1     -35.315   4.476   5.047  1.00 20.00    -0.212 F 
ENDROOT
BRANCH   1   4
HETATM    4  C2  UNL     1     -34.099   6.353   4.317  1.00 20.00     0.242 C 
HETATM    5 CL5  UNL     1     -33.889   6.428   6.081  1.00 20.00    -0.102 Cl
HETATM    6 CL6  UNL     1     -32.510   6.189   3.528  1.00 20.00    -0.102 Cl
ENDBRANCH   1   4
TORSDOF 1
ENDMDL
MODEL 4
REMARK VINA RESULT:      -4.1      2.626      2.870
REMARK  1 active torsions:
REMARK  status: ('A' for Active; 'I' for Inactive)
REMARK    1  A    between atoms: C1_1  and  C2_2 
ROOT
HETATM    1  C1  UNL     1     -34.040   5.997   6.036  1.00 20.00     0.385 C 
HETATM    2  F3  UNL     1     -35.078   5.252   6.488  1.00 20.00    -0.212 F 
HETATM    3  F4  UNL     1     -34.019   7.133   6.779  1.00 20.00    -0.212 F 
ENDROOT
BRANCH   1   4
HETATM    4  C2  UNL     1     -34.223   6.346   4.571  1.00 20.00     0.242 C 
HETATM    5 CL5  UNL     1     -32.685   6.182   3.697  1.00 20.00    -0.102 Cl
HETATM    6 CL6  UNL     1     -35.455   5.298   3.825  1.00 20.00    -0.102 Cl
ENDBRANCH   1   4
TORSDOF 1
ENDMDL
MODEL 5
REMARK VINA RESULT:      -4.1      1.723      2.414
REMARK  1 active torsions:
REMARK  status: ('A' for Active; 'I' for Inactive)
REMARK    1  A    between atoms: C1_1  and  C2_2 
ROOT
HETATM    1  C1  UNL     1     -35.004   4.633   5.040  1.00 20.00     0.385 C 
HETATM    2  F3  UNL     1     -35.979   5.147   4.250  1.00 20.00    -0.212 F 
HETATM    3  F4  UNL     1     -35.542   4.478   6.277  1.00 20.00    -0.212 F 
ENDROOT
BRANCH   1   4
HETATM    4  C2  UNL     1     -33.817   5.574   5.112  1.00 20.00     0.242 C 
HETATM    5 CL5  UNL     1     -33.667   6.502   3.604  1.00 20.00    -0.102 Cl
HETATM    6 CL6  UNL     1     -33.979   6.688   6.492  1.00 20.00    -0.102 Cl
ENDBRANCH   1   4
TORSDOF 1
ENDMDL
MODEL 6
REMARK VINA RESULT:      -4.1      2.784      3.367
REMARK  1 active torsions:
REMARK  status: ('A' for Active; 'I' for Inactive)
REMARK    1  A    between atoms: C1_1  and  C2_2 
ROOT
HETATM    1  C1  UNL     1     -34.261   6.444   5.958  1.00 20.00     0.385 C 
HETATM    2  F3  UNL     1     -33.160   6.905   6.601  1.00 20.00    -0.212 F 
HETATM    3  F4  UNL     1     -34.876   5.579   6.805  1.00 20.00    -0.212 F 
ENDROOT
BRANCH   1   4
HETATM    4  C2  UNL     1     -33.877   5.725   4.680  1.00 20.00     0.242 C 
HETATM    5 CL5  UNL     1     -35.313   5.442   3.671  1.00 20.00    -0.102 Cl
HETATM    6 CL6  UNL     1     -32.673   6.666   3.765  1.00 20.00    -0.102 Cl
ENDBRANCH   1   4
TORSDOF 1
ENDMDL
MODEL 7
REMARK VINA RESULT:      -4.0      0.972      2.121
REMARK  1 active torsions:
REMARK  status: ('A' for Active; 'I' for Inactive)
REMARK    1  A    between atoms: C1_1  and  C2_2 
ROOT
HETATM    1  C1  UNL     1     -33.857   5.729   3.901  1.00 20.00     0.385 C 
HETATM    2  F3  UNL     1     -33.558   7.021   3.616  1.00 20.00    -0.212 F 
HETATM    3  F4  UNL     1     -34.550   5.244   2.839  1.00 20.00    -0.212 F 
ENDROOT
BRANCH   1   4
HETATM    4  C2  UNL     1     -34.705   5.635   5.154  1.00 20.00     0.242 C 
HETATM    5 CL5  UNL     1     -34.879   3.941   5.660  1.00 20.00    -0.102 Cl
HETATM    6 CL6  UNL     1     -33.984   6.588   6.475  1.00 20.00    -0.102 Cl
ENDBRANCH   1   4
TORSDOF 1
ENDMDL
MODEL 8
REMARK VINA RESULT:      -4.0      0.854      1.289
REMARK  1 active torsions:
REMARK  status: ('A' for Active; 'I' for Inactive)
REMARK    1  A    between atoms: C1_1  and  C2_2 
ROOT
HETATM    1  C1  UNL     1     -34.424   5.691   3.921  1.00 20.00     0.385 C 
HETATM    2  F3  UNL     1     -34.130   7.003   3.743  1.00 20.00    -0.212 F 
HETATM    3  F4  UNL     1     -35.759   5.557   3.711  1.00 20.00    -0.212 F 
ENDROOT
BRANCH   1   4
HETATM    4  C2  UNL     1     -34.078   5.247   5.328  1.00 20.00     0.242 C 
HETATM    5 CL5  UNL     1     -34.020   6.645   6.424  1.00 20.00    -0.102 Cl
HETATM    6 CL6  UNL     1     -35.267   4.062   5.924  1.00 20.00    -0.102 Cl
ENDBRANCH   1   4
TORSDOF 1
ENDMDL
MODEL 9
REMARK VINA RESULT:      -4.0      0.925      2.048
REMARK  1 active torsions:
REMARK  status: ('A' for Active; 'I' for Inactive)
REMARK    1  A    between atoms: C1_1  and  C2_2 
ROOT
HETATM    1  C1  UNL     1     -34.079   5.928   3.755  1.00 20.00     0.385 C 
HETATM    2  F3  UNL     1     -34.441   5.044   2.792  1.00 20.00    -0.212 F 
HETATM    3  F4  UNL     1     -32.740   5.787   3.933  1.00 20.00    -0.212 F 
ENDROOT
BRANCH   1   4
HETATM    4  C2  UNL     1     -34.803   5.637   5.054  1.00 20.00     0.242 C 
HETATM    5 CL5  UNL     1     -34.833   3.888   5.370  1.00 20.00    -0.102 Cl
HETATM    6 CL6  UNL     1     -34.021   6.482   6.414  1.00 20.00    -0.102 Cl
ENDBRANCH   1   4
TORSDOF 1
ENDMDL
