MODEL 1
REMARK VINA RESULT:      -4.6      0.000      0.000
REMARK  2 active torsions:
REMARK  status: ('A' for Active; 'I' for Inactive)
REMARK    1  A    between atoms: C3_3  and  C6_6 
REMARK    2  A    between atoms: C3_3  and  O8_8 
ROOT
HETATM    1  C1  UNL     1     -33.508   7.288   6.966  1.00 20.00     0.013 C 
HETATM    2  C2  UNL     1     -34.052   6.529   6.210  1.00 20.00    -0.103 C 
HETATM    3  C4  UNL     1     -34.684   4.180   5.830  1.00 20.00     0.034 C 
HETATM    4  C6  UNL     1     -34.726   5.602   5.282  1.00 20.00     0.159 C 
ENDROOT
BRANCH   4   5
HETATM    5  C3  UNL     1     -34.084   5.646   3.906  1.00 20.00     0.273 C 
HETATM    6  O7  UNL     1     -34.610   5.260   2.870  1.00 20.00    -0.264 OA
BRANCH   5   7
HETATM    7  O8  UNL     1     -32.832   6.188   4.005  1.00 20.00    -0.326 OA
HETATM    8  C5  UNL     1     -32.411   6.981   2.891  1.00 20.00     0.213 C 
ENDBRANCH   5   7
ENDBRANCH   4   5
TORSDOF 2
ENDMDL
MODEL 2
REMARK VINA RESULT:      -4.3      1.554      1.903
REMARK  2 active torsions:
REMARK  status: ('A' for Active; 'I' for Inactive)
REMARK    1  A    between atoms: C3_3  and  C6_6 
REMARK    2  A    between atoms: C3_3  and  O8_8 
ROOT
HETATM    1  C1  UNL     1     -33.946   6.501   6.559  1.00 20.00     0.013 C 
HETATM    2  C2  UNL     1     -33.949   6.489   5.358  1.00 20.00    -0.103 C 
HETATM    3  C4  UNL     1     -34.763   5.299   3.362  1.00 20.00     0.034 C 
HETATM    4  C6  UNL     1     -33.954   6.482   3.883  1.00 20.00     0.159 C 
ENDROOT
BRANCH   4   5
HETATM    5  C3  UNL     1     -32.540   6.425   3.333  1.00 20.00     0.273 C 
HETATM    6  O7  UNL     1     -31.953   5.402   3.003  1.00 20.00    -0.264 OA
BRANCH   5   7
HETATM    7  O8  UNL     1     -32.029   7.691   3.259  1.00 20.00    -0.326 OA
HETATM    8  C5  UNL     1     -32.081   8.304   1.967  1.00 20.00     0.213 C 
ENDBRANCH   5   7
ENDBRANCH   4   5
TORSDOF 2
ENDMDL
MODEL 3
REMARK VINA RESULT:      -4.2      1.672      3.369
REMARK  2 active torsions:
REMARK  status: ('A' for Active; 'I' for Inactive)
REMARK    1  A    between atoms: C3_3  and  C6_6 
REMARK    2  A    between atoms: C3_3  and  O8_8 
ROOT
HETATM    1  C1  UNL     1     -32.065   7.298   3.048  1.00 20.00     0.013 C 
HETATM    2  C2  UNL     1     -32.886   6.574   3.540  1.00 20.00    -0.103 C 
HETATM    3  C4  UNL     1     -35.200   5.750   3.369  1.00 20.00     0.034 C 
HETATM    4  C6  UNL     1     -33.890   5.678   4.145  1.00 20.00     0.159 C 
ENDROOT
BRANCH   4   5
HETATM    5  C3  UNL     1     -34.131   6.034   5.602  1.00 20.00     0.273 C 
HETATM    6  O7  UNL     1     -33.561   6.931   6.211  1.00 20.00    -0.264 OA
BRANCH   5   7
HETATM    7  O8  UNL     1     -35.085   5.204   6.121  1.00 20.00    -0.326 OA
HETATM    8  C5  UNL     1     -34.830   3.803   5.978  1.00 20.00     0.213 C 
ENDBRANCH   5   7
ENDBRANCH   4   5
TORSDOF 2
ENDMDL
MODEL 4
REMARK VINA RESULT:      -4.0      0.850      2.037
REMARK  2 active torsions:
REMARK  status: ('A' for Active; 'I' for Inactive)
REMARK    1  A    between atoms: C3_3  and  C6_6 
REMARK    2  A    between atoms: C3_3  and  O8_8 
ROOT
HETATM    1  C1  UNL     1     -35.364   3.980   5.917  1.00 20.00     0.013 C 
HETATM    2  C2  UNL     1     -34.526   4.822   5.745  1.00 20.00    -0.103 C 
HETATM    3  C4  UNL     1     -33.769   7.070   6.407  1.00 20.00     0.034 C 
HETATM    4  C6  UNL     1     -33.490   5.851   5.535  1.00 20.00     0.159 C 
ENDROOT
BRANCH   4   5
HETATM    5  C3  UNL     1     -33.421   6.264   4.075  1.00 20.00     0.273 C 
HETATM    6  O7  UNL     1     -34.285   6.038   3.237  1.00 20.00    -0.264 OA
BRANCH   5   7
HETATM    7  O8  UNL     1     -32.249   6.931   3.846  1.00 20.00    -0.326 OA
HETATM    8  C5  UNL     1     -32.172   7.638   2.604  1.00 20.00     0.213 C 
ENDBRANCH   5   7
ENDBRANCH   4   5
TORSDOF 2
ENDMDL
MODEL 5
REMARK VINA RESULT:      -3.9     11.753     12.549
REMARK  2 active torsions:
REMARK  status: ('A' for Active; 'I' for Inactive)
REMARK    1  A    between atoms: C3_3  and  C6_6 
REMARK    2  A    between atoms: C3_3  and  O8_8 
ROOT
HETATM    1  C1  UNL     1     -34.482  16.650  -1.245  1.00 20.00     0.013 C 
HETATM    2  C2  UNL     1     -34.031  16.103  -2.213  1.00 20.00    -0.103 C 
HETATM    3  C4  UNL     1     -33.366  16.403  -4.565  1.00 20.00     0.034 C 
HETATM    4  C6  UNL     1     -33.470  15.427  -3.398  1.00 20.00     0.159 C 
ENDROOT
BRANCH   4   5
HETATM    5  C3  UNL     1     -34.320  14.232  -3.797  1.00 20.00     0.273 C 
HETATM    6  O7  UNL     1     -34.117  13.076  -3.448  1.00 20.00    -0.264 OA
BRANCH   5   7
HETATM    7  O8  UNL     1     -35.345  14.651  -4.599  1.00 20.00    -0.326 OA
HETATM    8  C5  UNL     1     -36.661  14.445  -4.078  1.00 20.00     0.213 C 
ENDBRANCH   5   7
ENDBRANCH   4   5
TORSDOF 2
ENDMDL
MODEL 6
REMARK VINA RESULT:      -3.9      1.647      3.049
REMARK  2 active torsions:
REMARK  status: ('A' for Active; 'I' for Inactive)
REMARK    1  A    between atoms: C3_3  and  C6_6 
REMARK    2  A    between atoms: C3_3  and  O8_8 
ROOT
HETATM    1  C1  UNL     1     -32.392   6.831   3.032  1.00 20.00     0.013 C 
HETATM    2  C2  UNL     1     -33.258   6.141   3.495  1.00 20.00    -0.103 C 
HETATM    3  C4  UNL     1     -35.680   5.700   3.520  1.00 20.00     0.034 C 
HETATM    4  C6  UNL     1     -34.317   5.285   4.062  1.00 20.00     0.159 C 
ENDROOT
BRANCH   4   5
HETATM    5  C3  UNL     1     -34.320   5.355   5.580  1.00 20.00     0.273 C 
HETATM    6  O7  UNL     1     -34.225   4.391   6.330  1.00 20.00    -0.264 OA
BRANCH   5   7
HETATM    7  O8  UNL     1     -34.439   6.659   5.974  1.00 20.00    -0.326 OA
HETATM    8  C5  UNL     1     -33.391   7.147   6.818  1.00 20.00     0.213 C 
ENDBRANCH   5   7
ENDBRANCH   4   5
TORSDOF 2
ENDMDL
MODEL 7
REMARK VINA RESULT:      -3.9     11.767     12.384
REMARK  2 active torsions:
REMARK  status: ('A' for Active; 'I' for Inactive)
REMARK    1  A    between atoms: C3_3  and  C6_6 
REMARK    2  A    between atoms: C3_3  and  O8_8 
ROOT
HETATM    1  C1  UNL     1     -34.673  16.638  -0.694  1.00 20.00     0.013 C 
HETATM    2  C2  UNL     1     -34.828  16.215  -1.807  1.00 20.00    -0.103 C 
HETATM    3  C4  UNL     1     -36.403  15.091  -3.329  1.00 20.00     0.034 C 
HETATM    4  C6  UNL     1     -35.015  15.703  -3.178  1.00 20.00     0.159 C 
ENDROOT
BRANCH   4   5
HETATM    5  C3  UNL     1     -33.954  14.672  -3.524  1.00 20.00     0.273 C 
HETATM    6  O7  UNL     1     -34.070  13.463  -3.368  1.00 20.00    -0.264 OA
BRANCH   5   7
HETATM    7  O8  UNL     1     -32.857  15.305  -4.040  1.00 20.00    -0.326 OA
HETATM    8  C5  UNL     1     -33.131  16.355  -4.973  1.00 20.00     0.213 C 
ENDBRANCH   5   7
ENDBRANCH   4   5
TORSDOF 2
ENDMDL
MODEL 8
REMARK VINA RESULT:      -3.8     11.799     12.650
REMARK  2 active torsions:
REMARK  status: ('A' for Active; 'I' for Inactive)
REMARK    1  A    between atoms: C3_3  and  C6_6 
REMARK    2  A    between atoms: C3_3  and  O8_8 
ROOT
HETATM    1  C1  UNL     1     -35.874  16.375  -2.837  1.00 20.00     0.013 C 
HETATM    2  C2  UNL     1     -35.083  15.509  -3.095  1.00 20.00    -0.103 C 
HETATM    3  C4  UNL     1     -32.739  15.038  -3.682  1.00 20.00     0.034 C 
HETATM    4  C6  UNL     1     -34.114  14.441  -3.404  1.00 20.00     0.159 C 
ENDROOT
BRANCH   4   5
HETATM    5  C3  UNL     1     -34.572  13.619  -4.597  1.00 20.00     0.273 C 
HETATM    6  O7  UNL     1     -35.107  12.519  -4.530  1.00 20.00    -0.264 OA
BRANCH   5   7
HETATM    7  O8  UNL     1     -34.299  14.300  -5.751  1.00 20.00    -0.326 OA
HETATM    8  C5  UNL     1     -35.339  14.293  -6.733  1.00 20.00     0.213 C 
ENDBRANCH   5   7
ENDBRANCH   4   5
TORSDOF 2
ENDMDL
MODEL 9
REMARK VINA RESULT:      -3.8      1.658      2.982
REMARK  2 active torsions:
REMARK  status: ('A' for Active; 'I' for Inactive)
REMARK    1  A    between atoms: C3_3  and  C6_6 
REMARK    2  A    between atoms: C3_3  and  O8_8 
ROOT
HETATM    1  C1  UNL     1     -32.156   6.546   3.315  1.00 20.00     0.013 C 
HETATM    2  C2  UNL     1     -33.018   6.454   4.145  1.00 20.00    -0.103 C 
HETATM    3  C4  UNL     1     -33.609   6.918   6.490  1.00 20.00     0.034 C 
HETATM    4  C6  UNL     1     -34.083   6.344   5.159  1.00 20.00     0.159 C 
ENDROOT
BRANCH   4   5
HETATM    5  C3  UNL     1     -34.514   4.899   5.344  1.00 20.00     0.273 C 
HETATM    6  O7  UNL     1     -34.186   4.180   6.279  1.00 20.00    -0.264 OA
BRANCH   5   7
HETATM    7  O8  UNL     1     -35.327   4.531   4.307  1.00 20.00    -0.326 OA
HETATM    8  C5  UNL     1     -35.981   5.605   3.624  1.00 20.00     0.213 C 
ENDBRANCH   5   7
ENDBRANCH   4   5
TORSDOF 2
ENDMDL
