MODEL 1
REMARK VINA RESULT:      -5.0      0.000      0.000
REMARK  0 active torsions:
REMARK  status: ('A' for Active; 'I' for Inactive)
ROOT
HETATM    1  C1  UNL     1     -34.710  13.515  -4.232  1.00 20.00     0.127 C 
HETATM    2  C2  UNL     1     -33.401  13.821  -3.540  1.00 20.00     0.079 C 
HETATM    3  C3  UNL     1     -35.885  14.398  -3.873  1.00 20.00     0.079 C 
HETATM    4  C4  UNL     1     -33.063  15.300  -3.674  1.00 20.00     0.017 C 
HETATM    5  C5  UNL     1     -35.505  15.870  -3.983  1.00 20.00     0.017 C 
HETATM    6  C6  UNL     1     -34.622  17.746  -1.762  1.00 20.00     0.002 C 
HETATM    7  C7  UNL     1     -33.878  17.682  -3.108  1.00 20.00     0.009 C 
HETATM    8  C8  UNL     1     -34.400  16.228  -1.626  1.00 20.00     0.009 C 
HETATM    9  C9  UNL     1     -34.228  16.163  -3.177  1.00 20.00    -0.040 C 
HETATM   10  O10 UNL     1     -34.839  12.536  -4.967  1.00 20.00    -0.298 OA
ENDROOT
TORSDOF 0
ENDMDL
MODEL 2
REMARK VINA RESULT:      -4.8     11.653     12.760
REMARK  0 active torsions:
REMARK  status: ('A' for Active; 'I' for Inactive)
ROOT
HETATM    1  C1  UNL     1     -34.936   4.630   5.928  1.00 20.00     0.127 C 
HETATM    2  C2  UNL     1     -35.008   4.254   4.466  1.00 20.00     0.079 C 
HETATM    3  C3  UNL     1     -33.810   5.556   6.332  1.00 20.00     0.079 C 
HETATM    4  C4  UNL     1     -34.956   5.500   3.593  1.00 20.00     0.017 C 
HETATM    5  C5  UNL     1     -33.763   6.776   5.419  1.00 20.00     0.017 C 
HETATM    6  C6  UNL     1     -32.002   7.224   2.984  1.00 20.00     0.002 C 
HETATM    7  C7  UNL     1     -33.509   7.541   2.960  1.00 20.00     0.009 C 
HETATM    8  C8  UNL     1     -32.362   5.793   3.424  1.00 20.00     0.009 C 
HETATM    9  C9  UNL     1     -33.727   6.348   3.942  1.00 20.00    -0.040 C 
HETATM   10  O10 UNL     1     -35.689   4.128   6.762  1.00 20.00    -0.298 OA
ENDROOT
TORSDOF 0
ENDMDL
MODEL 3
REMARK VINA RESULT:      -4.6      2.353      3.986
REMARK  0 active torsions:
REMARK  status: ('A' for Active; 'I' for Inactive)
ROOT
HETATM    1  C1  UNL     1     -33.750  17.751  -2.977  1.00 20.00     0.127 C 
HETATM    2  C2  UNL     1     -33.875  16.678  -1.920  1.00 20.00     0.079 C 
HETATM    3  C3  UNL     1     -33.597  17.277  -4.405  1.00 20.00     0.079 C 
HETATM    4  C4  UNL     1     -34.954  15.675  -2.305  1.00 20.00     0.017 C 
HETATM    5  C5  UNL     1     -34.670  16.249  -4.749  1.00 20.00     0.017 C 
HETATM    6  C6  UNL     1     -34.440  13.220  -4.709  1.00 20.00     0.002 C 
HETATM    7  C7  UNL     1     -35.649  13.947  -4.090  1.00 20.00     0.009 C 
HETATM    8  C8  UNL     1     -33.530  14.076  -3.808  1.00 20.00     0.009 C 
HETATM    9  C9  UNL     1     -34.690  15.117  -3.708  1.00 20.00    -0.040 C 
HETATM   10  O10 UNL     1     -33.673  18.944  -2.682  1.00 20.00    -0.298 OA
ENDROOT
TORSDOF 0
ENDMDL
MODEL 4
REMARK VINA RESULT:      -4.4      2.215      3.697
REMARK  0 active torsions:
REMARK  status: ('A' for Active; 'I' for Inactive)
ROOT
HETATM    1  C1  UNL     1     -34.683  16.065  -2.086  1.00 20.00     0.127 C 
HETATM    2  C2  UNL     1     -33.405  15.876  -2.871  1.00 20.00     0.079 C 
HETATM    3  C3  UNL     1     -35.975  15.964  -2.866  1.00 20.00     0.079 C 
HETATM    4  C4  UNL     1     -33.472  14.599  -3.697  1.00 20.00     0.017 C 
HETATM    5  C5  UNL     1     -35.997  14.693  -3.708  1.00 20.00     0.017 C 
HETATM    6  C6  UNL     1     -35.294  14.384  -6.647  1.00 20.00     0.002 C 
HETATM    7  C7  UNL     1     -34.766  13.404  -5.583  1.00 20.00     0.009 C 
HETATM    8  C8  UNL     1     -34.680  15.530  -5.823  1.00 20.00     0.009 C 
HETATM    9  C9  UNL     1     -34.730  14.593  -4.573  1.00 20.00    -0.040 C 
HETATM   10  O10 UNL     1     -34.669  16.387  -0.898  1.00 20.00    -0.298 OA
ENDROOT
TORSDOF 0
ENDMDL
MODEL 5
REMARK VINA RESULT:      -4.4      1.335      2.366
REMARK  0 active torsions:
REMARK  status: ('A' for Active; 'I' for Inactive)
ROOT
HETATM    1  C1  UNL     1     -34.618  13.705  -4.638  1.00 20.00     0.127 C 
HETATM    2  C2  UNL     1     -35.272  14.539  -5.716  1.00 20.00     0.079 C 
HETATM    3  C3  UNL     1     -33.541  14.384  -3.822  1.00 20.00     0.079 C 
HETATM    4  C4  UNL     1     -35.744  15.870  -5.147  1.00 20.00     0.017 C 
HETATM    5  C5  UNL     1     -34.031  15.728  -3.295  1.00 20.00     0.017 C 
HETATM    6  C6  UNL     1     -33.559  18.487  -4.477  1.00 20.00     0.002 C 
HETATM    7  C7  UNL     1     -34.953  18.041  -3.998  1.00 20.00     0.009 C 
HETATM    8  C8  UNL     1     -33.529  17.242  -5.383  1.00 20.00     0.009 C 
HETATM    9  C9  UNL     1     -34.589  16.589  -4.440  1.00 20.00    -0.040 C 
HETATM   10  O10 UNL     1     -34.875  12.509  -4.501  1.00 20.00    -0.298 OA
ENDROOT
TORSDOF 0
ENDMDL
MODEL 6
REMARK VINA RESULT:      -4.4      2.154      3.037
REMARK  0 active torsions:
REMARK  status: ('A' for Active; 'I' for Inactive)
ROOT
HETATM    1  C1  UNL     1     -33.673  13.970  -4.139  1.00 20.00     0.127 C 
HETATM    2  C2  UNL     1     -33.427  15.405  -3.733  1.00 20.00     0.079 C 
HETATM    3  C3  UNL     1     -34.769  13.735  -5.155  1.00 20.00     0.079 C 
HETATM    4  C4  UNL     1     -33.259  16.285  -4.964  1.00 20.00     0.017 C 
HETATM    5  C5  UNL     1     -34.593  14.654  -6.358  1.00 20.00     0.017 C 
HETATM    6  C6  UNL     1     -35.956  17.316  -6.896  1.00 20.00     0.002 C 
HETATM    7  C7  UNL     1     -34.441  17.129  -7.097  1.00 20.00     0.009 C 
HETATM    8  C8  UNL     1     -35.773  16.819  -5.450  1.00 20.00     0.009 C 
HETATM    9  C9  UNL     1     -34.455  16.118  -5.908  1.00 20.00    -0.040 C 
HETATM   10  O10 UNL     1     -33.085  13.035  -3.596  1.00 20.00    -0.298 OA
ENDROOT
TORSDOF 0
ENDMDL
MODEL 7
REMARK VINA RESULT:      -4.3      2.399      3.969
REMARK  0 active torsions:
REMARK  status: ('A' for Active; 'I' for Inactive)
ROOT
HETATM    1  C1  UNL     1     -34.026  17.983  -3.105  1.00 20.00     0.127 C 
HETATM    2  C2  UNL     1     -33.626  17.548  -4.497  1.00 20.00     0.079 C 
HETATM    3  C3  UNL     1     -34.943  17.050  -2.345  1.00 20.00     0.079 C 
HETATM    4  C4  UNL     1     -33.096  16.121  -4.477  1.00 20.00     0.017 C 
HETATM    5  C5  UNL     1     -34.403  15.625  -2.373  1.00 20.00     0.017 C 
HETATM    6  C6  UNL     1     -35.192  13.361  -4.239  1.00 20.00     0.002 C 
HETATM    7  C7  UNL     1     -33.717  13.677  -3.931  1.00 20.00     0.009 C 
HETATM    8  C8  UNL     1     -35.359  14.825  -4.686  1.00 20.00     0.009 C 
HETATM    9  C9  UNL     1     -34.112  15.182  -3.816  1.00 20.00    -0.040 C 
HETATM   10  O10 UNL     1     -33.707  19.083  -2.656  1.00 20.00    -0.298 OA
ENDROOT
TORSDOF 0
ENDMDL
MODEL 8
REMARK VINA RESULT:      -4.3      1.398      2.690
REMARK  0 active torsions:
REMARK  status: ('A' for Active; 'I' for Inactive)
ROOT
HETATM    1  C1  UNL     1     -33.560  13.782  -3.867  1.00 20.00     0.127 C 
HETATM    2  C2  UNL     1     -34.732  13.511  -4.782  1.00 20.00     0.079 C 
HETATM    3  C3  UNL     1     -33.394  15.207  -3.388  1.00 20.00     0.079 C 
HETATM    4  C4  UNL     1     -36.017  14.061  -4.177  1.00 20.00     0.017 C 
HETATM    5  C5  UNL     1     -34.704  15.740  -2.821  1.00 20.00     0.017 C 
HETATM    6  C6  UNL     1     -36.793  17.447  -4.220  1.00 20.00     0.002 C 
HETATM    7  C7  UNL     1     -37.185  16.218  -3.378  1.00 20.00     0.009 C 
HETATM    8  C8  UNL     1     -35.871  16.526  -5.041  1.00 20.00     0.009 C 
HETATM    9  C9  UNL     1     -35.851  15.544  -3.826  1.00 20.00    -0.040 C 
HETATM   10  O10 UNL     1     -32.726  12.914  -3.610  1.00 20.00    -0.298 OA
ENDROOT
TORSDOF 0
ENDMDL
MODEL 9
REMARK VINA RESULT:      -4.3      1.769      2.176
REMARK  0 active torsions:
REMARK  status: ('A' for Active; 'I' for Inactive)
ROOT
HETATM    1  C1  UNL     1     -34.817  13.731  -4.646  1.00 20.00     0.127 C 
HETATM    2  C2  UNL     1     -34.434  14.579  -3.454  1.00 20.00     0.079 C 
HETATM    3  C3  UNL     1     -35.377  14.466  -5.844  1.00 20.00     0.079 C 
HETATM    4  C4  UNL     1     -33.535  15.729  -3.887  1.00 20.00     0.017 C 
HETATM    5  C5  UNL     1     -34.473  15.631  -6.231  1.00 20.00     0.017 C 
HETATM    6  C6  UNL     1     -34.771  18.559  -5.478  1.00 20.00     0.002 C 
HETATM    7  C7  UNL     1     -33.417  17.833  -5.376  1.00 20.00     0.009 C 
HETATM    8  C8  UNL     1     -35.368  17.465  -4.575  1.00 20.00     0.009 C 
HETATM    9  C9  UNL     1     -34.196  16.530  -5.015  1.00 20.00    -0.040 C 
HETATM   10  O10 UNL     1     -34.773  12.502  -4.605  1.00 20.00    -0.298 OA
ENDROOT
TORSDOF 0
ENDMDL
