MODEL 1
REMARK VINA RESULT:      -4.2      0.000      0.000
REMARK  0 active torsions:
REMARK  status: ('A' for Active; 'I' for Inactive)
ROOT
HETATM    1  C1  UNL     1     -40.856   5.940  -0.114  1.00 20.00     0.005 C 
HETATM    2  C2  UNL     1     -41.121   7.175  -0.973  1.00 20.00     0.026 C 
HETATM    3  C3  UNL     1     -40.691   4.696  -0.983  1.00 20.00     0.042 C 
HETATM    4  C4  UNL     1     -41.881   3.249  -2.763  1.00 20.00     0.309 C 
HETATM    5  C5  UNL     1     -43.181   3.928  -1.282  1.00 20.00     0.309 C 
HETATM    6  C6  UNL     1     -42.303   6.940  -1.903  1.00 20.00     0.169 C 
HETATM    7  C7  UNL     1     -41.901   4.540  -1.907  1.00 20.00     0.113 C 
HETATM    8  N8  UNL     1     -42.773   2.602  -1.783  1.00 20.00     0.089 N 
HETATM    9  O9  UNL     1     -42.094   5.757  -2.672  1.00 20.00    -0.377 OA
HETATM   10  H22 UNL     1     -43.539   2.089  -2.222  1.00 20.00     0.316 HD
ENDROOT
TORSDOF 0
ENDMDL
MODEL 2
REMARK VINA RESULT:      -4.0      9.541     10.496
REMARK  0 active torsions:
REMARK  status: ('A' for Active; 'I' for Inactive)
ROOT
HETATM    1  C1  UNL     1     -33.984   5.355   6.381  1.00 20.00     0.005 C 
HETATM    2  C2  UNL     1     -35.205   4.566   5.912  1.00 20.00     0.026 C 
HETATM    3  C3  UNL     1     -33.810   6.630   5.560  1.00 20.00     0.042 C 
HETATM    4  C4  UNL     1     -33.497   7.505   3.148  1.00 20.00     0.309 C 
HETATM    5  C5  UNL     1     -32.429   5.752   3.509  1.00 20.00     0.309 C 
HETATM    6  C6  UNL     1     -35.132   4.301   4.415  1.00 20.00     0.169 C 
HETATM    7  C7  UNL     1     -33.773   6.289   4.068  1.00 20.00     0.113 C 
HETATM    8  N8  UNL     1     -32.075   7.121   3.089  1.00 20.00     0.089 N 
HETATM    9  O9  UNL     1     -34.953   5.527   3.709  1.00 20.00    -0.377 OA
HETATM   10  H22 UNL     1     -31.692   7.159   2.142  1.00 20.00     0.316 HD
ENDROOT
TORSDOF 0
ENDMDL
MODEL 3
REMARK VINA RESULT:      -3.9     11.807     13.161
REMARK  0 active torsions:
REMARK  status: ('A' for Active; 'I' for Inactive)
ROOT
HETATM    1  C1  UNL     1     -33.522  17.066  -4.559  1.00 20.00     0.005 C 
HETATM    2  C2  UNL     1     -33.838  17.637  -3.178  1.00 20.00     0.026 C 
HETATM    3  C3  UNL     1     -34.526  15.982  -4.944  1.00 20.00     0.042 C 
HETATM    4  C4  UNL     1     -35.504  13.713  -4.187  1.00 20.00     0.309 C 
HETATM    5  C5  UNL     1     -33.453  13.856  -3.843  1.00 20.00     0.309 C 
HETATM    6  C6  UNL     1     -33.932  16.524  -2.144  1.00 20.00     0.169 C 
HETATM    7  C7  UNL     1     -34.587  14.915  -3.848  1.00 20.00     0.113 C 
HETATM    8  N8  UNL     1     -34.320  12.947  -4.618  1.00 20.00     0.089 N 
HETATM    9  O9  UNL     1     -34.871  15.538  -2.571  1.00 20.00    -0.377 OA
HETATM   10  H22 UNL     1     -34.314  11.991  -4.260  1.00 20.00     0.316 HD
ENDROOT
TORSDOF 0
ENDMDL
MODEL 4
REMARK VINA RESULT:      -3.9     11.263     12.092
REMARK  0 active torsions:
REMARK  status: ('A' for Active; 'I' for Inactive)
ROOT
HETATM    1  C1  UNL     1     -33.827  15.228  -3.444  1.00 20.00     0.005 C 
HETATM    2  C2  UNL     1     -33.485  13.771  -3.752  1.00 20.00     0.026 C 
HETATM    3  C3  UNL     1     -35.278  15.362  -2.987  1.00 20.00     0.042 C 
HETATM    4  C4  UNL     1     -37.718  14.901  -3.702  1.00 20.00     0.309 C 
HETATM    5  C5  UNL     1     -36.535  15.574  -5.281  1.00 20.00     0.309 C 
HETATM    6  C6  UNL     1     -34.477  13.184  -4.747  1.00 20.00     0.169 C 
HETATM    7  C7  UNL     1     -36.212  14.728  -4.022  1.00 20.00     0.113 C 
HETATM    8  N8  UNL     1     -37.769  16.049  -4.626  1.00 20.00     0.089 N 
HETATM    9  O9  UNL     1     -35.810  13.358  -4.271  1.00 20.00    -0.377 OA
HETATM   10  H22 UNL     1     -38.581  16.026  -5.244  1.00 20.00     0.316 HD
ENDROOT
TORSDOF 0
ENDMDL
MODEL 5
REMARK VINA RESULT:      -3.8     12.315     13.693
REMARK  0 active torsions:
REMARK  status: ('A' for Active; 'I' for Inactive)
ROOT
HETATM    1  C1  UNL     1     -33.681  13.799  -3.767  1.00 20.00     0.005 C 
HETATM    2  C2  UNL     1     -34.649  13.184  -4.775  1.00 20.00     0.026 C 
HETATM    3  C3  UNL     1     -34.216  15.127  -3.237  1.00 20.00     0.042 C 
HETATM    4  C4  UNL     1     -35.001  17.477  -3.972  1.00 20.00     0.309 C 
HETATM    5  C5  UNL     1     -33.352  16.807  -5.058  1.00 20.00     0.309 C 
HETATM    6  C6  UNL     1     -34.974  14.176  -5.883  1.00 20.00     0.169 C 
HETATM    7  C7  UNL     1     -34.544  16.060  -4.405  1.00 20.00     0.113 C 
HETATM    8  N8  UNL     1     -33.630  17.972  -4.197  1.00 20.00     0.089 N 
HETATM    9  O9  UNL     1     -35.451  15.398  -5.322  1.00 20.00    -0.377 OA
HETATM   10  H22 UNL     1     -33.607  18.857  -4.706  1.00 20.00     0.316 HD
ENDROOT
TORSDOF 0
ENDMDL
MODEL 6
REMARK VINA RESULT:      -3.8     12.316     13.487
REMARK  0 active torsions:
REMARK  status: ('A' for Active; 'I' for Inactive)
ROOT
HETATM    1  C1  UNL     1     -34.688  17.268  -2.780  1.00 20.00     0.005 C 
HETATM    2  C2  UNL     1     -33.837  18.054  -3.776  1.00 20.00     0.026 C 
HETATM    3  C3  UNL     1     -34.086  15.890  -2.516  1.00 20.00     0.042 C 
HETATM    4  C4  UNL     1     -33.355  13.700  -3.678  1.00 20.00     0.309 C 
HETATM    5  C5  UNL     1     -35.115  14.481  -4.476  1.00 20.00     0.309 C 
HETATM    6  C6  UNL     1     -33.617  17.249  -5.049  1.00 20.00     0.169 C 
HETATM    7  C7  UNL     1     -33.870  15.153  -3.841  1.00 20.00     0.113 C 
HETATM    8  N8  UNL     1     -34.736  13.208  -3.836  1.00 20.00     0.089 N 
HETATM    9  O9  UNL     1     -33.071  15.970  -4.733  1.00 20.00    -0.377 OA
HETATM   10  H22 UNL     1     -34.803  12.409  -4.469  1.00 20.00     0.316 HD
ENDROOT
TORSDOF 0
ENDMDL
MODEL 7
REMARK VINA RESULT:      -3.8     12.657     13.482
REMARK  0 active torsions:
REMARK  status: ('A' for Active; 'I' for Inactive)
ROOT
HETATM    1  C1  UNL     1     -33.467  15.582  -2.960  1.00 20.00     0.005 C 
HETATM    2  C2  UNL     1     -34.790  15.961  -2.299  1.00 20.00     0.026 C 
HETATM    3  C3  UNL     1     -33.354  16.203  -4.351  1.00 20.00     0.042 C 
HETATM    4  C4  UNL     1     -34.515  16.325  -6.657  1.00 20.00     0.309 C 
HETATM    5  C5  UNL     1     -34.580  14.414  -5.828  1.00 20.00     0.309 C 
HETATM    6  C6  UNL     1     -35.964  15.608  -3.202  1.00 20.00     0.169 C 
HETATM    7  C7  UNL     1     -34.578  15.828  -5.190  1.00 20.00     0.113 C 
HETATM    8  N8  UNL     1     -34.044  14.991  -7.074  1.00 20.00     0.089 N 
HETATM    9  O9  UNL     1     -35.789  16.203  -4.487  1.00 20.00    -0.377 OA
HETATM   10  H22 UNL     1     -34.520  14.646  -7.910  1.00 20.00     0.316 HD
ENDROOT
TORSDOF 0
ENDMDL
MODEL 8
REMARK VINA RESULT:      -3.7     11.851     13.146
REMARK  0 active torsions:
REMARK  status: ('A' for Active; 'I' for Inactive)
ROOT
HETATM    1  C1  UNL     1     -34.172  16.295  -6.683  1.00 20.00     0.005 C 
HETATM    2  C2  UNL     1     -35.243  17.260  -6.178  1.00 20.00     0.026 C 
HETATM    3  C3  UNL     1     -34.523  14.853  -6.320  1.00 20.00     0.042 C 
HETATM    4  C4  UNL     1     -35.042  13.295  -4.325  1.00 20.00     0.309 C 
HETATM    5  C5  UNL     1     -33.526  14.661  -3.901  1.00 20.00     0.309 C 
HETATM    6  C6  UNL     1     -35.484  17.066  -4.687  1.00 20.00     0.169 C 
HETATM    7  C7  UNL     1     -34.777  14.741  -4.814  1.00 20.00     0.113 C 
HETATM    8  N8  UNL     1     -33.630  13.190  -3.912  1.00 20.00     0.089 N 
HETATM    9  O9  UNL     1     -35.788  15.699  -4.415  1.00 20.00    -0.377 OA
HETATM   10  H22 UNL     1     -33.517  12.776  -2.986  1.00 20.00     0.316 HD
ENDROOT
TORSDOF 0
ENDMDL
MODEL 9
REMARK VINA RESULT:      -3.7      1.626      2.188
REMARK  0 active torsions:
REMARK  status: ('A' for Active; 'I' for Inactive)
ROOT
HETATM    1  C1  UNL     1     -42.277   8.015  -1.460  1.00 20.00     0.005 C 
HETATM    2  C2  UNL     1     -42.691   7.778  -2.911  1.00 20.00     0.026 C 
HETATM    3  C3  UNL     1     -41.210   7.012  -1.027  1.00 20.00     0.042 C 
HETATM    4  C4  UNL     1     -40.728   4.484  -0.793  1.00 20.00     0.309 C 
HETATM    5  C5  UNL     1     -42.679   4.980  -0.254  1.00 20.00     0.309 C 
HETATM    6  C6  UNL     1     -43.118   6.332  -3.120  1.00 20.00     0.169 C 
HETATM    7  C7  UNL     1     -41.698   5.585  -1.291  1.00 20.00     0.113 C 
HETATM    8  N8  UNL     1     -41.539   4.342   0.431  1.00 20.00     0.089 N 
HETATM    9  O9  UNL     1     -42.087   5.449  -2.681  1.00 20.00    -0.377 OA
HETATM   10  H22 UNL     1     -41.718   3.367   0.677  1.00 20.00     0.316 HD
ENDROOT
TORSDOF 0
ENDMDL
