MODEL 1
REMARK VINA RESULT:      -5.6      0.000      0.000
REMARK  0 active torsions:
REMARK  status: ('A' for Active; 'I' for Inactive)
ROOT
HETATM    1  C1  UNL     1     -33.934   6.383   6.242  1.00 20.00     0.013 C 
HETATM    2  C2  UNL     1     -34.949   5.206   6.271  1.00 20.00     0.080 C 
HETATM    3  C3  UNL     1     -32.497   7.160   4.121  1.00 20.00     0.274 C 
HETATM    4  C4  UNL     1     -33.587   5.511   2.737  1.00 20.00     0.280 C 
HETATM    5  C5  UNL     1     -33.754   6.637   4.760  1.00 20.00     0.025 C 
HETATM    6  C6  UNL     1     -33.792   5.232   4.199  1.00 20.00     0.092 C 
HETATM    7  C7  UNL     1     -35.061   4.714   4.817  1.00 20.00     0.249 C 
HETATM    8  N8  UNL     1     -32.536   6.565   2.758  1.00 20.00     0.084 N 
HETATM    9  F9  UNL     1     -35.170   3.378   4.734  1.00 20.00    -0.206 F 
HETATM   10  F10 UNL     1     -36.147   5.261   4.227  1.00 20.00    -0.206 F 
HETATM   11  H21 UNL     1     -32.775   7.284   2.075  1.00 20.00     0.315 HD
ENDROOT
TORSDOF 0
ENDMDL
MODEL 2
REMARK VINA RESULT:      -4.5      1.698      2.567
REMARK  0 active torsions:
REMARK  status: ('A' for Active; 'I' for Inactive)
ROOT
HETATM    1  C1  UNL     1     -35.344   4.472   4.841  1.00 20.00     0.013 C 
HETATM    2  C2  UNL     1     -35.275   5.044   6.285  1.00 20.00     0.080 C 
HETATM    3  C3  UNL     1     -33.908   5.324   2.749  1.00 20.00     0.274 C 
HETATM    4  C4  UNL     1     -32.729   6.892   4.154  1.00 20.00     0.280 C 
HETATM    5  C5  UNL     1     -34.074   5.001   4.208  1.00 20.00     0.025 C 
HETATM    6  C6  UNL     1     -33.978   6.383   4.817  1.00 20.00     0.092 C 
HETATM    7  C7  UNL     1     -34.119   6.060   6.278  1.00 20.00     0.249 C 
HETATM    8  N8  UNL     1     -32.891   6.411   2.755  1.00 20.00     0.084 N 
HETATM    9  F9  UNL     1     -34.384   7.144   7.025  1.00 20.00    -0.206 F 
HETATM   10  F10 UNL     1     -32.996   5.483   6.759  1.00 20.00    -0.206 F 
HETATM   11  H21 UNL     1     -31.997   6.047   2.426  1.00 20.00     0.315 HD
ENDROOT
TORSDOF 0
ENDMDL
MODEL 3
REMARK VINA RESULT:      -4.4      9.477     10.414
REMARK  0 active torsions:
REMARK  status: ('A' for Active; 'I' for Inactive)
ROOT
HETATM    1  C1  UNL     1     -42.943   6.421  -3.220  1.00 20.00     0.013 C 
HETATM    2  C2  UNL     1     -42.729   7.740  -2.426  1.00 20.00     0.080 C 
HETATM    3  C3  UNL     1     -41.913   4.031  -2.593  1.00 20.00     0.274 C 
HETATM    4  C4  UNL     1     -40.934   4.943  -0.585  1.00 20.00     0.280 C 
HETATM    5  C5  UNL     1     -42.520   5.358  -2.228  1.00 20.00     0.025 C 
HETATM    6  C6  UNL     1     -41.348   6.025  -1.542  1.00 20.00     0.092 C 
HETATM    7  C7  UNL     1     -41.958   7.343  -1.154  1.00 20.00     0.249 C 
HETATM    8  N8  UNL     1     -41.054   3.717  -1.419  1.00 20.00     0.084 N 
HETATM    9  F9  UNL     1     -41.039   8.258  -0.805  1.00 20.00    -0.206 F 
HETATM   10  F10 UNL     1     -42.818   7.196  -0.122  1.00 20.00    -0.206 F 
HETATM   11  H21 UNL     1     -41.488   2.980  -0.862  1.00 20.00     0.315 HD
ENDROOT
TORSDOF 0
ENDMDL
MODEL 4
REMARK VINA RESULT:      -4.4      2.550      3.720
REMARK  0 active torsions:
REMARK  status: ('A' for Active; 'I' for Inactive)
ROOT
HETATM    1  C1  UNL     1     -34.151   4.914   2.740  1.00 20.00     0.013 C 
HETATM    2  C2  UNL     1     -33.013   5.891   2.336  1.00 20.00     0.080 C 
HETATM    3  C3  UNL     1     -35.230   4.689   5.180  1.00 20.00     0.274 C 
HETATM    4  C4  UNL     1     -33.860   6.503   5.988  1.00 20.00     0.280 C 
HETATM    5  C5  UNL     1     -34.641   5.490   4.052  1.00 20.00     0.025 C 
HETATM    6  C6  UNL     1     -33.350   5.961   4.683  1.00 20.00     0.092 C 
HETATM    7  C7  UNL     1     -32.770   6.783   3.567  1.00 20.00     0.249 C 
HETATM    8  N8  UNL     1     -34.868   5.483   6.385  1.00 20.00     0.084 N 
HETATM    9  F9  UNL     1     -31.469   7.063   3.749  1.00 20.00    -0.206 F 
HETATM   10  F10 UNL     1     -33.435   7.952   3.427  1.00 20.00    -0.206 F 
HETATM   11  H21 UNL     1     -35.696   5.959   6.745  1.00 20.00     0.315 HD
ENDROOT
TORSDOF 0
ENDMDL
MODEL 5
REMARK VINA RESULT:      -4.4     12.018     12.806
REMARK  0 active torsions:
REMARK  status: ('A' for Active; 'I' for Inactive)
ROOT
HETATM    1  C1  UNL     1     -36.434  15.452  -3.626  1.00 20.00     0.013 C 
HETATM    2  C2  UNL     1     -35.865  16.732  -2.952  1.00 20.00     0.080 C 
HETATM    3  C3  UNL     1     -35.001  13.341  -4.439  1.00 20.00     0.274 C 
HETATM    4  C4  UNL     1     -32.982  14.335  -3.567  1.00 20.00     0.280 C 
HETATM    5  C5  UNL     1     -35.298  14.461  -3.479  1.00 20.00     0.025 C 
HETATM    6  C6  UNL     1     -34.088  15.344  -3.692  1.00 20.00     0.092 C 
HETATM    7  C7  UNL     1     -34.370  16.452  -2.716  1.00 20.00     0.249 C 
HETATM    8  N8  UNL     1     -33.528  13.169  -4.313  1.00 20.00     0.084 N 
HETATM    9  F9  UNL     1     -33.606  17.536  -2.927  1.00 20.00    -0.206 F 
HETATM   10  F10 UNL     1     -34.174  16.041  -1.444  1.00 20.00    -0.206 F 
HETATM   11  H21 UNL     1     -33.324  12.317  -3.790  1.00 20.00     0.315 HD
ENDROOT
TORSDOF 0
ENDMDL
MODEL 6
REMARK VINA RESULT:      -4.4     12.544     13.635
REMARK  0 active torsions:
REMARK  status: ('A' for Active; 'I' for Inactive)
ROOT
HETATM    1  C1  UNL     1     -34.863  13.519  -4.918  1.00 20.00     0.013 C 
HETATM    2  C2  UNL     1     -34.255  13.728  -3.503  1.00 20.00     0.080 C 
HETATM    3  C3  UNL     1     -34.891  15.326  -6.894  1.00 20.00     0.274 C 
HETATM    4  C4  UNL     1     -33.627  16.873  -5.540  1.00 20.00     0.280 C 
HETATM    5  C5  UNL     1     -34.241  14.642  -5.722  1.00 20.00     0.025 C 
HETATM    6  C6  UNL     1     -34.222  15.769  -4.713  1.00 20.00     0.092 C 
HETATM    7  C7  UNL     1     -33.551  15.096  -3.548  1.00 20.00     0.249 C 
HETATM    8  N8  UNL     1     -34.314  16.697  -6.848  1.00 20.00     0.084 N 
HETATM    9  F9  UNL     1     -33.690  15.782  -2.402  1.00 20.00    -0.206 F 
HETATM   10  F10 UNL     1     -32.230  14.927  -3.778  1.00 20.00    -0.206 F 
HETATM   11  H21 UNL     1     -33.632  16.808  -7.598  1.00 20.00     0.315 HD
ENDROOT
TORSDOF 0
ENDMDL
MODEL 7
REMARK VINA RESULT:      -4.3     12.815     14.059
REMARK  0 active torsions:
REMARK  status: ('A' for Active; 'I' for Inactive)
ROOT
HETATM    1  C1  UNL     1     -34.560  14.881  -6.947  1.00 20.00     0.013 C 
HETATM    2  C2  UNL     1     -34.202  16.379  -6.736  1.00 20.00     0.080 C 
HETATM    3  C3  UNL     1     -34.699  13.019  -5.028  1.00 20.00     0.274 C 
HETATM    4  C4  UNL     1     -34.240  14.679  -3.338  1.00 20.00     0.280 C 
HETATM    5  C5  UNL     1     -34.903  14.416  -5.547  1.00 20.00     0.025 C 
HETATM    6  C6  UNL     1     -33.895  15.176  -4.714  1.00 20.00     0.092 C 
HETATM    7  C7  UNL     1     -34.113  16.577  -5.212  1.00 20.00     0.249 C 
HETATM    8  N8  UNL     1     -34.471  13.228  -3.573  1.00 20.00     0.084 N 
HETATM    9  F9  UNL     1     -33.123  17.414  -4.861  1.00 20.00    -0.206 F 
HETATM   10  F10 UNL     1     -35.276  17.084  -4.745  1.00 20.00    -0.206 F 
HETATM   11  H21 UNL     1     -35.296  12.935  -3.049  1.00 20.00     0.315 HD
ENDROOT
TORSDOF 0
ENDMDL
MODEL 8
REMARK VINA RESULT:      -4.3     12.196     12.764
REMARK  0 active torsions:
REMARK  status: ('A' for Active; 'I' for Inactive)
ROOT
HETATM    1  C1  UNL     1     -33.544  16.312  -2.820  1.00 20.00     0.013 C 
HETATM    2  C2  UNL     1     -32.972  15.131  -3.653  1.00 20.00     0.080 C 
HETATM    3  C3  UNL     1     -36.140  16.847  -2.440  1.00 20.00     0.274 C 
HETATM    4  C4  UNL     1     -36.762  14.866  -3.670  1.00 20.00     0.280 C 
HETATM    5  C5  UNL     1     -34.983  15.898  -2.593  1.00 20.00     0.025 C 
HETATM    6  C6  UNL     1     -35.327  15.243  -3.913  1.00 20.00     0.092 C 
HETATM    7  C7  UNL     1     -34.186  14.276  -4.056  1.00 20.00     0.249 C 
HETATM    8  N8  UNL     1     -37.292  16.066  -2.966  1.00 20.00     0.084 N 
HETATM    9  F9  UNL     1     -34.076  13.783  -5.301  1.00 20.00    -0.206 F 
HETATM   10  F10 UNL     1     -34.320  13.235  -3.204  1.00 20.00    -0.206 F 
HETATM   11  H21 UNL     1     -37.883  15.761  -2.192  1.00 20.00     0.315 HD
ENDROOT
TORSDOF 0
ENDMDL
MODEL 9
REMARK VINA RESULT:      -4.3     12.322     13.336
REMARK  0 active torsions:
REMARK  status: ('A' for Active; 'I' for Inactive)
ROOT
HETATM    1  C1  UNL     1     -32.737  15.039  -3.692  1.00 20.00     0.013 C 
HETATM    2  C2  UNL     1     -33.410  13.638  -3.702  1.00 20.00     0.080 C 
HETATM    3  C3  UNL     1     -33.470  17.139  -5.183  1.00 20.00     0.274 C 
HETATM    4  C4  UNL     1     -35.325  15.889  -6.089  1.00 20.00     0.280 C 
HETATM    5  C5  UNL     1     -33.775  15.916  -4.362  1.00 20.00     0.025 C 
HETATM    6  C6  UNL     1     -34.320  14.989  -5.426  1.00 20.00     0.092 C 
HETATM    7  C7  UNL     1     -34.649  13.774  -4.604  1.00 20.00     0.249 C 
HETATM    8  N8  UNL     1     -34.599  17.186  -6.151  1.00 20.00     0.084 N 
HETATM    9  F9  UNL     1     -34.859  12.681  -5.356  1.00 20.00    -0.206 F 
HETATM   10  F10 UNL     1     -35.749  13.982  -3.847  1.00 20.00    -0.206 F 
HETATM   11  H21 UNL     1     -35.241  17.937  -5.895  1.00 20.00     0.315 HD
ENDROOT
TORSDOF 0
ENDMDL
