MODEL 1
REMARK VINA RESULT:      -5.1      0.000      0.000
REMARK  1 active torsions:
REMARK  status: ('A' for Active; 'I' for Inactive)
REMARK    1  A    between atoms: C7_7  and  C10_10 
ROOT
HETATM    1  C1  UNL     1     -34.979  13.524  -4.195  1.00 20.00     0.127 C 
HETATM    2  C2  UNL     1     -36.342  14.175  -4.150  1.00 20.00     0.078 C 
HETATM    3  C3  UNL     1     -33.911  14.037  -3.253  1.00 20.00     0.079 C 
HETATM    4  C4  UNL     1     -36.309  15.686  -4.355  1.00 20.00     0.008 C 
HETATM    5  C5  UNL     1     -33.391  15.387  -3.721  1.00 20.00     0.012 C 
HETATM    6  C6  UNL     1     -35.712  16.431  -3.160  1.00 20.00     0.005 C 
HETATM    7  C7  UNL     1     -34.182  16.601  -3.201  1.00 20.00    -0.011 C 
HETATM    8  O11 UNL     1     -34.756  12.573  -4.946  1.00 20.00    -0.298 OA
ENDROOT
BRANCH   7   9
HETATM    9  C10 UNL     1     -33.680  17.025  -1.816  1.00 20.00    -0.019 C 
HETATM   10  C8  UNL     1     -33.429  18.529  -1.779  1.00 20.00     0.010 C 
HETATM   11  C9  UNL     1     -34.682  16.617  -0.741  1.00 20.00     0.010 C 
ENDBRANCH   7   9
TORSDOF 1
ENDMDL
MODEL 2
REMARK VINA RESULT:      -4.8      1.411      1.907
REMARK  1 active torsions:
REMARK  status: ('A' for Active; 'I' for Inactive)
REMARK    1  A    between atoms: C7_7  and  C10_10 
ROOT
HETATM    1  C1  UNL     1     -34.842  13.723  -4.847  1.00 20.00     0.127 C 
HETATM    2  C2  UNL     1     -35.029  14.553  -6.096  1.00 20.00     0.078 C 
HETATM    3  C3  UNL     1     -34.842  14.434  -3.511  1.00 20.00     0.079 C 
HETATM    4  C4  UNL     1     -34.020  15.688  -6.237  1.00 20.00     0.008 C 
HETATM    5  C5  UNL     1     -33.544  15.202  -3.314  1.00 20.00     0.012 C 
HETATM    6  C6  UNL     1     -34.255  16.816  -5.231  1.00 20.00     0.005 C 
HETATM    7  C7  UNL     1     -33.549  16.635  -3.876  1.00 20.00    -0.011 C 
HETATM    8  O11 UNL     1     -34.737  12.497  -4.911  1.00 20.00    -0.298 OA
ENDROOT
BRANCH   7   9
HETATM    9  C10 UNL     1     -34.140  17.617  -2.858  1.00 20.00    -0.019 C 
HETATM   10  C8  UNL     1     -33.746  17.215  -1.441  1.00 20.00     0.010 C 
HETATM   11  C9  UNL     1     -33.682  19.038  -3.165  1.00 20.00     0.010 C 
ENDBRANCH   7   9
TORSDOF 1
ENDMDL
MODEL 3
REMARK VINA RESULT:      -4.6      2.318      3.701
REMARK  1 active torsions:
REMARK  status: ('A' for Active; 'I' for Inactive)
REMARK    1  A    between atoms: C7_7  and  C10_10 
ROOT
HETATM    1  C1  UNL     1     -34.458  13.554  -4.677  1.00 20.00     0.127 C 
HETATM    2  C2  UNL     1     -33.344  14.084  -3.805  1.00 20.00     0.078 C 
HETATM    3  C3  UNL     1     -34.779  14.296  -5.957  1.00 20.00     0.079 C 
HETATM    4  C4  UNL     1     -33.523  15.543  -3.397  1.00 20.00     0.008 C 
HETATM    5  C5  UNL     1     -35.504  15.599  -5.651  1.00 20.00     0.012 C 
HETATM    6  C6  UNL     1     -33.319  16.512  -4.563  1.00 20.00     0.005 C 
HETATM    7  C7  UNL     1     -34.583  16.805  -5.391  1.00 20.00    -0.011 C 
HETATM    8  O11 UNL     1     -35.059  12.521  -4.378  1.00 20.00    -0.298 OA
ENDROOT
BRANCH   7   9
HETATM    9  C10 UNL     1     -34.184  17.479  -6.708  1.00 20.00    -0.019 C 
HETATM   10  C8  UNL     1     -35.356  17.478  -7.683  1.00 20.00     0.010 C 
HETATM   11  C9  UNL     1     -33.697  18.901  -6.450  1.00 20.00     0.010 C 
ENDBRANCH   7   9
TORSDOF 1
ENDMDL
MODEL 4
REMARK VINA RESULT:      -4.5      1.444      2.098
REMARK  1 active torsions:
REMARK  status: ('A' for Active; 'I' for Inactive)
REMARK    1  A    between atoms: C7_7  and  C10_10 
ROOT
HETATM    1  C1  UNL     1     -34.909  14.690  -5.543  1.00 20.00     0.127 C 
HETATM    2  C2  UNL     1     -34.298  15.985  -6.023  1.00 20.00     0.078 C 
HETATM    3  C3  UNL     1     -35.526  14.660  -4.161  1.00 20.00     0.079 C 
HETATM    4  C4  UNL     1     -33.231  16.546  -5.089  1.00 20.00     0.008 C 
HETATM    5  C5  UNL     1     -34.443  14.660  -3.093  1.00 20.00     0.012 C 
HETATM    6  C6  UNL     1     -33.816  17.092  -3.786  1.00 20.00     0.005 C 
HETATM    7  C7  UNL     1     -33.965  16.057  -2.657  1.00 20.00    -0.011 C 
HETATM    8  O11 UNL     1     -34.945  13.697  -6.273  1.00 20.00    -0.298 OA
ENDROOT
BRANCH   7   9
HETATM    9  C10 UNL     1     -34.873  16.625  -1.561  1.00 20.00    -0.019 C 
HETATM   10  C8  UNL     1     -34.043  17.334  -0.497  1.00 20.00     0.010 C 
HETATM   11  C9  UNL     1     -35.903  17.574  -2.165  1.00 20.00     0.010 C 
ENDBRANCH   7   9
TORSDOF 1
ENDMDL
MODEL 5
REMARK VINA RESULT:      -4.5      1.634      2.006
REMARK  1 active torsions:
REMARK  status: ('A' for Active; 'I' for Inactive)
REMARK    1  A    between atoms: C7_7  and  C10_10 
ROOT
HETATM    1  C1  UNL     1     -34.348  14.884  -6.200  1.00 20.00     0.127 C 
HETATM    2  C2  UNL     1     -34.790  13.674  -5.412  1.00 20.00     0.078 C 
HETATM    3  C3  UNL     1     -33.706  16.031  -5.449  1.00 20.00     0.079 C 
HETATM    4  C4  UNL     1     -35.747  13.999  -4.269  1.00 20.00     0.008 C 
HETATM    5  C5  UNL     1     -34.753  16.804  -4.659  1.00 20.00     0.012 C 
HETATM    6  C6  UNL     1     -35.060  14.728  -3.114  1.00 20.00     0.005 C 
HETATM    7  C7  UNL     1     -35.025  16.261  -3.244  1.00 20.00    -0.011 C 
HETATM    8  O11 UNL     1     -34.465  14.919  -7.426  1.00 20.00    -0.298 OA
ENDROOT
BRANCH   7   9
HETATM    9  C10 UNL     1     -34.021  16.835  -2.238  1.00 20.00    -0.019 C 
HETATM   10  C8  UNL     1     -33.742  18.303  -2.544  1.00 20.00     0.010 C 
HETATM   11  C9  UNL     1     -34.541  16.668  -0.815  1.00 20.00     0.010 C 
ENDBRANCH   7   9
TORSDOF 1
ENDMDL
MODEL 6
REMARK VINA RESULT:      -4.4      2.349      4.261
REMARK  1 active torsions:
REMARK  status: ('A' for Active; 'I' for Inactive)
REMARK    1  A    between atoms: C7_7  and  C10_10 
ROOT
HETATM    1  C1  UNL     1     -33.764  18.338  -3.985  1.00 20.00     0.127 C 
HETATM    2  C2  UNL     1     -34.237  18.416  -2.552  1.00 20.00     0.078 C 
HETATM    3  C3  UNL     1     -34.140  17.116  -4.795  1.00 20.00     0.079 C 
HETATM    4  C4  UNL     1     -33.823  17.219  -1.701  1.00 20.00     0.008 C 
HETATM    5  C5  UNL     1     -33.322  15.911  -4.356  1.00 20.00     0.012 C 
HETATM    6  C6  UNL     1     -34.578  15.942  -2.073  1.00 20.00     0.005 C 
HETATM    7  C7  UNL     1     -33.930  15.108  -3.192  1.00 20.00    -0.011 C 
HETATM    8  O11 UNL     1     -33.128  19.263  -4.493  1.00 20.00    -0.298 OA
ENDROOT
BRANCH   7   9
HETATM    9  C10 UNL     1     -34.940  14.078  -3.710  1.00 20.00    -0.019 C 
HETATM   10  C8  UNL     1     -36.337  14.685  -3.766  1.00 20.00     0.010 C 
HETATM   11  C9  UNL     1     -34.517  13.564  -5.082  1.00 20.00     0.010 C 
ENDBRANCH   7   9
TORSDOF 1
ENDMDL
MODEL 7
REMARK VINA RESULT:      -4.4      1.415      2.464
REMARK  1 active torsions:
REMARK  status: ('A' for Active; 'I' for Inactive)
REMARK    1  A    between atoms: C7_7  and  C10_10 
ROOT
HETATM    1  C1  UNL     1     -36.664  14.555  -3.915  1.00 20.00     0.127 C 
HETATM    2  C2  UNL     1     -35.497  13.752  -4.440  1.00 20.00     0.078 C 
HETATM    3  C3  UNL     1     -36.447  16.025  -3.623  1.00 20.00     0.079 C 
HETATM    4  C4  UNL     1     -34.259  13.812  -3.551  1.00 20.00     0.008 C 
HETATM    5  C5  UNL     1     -35.626  16.201  -2.354  1.00 20.00     0.012 C 
HETATM    6  C6  UNL     1     -33.572  15.178  -3.588  1.00 20.00     0.005 C 
HETATM    7  C7  UNL     1     -34.101  16.199  -2.565  1.00 20.00    -0.011 C 
HETATM    8  O11 UNL     1     -37.774  14.040  -3.770  1.00 20.00    -0.298 OA
ENDROOT
BRANCH   7   9
HETATM    9  C10 UNL     1     -33.601  17.599  -2.936  1.00 20.00    -0.019 C 
HETATM   10  C8  UNL     1     -33.608  17.782  -4.450  1.00 20.00     0.010 C 
HETATM   11  C9  UNL     1     -34.455  18.665  -2.258  1.00 20.00     0.010 C 
ENDBRANCH   7   9
TORSDOF 1
ENDMDL
MODEL 8
REMARK VINA RESULT:      -4.3      1.955      2.659
REMARK  1 active torsions:
REMARK  status: ('A' for Active; 'I' for Inactive)
REMARK    1  A    between atoms: C7_7  and  C10_10 
ROOT
HETATM    1  C1  UNL     1     -33.585  13.795  -3.916  1.00 20.00     0.127 C 
HETATM    2  C2  UNL     1     -34.826  13.365  -4.663  1.00 20.00     0.078 C 
HETATM    3  C3  UNL     1     -33.434  15.258  -3.561  1.00 20.00     0.079 C 
HETATM    4  C4  UNL     1     -35.054  14.126  -5.965  1.00 20.00     0.008 C 
HETATM    5  C5  UNL     1     -33.092  16.075  -4.799  1.00 20.00     0.012 C 
HETATM    6  C6  UNL     1     -35.472  15.578  -5.735  1.00 20.00     0.005 C 
HETATM    7  C7  UNL     1     -34.308  16.575  -5.599  1.00 20.00    -0.011 C 
HETATM    8  O11 UNL     1     -32.739  12.969  -3.565  1.00 20.00    -0.298 OA
ENDROOT
BRANCH   7   9
HETATM    9  C10 UNL     1     -34.832  17.896  -5.024  1.00 20.00    -0.019 C 
HETATM   10  C8  UNL     1     -35.948  17.632  -4.019  1.00 20.00     0.010 C 
HETATM   11  C9  UNL     1     -33.696  18.681  -4.378  1.00 20.00     0.010 C 
ENDBRANCH   7   9
TORSDOF 1
ENDMDL
MODEL 9
REMARK VINA RESULT:      -4.3      1.663      3.861
REMARK  1 active torsions:
REMARK  status: ('A' for Active; 'I' for Inactive)
REMARK    1  A    between atoms: C7_7  and  C10_10 
ROOT
HETATM    1  C1  UNL     1     -33.226  15.041  -3.660  1.00 20.00     0.127 C 
HETATM    2  C2  UNL     1     -33.597  16.216  -2.786  1.00 20.00     0.078 C 
HETATM    3  C3  UNL     1     -34.217  14.591  -4.711  1.00 20.00     0.079 C 
HETATM    4  C4  UNL     1     -34.921  16.041  -2.049  1.00 20.00     0.008 C 
HETATM    5  C5  UNL     1     -35.388  13.866  -4.064  1.00 20.00     0.012 C 
HETATM    6  C6  UNL     1     -36.130  16.118  -2.981  1.00 20.00     0.005 C 
HETATM    7  C7  UNL     1     -36.545  14.779  -3.617  1.00 20.00    -0.011 C 
HETATM    8  O11 UNL     1     -32.128  14.493  -3.551  1.00 20.00    -0.298 OA
ENDROOT
BRANCH   7   9
HETATM    9  C10 UNL     1     -37.510  15.044  -4.779  1.00 20.00    -0.019 C 
HETATM   10  C8  UNL     1     -38.943  14.729  -4.362  1.00 20.00     0.010 C 
HETATM   11  C9  UNL     1     -37.388  16.488  -5.250  1.00 20.00     0.010 C 
ENDBRANCH   7   9
TORSDOF 1
ENDMDL
