MODEL 1
REMARK VINA RESULT:      -4.2      0.000      0.000
REMARK  1 active torsions:
REMARK  status: ('A' for Active; 'I' for Inactive)
REMARK    1  A    between atoms: C6_6  and  O8_8 
ROOT
HETATM    1  C1  UNL     1     -35.122  13.788  -4.200  1.00 20.00     0.064 C 
HETATM    2  C2  UNL     1     -34.474  15.573  -2.603  1.00 20.00     0.022 C 
HETATM    3  C3  UNL     1     -33.740  16.858  -2.977  1.00 20.00     0.033 C 
HETATM    4  C4  UNL     1     -34.859  16.144  -4.959  1.00 20.00     0.051 C 
HETATM    5  C5  UNL     1     -35.315  15.199  -3.834  1.00 20.00     0.095 C 
HETATM    6  C6  UNL     1     -33.540  16.738  -4.479  1.00 20.00     0.119 C 
HETATM    7  N7  UNL     1     -34.971  12.675  -4.490  1.00 20.00    -0.197 NA
ENDROOT
BRANCH   6   8
HETATM    8  O8  UNL     1     -32.467  15.845  -4.746  1.00 20.00    -0.396 OA
HETATM    9  H17 UNL     1     -31.895  15.852  -3.962  1.00 20.00     0.210 HD
ENDBRANCH   6   8
TORSDOF 1
ENDMDL
MODEL 2
REMARK VINA RESULT:      -4.2      2.501      2.802
REMARK  1 active torsions:
REMARK  status: ('A' for Active; 'I' for Inactive)
REMARK    1  A    between atoms: C6_6  and  O8_8 
ROOT
HETATM    1  C1  UNL     1     -37.424  14.828  -3.950  1.00 20.00     0.064 C 
HETATM    2  C2  UNL     1     -35.115  15.174  -3.109  1.00 20.00     0.022 C 
HETATM    3  C3  UNL     1     -33.871  14.481  -3.657  1.00 20.00     0.033 C 
HETATM    4  C4  UNL     1     -35.460  14.477  -5.438  1.00 20.00     0.051 C 
HETATM    5  C5  UNL     1     -36.079  15.307  -4.299  1.00 20.00     0.095 C 
HETATM    6  C6  UNL     1     -34.409  13.597  -4.771  1.00 20.00     0.119 C 
HETATM    7  N7  UNL     1     -38.487  14.451  -3.674  1.00 20.00    -0.197 NA
ENDROOT
BRANCH   6   8
HETATM    8  O8  UNL     1     -35.014  12.440  -4.209  1.00 20.00    -0.396 OA
HETATM    9  H17 UNL     1     -35.882  12.715  -3.871  1.00 20.00     0.210 HD
ENDBRANCH   6   8
TORSDOF 1
ENDMDL
MODEL 3
REMARK VINA RESULT:      -4.1     12.520     13.483
REMARK  1 active torsions:
REMARK  status: ('A' for Active; 'I' for Inactive)
REMARK    1  A    between atoms: C6_6  and  O8_8 
ROOT
HETATM    1  C1  UNL     1     -32.815   6.516   3.715  1.00 20.00     0.064 C 
HETATM    2  C2  UNL     1     -34.943   5.239   3.714  1.00 20.00     0.022 C 
HETATM    3  C3  UNL     1     -35.570   4.583   4.940  1.00 20.00     0.033 C 
HETATM    4  C4  UNL     1     -34.205   6.354   5.773  1.00 20.00     0.051 C 
HETATM    5  C5  UNL     1     -34.188   6.471   4.239  1.00 20.00     0.095 C 
HETATM    6  C6  UNL     1     -34.601   4.910   6.064  1.00 20.00     0.119 C 
HETATM    7  N7  UNL     1     -31.731   6.552   3.302  1.00 20.00    -0.197 NA
ENDROOT
BRANCH   6   8
HETATM    8  O8  UNL     1     -33.466   4.058   5.976  1.00 20.00    -0.396 OA
HETATM    9  H17 UNL     1     -32.740   4.595   5.621  1.00 20.00     0.210 HD
ENDBRANCH   6   8
TORSDOF 1
ENDMDL
MODEL 4
REMARK VINA RESULT:      -3.9      1.200      1.382
REMARK  1 active torsions:
REMARK  status: ('A' for Active; 'I' for Inactive)
REMARK    1  A    between atoms: C6_6  and  O8_8 
ROOT
HETATM    1  C1  UNL     1     -35.081  13.719  -4.933  1.00 20.00     0.064 C 
HETATM    2  C2  UNL     1     -35.400  16.099  -4.307  1.00 20.00     0.022 C 
HETATM    3  C3  UNL     1     -34.502  17.250  -4.754  1.00 20.00     0.033 C 
HETATM    4  C4  UNL     1     -34.254  15.547  -6.407  1.00 20.00     0.051 C 
HETATM    5  C5  UNL     1     -35.358  15.069  -5.447  1.00 20.00     0.095 C 
HETATM    6  C6  UNL     1     -33.450  16.575  -5.619  1.00 20.00     0.119 C 
HETATM    7  N7  UNL     1     -34.863  12.654  -4.528  1.00 20.00    -0.197 NA
ENDROOT
BRANCH   6   8
HETATM    8  O8  UNL     1     -32.496  15.927  -4.787  1.00 20.00    -0.396 OA
HETATM    9  H17 UNL     1     -32.721  16.157  -3.872  1.00 20.00     0.210 HD
ENDBRANCH   6   8
TORSDOF 1
ENDMDL
MODEL 5
REMARK VINA RESULT:      -3.8      1.656      2.053
REMARK  1 active torsions:
REMARK  status: ('A' for Active; 'I' for Inactive)
REMARK    1  A    between atoms: C6_6  and  O8_8 
ROOT
HETATM    1  C1  UNL     1     -34.395  13.744  -3.923  1.00 20.00     0.064 C 
HETATM    2  C2  UNL     1     -33.227  15.870  -4.450  1.00 20.00     0.022 C 
HETATM    3  C3  UNL     1     -33.710  17.258  -4.042  1.00 20.00     0.033 C 
HETATM    4  C4  UNL     1     -34.667  15.743  -2.466  1.00 20.00     0.051 C 
HETATM    5  C5  UNL     1     -33.717  14.916  -3.349  1.00 20.00     0.095 C 
HETATM    6  C6  UNL     1     -35.000  16.986  -3.285  1.00 20.00     0.119 C 
HETATM    7  N7  UNL     1     -34.929  12.819  -4.376  1.00 20.00    -0.197 NA
ENDROOT
BRANCH   6   8
HETATM    8  O8  UNL     1     -36.043  16.707  -4.208  1.00 20.00    -0.396 OA
HETATM    9  H17 UNL     1     -35.679  16.091  -4.863  1.00 20.00     0.210 HD
ENDBRANCH   6   8
TORSDOF 1
ENDMDL
MODEL 6
REMARK VINA RESULT:      -3.8      1.821      2.455
REMARK  1 active torsions:
REMARK  status: ('A' for Active; 'I' for Inactive)
REMARK    1  A    between atoms: C6_6  and  O8_8 
ROOT
HETATM    1  C1  UNL     1     -36.195  15.747  -4.317  1.00 20.00     0.064 C 
HETATM    2  C2  UNL     1     -34.826  13.692  -4.067  1.00 20.00     0.022 C 
HETATM    3  C3  UNL     1     -33.335  13.668  -3.746  1.00 20.00     0.033 C 
HETATM    4  C4  UNL     1     -34.154  15.740  -2.893  1.00 20.00     0.051 C 
HETATM    5  C5  UNL     1     -35.380  14.953  -3.385  1.00 20.00     0.095 C 
HETATM    6  C6  UNL     1     -32.963  15.137  -3.631  1.00 20.00     0.119 C 
HETATM    7  N7  UNL     1     -36.838  16.374  -5.051  1.00 20.00    -0.197 NA
ENDROOT
BRANCH   6   8
HETATM    8  O8  UNL     1     -32.848  15.702  -4.931  1.00 20.00    -0.396 OA
HETATM    9  H17 UNL     1     -32.907  14.966  -5.561  1.00 20.00     0.210 HD
ENDBRANCH   6   8
TORSDOF 1
ENDMDL
MODEL 7
REMARK VINA RESULT:      -3.8      2.626      3.394
REMARK  1 active torsions:
REMARK  status: ('A' for Active; 'I' for Inactive)
REMARK    1  A    between atoms: C6_6  and  O8_8 
ROOT
HETATM    1  C1  UNL     1     -34.472  15.867  -2.310  1.00 20.00     0.064 C 
HETATM    2  C2  UNL     1     -34.063  13.767  -3.567  1.00 20.00     0.022 C 
HETATM    3  C3  UNL     1     -34.929  13.250  -4.713  1.00 20.00     0.033 C 
HETATM    4  C4  UNL     1     -35.262  15.612  -4.657  1.00 20.00     0.051 C 
HETATM    5  C5  UNL     1     -34.159  15.300  -3.630  1.00 20.00     0.095 C 
HETATM    6  C6  UNL     1     -36.018  14.302  -4.849  1.00 20.00     0.119 C 
HETATM    7  N7  UNL     1     -34.718  16.316  -1.269  1.00 20.00    -0.197 NA
ENDROOT
BRANCH   6   8
HETATM    8  O8  UNL     1     -36.979  14.129  -3.816  1.00 20.00    -0.396 OA
HETATM    9  H17 UNL     1     -37.096  13.172  -3.701  1.00 20.00     0.210 HD
ENDBRANCH   6   8
TORSDOF 1
ENDMDL
MODEL 8
REMARK VINA RESULT:      -3.7      1.769      2.272
REMARK  1 active torsions:
REMARK  status: ('A' for Active; 'I' for Inactive)
REMARK    1  A    between atoms: C6_6  and  O8_8 
ROOT
HETATM    1  C1  UNL     1     -36.275  14.277  -4.250  1.00 20.00     0.064 C 
HETATM    2  C2  UNL     1     -34.601  15.740  -5.351  1.00 20.00     0.022 C 
HETATM    3  C3  UNL     1     -33.218  16.064  -4.792  1.00 20.00     0.033 C 
HETATM    4  C4  UNL     1     -33.841  13.973  -3.826  1.00 20.00     0.051 C 
HETATM    5  C5  UNL     1     -34.934  14.326  -4.850  1.00 20.00     0.095 C 
HETATM    6  C6  UNL     1     -33.168  15.297  -3.480  1.00 20.00     0.119 C 
HETATM    7  N7  UNL     1     -37.334  14.238  -3.776  1.00 20.00    -0.197 NA
ENDROOT
BRANCH   6   8
HETATM    8  O8  UNL     1     -33.919  15.993  -2.494  1.00 20.00    -0.396 OA
HETATM    9  H17 UNL     1     -34.364  16.727  -2.947  1.00 20.00     0.210 HD
ENDBRANCH   6   8
TORSDOF 1
ENDMDL
MODEL 9
REMARK VINA RESULT:      -3.6      2.078      3.078
REMARK  1 active torsions:
REMARK  status: ('A' for Active; 'I' for Inactive)
REMARK    1  A    between atoms: C6_6  and  O8_8 
ROOT
HETATM    1  C1  UNL     1     -34.986  15.779  -2.661  1.00 20.00     0.064 C 
HETATM    2  C2  UNL     1     -34.632  15.750  -5.117  1.00 20.00     0.022 C 
HETATM    3  C3  UNL     1     -34.493  14.490  -5.966  1.00 20.00     0.033 C 
HETATM    4  C4  UNL     1     -35.734  13.843  -4.034  1.00 20.00     0.051 C 
HETATM    5  C5  UNL     1     -35.559  15.369  -3.952  1.00 20.00     0.095 C 
HETATM    6  C6  UNL     1     -34.625  13.358  -4.961  1.00 20.00     0.119 C 
HETATM    7  N7  UNL     1     -34.536  16.103  -1.642  1.00 20.00    -0.197 NA
ENDROOT
BRANCH   6   8
HETATM    8  O8  UNL     1     -33.406  13.215  -4.243  1.00 20.00    -0.396 OA
HETATM    9  H17 UNL     1     -32.829  12.650  -4.781  1.00 20.00     0.210 HD
ENDBRANCH   6   8
TORSDOF 1
ENDMDL
