MODEL 1
REMARK VINA RESULT:      -5.3      0.000      0.000
REMARK  1 active torsions:
REMARK  status: ('A' for Active; 'I' for Inactive)
REMARK    1  A    between atoms: C7_7  and  C10_10 
ROOT
HETATM    1  C1  UNL     1     -34.642  13.454  -4.184  1.00 20.00     0.127 C 
HETATM    2  C2  UNL     1     -33.348  13.540  -3.404  1.00 20.00     0.078 C 
HETATM    3  C3  UNL     1     -35.761  14.431  -3.864  1.00 20.00     0.079 C 
HETATM    4  C4  UNL     1     -32.519  14.773  -3.742  1.00 20.00     0.008 C 
HETATM    5  C5  UNL     1     -35.431  15.441  -2.769  1.00 20.00     0.012 C 
HETATM    6  C6  UNL     1     -33.299  16.028  -4.142  1.00 20.00     0.005 C 
HETATM    7  C7  UNL     1     -34.388  16.503  -3.167  1.00 20.00    -0.011 C 
HETATM    8  O11 UNL     1     -34.791  12.605  -5.066  1.00 20.00    -0.298 OA
ENDROOT
BRANCH   7   9
HETATM    9  C10 UNL     1     -33.775  17.129  -1.911  1.00 20.00    -0.019 C 
HETATM   10  C8  UNL     1     -33.681  18.643  -2.064  1.00 20.00     0.010 C 
HETATM   11  C9  UNL     1     -34.594  16.759  -0.679  1.00 20.00     0.010 C 
ENDBRANCH   7   9
TORSDOF 1
ENDMDL
MODEL 2
REMARK VINA RESULT:      -4.8      0.982      2.334
REMARK  1 active torsions:
REMARK  status: ('A' for Active; 'I' for Inactive)
REMARK    1  A    between atoms: C7_7  and  C10_10 
ROOT
HETATM    1  C1  UNL     1     -34.550  13.607  -4.633  1.00 20.00     0.127 C 
HETATM    2  C2  UNL     1     -35.402  14.723  -5.199  1.00 20.00     0.078 C 
HETATM    3  C3  UNL     1     -33.355  13.962  -3.765  1.00 20.00     0.079 C 
HETATM    4  C4  UNL     1     -36.239  15.437  -4.145  1.00 20.00     0.008 C 
HETATM    5  C5  UNL     1     -33.159  15.456  -3.532  1.00 20.00     0.012 C 
HETATM    6  C6  UNL     1     -35.637  15.521  -2.741  1.00 20.00     0.005 C 
HETATM    7  C7  UNL     1     -34.222  16.113  -2.631  1.00 20.00    -0.011 C 
HETATM    8  O11 UNL     1     -34.817  12.427  -4.873  1.00 20.00    -0.298 OA
ENDROOT
BRANCH   7   9
HETATM    9  C10 UNL     1     -34.235  17.628  -2.856  1.00 20.00    -0.019 C 
HETATM   10  C8  UNL     1     -33.531  18.340  -1.707  1.00 20.00     0.010 C 
HETATM   11  C9  UNL     1     -33.579  17.971  -4.189  1.00 20.00     0.010 C 
ENDBRANCH   7   9
TORSDOF 1
ENDMDL
MODEL 3
REMARK VINA RESULT:      -4.7      1.643      2.568
REMARK  1 active torsions:
REMARK  status: ('A' for Active; 'I' for Inactive)
REMARK    1  A    between atoms: C7_7  and  C10_10 
ROOT
HETATM    1  C1  UNL     1     -34.477  15.299  -6.158  1.00 20.00     0.127 C 
HETATM    2  C2  UNL     1     -35.748  14.867  -5.458  1.00 20.00     0.078 C 
HETATM    3  C3  UNL     1     -33.606  16.363  -5.511  1.00 20.00     0.079 C 
HETATM    4  C4  UNL     1     -35.495  14.052  -4.196  1.00 20.00     0.008 C 
HETATM    5  C5  UNL     1     -34.117  16.875  -4.168  1.00 20.00     0.012 C 
HETATM    6  C6  UNL     1     -34.224  14.386  -3.413  1.00 20.00     0.005 C 
HETATM    7  C7  UNL     1     -34.026  15.858  -3.014  1.00 20.00    -0.011 C 
HETATM    8  O11 UNL     1     -34.151  14.799  -7.237  1.00 20.00    -0.298 OA
ENDROOT
BRANCH   7   9
HETATM    9  C10 UNL     1     -34.979  16.261  -1.886  1.00 20.00    -0.019 C 
HETATM   10  C8  UNL     1     -34.211  16.946  -0.762  1.00 20.00     0.010 C 
HETATM   11  C9  UNL     1     -36.081  17.169  -2.422  1.00 20.00     0.010 C 
ENDBRANCH   7   9
TORSDOF 1
ENDMDL
MODEL 4
REMARK VINA RESULT:      -4.6      2.534      4.344
REMARK  1 active torsions:
REMARK  status: ('A' for Active; 'I' for Inactive)
REMARK    1  A    between atoms: C7_7  and  C10_10 
ROOT
HETATM    1  C1  UNL     1     -33.666  18.374  -2.133  1.00 20.00     0.127 C 
HETATM    2  C2  UNL     1     -34.350  18.525  -3.475  1.00 20.00     0.078 C 
HETATM    3  C3  UNL     1     -33.899  17.106  -1.328  1.00 20.00     0.079 C 
HETATM    4  C4  UNL     1     -33.782  17.605  -4.549  1.00 20.00     0.008 C 
HETATM    5  C5  UNL     1     -34.808  16.083  -2.001  1.00 20.00     0.012 C 
HETATM    6  C6  UNL     1     -33.243  16.255  -4.073  1.00 20.00     0.005 C 
HETATM    7  C7  UNL     1     -34.196  15.389  -3.233  1.00 20.00    -0.011 C 
HETATM    8  O11 UNL     1     -32.933  19.263  -1.696  1.00 20.00    -0.298 OA
ENDROOT
BRANCH   7   9
HETATM    9  C10 UNL     1     -35.306  14.785  -4.098  1.00 20.00    -0.019 C 
HETATM   10  C8  UNL     1     -35.088  13.287  -4.271  1.00 20.00     0.010 C 
HETATM   11  C9  UNL     1     -36.672  15.066  -3.480  1.00 20.00     0.010 C 
ENDBRANCH   7   9
TORSDOF 1
ENDMDL
MODEL 5
REMARK VINA RESULT:      -4.6      1.962      2.745
REMARK  1 active torsions:
REMARK  status: ('A' for Active; 'I' for Inactive)
REMARK    1  A    between atoms: C7_7  and  C10_10 
ROOT
HETATM    1  C1  UNL     1     -34.925  13.747  -4.680  1.00 20.00     0.127 C 
HETATM    2  C2  UNL     1     -35.139  14.681  -3.509  1.00 20.00     0.078 C 
HETATM    3  C3  UNL     1     -34.799  14.334  -6.076  1.00 20.00     0.079 C 
HETATM    4  C4  UNL     1     -33.910  15.514  -3.168  1.00 20.00     0.008 C 
HETATM    5  C5  UNL     1     -34.880  15.856  -6.136  1.00 20.00     0.012 C 
HETATM    6  C6  UNL     1     -32.999  15.892  -4.338  1.00 20.00     0.005 C 
HETATM    7  C7  UNL     1     -33.667  16.590  -5.535  1.00 20.00    -0.011 C 
HETATM    8  O11 UNL     1     -34.855  12.527  -4.509  1.00 20.00    -0.298 OA
ENDROOT
BRANCH   7   9
HETATM    9  C10 UNL     1     -34.045  18.035  -5.195  1.00 20.00    -0.019 C 
HETATM   10  C8  UNL     1     -33.603  18.974  -6.311  1.00 20.00     0.010 C 
HETATM   11  C9  UNL     1     -35.546  18.147  -4.954  1.00 20.00     0.010 C 
ENDBRANCH   7   9
TORSDOF 1
ENDMDL
MODEL 6
REMARK VINA RESULT:      -4.6      2.463      4.147
REMARK  1 active torsions:
REMARK  status: ('A' for Active; 'I' for Inactive)
REMARK    1  A    between atoms: C7_7  and  C10_10 
ROOT
HETATM    1  C1  UNL     1     -34.706  16.010  -2.414  1.00 20.00     0.127 C 
HETATM    2  C2  UNL     1     -33.399  15.677  -3.099  1.00 20.00     0.078 C 
HETATM    3  C3  UNL     1     -35.943  16.251  -3.264  1.00 20.00     0.079 C 
HETATM    4  C4  UNL     1     -33.380  14.285  -3.719  1.00 20.00     0.008 C 
HETATM    5  C5  UNL     1     -35.722  16.097  -4.765  1.00 20.00     0.012 C 
HETATM    6  C6  UNL     1     -34.716  13.755  -4.242  1.00 20.00     0.005 C 
HETATM    7  C7  UNL     1     -35.473  14.651  -5.235  1.00 20.00    -0.011 C 
HETATM    8  O11 UNL     1     -34.771  16.089  -1.185  1.00 20.00    -0.298 OA
ENDROOT
BRANCH   7   9
HETATM    9  C10 UNL     1     -34.793  14.657  -6.608  1.00 20.00    -0.019 C 
HETATM   10  C8  UNL     1     -35.816  14.396  -7.707  1.00 20.00     0.010 C 
HETATM   11  C9  UNL     1     -34.076  15.984  -6.838  1.00 20.00     0.010 C 
ENDBRANCH   7   9
TORSDOF 1
ENDMDL
MODEL 7
REMARK VINA RESULT:      -4.5      2.340      4.380
REMARK  1 active torsions:
REMARK  status: ('A' for Active; 'I' for Inactive)
REMARK    1  A    between atoms: C7_7  and  C10_10 
ROOT
HETATM    1  C1  UNL     1     -33.746  18.062  -2.743  1.00 20.00     0.127 C 
HETATM    2  C2  UNL     1     -33.644  17.014  -1.656  1.00 20.00     0.078 C 
HETATM    3  C3  UNL     1     -33.681  17.622  -4.197  1.00 20.00     0.079 C 
HETATM    4  C4  UNL     1     -34.877  16.124  -1.558  1.00 20.00     0.008 C 
HETATM    5  C5  UNL     1     -33.542  16.117  -4.401  1.00 20.00     0.012 C 
HETATM    6  C6  UNL     1     -35.625  15.852  -2.864  1.00 20.00     0.005 C 
HETATM    7  C7  UNL     1     -34.794  15.299  -4.033  1.00 20.00    -0.011 C 
HETATM    8  O11 UNL     1     -33.877  19.254  -2.459  1.00 20.00    -0.298 OA
ENDROOT
BRANCH   7   9
HETATM    9  C10 UNL     1     -34.412  13.834  -3.799  1.00 20.00    -0.019 C 
HETATM   10  C8  UNL     1     -34.816  12.983  -4.997  1.00 20.00     0.010 C 
HETATM   11  C9  UNL     1     -32.916  13.714  -3.528  1.00 20.00     0.010 C 
ENDBRANCH   7   9
TORSDOF 1
ENDMDL
MODEL 8
REMARK VINA RESULT:      -4.4      2.132      3.271
REMARK  1 active torsions:
REMARK  status: ('A' for Active; 'I' for Inactive)
REMARK    1  A    between atoms: C7_7  and  C10_10 
ROOT
HETATM    1  C1  UNL     1     -33.665  13.804  -3.838  1.00 20.00     0.127 C 
HETATM    2  C2  UNL     1     -33.448  15.289  -3.644  1.00 20.00     0.078 C 
HETATM    3  C3  UNL     1     -35.028  13.312  -4.296  1.00 20.00     0.079 C 
HETATM    4  C4  UNL     1     -33.413  16.070  -4.952  1.00 20.00     0.008 C 
HETATM    5  C5  UNL     1     -36.052  14.416  -4.543  1.00 20.00     0.012 C 
HETATM    6  C6  UNL     1     -34.281  15.529  -6.090  1.00 20.00     0.005 C 
HETATM    7  C7  UNL     1     -35.767  15.296  -5.775  1.00 20.00    -0.011 C 
HETATM    8  O11 UNL     1     -32.753  13.001  -3.626  1.00 20.00    -0.298 OA
ENDROOT
BRANCH   7   9
HETATM    9  C10 UNL     1     -36.525  16.622  -5.657  1.00 20.00    -0.019 C 
HETATM   10  C8  UNL     1     -37.679  16.663  -6.652  1.00 20.00     0.010 C 
HETATM   11  C9  UNL     1     -37.030  16.818  -4.231  1.00 20.00     0.010 C 
ENDBRANCH   7   9
TORSDOF 1
ENDMDL
MODEL 9
REMARK VINA RESULT:      -4.4      1.425      2.600
REMARK  1 active torsions:
REMARK  status: ('A' for Active; 'I' for Inactive)
REMARK    1  A    between atoms: C7_7  and  C10_10 
ROOT
HETATM    1  C1  UNL     1     -34.333  15.149  -5.241  1.00 20.00     0.127 C 
HETATM    2  C2  UNL     1     -35.008  16.503  -5.268  1.00 20.00     0.078 C 
HETATM    3  C3  UNL     1     -33.521  14.755  -4.018  1.00 20.00     0.079 C 
HETATM    4  C4  UNL     1     -36.190  16.607  -4.312  1.00 20.00     0.008 C 
HETATM    5  C5  UNL     1     -33.501  15.798  -2.906  1.00 20.00     0.012 C 
HETATM    6  C6  UNL     1     -36.100  15.783  -3.027  1.00 20.00     0.005 C 
HETATM    7  C7  UNL     1     -34.840  15.979  -2.167  1.00 20.00    -0.011 C 
HETATM    8  O11 UNL     1     -34.436  14.375  -6.196  1.00 20.00    -0.298 OA
ENDROOT
BRANCH   7   9
HETATM    9  C10 UNL     1     -34.863  17.331  -1.449  1.00 20.00    -0.019 C 
HETATM   10  C8  UNL     1     -34.821  17.130   0.061  1.00 20.00     0.010 C 
HETATM   11  C9  UNL     1     -33.697  18.198  -1.913  1.00 20.00     0.010 C 
ENDBRANCH   7   9
TORSDOF 1
ENDMDL
