MODEL 1
REMARK VINA RESULT:      -4.3      0.000      0.000
REMARK  2 active torsions:
REMARK  status: ('A' for Active; 'I' for Inactive)
REMARK    1  A    between atoms: C2_2  and  C7_7 
REMARK    2  A    between atoms: C7_7  and  C8_8 
ROOT
HETATM    1  C7  UNL     1     -33.145   5.315   4.146  1.00 20.00     0.035 C 
ENDROOT
BRANCH   1   2
HETATM    2  C2  UNL     1     -33.134   6.196   2.927  1.00 20.00    -0.030 C 
HETATM    3  C1  UNL     1     -32.338   7.267   2.787  1.00 20.00    -0.035 C 
HETATM    4  C3  UNL     1     -31.366   7.719   3.824  1.00 20.00     0.035 C 
ENDBRANCH   1   2
BRANCH   1   5
HETATM    5  C8  UNL     1     -34.477   5.295   4.943  1.00 20.00    -0.048 C 
HETATM    6  C4  UNL     1     -34.745   3.908   5.552  1.00 20.00     0.014 C 
HETATM    7  C5  UNL     1     -35.662   5.691   4.045  1.00 20.00     0.014 C 
HETATM    8  C6  UNL     1     -34.368   6.318   6.091  1.00 20.00     0.014 C 
ENDBRANCH   1   5
TORSDOF 2
ENDMDL
MODEL 2
REMARK VINA RESULT:      -4.3      0.061      1.533
REMARK  2 active torsions:
REMARK  status: ('A' for Active; 'I' for Inactive)
REMARK    1  A    between atoms: C2_2  and  C7_7 
REMARK    2  A    between atoms: C7_7  and  C8_8 
ROOT
HETATM    1  C7  UNL     1     -33.158   5.243   4.084  1.00 20.00     0.035 C 
ENDROOT
BRANCH   1   2
HETATM    2  C2  UNL     1     -33.141   6.188   2.912  1.00 20.00    -0.030 C 
HETATM    3  C1  UNL     1     -32.336   7.257   2.828  1.00 20.00    -0.035 C 
HETATM    4  C3  UNL     1     -31.357   7.644   3.885  1.00 20.00     0.035 C 
ENDBRANCH   1   2
BRANCH   1   5
HETATM    5  C8  UNL     1     -34.437   5.293   4.962  1.00 20.00    -0.048 C 
HETATM    6  C4  UNL     1     -34.302   6.333   6.089  1.00 20.00     0.014 C 
HETATM    7  C5  UNL     1     -34.736   3.915   5.578  1.00 20.00     0.014 C 
HETATM    8  C6  UNL     1     -35.623   5.697   4.065  1.00 20.00     0.014 C 
ENDBRANCH   1   5
TORSDOF 2
ENDMDL
MODEL 3
REMARK VINA RESULT:      -4.3      0.047      1.543
REMARK  2 active torsions:
REMARK  status: ('A' for Active; 'I' for Inactive)
REMARK    1  A    between atoms: C2_2  and  C7_7 
REMARK    2  A    between atoms: C7_7  and  C8_8 
ROOT
HETATM    1  C7  UNL     1     -33.139   5.288   4.160  1.00 20.00     0.035 C 
ENDROOT
BRANCH   1   2
HETATM    2  C2  UNL     1     -33.123   6.142   2.921  1.00 20.00    -0.030 C 
HETATM    3  C1  UNL     1     -32.343   7.223   2.771  1.00 20.00    -0.035 C 
HETATM    4  C3  UNL     1     -31.395   7.714   3.812  1.00 20.00     0.035 C 
ENDBRANCH   1   2
BRANCH   1   5
HETATM    5  C8  UNL     1     -34.468   5.303   4.963  1.00 20.00    -0.048 C 
HETATM    6  C4  UNL     1     -35.658   5.698   4.070  1.00 20.00     0.014 C 
HETATM    7  C5  UNL     1     -34.383   6.276   6.152  1.00 20.00     0.014 C 
HETATM    8  C6  UNL     1     -34.719   3.883   5.508  1.00 20.00     0.014 C 
ENDBRANCH   1   5
TORSDOF 2
ENDMDL
MODEL 4
REMARK VINA RESULT:      -4.1      1.098      3.850
REMARK  2 active torsions:
REMARK  status: ('A' for Active; 'I' for Inactive)
REMARK    1  A    between atoms: C2_2  and  C7_7 
REMARK    2  A    between atoms: C7_7  and  C8_8 
ROOT
HETATM    1  C7  UNL     1     -33.848   6.898   4.017  1.00 20.00     0.035 C 
ENDROOT
BRANCH   1   2
HETATM    2  C2  UNL     1     -34.619   5.638   3.733  1.00 20.00    -0.030 C 
HETATM    3  C1  UNL     1     -35.053   4.798   4.685  1.00 20.00    -0.035 C 
HETATM    4  C3  UNL     1     -34.826   5.009   6.144  1.00 20.00     0.035 C 
ENDBRANCH   1   2
BRANCH   1   5
HETATM    5  C8  UNL     1     -32.466   7.008   3.317  1.00 20.00    -0.048 C 
HETATM    6  C4  UNL     1     -31.392   7.547   4.279  1.00 20.00     0.014 C 
HETATM    7  C5  UNL     1     -32.545   7.923   2.082  1.00 20.00     0.014 C 
HETATM    8  C6  UNL     1     -32.045   5.599   2.857  1.00 20.00     0.014 C 
ENDBRANCH   1   5
TORSDOF 2
ENDMDL
MODEL 5
REMARK VINA RESULT:      -4.0      1.099      3.868
REMARK  2 active torsions:
REMARK  status: ('A' for Active; 'I' for Inactive)
REMARK    1  A    between atoms: C2_2  and  C7_7 
REMARK    2  A    between atoms: C7_7  and  C8_8 
ROOT
HETATM    1  C7  UNL     1     -33.816   6.865   4.052  1.00 20.00     0.035 C 
ENDROOT
BRANCH   1   2
HETATM    2  C2  UNL     1     -34.649   5.656   3.722  1.00 20.00    -0.030 C 
HETATM    3  C1  UNL     1     -35.105   4.791   4.641  1.00 20.00    -0.035 C 
HETATM    4  C3  UNL     1     -34.842   4.919   6.104  1.00 20.00     0.035 C 
ENDBRANCH   1   2
BRANCH   1   5
HETATM    5  C8  UNL     1     -32.477   6.984   3.275  1.00 20.00    -0.048 C 
HETATM    6  C4  UNL     1     -32.607   7.941   2.078  1.00 20.00     0.014 C 
HETATM    7  C5  UNL     1     -32.006   5.607   2.773  1.00 20.00     0.014 C 
HETATM    8  C6  UNL     1     -31.410   7.546   4.235  1.00 20.00     0.014 C 
ENDBRANCH   1   5
TORSDOF 2
ENDMDL
MODEL 6
REMARK VINA RESULT:      -3.8     11.392     12.448
REMARK  2 active torsions:
REMARK  status: ('A' for Active; 'I' for Inactive)
REMARK    1  A    between atoms: C2_2  and  C7_7 
REMARK    2  A    between atoms: C7_7  and  C8_8 
ROOT
HETATM    1  C7  UNL     1     -33.734  16.051  -2.683  1.00 20.00     0.035 C 
ENDROOT
BRANCH   1   2
HETATM    2  C2  UNL     1     -34.715  16.210  -1.553  1.00 20.00    -0.030 C 
HETATM    3  C1  UNL     1     -34.562  17.089  -0.552  1.00 20.00    -0.035 C 
HETATM    4  C3  UNL     1     -33.402  18.019  -0.432  1.00 20.00     0.035 C 
ENDBRANCH   1   2
BRANCH   1   5
HETATM    5  C8  UNL     1     -34.168  15.075  -3.810  1.00 20.00    -0.048 C 
HETATM    6  C4  UNL     1     -33.368  13.761  -3.752  1.00 20.00     0.014 C 
HETATM    7  C5  UNL     1     -33.985  15.718  -5.196  1.00 20.00     0.014 C 
HETATM    8  C6  UNL     1     -35.661  14.746  -3.616  1.00 20.00     0.014 C 
ENDBRANCH   1   5
TORSDOF 2
ENDMDL
MODEL 7
REMARK VINA RESULT:      -3.8     11.398     12.499
REMARK  2 active torsions:
REMARK  status: ('A' for Active; 'I' for Inactive)
REMARK    1  A    between atoms: C2_2  and  C7_7 
REMARK    2  A    between atoms: C7_7  and  C8_8 
ROOT
HETATM    1  C7  UNL     1     -33.745  16.075  -2.678  1.00 20.00     0.035 C 
ENDROOT
BRANCH   1   2
HETATM    2  C2  UNL     1     -34.691  16.224  -1.516  1.00 20.00    -0.030 C 
HETATM    3  C1  UNL     1     -34.515  17.104  -0.520  1.00 20.00    -0.035 C 
HETATM    4  C3  UNL     1     -33.362  18.047  -0.438  1.00 20.00     0.035 C 
ENDBRANCH   1   2
BRANCH   1   5
HETATM    5  C8  UNL     1     -34.203  15.093  -3.789  1.00 20.00    -0.048 C 
HETATM    6  C4  UNL     1     -35.702  14.764  -3.663  1.00 20.00     0.014 C 
HETATM    7  C5  UNL     1     -33.393  13.786  -3.738  1.00 20.00     0.014 C 
HETATM    8  C6  UNL     1     -33.965  15.764  -5.156  1.00 20.00     0.014 C 
ENDBRANCH   1   5
TORSDOF 2
ENDMDL
MODEL 8
REMARK VINA RESULT:      -3.8     11.402     12.503
REMARK  2 active torsions:
REMARK  status: ('A' for Active; 'I' for Inactive)
REMARK    1  A    between atoms: C2_2  and  C7_7 
REMARK    2  A    between atoms: C7_7  and  C8_8 
ROOT
HETATM    1  C7  UNL     1     -33.717  16.049  -2.698  1.00 20.00     0.035 C 
ENDROOT
BRANCH   1   2
HETATM    2  C2  UNL     1     -34.664  16.224  -1.541  1.00 20.00    -0.030 C 
HETATM    3  C1  UNL     1     -34.477  17.110  -0.551  1.00 20.00    -0.035 C 
HETATM    4  C3  UNL     1     -33.307  18.033  -0.474  1.00 20.00     0.035 C 
ENDBRANCH   1   2
BRANCH   1   5
HETATM    5  C8  UNL     1     -34.209  15.101  -3.824  1.00 20.00    -0.048 C 
HETATM    6  C4  UNL     1     -33.986  15.721  -5.215  1.00 20.00     0.014 C 
HETATM    7  C5  UNL     1     -35.702  14.768  -3.653  1.00 20.00     0.014 C 
HETATM    8  C6  UNL     1     -33.402  13.791  -3.740  1.00 20.00     0.014 C 
ENDBRANCH   1   5
TORSDOF 2
ENDMDL
MODEL 9
REMARK VINA RESULT:      -3.8     11.323     12.346
REMARK  2 active torsions:
REMARK  status: ('A' for Active; 'I' for Inactive)
REMARK    1  A    between atoms: C2_2  and  C7_7 
REMARK    2  A    between atoms: C7_7  and  C8_8 
ROOT
HETATM    1  C7  UNL     1     -34.735  15.477  -2.597  1.00 20.00     0.035 C 
ENDROOT
BRANCH   1   2
HETATM    2  C2  UNL     1     -33.745  16.560  -2.261  1.00 20.00    -0.030 C 
HETATM    3  C1  UNL     1     -33.791  17.289  -1.137  1.00 20.00    -0.035 C 
HETATM    4  C3  UNL     1     -34.828  17.119  -0.078  1.00 20.00     0.035 C 
ENDBRANCH   1   2
BRANCH   1   5
HETATM    5  C8  UNL     1     -34.436  14.680  -3.895  1.00 20.00    -0.048 C 
HETATM    6  C4  UNL     1     -33.256  13.712  -3.699  1.00 20.00     0.014 C 
HETATM    7  C5  UNL     1     -34.122  15.628  -5.066  1.00 20.00     0.014 C 
HETATM    8  C6  UNL     1     -35.687  13.855  -4.255  1.00 20.00     0.014 C 
ENDBRANCH   1   5
TORSDOF 2
ENDMDL
