MODEL 1
REMARK VINA RESULT:      -4.5      0.000      0.000
REMARK  3 active torsions:
REMARK  status: ('A' for Active; 'I' for Inactive)
REMARK    1  A    between atoms: C1_1  and  C3_3 
REMARK       I    between atoms: C3_3  and  N10_10 
REMARK    2  A    between atoms: C8_8  and  C9_9 
REMARK    3  A    between atoms: C8_8  and  N10_10 
ROOT
HETATM    1  C3  UNL     1     -32.035   7.162   3.151  1.00 20.00     0.240 C 
HETATM    2  N10 UNL     1     -32.889   6.070   3.216  1.00 20.00    -0.357 N 
HETATM    3  O11 UNL     1     -31.313   7.554   4.061  1.00 20.00    -0.269 OA
HETATM    4  H28 UNL     1     -33.469   5.841   2.411  1.00 20.00     0.162 HD
ENDROOT
BRANCH   2   5
HETATM    5  C8  UNL     1     -33.030   5.252   4.392  1.00 20.00     0.131 C 
BRANCH   5   6
HETATM    6  C9  UNL     1     -34.416   5.344   5.067  1.00 20.00    -0.035 C 
HETATM    7  C5  UNL     1     -35.490   5.768   4.051  1.00 20.00     0.016 C 
HETATM    8  C6  UNL     1     -34.813   3.998   5.698  1.00 20.00     0.016 C 
HETATM    9  C7  UNL     1     -34.342   6.404   6.182  1.00 20.00     0.016 C 
ENDBRANCH   5   6
ENDBRANCH   2   5
BRANCH   1  10
HETATM   10  C1  UNL     1     -32.086   7.832   1.823  1.00 20.00     0.070 C 
HETATM   11  C2  UNL     1     -32.357   9.142   1.734  1.00 20.00    -0.026 C 
HETATM   12  C4  UNL     1     -32.424   9.881   0.439  1.00 20.00     0.036 C 
ENDBRANCH   1  10
TORSDOF 3
ENDMDL
MODEL 2
REMARK VINA RESULT:      -4.4     11.363     12.430
REMARK  3 active torsions:
REMARK  status: ('A' for Active; 'I' for Inactive)
REMARK    1  A    between atoms: C1_1  and  C3_3 
REMARK       I    between atoms: C3_3  and  N10_10 
REMARK    2  A    between atoms: C8_8  and  C9_9 
REMARK    3  A    between atoms: C8_8  and  N10_10 
ROOT
HETATM    1  C3  UNL     1     -33.446  15.996  -3.449  1.00 20.00     0.240 C 
HETATM    2  N10 UNL     1     -34.228  16.387  -4.528  1.00 20.00    -0.357 N 
HETATM    3  O11 UNL     1     -32.623  15.088  -3.459  1.00 20.00    -0.269 OA
HETATM    4  H28 UNL     1     -34.904  17.139  -4.410  1.00 20.00     0.162 HD
ENDROOT
BRANCH   2   5
HETATM    5  C8  UNL     1     -34.158  15.750  -5.817  1.00 20.00     0.131 C 
BRANCH   5   6
HETATM    6  C9  UNL     1     -35.259  14.695  -6.064  1.00 20.00    -0.035 C 
HETATM    7  C5  UNL     1     -35.445  14.444  -7.570  1.00 20.00     0.016 C 
HETATM    8  C6  UNL     1     -34.919  13.368  -5.363  1.00 20.00     0.016 C 
HETATM    9  C7  UNL     1     -36.582  15.230  -5.484  1.00 20.00     0.016 C 
ENDBRANCH   5   6
ENDBRANCH   2   5
BRANCH   1  10
HETATM   10  C1  UNL     1     -33.719  16.817  -2.237  1.00 20.00     0.070 C 
HETATM   11  C2  UNL     1     -34.574  16.382  -1.302  1.00 20.00    -0.026 C 
HETATM   12  C4  UNL     1     -34.896  17.149  -0.062  1.00 20.00     0.036 C 
ENDBRANCH   1  10
TORSDOF 3
ENDMDL
MODEL 3
REMARK VINA RESULT:      -4.3     11.010     12.025
REMARK  3 active torsions:
REMARK  status: ('A' for Active; 'I' for Inactive)
REMARK    1  A    between atoms: C1_1  and  C3_3 
REMARK       I    between atoms: C3_3  and  N10_10 
REMARK    2  A    between atoms: C8_8  and  C9_9 
REMARK    3  A    between atoms: C8_8  and  N10_10 
ROOT
HETATM    1  C3  UNL     1     -34.332  14.004  -4.251  1.00 20.00     0.240 C 
HETATM    2  N10 UNL     1     -34.121  15.359  -4.036  1.00 20.00    -0.357 N 
HETATM    3  O11 UNL     1     -34.092  13.110  -3.447  1.00 20.00    -0.269 OA
HETATM    4  H28 UNL     1     -34.330  16.022  -4.780  1.00 20.00     0.162 HD
ENDROOT
BRANCH   2   5
HETATM    5  C8  UNL     1     -33.579  15.883  -2.810  1.00 20.00     0.131 C 
BRANCH   5   6
HETATM    6  C9  UNL     1     -34.445  16.979  -2.151  1.00 20.00    -0.035 C 
HETATM    7  C5  UNL     1     -35.827  17.058  -2.819  1.00 20.00     0.016 C 
HETATM    8  C6  UNL     1     -34.619  16.715  -0.645  1.00 20.00     0.016 C 
HETATM    9  C7  UNL     1     -33.731  18.333  -2.330  1.00 20.00     0.016 C 
ENDBRANCH   5   6
ENDBRANCH   2   5
BRANCH   1  10
HETATM   10  C1  UNL     1     -34.898  13.735  -5.602  1.00 20.00     0.070 C 
HETATM   11  C2  UNL     1     -34.908  14.696  -6.536  1.00 20.00    -0.026 C 
HETATM   12  C4  UNL     1     -35.457  14.500  -7.910  1.00 20.00     0.036 C 
ENDBRANCH   1  10
TORSDOF 3
ENDMDL
MODEL 4
REMARK VINA RESULT:      -4.3     11.215     12.185
REMARK  3 active torsions:
REMARK  status: ('A' for Active; 'I' for Inactive)
REMARK    1  A    between atoms: C1_1  and  C3_3 
REMARK       I    between atoms: C3_3  and  N10_10 
REMARK    2  A    between atoms: C8_8  and  C9_9 
REMARK    3  A    between atoms: C8_8  and  N10_10 
ROOT
HETATM    1  C3  UNL     1     -34.102  16.715  -2.213  1.00 20.00     0.240 C 
HETATM    2  N10 UNL     1     -34.176  15.525  -2.924  1.00 20.00    -0.357 N 
HETATM    3  O11 UNL     1     -33.653  17.772  -2.641  1.00 20.00    -0.269 OA
HETATM    4  H28 UNL     1     -34.544  14.692  -2.468  1.00 20.00     0.162 HD
ENDROOT
BRANCH   2   5
HETATM    5  C8  UNL     1     -33.720  15.394  -4.282  1.00 20.00     0.131 C 
BRANCH   5   6
HETATM    6  C9  UNL     1     -34.728  14.704  -5.227  1.00 20.00    -0.035 C 
HETATM    7  C5  UNL     1     -36.158  15.202  -4.957  1.00 20.00     0.016 C 
HETATM    8  C6  UNL     1     -34.368  14.959  -6.701  1.00 20.00     0.016 C 
HETATM    9  C7  UNL     1     -34.676  13.186  -4.966  1.00 20.00     0.016 C 
ENDBRANCH   5   6
ENDBRANCH   2   5
BRANCH   1  10
HETATM   10  C1  UNL     1     -34.640  16.574  -0.832  1.00 20.00     0.070 C 
HETATM   11  C2  UNL     1     -34.668  17.628  -0.004  1.00 20.00    -0.026 C 
HETATM   12  C4  UNL     1     -35.192  17.562   1.392  1.00 20.00     0.036 C 
ENDBRANCH   1  10
TORSDOF 3
ENDMDL
MODEL 5
REMARK VINA RESULT:      -4.2     11.356     13.292
REMARK  3 active torsions:
REMARK  status: ('A' for Active; 'I' for Inactive)
REMARK    1  A    between atoms: C1_1  and  C3_3 
REMARK       I    between atoms: C3_3  and  N10_10 
REMARK    2  A    between atoms: C8_8  and  C9_9 
REMARK    3  A    between atoms: C8_8  and  N10_10 
ROOT
HETATM    1  C3  UNL     1     -33.730  15.897  -3.263  1.00 20.00     0.240 C 
HETATM    2  N10 UNL     1     -34.179  16.827  -4.191  1.00 20.00    -0.357 N 
HETATM    3  O11 UNL     1     -32.857  15.060  -3.461  1.00 20.00    -0.269 OA
HETATM    4  H28 UNL     1     -34.930  17.466  -3.936  1.00 20.00     0.162 HD
ENDROOT
BRANCH   2   5
HETATM    5  C8  UNL     1     -33.655  16.915  -5.529  1.00 20.00     0.131 C 
BRANCH   5   6
HETATM    6  C9  UNL     1     -34.648  16.481  -6.629  1.00 20.00    -0.035 C 
HETATM    7  C5  UNL     1     -34.560  17.420  -7.844  1.00 20.00     0.016 C 
HETATM    8  C6  UNL     1     -34.376  15.035  -7.079  1.00 20.00     0.016 C 
HETATM    9  C7  UNL     1     -36.074  16.553  -6.050  1.00 20.00     0.016 C 
ENDBRANCH   5   6
ENDBRANCH   2   5
BRANCH   1  10
HETATM   10  C1  UNL     1     -34.441  16.021  -1.961  1.00 20.00     0.070 C 
HETATM   11  C2  UNL     1     -34.171  17.042  -1.136  1.00 20.00    -0.026 C 
HETATM   12  C4  UNL     1     -34.843  17.232   0.184  1.00 20.00     0.036 C 
ENDBRANCH   1  10
TORSDOF 3
ENDMDL
MODEL 6
REMARK VINA RESULT:      -4.2     11.188     12.729
REMARK  3 active torsions:
REMARK  status: ('A' for Active; 'I' for Inactive)
REMARK    1  A    between atoms: C1_1  and  C3_3 
REMARK       I    between atoms: C3_3  and  N10_10 
REMARK    2  A    between atoms: C8_8  and  C9_9 
REMARK    3  A    between atoms: C8_8  and  N10_10 
ROOT
HETATM    1  C3  UNL     1     -34.236  15.391  -3.271  1.00 20.00     0.240 C 
HETATM    2  N10 UNL     1     -35.186  14.851  -4.127  1.00 20.00    -0.357 N 
HETATM    3  O11 UNL     1     -33.039  15.498  -3.515  1.00 20.00    -0.269 OA
HETATM    4  H28 UNL     1     -36.155  14.783  -3.820  1.00 20.00     0.162 HD
ENDROOT
BRANCH   2   5
HETATM    5  C8  UNL     1     -34.864  14.340  -5.434  1.00 20.00     0.131 C 
BRANCH   5   6
HETATM    6  C9  UNL     1     -35.338  15.235  -6.600  1.00 20.00    -0.035 C 
HETATM    7  C5  UNL     1     -34.302  16.332  -6.900  1.00 20.00     0.016 C 
HETATM    8  C6  UNL     1     -35.583  14.403  -7.871  1.00 20.00     0.016 C 
HETATM    9  C7  UNL     1     -36.663  15.904  -6.189  1.00 20.00     0.016 C 
ENDBRANCH   5   6
ENDBRANCH   2   5
BRANCH   1  10
HETATM   10  C1  UNL     1     -34.836  15.841  -1.985  1.00 20.00     0.070 C 
HETATM   11  C2  UNL     1     -34.221  16.768  -1.238  1.00 20.00    -0.026 C 
HETATM   12  C4  UNL     1     -34.761  17.267   0.061  1.00 20.00     0.036 C 
ENDBRANCH   1  10
TORSDOF 3
ENDMDL
MODEL 7
REMARK VINA RESULT:      -4.1     11.148     12.020
REMARK  3 active torsions:
REMARK  status: ('A' for Active; 'I' for Inactive)
REMARK    1  A    between atoms: C1_1  and  C3_3 
REMARK       I    between atoms: C3_3  and  N10_10 
REMARK    2  A    between atoms: C8_8  and  C9_9 
REMARK    3  A    between atoms: C8_8  and  N10_10 
ROOT
HETATM    1  C3  UNL     1     -34.915  17.111  -1.465  1.00 20.00     0.240 C 
HETATM    2  N10 UNL     1     -34.445  15.920  -2.000  1.00 20.00    -0.357 N 
HETATM    3  O11 UNL     1     -35.909  17.718  -1.846  1.00 20.00    -0.269 OA
HETATM    4  H28 UNL     1     -33.592  15.507  -1.629  1.00 20.00     0.162 HD
ENDROOT
BRANCH   2   5
HETATM    5  C8  UNL     1     -35.089  15.245  -3.096  1.00 20.00     0.131 C 
BRANCH   5   6
HETATM    6  C9  UNL     1     -34.123  14.763  -4.201  1.00 20.00    -0.035 C 
HETATM    7  C5  UNL     1     -34.454  13.322  -4.624  1.00 20.00     0.016 C 
HETATM    8  C6  UNL     1     -34.188  15.684  -5.432  1.00 20.00     0.016 C 
HETATM    9  C7  UNL     1     -32.689  14.797  -3.640  1.00 20.00     0.016 C 
ENDBRANCH   5   6
ENDBRANCH   2   5
BRANCH   1  10
HETATM   10  C1  UNL     1     -34.061  17.594  -0.344  1.00 20.00     0.070 C 
HETATM   11  C2  UNL     1     -32.992  18.363  -0.590  1.00 20.00    -0.026 C 
HETATM   12  C4  UNL     1     -32.091  18.884   0.481  1.00 20.00     0.036 C 
ENDBRANCH   1  10
TORSDOF 3
ENDMDL
MODEL 8
REMARK VINA RESULT:      -3.9     11.253     12.353
REMARK  3 active torsions:
REMARK  status: ('A' for Active; 'I' for Inactive)
REMARK    1  A    between atoms: C1_1  and  C3_3 
REMARK       I    between atoms: C3_3  and  N10_10 
REMARK    2  A    between atoms: C8_8  and  C9_9 
REMARK    3  A    between atoms: C8_8  and  N10_10 
ROOT
HETATM    1  C3  UNL     1     -34.617  15.653  -2.617  1.00 20.00     0.240 C 
HETATM    2  N10 UNL     1     -35.998  15.723  -2.732  1.00 20.00    -0.357 N 
HETATM    3  O11 UNL     1     -33.890  14.882  -3.234  1.00 20.00    -0.269 OA
HETATM    4  H28 UNL     1     -36.515  16.383  -2.154  1.00 20.00     0.162 HD
ENDROOT
BRANCH   2   5
HETATM    5  C8  UNL     1     -36.756  14.874  -3.613  1.00 20.00     0.131 C 
BRANCH   5   6
HETATM    6  C9  UNL     1     -37.114  15.523  -4.968  1.00 20.00    -0.035 C 
HETATM    7  C5  UNL     1     -38.567  15.202  -5.359  1.00 20.00     0.016 C 
HETATM    8  C6  UNL     1     -36.924  17.049  -4.917  1.00 20.00     0.016 C 
HETATM    9  C7  UNL     1     -36.174  14.949  -6.044  1.00 20.00     0.016 C 
ENDBRANCH   5   6
ENDBRANCH   2   5
BRANCH   1  10
HETATM   10  C1  UNL     1     -34.088  16.639  -1.635  1.00 20.00     0.070 C 
HETATM   11  C2  UNL     1     -34.766  16.906  -0.510  1.00 20.00    -0.026 C 
HETATM   12  C4  UNL     1     -34.299  17.881   0.519  1.00 20.00     0.036 C 
ENDBRANCH   1  10
TORSDOF 3
ENDMDL
MODEL 9
REMARK VINA RESULT:      -3.9     10.612     12.175
REMARK  3 active torsions:
REMARK  status: ('A' for Active; 'I' for Inactive)
REMARK    1  A    between atoms: C1_1  and  C3_3 
REMARK       I    between atoms: C3_3  and  N10_10 
REMARK    2  A    between atoms: C8_8  and  C9_9 
REMARK    3  A    between atoms: C8_8  and  N10_10 
ROOT
HETATM    1  C3  UNL     1     -42.516   2.680  -3.403  1.00 20.00     0.240 C 
HETATM    2  N10 UNL     1     -42.314   3.073  -2.087  1.00 20.00    -0.357 N 
HETATM    3  O11 UNL     1     -43.310   3.192  -4.184  1.00 20.00    -0.269 OA
HETATM    4  H28 UNL     1     -41.647   2.564  -1.509  1.00 20.00     0.162 HD
ENDROOT
BRANCH   2   5
HETATM    5  C8  UNL     1     -43.036   4.156  -1.473  1.00 20.00     0.131 C 
BRANCH   5   6
HETATM    6  C9  UNL     1     -42.176   5.404  -1.175  1.00 20.00    -0.035 C 
HETATM    7  C5  UNL     1     -42.783   6.222  -0.022  1.00 20.00     0.016 C 
HETATM    8  C6  UNL     1     -40.733   5.008  -0.815  1.00 20.00     0.016 C 
HETATM    9  C7  UNL     1     -42.142   6.282  -2.440  1.00 20.00     0.016 C 
ENDBRANCH   5   6
ENDBRANCH   2   5
BRANCH   1  10
HETATM   10  C1  UNL     1     -41.644   1.535  -3.782  1.00 20.00     0.070 C 
HETATM   11  C2  UNL     1     -42.115   0.281  -3.741  1.00 20.00    -0.026 C 
HETATM   12  C4  UNL     1     -41.300  -0.915  -4.107  1.00 20.00     0.036 C 
ENDBRANCH   1  10
TORSDOF 3
ENDMDL
