MODEL 1
REMARK VINA RESULT:      -5.1      0.000      0.000
REMARK  2 active torsions:
REMARK  status: ('A' for Active; 'I' for Inactive)
REMARK    1  A    between atoms: C2_2  and  C9_9 
REMARK    2  A    between atoms: C6_6  and  C9_9 
ROOT
HETATM    1  C3  UNL     1     -35.105   4.809   6.488  1.00 20.00     0.002 C 
HETATM    2  C4  UNL     1     -34.310   6.077   6.158  1.00 20.00     0.006 C 
HETATM    3  C5  UNL     1     -35.083   3.950   5.223  1.00 20.00     0.020 C 
HETATM    4  C6  UNL     1     -33.779   5.870   4.737  1.00 20.00     0.008 C 
HETATM    5  C7  UNL     1     -34.801   4.930   4.087  1.00 20.00     0.086 C 
HETATM    6 CL10 UNL     1     -36.318   5.749   3.605  1.00 20.00    -0.125 Cl
ENDROOT
BRANCH   4   7
HETATM    7  C9  UNL     1     -33.507   7.148   4.004  1.00 20.00     0.039 C 
BRANCH   7   8
HETATM    8  C2  UNL     1     -32.402   7.013   2.984  1.00 20.00    -0.093 C 
HETATM    9  C1  UNL     1     -31.687   5.882   2.870  1.00 20.00     0.014 C 
HETATM   10  C8  UNL     1     -32.114   8.211   2.126  1.00 20.00     0.042 C 
ENDBRANCH   7   8
ENDBRANCH   4   7
TORSDOF 2
ENDMDL
MODEL 2
REMARK VINA RESULT:      -4.7     11.843     12.606
REMARK  2 active torsions:
REMARK  status: ('A' for Active; 'I' for Inactive)
REMARK    1  A    between atoms: C2_2  and  C9_9 
REMARK    2  A    between atoms: C6_6  and  C9_9 
ROOT
HETATM    1  C3  UNL     1     -35.140  14.058  -3.858  1.00 20.00     0.002 C 
HETATM    2  C4  UNL     1     -35.404  15.325  -3.037  1.00 20.00     0.006 C 
HETATM    3  C5  UNL     1     -33.622  13.880  -3.892  1.00 20.00     0.020 C 
HETATM    4  C6  UNL     1     -34.029  15.791  -2.548  1.00 20.00     0.008 C 
HETATM    5  C7  UNL     1     -33.056  15.270  -3.612  1.00 20.00     0.086 C 
HETATM    6 CL10 UNL     1     -33.059  16.238  -5.117  1.00 20.00    -0.125 Cl
ENDROOT
BRANCH   4   7
HETATM    7  C9  UNL     1     -33.957  17.259  -2.259  1.00 20.00     0.039 C 
BRANCH   7   8
HETATM    8  C2  UNL     1     -33.915  17.563  -0.781  1.00 20.00    -0.093 C 
HETATM    9  C1  UNL     1     -34.843  17.082   0.060  1.00 20.00     0.014 C 
HETATM   10  C8  UNL     1     -32.809  18.457  -0.299  1.00 20.00     0.042 C 
ENDBRANCH   7   8
ENDBRANCH   4   7
TORSDOF 2
ENDMDL
MODEL 3
REMARK VINA RESULT:      -4.3      9.309     10.659
REMARK  2 active torsions:
REMARK  status: ('A' for Active; 'I' for Inactive)
REMARK    1  A    between atoms: C2_2  and  C9_9 
REMARK    2  A    between atoms: C6_6  and  C9_9 
ROOT
HETATM    1  C3  UNL     1     -41.171   7.263  -0.876  1.00 20.00     0.002 C 
HETATM    2  C4  UNL     1     -41.907   6.664  -2.080  1.00 20.00     0.006 C 
HETATM    3  C5  UNL     1     -40.654   6.078  -0.059  1.00 20.00     0.020 C 
HETATM    4  C6  UNL     1     -41.716   5.149  -1.965  1.00 20.00     0.008 C 
HETATM    5  C7  UNL     1     -41.544   4.905  -0.462  1.00 20.00     0.086 C 
HETATM    6 CL10 UNL     1     -43.082   4.971   0.453  1.00 20.00    -0.125 Cl
ENDROOT
BRANCH   4   7
HETATM    7  C9  UNL     1     -42.792   4.353  -2.638  1.00 20.00     0.039 C 
BRANCH   7   8
HETATM    8  C2  UNL     1     -42.479   2.878  -2.696  1.00 20.00    -0.093 C 
HETATM    9  C1  UNL     1     -41.426   2.411  -3.385  1.00 20.00     0.014 C 
HETATM   10  C8  UNL     1     -43.417   1.951  -1.977  1.00 20.00     0.042 C 
ENDBRANCH   7   8
ENDBRANCH   4   7
TORSDOF 2
ENDMDL
MODEL 4
REMARK VINA RESULT:      -4.3     11.947     13.333
REMARK  2 active torsions:
REMARK  status: ('A' for Active; 'I' for Inactive)
REMARK    1  A    between atoms: C2_2  and  C9_9 
REMARK    2  A    between atoms: C6_6  and  C9_9 
ROOT
HETATM    1  C3  UNL     1     -34.188  15.756  -6.613  1.00 20.00     0.002 C 
HETATM    2  C4  UNL     1     -33.412  16.267  -5.394  1.00 20.00     0.006 C 
HETATM    3  C5  UNL     1     -35.491  15.166  -6.072  1.00 20.00     0.020 C 
HETATM    4  C6  UNL     1     -34.333  16.034  -4.193  1.00 20.00     0.008 C 
HETATM    5  C7  UNL     1     -35.198  14.839  -4.610  1.00 20.00     0.086 C 
HETATM    6 CL10 UNL     1     -34.345  13.269  -4.501  1.00 20.00    -0.125 Cl
ENDROOT
BRANCH   4   7
HETATM    7  C9  UNL     1     -33.604  15.892  -2.892  1.00 20.00     0.039 C 
BRANCH   7   8
HETATM    8  C2  UNL     1     -34.004  16.939  -1.880  1.00 20.00    -0.093 C 
HETATM    9  C1  UNL     1     -34.664  16.613  -0.758  1.00 20.00     0.014 C 
HETATM   10  C8  UNL     1     -33.660  18.365  -2.201  1.00 20.00     0.042 C 
ENDBRANCH   7   8
ENDBRANCH   4   7
TORSDOF 2
ENDMDL
MODEL 5
REMARK VINA RESULT:      -4.2     11.398     12.550
REMARK  2 active torsions:
REMARK  status: ('A' for Active; 'I' for Inactive)
REMARK    1  A    between atoms: C2_2  and  C9_9 
REMARK    2  A    between atoms: C6_6  and  C9_9 
ROOT
HETATM    1  C3  UNL     1     -34.425  13.407  -5.020  1.00 20.00     0.002 C 
HETATM    2  C4  UNL     1     -34.118  13.853  -3.586  1.00 20.00     0.006 C 
HETATM    3  C5  UNL     1     -35.193  14.559  -5.670  1.00 20.00     0.020 C 
HETATM    4  C6  UNL     1     -34.643  15.287  -3.481  1.00 20.00     0.008 C 
HETATM    5  C7  UNL     1     -35.784  15.345  -4.503  1.00 20.00     0.086 C 
HETATM    6 CL10 UNL     1     -37.287  14.553  -3.940  1.00 20.00    -0.125 Cl
ENDROOT
BRANCH   4   7
HETATM    7  C9  UNL     1     -34.994  15.700  -2.084  1.00 20.00     0.039 C 
BRANCH   7   8
HETATM    8  C2  UNL     1     -34.326  16.989  -1.669  1.00 20.00    -0.093 C 
HETATM    9  C1  UNL     1     -34.288  17.376  -0.385  1.00 20.00     0.014 C 
HETATM   10  C8  UNL     1     -33.736  17.835  -2.760  1.00 20.00     0.042 C 
ENDBRANCH   7   8
ENDBRANCH   4   7
TORSDOF 2
ENDMDL
MODEL 6
REMARK VINA RESULT:      -4.1     12.073     13.438
REMARK  2 active torsions:
REMARK  status: ('A' for Active; 'I' for Inactive)
REMARK    1  A    between atoms: C2_2  and  C9_9 
REMARK    2  A    between atoms: C6_6  and  C9_9 
ROOT
HETATM    1  C3  UNL     1     -34.889  15.934  -2.063  1.00 20.00     0.002 C 
HETATM    2  C4  UNL     1     -35.480  15.194  -3.267  1.00 20.00     0.006 C 
HETATM    3  C5  UNL     1     -33.677  16.706  -2.589  1.00 20.00     0.020 C 
HETATM    4  C6  UNL     1     -34.641  15.631  -4.471  1.00 20.00     0.008 C 
HETATM    5  C7  UNL     1     -33.275  15.979  -3.870  1.00 20.00     0.086 C 
HETATM    6 CL10 UNL     1     -32.288  14.541  -3.464  1.00 20.00    -0.125 Cl
ENDROOT
BRANCH   4   7
HETATM    7  C9  UNL     1     -34.630  14.637  -5.591  1.00 20.00     0.039 C 
BRANCH   7   8
HETATM    8  C2  UNL     1     -34.912  15.266  -6.934  1.00 20.00    -0.093 C 
HETATM    9  C1  UNL     1     -34.502  16.510  -7.226  1.00 20.00     0.014 C 
HETATM   10  C8  UNL     1     -35.702  14.451  -7.917  1.00 20.00     0.042 C 
ENDBRANCH   7   8
ENDBRANCH   4   7
TORSDOF 2
ENDMDL
MODEL 7
REMARK VINA RESULT:      -4.0      9.663     10.974
REMARK  2 active torsions:
REMARK  status: ('A' for Active; 'I' for Inactive)
REMARK    1  A    between atoms: C2_2  and  C9_9 
REMARK    2  A    between atoms: C6_6  and  C9_9 
ROOT
HETATM    1  C3  UNL     1     -40.782   5.769  -0.296  1.00 20.00     0.002 C 
HETATM    2  C4  UNL     1     -40.890   4.596  -1.277  1.00 20.00     0.006 C 
HETATM    3  C5  UNL     1     -42.149   6.454  -0.298  1.00 20.00     0.020 C 
HETATM    4  C6  UNL     1     -42.347   4.588  -1.748  1.00 20.00     0.008 C 
HETATM    5  C7  UNL     1     -42.790   6.050  -1.623  1.00 20.00     0.086 C 
HETATM    6 CL10 UNL     1     -42.172   7.097  -2.937  1.00 20.00    -0.125 Cl
ENDROOT
BRANCH   4   7
HETATM    7  C9  UNL     1     -42.542   3.958  -3.093  1.00 20.00     0.039 C 
BRANCH   7   8
HETATM    8  C2  UNL     1     -42.484   2.450  -3.047  1.00 20.00    -0.093 C 
HETATM    9  C1  UNL     1     -43.352   1.738  -2.312  1.00 20.00     0.014 C 
HETATM   10  C8  UNL     1     -41.391   1.784  -3.832  1.00 20.00     0.042 C 
ENDBRANCH   7   8
ENDBRANCH   4   7
TORSDOF 2
ENDMDL
MODEL 8
REMARK VINA RESULT:      -4.0     11.939     13.154
REMARK  2 active torsions:
REMARK  status: ('A' for Active; 'I' for Inactive)
REMARK    1  A    between atoms: C2_2  and  C9_9 
REMARK    2  A    between atoms: C6_6  and  C9_9 
ROOT
HETATM    1  C3  UNL     1     -33.630  16.267  -5.629  1.00 20.00     0.002 C 
HETATM    2  C4  UNL     1     -33.643  16.839  -4.207  1.00 20.00     0.006 C 
HETATM    3  C5  UNL     1     -34.581  15.069  -5.616  1.00 20.00     0.020 C 
HETATM    4  C6  UNL     1     -34.670  16.003  -3.438  1.00 20.00     0.008 C 
HETATM    5  C7  UNL     1     -34.660  14.646  -4.151  1.00 20.00     0.086 C 
HETATM    6 CL10 UNL     1     -33.244  13.633  -3.736  1.00 20.00    -0.125 Cl
ENDROOT
BRANCH   4   7
HETATM    7  C9  UNL     1     -34.433  15.967  -1.960  1.00 20.00     0.039 C 
BRANCH   7   8
HETATM    8  C2  UNL     1     -34.747  17.280  -1.284  1.00 20.00    -0.093 C 
HETATM    9  C1  UNL     1     -35.927  17.894  -1.460  1.00 20.00     0.014 C 
HETATM   10  C8  UNL     1     -33.667  17.886  -0.434  1.00 20.00     0.042 C 
ENDBRANCH   7   8
ENDBRANCH   4   7
TORSDOF 2
ENDMDL
MODEL 9
REMARK VINA RESULT:      -4.0     11.762     12.784
REMARK  2 active torsions:
REMARK  status: ('A' for Active; 'I' for Inactive)
REMARK    1  A    between atoms: C2_2  and  C9_9 
REMARK    2  A    between atoms: C6_6  and  C9_9 
ROOT
HETATM    1  C3  UNL     1     -33.233  18.989  -1.309  1.00 20.00     0.002 C 
HETATM    2  C4  UNL     1     -33.666  18.046  -2.437  1.00 20.00     0.006 C 
HETATM    3  C5  UNL     1     -33.434  18.215  -0.005  1.00 20.00     0.020 C 
HETATM    4  C6  UNL     1     -34.021  16.723  -1.753  1.00 20.00     0.008 C 
HETATM    5  C7  UNL     1     -34.459  17.135  -0.343  1.00 20.00     0.086 C 
HETATM    6 CL10 UNL     1     -36.108  17.828  -0.282  1.00 20.00    -0.125 Cl
ENDROOT
BRANCH   4   7
HETATM    7  C9  UNL     1     -34.998  15.889  -2.523  1.00 20.00     0.039 C 
BRANCH   7   8
HETATM    8  C2  UNL     1     -34.327  14.831  -3.367  1.00 20.00    -0.093 C 
HETATM    9  C1  UNL     1     -33.009  14.866  -3.616  1.00 20.00     0.014 C 
HETATM   10  C8  UNL     1     -35.206  13.759  -3.944  1.00 20.00     0.042 C 
ENDBRANCH   7   8
ENDBRANCH   4   7
TORSDOF 2
ENDMDL
