MODEL 1
REMARK VINA RESULT:      -5.2      0.000      0.000
REMARK  2 active torsions:
REMARK  status: ('A' for Active; 'I' for Inactive)
REMARK    1  A    between atoms: C5_5  and  C6_6 
REMARK    2  A    between atoms: C6_6  and  C7_7 
ROOT
HETATM    1  C1  UNL     1     -32.093   8.534   1.726  1.00 20.00     0.012 C 
HETATM    2  C2  UNL     1     -32.189   7.643   2.525  1.00 20.00    -0.117 C 
HETATM    3  C5  UNL     1     -32.299   6.550   3.504  1.00 20.00     0.098 C 
ENDROOT
BRANCH   3   4
HETATM    4  C6  UNL     1     -33.767   6.258   3.890  1.00 20.00     0.011 C 
HETATM    5  C3  UNL     1     -34.460   5.414   2.808  1.00 20.00     0.012 C 
BRANCH   4   6
HETATM    6  C7  UNL     1     -33.844   5.631   5.307  1.00 20.00     0.082 C 
HETATM    7  C4  UNL     1     -33.988   6.666   6.419  1.00 20.00     0.027 C 
HETATM    8 CL8  UNL     1     -35.171   4.436   5.449  1.00 20.00    -0.125 Cl
ENDBRANCH   4   6
ENDBRANCH   3   4
TORSDOF 2
ENDMDL
MODEL 2
REMARK VINA RESULT:      -5.1      1.354      1.477
REMARK  2 active torsions:
REMARK  status: ('A' for Active; 'I' for Inactive)
REMARK    1  A    between atoms: C5_5  and  C6_6 
REMARK    2  A    between atoms: C6_6  and  C7_7 
ROOT
HETATM    1  C1  UNL     1     -32.009   8.222   1.948  1.00 20.00     0.012 C 
HETATM    2  C2  UNL     1     -32.288   7.436   2.812  1.00 20.00    -0.117 C 
HETATM    3  C5  UNL     1     -32.623   6.469   3.869  1.00 20.00     0.098 C 
ENDROOT
BRANCH   3   4
HETATM    4  C6  UNL     1     -34.149   6.328   4.070  1.00 20.00     0.011 C 
HETATM    5  C3  UNL     1     -34.727   5.255   3.135  1.00 20.00     0.012 C 
BRANCH   4   6
HETATM    6  C7  UNL     1     -34.482   6.091   5.566  1.00 20.00     0.082 C 
HETATM    7  C4  UNL     1     -34.449   4.618   5.967  1.00 20.00     0.027 C 
HETATM    8 CL8  UNL     1     -33.401   7.014   6.657  1.00 20.00    -0.125 Cl
ENDBRANCH   4   6
ENDBRANCH   3   4
TORSDOF 2
ENDMDL
MODEL 3
REMARK VINA RESULT:      -4.3      2.346      4.259
REMARK  2 active torsions:
REMARK  status: ('A' for Active; 'I' for Inactive)
REMARK    1  A    between atoms: C5_5  and  C6_6 
REMARK    2  A    between atoms: C6_6  and  C7_7 
ROOT
HETATM    1  C1  UNL     1     -35.177   3.939   5.871  1.00 20.00     0.012 C 
HETATM    2  C2  UNL     1     -34.954   4.691   4.961  1.00 20.00    -0.117 C 
HETATM    3  C5  UNL     1     -34.683   5.606   3.842  1.00 20.00     0.098 C 
ENDROOT
BRANCH   3   4
HETATM    4  C6  UNL     1     -33.782   6.790   4.261  1.00 20.00     0.011 C 
HETATM    5  C3  UNL     1     -33.640   6.856   5.790  1.00 20.00     0.012 C 
BRANCH   4   6
HETATM    6  C7  UNL     1     -32.423   6.732   3.515  1.00 20.00     0.082 C 
HETATM    7  C4  UNL     1     -32.209   5.430   2.748  1.00 20.00     0.027 C 
HETATM    8 CL8  UNL     1     -32.207   8.110   2.390  1.00 20.00    -0.125 Cl
ENDBRANCH   4   6
ENDBRANCH   3   4
TORSDOF 2
ENDMDL
MODEL 4
REMARK VINA RESULT:      -4.2      2.122      4.031
REMARK  2 active torsions:
REMARK  status: ('A' for Active; 'I' for Inactive)
REMARK    1  A    between atoms: C5_5  and  C6_6 
REMARK    2  A    between atoms: C6_6  and  C7_7 
ROOT
HETATM    1  C1  UNL     1     -35.115   4.598   6.092  1.00 20.00     0.012 C 
HETATM    2  C2  UNL     1     -34.453   5.449   5.562  1.00 20.00    -0.117 C 
HETATM    3  C5  UNL     1     -33.645   6.496   4.918  1.00 20.00     0.098 C 
ENDROOT
BRANCH   3   4
HETATM    4  C6  UNL     1     -32.956   5.992   3.629  1.00 20.00     0.011 C 
HETATM    5  C3  UNL     1     -33.997   5.598   2.569  1.00 20.00     0.012 C 
BRANCH   4   6
HETATM    6  C7  UNL     1     -31.919   7.029   3.124  1.00 20.00     0.082 C 
HETATM    7  C4  UNL     1     -32.500   8.029   2.128  1.00 20.00     0.027 C 
HETATM    8 CL8  UNL     1     -31.149   7.928   4.468  1.00 20.00    -0.125 Cl
ENDBRANCH   4   6
ENDBRANCH   3   4
TORSDOF 2
ENDMDL
MODEL 5
REMARK VINA RESULT:      -4.1      1.511      1.926
REMARK  2 active torsions:
REMARK  status: ('A' for Active; 'I' for Inactive)
REMARK    1  A    between atoms: C5_5  and  C6_6 
REMARK    2  A    between atoms: C6_6  and  C7_7 
ROOT
HETATM    1  C1  UNL     1     -32.187   9.226   0.963  1.00 20.00     0.012 C 
HETATM    2  C2  UNL     1     -32.155   8.538   1.947  1.00 20.00    -0.117 C 
HETATM    3  C5  UNL     1     -32.110   7.700   3.155  1.00 20.00     0.098 C 
ENDROOT
BRANCH   3   4
HETATM    4  C6  UNL     1     -32.984   6.432   3.020  1.00 20.00     0.011 C 
HETATM    5  C3  UNL     1     -32.123   5.162   3.106  1.00 20.00     0.012 C 
BRANCH   4   6
HETATM    6  C7  UNL     1     -34.149   6.461   4.042  1.00 20.00     0.082 C 
HETATM    7  C4  UNL     1     -35.100   5.274   3.910  1.00 20.00     0.027 C 
HETATM    8 CL8  UNL     1     -33.565   6.552   5.734  1.00 20.00    -0.125 Cl
ENDBRANCH   4   6
ENDBRANCH   3   4
TORSDOF 2
ENDMDL
MODEL 6
REMARK VINA RESULT:      -4.1     11.495     12.696
REMARK  2 active torsions:
REMARK  status: ('A' for Active; 'I' for Inactive)
REMARK    1  A    between atoms: C5_5  and  C6_6 
REMARK    2  A    between atoms: C6_6  and  C7_7 
ROOT
HETATM    1  C1  UNL     1     -34.577  16.895  -0.453  1.00 20.00     0.012 C 
HETATM    2  C2  UNL     1     -34.677  16.332  -1.509  1.00 20.00    -0.117 C 
HETATM    3  C5  UNL     1     -34.807  15.640  -2.801  1.00 20.00     0.098 C 
ENDROOT
BRANCH   3   4
HETATM    4  C6  UNL     1     -33.434  15.357  -3.452  1.00 20.00     0.011 C 
HETATM    5  C3  UNL     1     -33.240  13.850  -3.686  1.00 20.00     0.012 C 
BRANCH   4   6
HETATM    6  C7  UNL     1     -33.251  16.210  -4.734  1.00 20.00     0.082 C 
HETATM    7  C4  UNL     1     -34.126  15.750  -5.897  1.00 20.00     0.027 C 
HETATM    8 CL8  UNL     1     -33.550  17.952  -4.438  1.00 20.00    -0.125 Cl
ENDBRANCH   4   6
ENDBRANCH   3   4
TORSDOF 2
ENDMDL
MODEL 7
REMARK VINA RESULT:      -4.0      1.255      2.066
REMARK  2 active torsions:
REMARK  status: ('A' for Active; 'I' for Inactive)
REMARK    1  A    between atoms: C5_5  and  C6_6 
REMARK    2  A    between atoms: C6_6  and  C7_7 
ROOT
HETATM    1  C1  UNL     1     -31.740   7.561   2.351  1.00 20.00     0.012 C 
HETATM    2  C2  UNL     1     -32.698   7.402   3.058  1.00 20.00    -0.117 C 
HETATM    3  C5  UNL     1     -33.874   7.214   3.922  1.00 20.00     0.098 C 
ENDROOT
BRANCH   3   4
HETATM    4  C6  UNL     1     -33.627   6.155   5.021  1.00 20.00     0.011 C 
HETATM    5  C3  UNL     1     -33.770   6.775   6.420  1.00 20.00     0.012 C 
BRANCH   4   6
HETATM    6  C7  UNL     1     -34.533   4.916   4.798  1.00 20.00     0.082 C 
HETATM    7  C4  UNL     1     -35.046   4.300   6.097  1.00 20.00     0.027 C 
HETATM    8 CL8  UNL     1     -35.929   5.279   3.736  1.00 20.00    -0.125 Cl
ENDBRANCH   4   6
ENDBRANCH   3   4
TORSDOF 2
ENDMDL
MODEL 8
REMARK VINA RESULT:      -4.0     10.903     11.755
REMARK  2 active torsions:
REMARK  status: ('A' for Active; 'I' for Inactive)
REMARK    1  A    between atoms: C5_5  and  C6_6 
REMARK    2  A    between atoms: C6_6  and  C7_7 
ROOT
HETATM    1  C1  UNL     1     -34.817  17.084  -0.064  1.00 20.00     0.012 C 
HETATM    2  C2  UNL     1     -34.479  16.691  -1.148  1.00 20.00    -0.117 C 
HETATM    3  C5  UNL     1     -34.060  16.215  -2.475  1.00 20.00     0.098 C 
ENDROOT
BRANCH   3   4
HETATM    4  C6  UNL     1     -35.052  15.188  -3.068  1.00 20.00     0.011 C 
HETATM    5  C3  UNL     1     -35.884  15.818  -4.196  1.00 20.00     0.012 C 
BRANCH   4   6
HETATM    6  C7  UNL     1     -34.308  13.895  -3.495  1.00 20.00     0.082 C 
HETATM    7  C4  UNL     1     -34.779  13.342  -4.837  1.00 20.00     0.027 C 
HETATM    8 CL8  UNL     1     -32.532  14.122  -3.552  1.00 20.00    -0.125 Cl
ENDBRANCH   4   6
ENDBRANCH   3   4
TORSDOF 2
ENDMDL
MODEL 9
REMARK VINA RESULT:      -3.9      1.759      3.546
REMARK  2 active torsions:
REMARK  status: ('A' for Active; 'I' for Inactive)
REMARK    1  A    between atoms: C5_5  and  C6_6 
REMARK    2  A    between atoms: C6_6  and  C7_7 
ROOT
HETATM    1  C1  UNL     1     -33.235   7.778   7.066  1.00 20.00     0.012 C 
HETATM    2  C2  UNL     1     -33.849   6.777   6.810  1.00 20.00    -0.117 C 
HETATM    3  C5  UNL     1     -34.602   5.551   6.506  1.00 20.00     0.098 C 
ENDROOT
BRANCH   3   4
HETATM    4  C6  UNL     1     -34.219   4.957   5.131  1.00 20.00     0.011 C 
HETATM    5  C3  UNL     1     -35.082   3.727   4.806  1.00 20.00     0.012 C 
BRANCH   4   6
HETATM    6  C7  UNL     1     -34.262   6.051   4.032  1.00 20.00     0.082 C 
HETATM    7  C4  UNL     1     -33.003   6.095   3.172  1.00 20.00     0.027 C 
HETATM    8 CL8  UNL     1     -35.690   5.882   2.963  1.00 20.00    -0.125 Cl
ENDBRANCH   4   6
ENDBRANCH   3   4
TORSDOF 2
ENDMDL
