MODEL 1
REMARK VINA RESULT:      -4.7      0.000      0.000
REMARK  2 active torsions:
REMARK  status: ('A' for Active; 'I' for Inactive)
REMARK    1  A    between atoms: C5_5  and  C6_6 
REMARK    2  A    between atoms: C6_6  and  C7_7 
ROOT
HETATM    1  C1  UNL     1     -32.061   8.393   1.908  1.00 20.00     0.012 C 
HETATM    2  C2  UNL     1     -32.252   7.532   2.723  1.00 20.00    -0.117 C 
HETATM    3  C5  UNL     1     -32.481   6.472   3.719  1.00 20.00     0.098 C 
ENDROOT
BRANCH   3   4
HETATM    4  C6  UNL     1     -33.863   6.599   4.399  1.00 20.00     0.011 C 
HETATM    5  C3  UNL     1     -33.727   6.534   5.928  1.00 20.00     0.012 C 
BRANCH   4   6
HETATM    6  C7  UNL     1     -34.862   5.560   3.825  1.00 20.00     0.082 C 
HETATM    7  C4  UNL     1     -35.156   4.413   4.786  1.00 20.00     0.027 C 
HETATM    8 CL8  UNL     1     -34.320   4.880   2.258  1.00 20.00    -0.125 Cl
ENDBRANCH   4   6
ENDBRANCH   3   4
TORSDOF 2
ENDMDL
MODEL 2
REMARK VINA RESULT:      -4.7      1.391      1.478
REMARK  2 active torsions:
REMARK  status: ('A' for Active; 'I' for Inactive)
REMARK    1  A    between atoms: C5_5  and  C6_6 
REMARK    2  A    between atoms: C6_6  and  C7_7 
ROOT
HETATM    1  C1  UNL     1     -32.122   8.298   1.997  1.00 20.00     0.012 C 
HETATM    2  C2  UNL     1     -32.272   7.403   2.783  1.00 20.00    -0.117 C 
HETATM    3  C5  UNL     1     -32.450   6.301   3.744  1.00 20.00     0.098 C 
ENDROOT
BRANCH   3   4
HETATM    4  C6  UNL     1     -33.768   6.430   4.541  1.00 20.00     0.011 C 
HETATM    5  C3  UNL     1     -33.483   6.703   6.026  1.00 20.00     0.012 C 
BRANCH   4   6
HETATM    6  C7  UNL     1     -34.682   5.199   4.307  1.00 20.00     0.082 C 
HETATM    7  C4  UNL     1     -36.008   5.552   3.639  1.00 20.00     0.027 C 
HETATM    8 CL8  UNL     1     -35.017   4.295   5.819  1.00 20.00    -0.125 Cl
ENDBRANCH   4   6
ENDBRANCH   3   4
TORSDOF 2
ENDMDL
MODEL 3
REMARK VINA RESULT:      -4.5      1.533      2.128
REMARK  2 active torsions:
REMARK  status: ('A' for Active; 'I' for Inactive)
REMARK    1  A    between atoms: C5_5  and  C6_6 
REMARK    2  A    between atoms: C6_6  and  C7_7 
ROOT
HETATM    1  C1  UNL     1     -31.974   7.973   1.739  1.00 20.00     0.012 C 
HETATM    2  C2  UNL     1     -32.259   7.507   2.808  1.00 20.00    -0.117 C 
HETATM    3  C5  UNL     1     -32.604   6.940   4.123  1.00 20.00     0.098 C 
ENDROOT
BRANCH   3   4
HETATM    4  C6  UNL     1     -33.515   5.697   4.001  1.00 20.00     0.011 C 
HETATM    5  C3  UNL     1     -34.191   5.649   2.622  1.00 20.00     0.012 C 
BRANCH   4   6
HETATM    6  C7  UNL     1     -34.519   5.626   5.181  1.00 20.00     0.082 C 
HETATM    7  C4  UNL     1     -34.060   6.402   6.411  1.00 20.00     0.027 C 
HETATM    8 CL8  UNL     1     -34.889   3.940   5.665  1.00 20.00    -0.125 Cl
ENDBRANCH   4   6
ENDBRANCH   3   4
TORSDOF 2
ENDMDL
MODEL 4
REMARK VINA RESULT:      -4.4      1.763      3.946
REMARK  2 active torsions:
REMARK  status: ('A' for Active; 'I' for Inactive)
REMARK    1  A    between atoms: C5_5  and  C6_6 
REMARK    2  A    between atoms: C6_6  and  C7_7 
ROOT
HETATM    1  C1  UNL     1     -35.050   4.360   5.944  1.00 20.00     0.012 C 
HETATM    2  C2  UNL     1     -34.426   5.323   5.588  1.00 20.00    -0.117 C 
HETATM    3  C5  UNL     1     -33.662   6.506   5.159  1.00 20.00     0.098 C 
ENDROOT
BRANCH   3   4
HETATM    4  C6  UNL     1     -33.607   6.638   3.620  1.00 20.00     0.011 C 
HETATM    5  C3  UNL     1     -34.137   5.365   2.944  1.00 20.00     0.012 C 
BRANCH   4   6
HETATM    6  C7  UNL     1     -32.185   7.040   3.146  1.00 20.00     0.082 C 
HETATM    7  C4  UNL     1     -31.332   7.651   4.253  1.00 20.00     0.027 C 
HETATM    8 CL8  UNL     1     -32.220   8.166   1.752  1.00 20.00    -0.125 Cl
ENDBRANCH   4   6
ENDBRANCH   3   4
TORSDOF 2
ENDMDL
MODEL 5
REMARK VINA RESULT:      -4.3      1.812      2.149
REMARK  2 active torsions:
REMARK  status: ('A' for Active; 'I' for Inactive)
REMARK    1  A    between atoms: C5_5  and  C6_6 
REMARK    2  A    between atoms: C6_6  and  C7_7 
ROOT
HETATM    1  C1  UNL     1     -31.905   8.034   1.649  1.00 20.00     0.012 C 
HETATM    2  C2  UNL     1     -32.245   7.597   2.714  1.00 20.00    -0.117 C 
HETATM    3  C5  UNL     1     -32.658   7.066   4.025  1.00 20.00     0.098 C 
ENDROOT
BRANCH   3   4
HETATM    4  C6  UNL     1     -33.324   5.677   3.907  1.00 20.00     0.011 C 
HETATM    5  C3  UNL     1     -34.350   5.658   2.764  1.00 20.00     0.012 C 
BRANCH   4   6
HETATM    6  C7  UNL     1     -33.912   5.224   5.269  1.00 20.00     0.082 C 
HETATM    7  C4  UNL     1     -35.272   4.546   5.143  1.00 20.00     0.027 C 
HETATM    8 CL8  UNL     1     -34.044   6.575   6.441  1.00 20.00    -0.125 Cl
ENDBRANCH   4   6
ENDBRANCH   3   4
TORSDOF 2
ENDMDL
MODEL 6
REMARK VINA RESULT:      -4.1      1.219      1.293
REMARK  2 active torsions:
REMARK  status: ('A' for Active; 'I' for Inactive)
REMARK    1  A    between atoms: C5_5  and  C6_6 
REMARK    2  A    between atoms: C6_6  and  C7_7 
ROOT
HETATM    1  C1  UNL     1     -32.065   7.925   2.407  1.00 20.00     0.012 C 
HETATM    2  C2  UNL     1     -32.533   7.004   3.018  1.00 20.00    -0.117 C 
HETATM    3  C5  UNL     1     -33.105   5.869   3.762  1.00 20.00     0.098 C 
ENDROOT
BRANCH   3   4
HETATM    4  C6  UNL     1     -34.117   6.327   4.837  1.00 20.00     0.011 C 
HETATM    5  C3  UNL     1     -33.390   6.916   6.055  1.00 20.00     0.012 C 
BRANCH   4   6
HETATM    6  C7  UNL     1     -35.099   5.182   5.200  1.00 20.00     0.082 C 
HETATM    7  C4  UNL     1     -35.032   4.774   6.669  1.00 20.00     0.027 C 
HETATM    8 CL8  UNL     1     -34.860   3.725   4.183  1.00 20.00    -0.125 Cl
ENDBRANCH   4   6
ENDBRANCH   3   4
TORSDOF 2
ENDMDL
MODEL 7
REMARK VINA RESULT:      -4.0     10.976     11.681
REMARK  2 active torsions:
REMARK  status: ('A' for Active; 'I' for Inactive)
REMARK    1  A    between atoms: C5_5  and  C6_6 
REMARK    2  A    between atoms: C6_6  and  C7_7 
ROOT
HETATM    1  C1  UNL     1     -34.780  16.888  -0.455  1.00 20.00     0.012 C 
HETATM    2  C2  UNL     1     -34.321  16.484  -1.488  1.00 20.00    -0.117 C 
HETATM    3  C5  UNL     1     -33.755  15.995  -2.757  1.00 20.00     0.098 C 
ENDROOT
BRANCH   3   4
HETATM    4  C6  UNL     1     -34.482  14.731  -3.271  1.00 20.00     0.011 C 
HETATM    5  C3  UNL     1     -33.474  13.700  -3.802  1.00 20.00     0.012 C 
BRANCH   4   6
HETATM    6  C7  UNL     1     -35.582  15.102  -4.299  1.00 20.00     0.082 C 
HETATM    7  C4  UNL     1     -36.994  14.802  -3.805  1.00 20.00     0.027 C 
HETATM    8 CL8  UNL     1     -35.339  14.298  -5.883  1.00 20.00    -0.125 Cl
ENDBRANCH   4   6
ENDBRANCH   3   4
TORSDOF 2
ENDMDL
MODEL 8
REMARK VINA RESULT:      -3.9     11.346     12.430
REMARK  2 active torsions:
REMARK  status: ('A' for Active; 'I' for Inactive)
REMARK    1  A    between atoms: C5_5  and  C6_6 
REMARK    2  A    between atoms: C6_6  and  C7_7 
ROOT
HETATM    1  C1  UNL     1     -34.736  16.757  -0.705  1.00 20.00     0.012 C 
HETATM    2  C2  UNL     1     -34.268  16.298  -1.710  1.00 20.00    -0.117 C 
HETATM    3  C5  UNL     1     -33.686  15.739  -2.943  1.00 20.00     0.098 C 
ENDROOT
BRANCH   3   4
HETATM    4  C6  UNL     1     -34.763  15.147  -3.879  1.00 20.00     0.011 C 
HETATM    5  C3  UNL     1     -34.663  13.615  -3.927  1.00 20.00     0.012 C 
BRANCH   4   6
HETATM    6  C7  UNL     1     -34.708  15.811  -5.280  1.00 20.00     0.082 C 
HETATM    7  C4  UNL     1     -34.557  14.806  -6.418  1.00 20.00     0.027 C 
HETATM    8 CL8  UNL     1     -33.401  17.032  -5.409  1.00 20.00    -0.125 Cl
ENDBRANCH   4   6
ENDBRANCH   3   4
TORSDOF 2
ENDMDL
MODEL 9
REMARK VINA RESULT:      -3.8     11.234     12.166
REMARK  2 active torsions:
REMARK  status: ('A' for Active; 'I' for Inactive)
REMARK    1  A    between atoms: C5_5  and  C6_6 
REMARK    2  A    between atoms: C6_6  and  C7_7 
ROOT
HETATM    1  C1  UNL     1     -34.784  17.388   0.204  1.00 20.00     0.012 C 
HETATM    2  C2  UNL     1     -34.765  16.709  -0.786  1.00 20.00    -0.117 C 
HETATM    3  C5  UNL     1     -34.746  15.871  -1.997  1.00 20.00     0.098 C 
ENDROOT
BRANCH   3   4
HETATM    4  C6  UNL     1     -33.608  16.269  -2.963  1.00 20.00     0.011 C 
HETATM    5  C3  UNL     1     -33.820  17.692  -3.502  1.00 20.00     0.012 C 
BRANCH   4   6
HETATM    6  C7  UNL     1     -33.432  15.208  -4.082  1.00 20.00     0.082 C 
HETATM    7  C4  UNL     1     -33.941  15.676  -5.441  1.00 20.00     0.027 C 
HETATM    8 CL8  UNL     1     -34.214  13.647  -3.675  1.00 20.00    -0.125 Cl
ENDBRANCH   4   6
ENDBRANCH   3   4
TORSDOF 2
ENDMDL
