MODEL 1
REMARK VINA RESULT:      -5.1      0.000      0.000
REMARK  3 active torsions:
REMARK  status: ('A' for Active; 'I' for Inactive)
REMARK    1  A    between atoms: C2_2  and  C6_6 
REMARK    2  A    between atoms: C6_6  and  C7_7 
REMARK    3  A    between atoms: C7_7  and  C8_8 
ROOT
HETATM    1  C4  UNL     1     -35.238   5.595   3.338  1.00 20.00     0.011 C 
HETATM    2  C7  UNL     1     -34.024   6.271   3.995  1.00 20.00    -0.001 C 
ENDROOT
BRANCH   2   3
HETATM    3  C6  UNL     1     -32.768   6.198   3.093  1.00 20.00     0.038 C 
BRANCH   3   4
HETATM    4  C2  UNL     1     -31.952   7.473   3.039  1.00 20.00    -0.093 C 
HETATM    5  C1  UNL     1     -31.134   7.825   4.043  1.00 20.00     0.014 C 
HETATM    6  C3  UNL     1     -32.065   8.306   1.794  1.00 20.00     0.042 C 
ENDBRANCH   3   4
ENDBRANCH   2   3
BRANCH   2   7
HETATM    7  C8  UNL     1     -33.790   5.746   5.431  1.00 20.00     0.057 C 
HETATM    8  C5  UNL     1     -33.880   6.823   6.505  1.00 20.00     0.022 C 
HETATM    9 BR9  UNL     1     -35.026   4.302   5.912  1.00 20.00    -0.091 Br
ENDBRANCH   2   7
TORSDOF 3
ENDMDL
MODEL 2
REMARK VINA RESULT:      -5.0      0.066      1.171
REMARK  3 active torsions:
REMARK  status: ('A' for Active; 'I' for Inactive)
REMARK    1  A    between atoms: C2_2  and  C6_6 
REMARK    2  A    between atoms: C6_6  and  C7_7 
REMARK    3  A    between atoms: C7_7  and  C8_8 
ROOT
HETATM    1  C4  UNL     1     -35.223   5.590   3.299  1.00 20.00     0.011 C 
HETATM    2  C7  UNL     1     -34.015   6.261   3.973  1.00 20.00    -0.001 C 
ENDROOT
BRANCH   2   3
HETATM    3  C6  UNL     1     -32.749   6.190   3.083  1.00 20.00     0.038 C 
BRANCH   3   4
HETATM    4  C2  UNL     1     -31.983   7.491   2.969  1.00 20.00    -0.093 C 
HETATM    5  C1  UNL     1     -32.129   8.301   1.909  1.00 20.00     0.014 C 
HETATM    6  C3  UNL     1     -31.083   7.859   4.114  1.00 20.00     0.042 C 
ENDBRANCH   3   4
ENDBRANCH   2   3
BRANCH   2   7
HETATM    7  C8  UNL     1     -33.797   5.727   5.408  1.00 20.00     0.057 C 
HETATM    8  C5  UNL     1     -33.887   6.801   6.486  1.00 20.00     0.022 C 
HETATM    9 BR9  UNL     1     -35.048   4.292   5.873  1.00 20.00    -0.091 Br
ENDBRANCH   2   7
TORSDOF 3
ENDMDL
MODEL 3
REMARK VINA RESULT:      -4.1      1.251      1.422
REMARK  3 active torsions:
REMARK  status: ('A' for Active; 'I' for Inactive)
REMARK    1  A    between atoms: C2_2  and  C6_6 
REMARK    2  A    between atoms: C6_6  and  C7_7 
REMARK    3  A    between atoms: C7_7  and  C8_8 
ROOT
HETATM    1  C4  UNL     1     -34.866   5.323   2.769  1.00 20.00     0.011 C 
HETATM    2  C7  UNL     1     -34.124   6.156   3.828  1.00 20.00    -0.001 C 
ENDROOT
BRANCH   2   3
HETATM    3  C6  UNL     1     -32.587   6.051   3.666  1.00 20.00     0.038 C 
BRANCH   3   4
HETATM    4  C2  UNL     1     -31.893   7.362   3.359  1.00 20.00    -0.093 C 
HETATM    5  C1  UNL     1     -31.021   7.912   4.219  1.00 20.00     0.014 C 
HETATM    6  C3  UNL     1     -32.189   7.999   2.032  1.00 20.00     0.042 C 
ENDBRANCH   3   4
ENDBRANCH   2   3
BRANCH   2   7
HETATM    7  C8  UNL     1     -34.622   5.832   5.255  1.00 20.00     0.057 C 
HETATM    8  C5  UNL     1     -34.504   4.359   5.631  1.00 20.00     0.022 C 
HETATM    9 BR9  UNL     1     -33.703   6.886   6.629  1.00 20.00    -0.091 Br
ENDBRANCH   2   7
TORSDOF 3
ENDMDL
MODEL 4
REMARK VINA RESULT:      -4.0      2.341      4.097
REMARK  3 active torsions:
REMARK  status: ('A' for Active; 'I' for Inactive)
REMARK    1  A    between atoms: C2_2  and  C6_6 
REMARK    2  A    between atoms: C6_6  and  C7_7 
REMARK    3  A    between atoms: C7_7  and  C8_8 
ROOT
HETATM    1  C4  UNL     1     -32.916   5.504   2.091  1.00 20.00     0.011 C 
HETATM    2  C7  UNL     1     -32.957   6.193   3.466  1.00 20.00    -0.001 C 
ENDROOT
BRANCH   2   3
HETATM    3  C6  UNL     1     -34.368   6.127   4.098  1.00 20.00     0.038 C 
BRANCH   3   4
HETATM    4  C2  UNL     1     -34.393   5.677   5.544  1.00 20.00    -0.093 C 
HETATM    5  C1  UNL     1     -34.035   6.501   6.541  1.00 20.00     0.014 C 
HETATM    6  C3  UNL     1     -34.877   4.282   5.820  1.00 20.00     0.042 C 
ENDBRANCH   3   4
ENDBRANCH   2   3
BRANCH   2   7
HETATM    7  C8  UNL     1     -32.370   7.622   3.401  1.00 20.00     0.057 C 
HETATM    8  C5  UNL     1     -31.079   7.795   4.194  1.00 20.00     0.022 C 
HETATM    9 BR9  UNL     1     -32.039   8.216   1.562  1.00 20.00    -0.091 Br
ENDBRANCH   2   7
TORSDOF 3
ENDMDL
MODEL 5
REMARK VINA RESULT:      -3.9     11.558     12.640
REMARK  3 active torsions:
REMARK  status: ('A' for Active; 'I' for Inactive)
REMARK    1  A    between atoms: C2_2  and  C6_6 
REMARK    2  A    between atoms: C6_6  and  C7_7 
REMARK    3  A    between atoms: C7_7  and  C8_8 
ROOT
HETATM    1  C4  UNL     1     -33.293  16.653  -5.184  1.00 20.00     0.011 C 
HETATM    2  C7  UNL     1     -34.279  15.728  -4.450  1.00 20.00    -0.001 C 
ENDROOT
BRANCH   2   3
HETATM    3  C6  UNL     1     -33.959  15.632  -2.938  1.00 20.00     0.038 C 
BRANCH   3   4
HETATM    4  C2  UNL     1     -34.913  16.392  -2.040  1.00 20.00    -0.093 C 
HETATM    5  C1  UNL     1     -34.605  16.669  -0.764  1.00 20.00     0.014 C 
HETATM    6  C3  UNL     1     -36.203  16.860  -2.652  1.00 20.00     0.042 C 
ENDBRANCH   3   4
ENDBRANCH   2   3
BRANCH   2   7
HETATM    7  C8  UNL     1     -34.395  14.354  -5.150  1.00 20.00     0.057 C 
HETATM    8  C5  UNL     1     -35.107  13.295  -4.316  1.00 20.00     0.022 C 
HETATM    9 BR9  UNL     1     -35.299  14.470  -6.886  1.00 20.00    -0.091 Br
ENDBRANCH   2   7
TORSDOF 3
ENDMDL
MODEL 6
REMARK VINA RESULT:      -3.9      1.373      2.118
REMARK  3 active torsions:
REMARK  status: ('A' for Active; 'I' for Inactive)
REMARK    1  A    between atoms: C2_2  and  C6_6 
REMARK    2  A    between atoms: C6_6  and  C7_7 
REMARK    3  A    between atoms: C7_7  and  C8_8 
ROOT
HETATM    1  C4  UNL     1     -33.767   6.934   6.600  1.00 20.00     0.011 C 
HETATM    2  C7  UNL     1     -33.498   6.239   5.255  1.00 20.00    -0.001 C 
ENDROOT
BRANCH   2   3
HETATM    3  C6  UNL     1     -33.516   7.243   4.076  1.00 20.00     0.038 C 
BRANCH   3   4
HETATM    4  C2  UNL     1     -32.462   6.995   3.018  1.00 20.00    -0.093 C 
HETATM    5  C1  UNL     1     -31.918   5.781   2.841  1.00 20.00     0.014 C 
HETATM    6  C3  UNL     1     -32.081   8.156   2.145  1.00 20.00     0.042 C 
ENDBRANCH   3   4
ENDBRANCH   2   3
BRANCH   2   7
HETATM    7  C8  UNL     1     -34.430   5.022   5.049  1.00 20.00     0.057 C 
HETATM    8  C5  UNL     1     -35.103   4.537   6.328  1.00 20.00     0.022 C 
HETATM    9 BR9  UNL     1     -35.828   5.363   3.718  1.00 20.00    -0.091 Br
ENDBRANCH   2   7
TORSDOF 3
ENDMDL
MODEL 7
REMARK VINA RESULT:      -3.8     11.222     12.432
REMARK  3 active torsions:
REMARK  status: ('A' for Active; 'I' for Inactive)
REMARK    1  A    between atoms: C2_2  and  C6_6 
REMARK    2  A    between atoms: C6_6  and  C7_7 
REMARK    3  A    between atoms: C7_7  and  C8_8 
ROOT
HETATM    1  C4  UNL     1     -33.312  16.376  -5.239  1.00 20.00     0.011 C 
HETATM    2  C7  UNL     1     -34.340  16.070  -4.137  1.00 20.00    -0.001 C 
ENDROOT
BRANCH   2   3
HETATM    3  C6  UNL     1     -33.670  15.945  -2.746  1.00 20.00     0.038 C 
BRANCH   3   4
HETATM    4  C2  UNL     1     -34.070  17.017  -1.753  1.00 20.00    -0.093 C 
HETATM    5  C1  UNL     1     -34.698  16.712  -0.607  1.00 20.00     0.014 C 
HETATM    6  C3  UNL     1     -33.694  18.433  -2.086  1.00 20.00     0.042 C 
ENDBRANCH   3   4
ENDBRANCH   2   3
BRANCH   2   7
HETATM    7  C8  UNL     1     -35.228  14.860  -4.510  1.00 20.00     0.057 C 
HETATM    8  C5  UNL     1     -34.634  13.513  -4.116  1.00 20.00     0.022 C 
HETATM    9 BR9  UNL     1     -37.026  14.982  -3.736  1.00 20.00    -0.091 Br
ENDBRANCH   2   7
TORSDOF 3
ENDMDL
MODEL 8
REMARK VINA RESULT:      -3.8     11.379     12.550
REMARK  3 active torsions:
REMARK  status: ('A' for Active; 'I' for Inactive)
REMARK    1  A    between atoms: C2_2  and  C6_6 
REMARK    2  A    between atoms: C6_6  and  C7_7 
REMARK    3  A    between atoms: C7_7  and  C8_8 
ROOT
HETATM    1  C4  UNL     1     -33.297  13.667  -3.727  1.00 20.00     0.011 C 
HETATM    2  C7  UNL     1     -34.171  14.916  -3.929  1.00 20.00    -0.001 C 
ENDROOT
BRANCH   2   3
HETATM    3  C6  UNL     1     -34.891  15.330  -2.622  1.00 20.00     0.038 C 
BRANCH   3   4
HETATM    4  C2  UNL     1     -34.398  16.625  -2.012  1.00 20.00    -0.093 C 
HETATM    5  C1  UNL     1     -33.815  17.576  -2.760  1.00 20.00     0.014 C 
HETATM    6  C3  UNL     1     -34.627  16.820  -0.541  1.00 20.00     0.042 C 
ENDBRANCH   3   4
ENDBRANCH   2   3
BRANCH   2   7
HETATM    7  C8  UNL     1     -35.122  14.752  -5.138  1.00 20.00     0.057 C 
HETATM    8  C5  UNL     1     -36.486  15.403  -4.942  1.00 20.00     0.022 C 
HETATM    9 BR9  UNL     1     -34.349  15.448  -6.800  1.00 20.00    -0.091 Br
ENDBRANCH   2   7
TORSDOF 3
ENDMDL
MODEL 9
REMARK VINA RESULT:      -3.8      1.467      2.472
REMARK  3 active torsions:
REMARK  status: ('A' for Active; 'I' for Inactive)
REMARK    1  A    between atoms: C2_2  and  C6_6 
REMARK    2  A    between atoms: C6_6  and  C7_7 
REMARK    3  A    between atoms: C7_7  and  C8_8 
ROOT
HETATM    1  C4  UNL     1     -32.130   5.277   3.095  1.00 20.00     0.011 C 
HETATM    2  C7  UNL     1     -32.972   6.557   2.974  1.00 20.00    -0.001 C 
ENDROOT
BRANCH   2   3
HETATM    3  C6  UNL     1     -32.098   7.831   3.087  1.00 20.00     0.038 C 
BRANCH   3   4
HETATM    4  C2  UNL     1     -32.139   8.736   1.873  1.00 20.00    -0.093 C 
HETATM    5  C1  UNL     1     -31.644   8.343   0.689  1.00 20.00     0.014 C 
HETATM    6  C3  UNL     1     -32.797  10.076   2.039  1.00 20.00     0.042 C 
ENDBRANCH   3   4
ENDBRANCH   2   3
BRANCH   2   7
HETATM    7  C8  UNL     1     -34.174   6.540   3.946  1.00 20.00     0.057 C 
HETATM    8  C5  UNL     1     -35.124   5.367   3.731  1.00 20.00     0.022 C 
HETATM    9 BR9  UNL     1     -33.620   6.538   5.826  1.00 20.00    -0.091 Br
ENDBRANCH   2   7
TORSDOF 3
ENDMDL
