MODEL 1
REMARK VINA RESULT:      -4.6      0.000      0.000
REMARK  3 active torsions:
REMARK  status: ('A' for Active; 'I' for Inactive)
REMARK    1  A    between atoms: C1_1  and  C5_5 
REMARK    2  A    between atoms: C1_1  and  C8_8 
REMARK    3  A    between atoms: C8_8  and  C9_9 
ROOT
HETATM    1  C1  UNL     1     -32.415   6.553   3.254  1.00 20.00     0.133 C 
HETATM    2  O10 UNL     1     -31.778   5.554   2.923  1.00 20.00    -0.297 OA
ENDROOT
BRANCH   1   3
HETATM    3  C5  UNL     1     -33.763   6.430   3.876  1.00 20.00     0.081 C 
HETATM    4  C2  UNL     1     -34.548   5.225   3.400  1.00 20.00     0.040 C 
HETATM    5  C3  UNL     1     -35.567   5.061   4.507  1.00 20.00     0.168 C 
HETATM    6  O11 UNL     1     -34.916   5.461   5.719  1.00 20.00    -0.390 OA
HETATM    7  C4  UNL     1     -33.730   6.197   5.379  1.00 20.00     0.179 C 
ENDBRANCH   1   3
BRANCH   1   8
HETATM    8  C8  UNL     1     -31.912   7.969   3.022  1.00 20.00     0.082 C 
BRANCH   8   9
HETATM    9  C9  UNL     1     -32.456   8.618   1.741  1.00 20.00    -0.016 C 
HETATM   10  C6  UNL     1     -31.471   8.470   0.577  1.00 20.00     0.010 C 
HETATM   11  C7  UNL     1     -32.744  10.101   1.986  1.00 20.00     0.010 C 
ENDBRANCH   8   9
ENDBRANCH   1   8
TORSDOF 3
ENDMDL
MODEL 2
REMARK VINA RESULT:      -4.6     10.251     11.497
REMARK  3 active torsions:
REMARK  status: ('A' for Active; 'I' for Inactive)
REMARK    1  A    between atoms: C1_1  and  C5_5 
REMARK    2  A    between atoms: C1_1  and  C8_8 
REMARK    3  A    between atoms: C8_8  and  C9_9 
ROOT
HETATM    1  C1  UNL     1     -33.679  16.684  -3.619  1.00 20.00     0.133 C 
HETATM    2  O10 UNL     1     -33.019  16.994  -4.609  1.00 20.00    -0.297 OA
ENDROOT
BRANCH   1   3
HETATM    3  C5  UNL     1     -34.115  15.276  -3.402  1.00 20.00     0.081 C 
HETATM    4  C2  UNL     1     -35.239  14.836  -4.318  1.00 20.00     0.040 C 
HETATM    5  C3  UNL     1     -35.117  13.329  -4.256  1.00 20.00     0.168 C 
HETATM    6  O11 UNL     1     -33.721  13.041  -4.116  1.00 20.00    -0.390 OA
HETATM    7  C4  UNL     1     -33.043  14.243  -3.716  1.00 20.00     0.179 C 
ENDBRANCH   1   3
BRANCH   1   8
HETATM    8  C8  UNL     1     -34.134  17.694  -2.577  1.00 20.00     0.082 C 
BRANCH   8   9
HETATM    9  C9  UNL     1     -33.652  17.377  -1.154  1.00 20.00    -0.016 C 
HETATM   10  C6  UNL     1     -34.822  17.012  -0.236  1.00 20.00     0.010 C 
HETATM   11  C7  UNL     1     -32.900  18.577  -0.576  1.00 20.00     0.010 C 
ENDBRANCH   8   9
ENDBRANCH   1   8
TORSDOF 3
ENDMDL
MODEL 3
REMARK VINA RESULT:      -4.3     10.263     11.374
REMARK  3 active torsions:
REMARK  status: ('A' for Active; 'I' for Inactive)
REMARK    1  A    between atoms: C1_1  and  C5_5 
REMARK    2  A    between atoms: C1_1  and  C8_8 
REMARK    3  A    between atoms: C8_8  and  C9_9 
ROOT
HETATM    1  C1  UNL     1     -35.230  16.408  -2.999  1.00 20.00     0.133 C 
HETATM    2  O10 UNL     1     -35.874  17.385  -3.380  1.00 20.00    -0.297 OA
ENDROOT
BRANCH   1   3
HETATM    3  C5  UNL     1     -34.904  15.296  -3.934  1.00 20.00     0.081 C 
HETATM    4  C2  UNL     1     -33.616  14.572  -3.599  1.00 20.00     0.040 C 
HETATM    5  C3  UNL     1     -33.800  13.257  -4.325  1.00 20.00     0.168 C 
HETATM    6  O11 UNL     1     -35.201  12.959  -4.274  1.00 20.00    -0.390 OA
HETATM    7  C4  UNL     1     -35.910  14.154  -3.910  1.00 20.00     0.179 C 
ENDBRANCH   1   3
BRANCH   1   8
HETATM    8  C8  UNL     1     -34.761  16.234  -1.563  1.00 20.00     0.082 C 
BRANCH   8   9
HETATM    9  C9  UNL     1     -34.629  17.555  -0.790  1.00 20.00    -0.016 C 
HETATM   10  C6  UNL     1     -33.183  18.060  -0.788  1.00 20.00     0.010 C 
HETATM   11  C7  UNL     1     -35.111  17.369   0.650  1.00 20.00     0.010 C 
ENDBRANCH   8   9
ENDBRANCH   1   8
TORSDOF 3
ENDMDL
MODEL 4
REMARK VINA RESULT:      -4.3     10.454     11.724
REMARK  3 active torsions:
REMARK  status: ('A' for Active; 'I' for Inactive)
REMARK    1  A    between atoms: C1_1  and  C5_5 
REMARK    2  A    between atoms: C1_1  and  C8_8 
REMARK    3  A    between atoms: C8_8  and  C9_9 
ROOT
HETATM    1  C1  UNL     1     -34.367  14.020  -4.086  1.00 20.00     0.133 C 
HETATM    2  O10 UNL     1     -33.437  13.218  -4.027  1.00 20.00    -0.297 OA
ENDROOT
BRANCH   1   3
HETATM    3  C5  UNL     1     -34.681  14.913  -2.936  1.00 20.00     0.081 C 
HETATM    4  C2  UNL     1     -33.660  16.011  -2.718  1.00 20.00     0.040 C 
HETATM    5  C3  UNL     1     -34.449  17.009  -1.898  1.00 20.00     0.168 C 
HETATM    6  O11 UNL     1     -35.804  16.929  -2.356  1.00 20.00    -0.390 OA
HETATM    7  C4  UNL     1     -35.961  15.716  -3.110  1.00 20.00     0.179 C 
ENDBRANCH   1   3
BRANCH   1   8
HETATM    8  C8  UNL     1     -35.284  14.137  -5.294  1.00 20.00     0.082 C 
BRANCH   8   9
HETATM    9  C9  UNL     1     -34.578  14.639  -6.562  1.00 20.00    -0.016 C 
HETATM   10  C6  UNL     1     -34.162  16.106  -6.427  1.00 20.00     0.010 C 
HETATM   11  C7  UNL     1     -35.498  14.474  -7.774  1.00 20.00     0.010 C 
ENDBRANCH   8   9
ENDBRANCH   1   8
TORSDOF 3
ENDMDL
MODEL 5
REMARK VINA RESULT:      -4.3      1.342      1.920
REMARK  3 active torsions:
REMARK  status: ('A' for Active; 'I' for Inactive)
REMARK    1  A    between atoms: C1_1  and  C5_5 
REMARK    2  A    between atoms: C1_1  and  C8_8 
REMARK    3  A    between atoms: C8_8  and  C9_9 
ROOT
HETATM    1  C1  UNL     1     -33.838   5.577   3.045  1.00 20.00     0.133 C 
HETATM    2  O10 UNL     1     -34.350   5.247   1.976  1.00 20.00    -0.297 OA
ENDROOT
BRANCH   1   3
HETATM    3  C5  UNL     1     -34.633   5.580   4.305  1.00 20.00     0.081 C 
HETATM    4  C2  UNL     1     -34.902   4.196   4.860  1.00 20.00     0.040 C 
HETATM    5  C3  UNL     1     -35.228   4.501   6.307  1.00 20.00     0.168 C 
HETATM    6  O11 UNL     1     -34.422   5.627   6.675  1.00 20.00    -0.390 OA
HETATM    7  C4  UNL     1     -33.928   6.247   5.477  1.00 20.00     0.179 C 
ENDBRANCH   1   3
BRANCH   1   8
HETATM    8  C8  UNL     1     -32.395   6.042   3.162  1.00 20.00     0.082 C 
BRANCH   8   9
HETATM    9  C9  UNL     1     -32.231   7.569   3.118  1.00 20.00    -0.016 C 
HETATM   10  C6  UNL     1     -31.959   8.061   1.694  1.00 20.00     0.010 C 
HETATM   11  C7  UNL     1     -31.087   7.999   4.038  1.00 20.00     0.010 C 
ENDBRANCH   8   9
ENDBRANCH   1   8
TORSDOF 3
ENDMDL
MODEL 6
REMARK VINA RESULT:      -4.3     10.476     12.025
REMARK  3 active torsions:
REMARK  status: ('A' for Active; 'I' for Inactive)
REMARK    1  A    between atoms: C1_1  and  C5_5 
REMARK    2  A    between atoms: C1_1  and  C8_8 
REMARK    3  A    between atoms: C8_8  and  C9_9 
ROOT
HETATM    1  C1  UNL     1     -34.679  14.052  -3.984  1.00 20.00     0.133 C 
HETATM    2  O10 UNL     1     -33.787  13.242  -3.736  1.00 20.00    -0.297 OA
ENDROOT
BRANCH   1   3
HETATM    3  C5  UNL     1     -35.279  14.135  -5.345  1.00 20.00     0.081 C 
HETATM    4  C2  UNL     1     -36.533  14.983  -5.409  1.00 20.00     0.040 C 
HETATM    5  C3  UNL     1     -36.612  15.310  -6.885  1.00 20.00     0.168 C 
HETATM    6  O11 UNL     1     -35.260  15.421  -7.347  1.00 20.00    -0.390 OA
HETATM    7  C4  UNL     1     -34.391  14.825  -6.370  1.00 20.00     0.179 C 
ENDBRANCH   1   3
BRANCH   1   8
HETATM    8  C8  UNL     1     -35.202  15.047  -2.960  1.00 20.00     0.082 C 
BRANCH   8   9
HETATM    9  C9  UNL     1     -34.118  15.966  -2.378  1.00 20.00    -0.016 C 
HETATM   10  C6  UNL     1     -34.568  16.593  -1.055  1.00 20.00     0.010 C 
HETATM   11  C7  UNL     1     -33.774  17.070  -3.379  1.00 20.00     0.010 C 
ENDBRANCH   8   9
ENDBRANCH   1   8
TORSDOF 3
ENDMDL
MODEL 7
REMARK VINA RESULT:      -4.3     10.536     12.171
REMARK  3 active torsions:
REMARK  status: ('A' for Active; 'I' for Inactive)
REMARK    1  A    between atoms: C1_1  and  C5_5 
REMARK    2  A    between atoms: C1_1  and  C8_8 
REMARK    3  A    between atoms: C8_8  and  C9_9 
ROOT
HETATM    1  C1  UNL     1     -34.070  14.429  -3.896  1.00 20.00     0.133 C 
HETATM    2  O10 UNL     1     -34.107  13.281  -3.458  1.00 20.00    -0.297 OA
ENDROOT
BRANCH   1   3
HETATM    3  C5  UNL     1     -34.233  14.698  -5.353  1.00 20.00     0.081 C 
HETATM    4  C2  UNL     1     -35.673  14.663  -5.823  1.00 20.00     0.040 C 
HETATM    5  C3  UNL     1     -35.595  15.443  -7.118  1.00 20.00     0.168 C 
HETATM    6  O11 UNL     1     -34.591  16.447  -6.926  1.00 20.00    -0.390 OA
HETATM    7  C4  UNL     1     -33.809  16.098  -5.773  1.00 20.00     0.179 C 
ENDBRANCH   1   3
BRANCH   1   8
HETATM    8  C8  UNL     1     -33.815  15.643  -3.017  1.00 20.00     0.082 C 
BRANCH   8   9
HETATM    9  C9  UNL     1     -34.991  15.999  -2.095  1.00 20.00    -0.016 C 
HETATM   10  C6  UNL     1     -36.023  16.871  -2.817  1.00 20.00     0.010 C 
HETATM   11  C7  UNL     1     -34.480  16.729  -0.851  1.00 20.00     0.010 C 
ENDBRANCH   8   9
ENDBRANCH   1   8
TORSDOF 3
ENDMDL
MODEL 8
REMARK VINA RESULT:      -4.2     10.901     12.535
REMARK  3 active torsions:
REMARK  status: ('A' for Active; 'I' for Inactive)
REMARK    1  A    between atoms: C1_1  and  C5_5 
REMARK    2  A    between atoms: C1_1  and  C8_8 
REMARK    3  A    between atoms: C8_8  and  C9_9 
ROOT
HETATM    1  C1  UNL     1     -36.468  15.018  -4.233  1.00 20.00     0.133 C 
HETATM    2  O10 UNL     1     -37.140  14.086  -3.792  1.00 20.00    -0.297 OA
ENDROOT
BRANCH   1   3
HETATM    3  C5  UNL     1     -36.140  15.104  -5.683  1.00 20.00     0.081 C 
HETATM    4  C2  UNL     1     -35.596  16.453  -6.107  1.00 20.00     0.040 C 
HETATM    5  C3  UNL     1     -34.895  16.111  -7.405  1.00 20.00     0.168 C 
HETATM    6  O11 UNL     1     -34.373  14.787  -7.246  1.00 20.00    -0.390 OA
HETATM    7  C4  UNL     1     -35.017  14.173  -6.118  1.00 20.00     0.179 C 
ENDBRANCH   1   3
BRANCH   1   8
HETATM    8  C8  UNL     1     -35.891  16.112  -3.349  1.00 20.00     0.082 C 
BRANCH   8   9
HETATM    9  C9  UNL     1     -34.757  15.634  -2.430  1.00 20.00    -0.016 C 
HETATM   10  C6  UNL     1     -34.678  16.478  -1.155  1.00 20.00     0.010 C 
HETATM   11  C7  UNL     1     -33.420  15.695  -3.172  1.00 20.00     0.010 C 
ENDBRANCH   8   9
ENDBRANCH   1   8
TORSDOF 3
ENDMDL
MODEL 9
REMARK VINA RESULT:      -4.1     10.884     12.486
REMARK  3 active torsions:
REMARK  status: ('A' for Active; 'I' for Inactive)
REMARK    1  A    between atoms: C1_1  and  C5_5 
REMARK    2  A    between atoms: C1_1  and  C8_8 
REMARK    3  A    between atoms: C8_8  and  C9_9 
ROOT
HETATM    1  C1  UNL     1     -36.446  15.060  -4.165  1.00 20.00     0.133 C 
HETATM    2  O10 UNL     1     -37.030  14.035  -3.819  1.00 20.00    -0.297 OA
ENDROOT
BRANCH   1   3
HETATM    3  C5  UNL     1     -36.124  15.310  -5.598  1.00 20.00     0.081 C 
HETATM    4  C2  UNL     1     -35.204  14.272  -6.208  1.00 20.00     0.040 C 
HETATM    5  C3  UNL     1     -35.464  14.457  -7.687  1.00 20.00     0.168 C 
HETATM    6  O11 UNL     1     -36.844  14.821  -7.813  1.00 20.00    -0.390 OA
HETATM    7  C4  UNL     1     -37.329  15.231  -6.524  1.00 20.00     0.179 C 
ENDBRANCH   1   3
BRANCH   1   8
HETATM    8  C8  UNL     1     -35.972  16.117  -3.179  1.00 20.00     0.082 C 
BRANCH   8   9
HETATM    9  C9  UNL     1     -34.772  15.677  -2.328  1.00 20.00    -0.016 C 
HETATM   10  C6  UNL     1     -34.644  16.528  -1.061  1.00 20.00     0.010 C 
HETATM   11  C7  UNL     1     -33.484  15.777  -3.147  1.00 20.00     0.010 C 
ENDBRANCH   8   9
ENDBRANCH   1   8
TORSDOF 3
ENDMDL
