MODEL 1
REMARK VINA RESULT:      -4.3      0.000      0.000
REMARK  0 active torsions:
REMARK  status: ('A' for Active; 'I' for Inactive)
ROOT
HETATM    1  C1  UNL     1     -36.987  14.497  -3.955  1.00 20.00     0.101 C 
HETATM    2  C2  UNL     1     -33.437  15.748  -3.247  1.00 20.00     0.005 C 
HETATM    3  C3  UNL     1     -33.343  16.593  -4.511  1.00 20.00     0.030 C 
HETATM    4  C4  UNL     1     -34.881  15.321  -2.992  1.00 20.00     0.057 C 
HETATM    5  C5  UNL     1     -34.000  15.891  -5.697  1.00 20.00     0.272 C 
HETATM    6  C6  UNL     1     -35.538  14.660  -4.226  1.00 20.00     0.240 C 
HETATM    7  C7  UNL     1     -34.959  13.257  -4.487  1.00 20.00     0.066 C 
HETATM    8  N8  UNL     1     -38.120  14.369  -3.742  1.00 20.00    -0.195 NA
HETATM    9  N9  UNL     1     -35.389  15.518  -5.416  1.00 20.00     0.106 N 
HETATM   10  H21 UNL     1     -35.962  16.358  -5.321  1.00 20.00     0.318 HD
ENDROOT
TORSDOF 0
ENDMDL
MODEL 2
REMARK VINA RESULT:      -4.3      1.794      2.216
REMARK  0 active torsions:
REMARK  status: ('A' for Active; 'I' for Inactive)
ROOT
HETATM    1  C1  UNL     1     -34.526  13.737  -4.143  1.00 20.00     0.101 C 
HETATM    2  C2  UNL     1     -34.003  17.026  -2.250  1.00 20.00     0.005 C 
HETATM    3  C3  UNL     1     -34.147  17.909  -3.484  1.00 20.00     0.030 C 
HETATM    4  C4  UNL     1     -34.482  15.606  -2.548  1.00 20.00     0.057 C 
HETATM    5  C5  UNL     1     -33.484  17.273  -4.702  1.00 20.00     0.272 C 
HETATM    6  C6  UNL     1     -33.832  15.005  -3.815  1.00 20.00     0.240 C 
HETATM    7  C7  UNL     1     -32.347  14.670  -3.581  1.00 20.00     0.066 C 
HETATM    8  N8  UNL     1     -35.069  12.744  -4.398  1.00 20.00    -0.195 NA
HETATM    9  N9  UNL     1     -33.987  15.921  -4.962  1.00 20.00     0.106 N 
HETATM   10  H21 UNL     1     -34.965  15.964  -5.250  1.00 20.00     0.318 HD
ENDROOT
TORSDOF 0
ENDMDL
MODEL 3
REMARK VINA RESULT:      -4.3      1.074      1.499
REMARK  0 active torsions:
REMARK  status: ('A' for Active; 'I' for Inactive)
ROOT
HETATM    1  C1  UNL     1     -37.067  14.519  -4.081  1.00 20.00     0.101 C 
HETATM    2  C2  UNL     1     -33.313  13.766  -3.954  1.00 20.00     0.005 C 
HETATM    3  C3  UNL     1     -32.913  15.176  -3.537  1.00 20.00     0.030 C 
HETATM    4  C4  UNL     1     -34.819  13.566  -3.794  1.00 20.00     0.057 C 
HETATM    5  C5  UNL     1     -33.757  16.227  -4.252  1.00 20.00     0.272 C 
HETATM    6  C6  UNL     1     -35.649  14.673  -4.486  1.00 20.00     0.240 C 
HETATM    7  C7  UNL     1     -35.592  14.543  -6.019  1.00 20.00     0.066 C 
HETATM    8  N8  UNL     1     -38.177  14.397  -3.764  1.00 20.00    -0.195 NA
HETATM    9  N9  UNL     1     -35.193  16.009  -4.056  1.00 20.00     0.106 N 
HETATM   10  H21 UNL     1     -35.438  16.168  -3.078  1.00 20.00     0.318 HD
ENDROOT
TORSDOF 0
ENDMDL
MODEL 4
REMARK VINA RESULT:      -4.1      1.635      3.432
REMARK  0 active torsions:
REMARK  status: ('A' for Active; 'I' for Inactive)
ROOT
HETATM    1  C1  UNL     1     -33.919  17.495  -3.844  1.00 20.00     0.101 C 
HETATM    2  C2  UNL     1     -33.442  13.696  -3.712  1.00 20.00     0.005 C 
HETATM    3  C3  UNL     1     -34.726  13.379  -4.468  1.00 20.00     0.030 C 
HETATM    4  C4  UNL     1     -33.096  15.179  -3.841  1.00 20.00     0.057 C 
HETATM    5  C5  UNL     1     -35.858  14.317  -4.059  1.00 20.00     0.272 C 
HETATM    6  C6  UNL     1     -34.277  16.105  -3.468  1.00 20.00     0.240 C 
HETATM    7  C7  UNL     1     -34.543  16.094  -1.952  1.00 20.00     0.066 C 
HETATM    8  N8  UNL     1     -33.639  18.582  -4.138  1.00 20.00    -0.195 NA
HETATM    9  N9  UNL     1     -35.490  15.727  -4.217  1.00 20.00     0.106 N 
HETATM   10  H21 UNL     1     -35.378  15.947  -5.207  1.00 20.00     0.318 HD
ENDROOT
TORSDOF 0
ENDMDL
MODEL 5
REMARK VINA RESULT:      -4.1      1.904      2.685
REMARK  0 active torsions:
REMARK  status: ('A' for Active; 'I' for Inactive)
ROOT
HETATM    1  C1  UNL     1     -37.300  15.033  -3.605  1.00 20.00     0.101 C 
HETATM    2  C2  UNL     1     -33.756  16.044  -2.560  1.00 20.00     0.005 C 
HETATM    3  C3  UNL     1     -34.205  16.857  -1.352  1.00 20.00     0.030 C 
HETATM    4  C4  UNL     1     -34.903  15.180  -3.082  1.00 20.00     0.057 C 
HETATM    5  C5  UNL     1     -35.482  17.637  -1.651  1.00 20.00     0.272 C 
HETATM    6  C6  UNL     1     -36.199  15.987  -3.328  1.00 20.00     0.240 C 
HETATM    7  C7  UNL     1     -36.065  16.904  -4.557  1.00 20.00     0.066 C 
HETATM    8  N8  UNL     1     -38.161  14.286  -3.822  1.00 20.00    -0.195 NA
HETATM    9  N9  UNL     1     -36.560  16.767  -2.129  1.00 20.00     0.106 N 
HETATM   10  H21 UNL     1     -36.861  16.143  -1.379  1.00 20.00     0.318 HD
ENDROOT
TORSDOF 0
ENDMDL
MODEL 6
REMARK VINA RESULT:      -4.1     11.161     12.744
REMARK  0 active torsions:
REMARK  status: ('A' for Active; 'I' for Inactive)
ROOT
HETATM    1  C1  UNL     1     -41.723   3.123  -2.707  1.00 20.00     0.101 C 
HETATM    2  C2  UNL     1     -42.311   6.787  -1.756  1.00 20.00     0.005 C 
HETATM    3  C3  UNL     1     -41.008   6.929  -0.980  1.00 20.00     0.030 C 
HETATM    4  C4  UNL     1     -42.300   5.510  -2.593  1.00 20.00     0.057 C 
HETATM    5  C5  UNL     1     -40.696   5.667  -0.182  1.00 20.00     0.272 C 
HETATM    6  C6  UNL     1     -41.932   4.254  -1.770  1.00 20.00     0.240 C 
HETATM    7  C7  UNL     1     -43.071   3.854  -0.814  1.00 20.00     0.066 C 
HETATM    8  N8  UNL     1     -41.561   2.239  -3.440  1.00 20.00    -0.195 NA
HETATM    9  N9  UNL     1     -40.675   4.470  -1.028  1.00 20.00     0.106 N 
HETATM   10  H21 UNL     1     -39.886   4.515  -1.673  1.00 20.00     0.318 HD
ENDROOT
TORSDOF 0
ENDMDL
MODEL 7
REMARK VINA RESULT:      -4.0      1.706      2.679
REMARK  0 active torsions:
REMARK  status: ('A' for Active; 'I' for Inactive)
ROOT
HETATM    1  C1  UNL     1     -34.811  13.708  -4.430  1.00 20.00     0.101 C 
HETATM    2  C2  UNL     1     -33.672  16.650  -2.257  1.00 20.00     0.005 C 
HETATM    3  C3  UNL     1     -35.032  16.862  -1.604  1.00 20.00     0.030 C 
HETATM    4  C4  UNL     1     -33.630  15.308  -2.986  1.00 20.00     0.057 C 
HETATM    5  C5  UNL     1     -36.167  16.664  -2.605  1.00 20.00     0.272 C 
HETATM    6  C6  UNL     1     -34.818  15.114  -3.956  1.00 20.00     0.240 C 
HETATM    7  C7  UNL     1     -34.685  16.017  -5.196  1.00 20.00     0.066 C 
HETATM    8  N8  UNL     1     -34.806  12.609  -4.801  1.00 20.00    -0.195 NA
HETATM    9  N9  UNL     1     -36.098  15.357  -3.265  1.00 20.00     0.106 N 
HETATM   10  H21 UNL     1     -36.281  14.616  -2.587  1.00 20.00     0.318 HD
ENDROOT
TORSDOF 0
ENDMDL
MODEL 8
REMARK VINA RESULT:      -4.0      1.899      3.028
REMARK  0 active torsions:
REMARK  status: ('A' for Active; 'I' for Inactive)
ROOT
HETATM    1  C1  UNL     1     -34.425  15.817  -2.352  1.00 20.00     0.101 C 
HETATM    2  C2  UNL     1     -34.296  15.473  -6.165  1.00 20.00     0.005 C 
HETATM    3  C3  UNL     1     -35.120  14.192  -6.207  1.00 20.00     0.030 C 
HETATM    4  C4  UNL     1     -34.396  16.130  -4.789  1.00 20.00     0.057 C 
HETATM    5  C5  UNL     1     -34.763  13.264  -5.049  1.00 20.00     0.272 C 
HETATM    6  C6  UNL     1     -34.078  15.155  -3.633  1.00 20.00     0.240 C 
HETATM    7  C7  UNL     1     -32.577  14.812  -3.582  1.00 20.00     0.066 C 
HETATM    8  N8  UNL     1     -34.695  16.335  -1.350  1.00 20.00    -0.195 NA
HETATM    9  N9  UNL     1     -34.892  13.929  -3.749  1.00 20.00     0.106 N 
HETATM   10  H21 UNL     1     -35.873  14.138  -3.561  1.00 20.00     0.318 HD
ENDROOT
TORSDOF 0
ENDMDL
MODEL 9
REMARK VINA RESULT:      -4.0      2.112      2.670
REMARK  0 active torsions:
REMARK  status: ('A' for Active; 'I' for Inactive)
ROOT
HETATM    1  C1  UNL     1     -34.770  14.733  -6.687  1.00 20.00     0.101 C 
HETATM    2  C2  UNL     1     -35.467  15.538  -3.008  1.00 20.00     0.005 C 
HETATM    3  C3  UNL     1     -34.085  16.119  -2.739  1.00 20.00     0.030 C 
HETATM    4  C4  UNL     1     -35.703  15.387  -4.510  1.00 20.00     0.057 C 
HETATM    5  C5  UNL     1     -32.999  15.326  -3.460  1.00 20.00     0.272 C 
HETATM    6  C6  UNL     1     -34.564  14.624  -5.223  1.00 20.00     0.240 C 
HETATM    7  C7  UNL     1     -34.582  13.125  -4.867  1.00 20.00     0.066 C 
HETATM    8  N8  UNL     1     -34.933  14.819  -7.833  1.00 20.00    -0.195 NA
HETATM    9  N9  UNL     1     -33.255  15.223  -4.900  1.00 20.00     0.106 N 
HETATM   10  H21 UNL     1     -33.171  16.143  -5.334  1.00 20.00     0.318 HD
ENDROOT
TORSDOF 0
ENDMDL
