MODEL 1
REMARK VINA RESULT:      -5.3      0.000      0.000
REMARK  4 active torsions:
REMARK  status: ('A' for Active; 'I' for Inactive)
REMARK    1  A    between atoms: C3_3  and  C9_9 
REMARK    2  A    between atoms: C6_6  and  C8_8 
REMARK    3  A    between atoms: C7_7  and  C9_9 
REMARK    4  A    between atoms: C8_8  and  C9_9 
ROOT
HETATM    1  C1  UNL     1     -32.191   9.037   1.091  1.00 20.00     0.012 C 
HETATM    2  C2  UNL     1     -32.070   8.247   1.986  1.00 20.00    -0.117 C 
HETATM    3  C6  UNL     1     -31.918   7.280   3.082  1.00 20.00     0.093 C 
ENDROOT
BRANCH   3   4
HETATM    4  C8  UNL     1     -32.980   6.177   2.995  1.00 20.00     0.024 C 
BRANCH   4   5
HETATM    5  C9  UNL     1     -33.532   5.786   4.378  1.00 20.00     0.055 C 
BRANCH   5   6
HETATM    6  C3  UNL     1     -34.903   5.117   4.279  1.00 20.00     0.127 C 
HETATM    7  C4  UNL     1     -35.115   3.871   5.103  1.00 20.00     0.091 C 
HETATM    8  O10 UNL     1     -35.814   5.575   3.588  1.00 20.00    -0.298 OA
ENDBRANCH   5   6
BRANCH   5   9
HETATM    9  C7  UNL     1     -33.592   6.980   5.346  1.00 20.00     0.007 C 
HETATM   10  C5  UNL     1     -34.027   6.637   6.765  1.00 20.00     0.006 C 
ENDBRANCH   5   9
ENDBRANCH   4   5
ENDBRANCH   3   4
TORSDOF 4
ENDMDL
MODEL 2
REMARK VINA RESULT:      -5.2      1.609      2.339
REMARK  4 active torsions:
REMARK  status: ('A' for Active; 'I' for Inactive)
REMARK    1  A    between atoms: C3_3  and  C9_9 
REMARK    2  A    between atoms: C6_6  and  C8_8 
REMARK    3  A    between atoms: C7_7  and  C9_9 
REMARK    4  A    between atoms: C8_8  and  C9_9 
ROOT
HETATM    1  C1  UNL     1     -32.148   8.672   1.144  1.00 20.00     0.012 C 
HETATM    2  C2  UNL     1     -31.973   8.184   2.227  1.00 20.00    -0.117 C 
HETATM    3  C6  UNL     1     -31.757   7.589   3.554  1.00 20.00     0.093 C 
ENDROOT
BRANCH   3   4
HETATM    4  C8  UNL     1     -32.510   6.261   3.690  1.00 20.00     0.024 C 
BRANCH   4   5
HETATM    5  C9  UNL     1     -33.940   6.453   4.227  1.00 20.00     0.055 C 
BRANCH   5   6
HETATM    6  C3  UNL     1     -34.041   6.129   5.718  1.00 20.00     0.127 C 
HETATM    7  C4  UNL     1     -34.665   4.807   6.088  1.00 20.00     0.091 C 
HETATM    8  O10 UNL     1     -33.613   6.888   6.589  1.00 20.00    -0.298 OA
ENDBRANCH   5   6
BRANCH   5   9
HETATM    9  C7  UNL     1     -34.980   5.639   3.436  1.00 20.00     0.007 C 
HETATM   10  C5  UNL     1     -34.443   4.947   2.190  1.00 20.00     0.006 C 
ENDBRANCH   5   9
ENDBRANCH   4   5
ENDBRANCH   3   4
TORSDOF 4
ENDMDL
MODEL 3
REMARK VINA RESULT:      -4.8      1.371      2.469
REMARK  4 active torsions:
REMARK  status: ('A' for Active; 'I' for Inactive)
REMARK    1  A    between atoms: C3_3  and  C9_9 
REMARK    2  A    between atoms: C6_6  and  C8_8 
REMARK    3  A    between atoms: C7_7  and  C9_9 
REMARK    4  A    between atoms: C8_8  and  C9_9 
ROOT
HETATM    1  C1  UNL     1     -32.163   8.727   1.127  1.00 20.00     0.012 C 
HETATM    2  C2  UNL     1     -31.995   8.234   2.208  1.00 20.00    -0.117 C 
HETATM    3  C6  UNL     1     -31.786   7.632   3.533  1.00 20.00     0.093 C 
ENDROOT
BRANCH   3   4
HETATM    4  C8  UNL     1     -32.503   6.281   3.643  1.00 20.00     0.024 C 
BRANCH   4   5
HETATM    5  C9  UNL     1     -33.935   6.422   4.188  1.00 20.00     0.055 C 
BRANCH   5   6
HETATM    6  C3  UNL     1     -34.026   6.041   5.667  1.00 20.00     0.127 C 
HETATM    7  C4  UNL     1     -33.621   7.093   6.669  1.00 20.00     0.091 C 
HETATM    8  O10 UNL     1     -34.434   4.941   6.041  1.00 20.00    -0.298 OA
ENDBRANCH   5   6
BRANCH   5   9
HETATM    9  C7  UNL     1     -34.959   5.618   3.369  1.00 20.00     0.007 C 
HETATM   10  C5  UNL     1     -34.408   4.976   2.102  1.00 20.00     0.006 C 
ENDBRANCH   5   9
ENDBRANCH   4   5
ENDBRANCH   3   4
TORSDOF 4
ENDMDL
MODEL 4
REMARK VINA RESULT:      -4.8     10.994     11.948
REMARK  4 active torsions:
REMARK  status: ('A' for Active; 'I' for Inactive)
REMARK    1  A    between atoms: C3_3  and  C9_9 
REMARK    2  A    between atoms: C6_6  and  C8_8 
REMARK    3  A    between atoms: C7_7  and  C9_9 
REMARK    4  A    between atoms: C8_8  and  C9_9 
ROOT
HETATM    1  C1  UNL     1     -34.391  15.895  -7.155  1.00 20.00     0.012 C 
HETATM    2  C2  UNL     1     -33.918  16.141  -6.080  1.00 20.00    -0.117 C 
HETATM    3  C6  UNL     1     -33.337  16.445  -4.764  1.00 20.00     0.093 C 
ENDROOT
BRANCH   3   4
HETATM    4  C8  UNL     1     -33.095  15.162  -3.960  1.00 20.00     0.024 C 
BRANCH   4   5
HETATM    5  C9  UNL     1     -34.318  14.763  -3.115  1.00 20.00     0.055 C 
BRANCH   5   6
HETATM    6  C3  UNL     1     -35.283  13.864  -3.891  1.00 20.00     0.127 C 
HETATM    7  C4  UNL     1     -36.663  14.413  -4.154  1.00 20.00     0.091 C 
HETATM    8  O10 UNL     1     -34.957  12.754  -4.312  1.00 20.00    -0.298 OA
ENDBRANCH   5   6
BRANCH   5   9
HETATM    9  C7  UNL     1     -35.067  15.983  -2.550  1.00 20.00     0.007 C 
HETATM   10  C5  UNL     1     -34.587  16.457  -1.185  1.00 20.00     0.006 C 
ENDBRANCH   5   9
ENDBRANCH   4   5
ENDBRANCH   3   4
TORSDOF 4
ENDMDL
MODEL 5
REMARK VINA RESULT:      -4.6      1.982      4.744
REMARK  4 active torsions:
REMARK  status: ('A' for Active; 'I' for Inactive)
REMARK    1  A    between atoms: C3_3  and  C9_9 
REMARK    2  A    between atoms: C6_6  and  C8_8 
REMARK    3  A    between atoms: C7_7  and  C9_9 
REMARK    4  A    between atoms: C8_8  and  C9_9 
ROOT
HETATM    1  C1  UNL     1     -35.141   3.904   5.987  1.00 20.00     0.012 C 
HETATM    2  C2  UNL     1     -34.621   4.985   6.033  1.00 20.00    -0.117 C 
HETATM    3  C6  UNL     1     -33.984   6.308   6.091  1.00 20.00     0.093 C 
ENDROOT
BRANCH   3   4
HETATM    4  C8  UNL     1     -33.907   6.944   4.699  1.00 20.00     0.024 C 
BRANCH   4   5
HETATM    5  C9  UNL     1     -32.717   6.414   3.879  1.00 20.00     0.055 C 
BRANCH   5   6
HETATM    6  C3  UNL     1     -31.788   7.540   3.423  1.00 20.00     0.127 C 
HETATM    7  C4  UNL     1     -32.040   8.119   2.054  1.00 20.00     0.091 C 
HETATM    8  O10 UNL     1     -30.889   7.984   4.138  1.00 20.00    -0.298 OA
ENDBRANCH   5   6
BRANCH   5   9
HETATM    9  C7  UNL     1     -33.163   5.572   2.671  1.00 20.00     0.007 C 
HETATM   10  C5  UNL     1     -34.666   5.357   2.556  1.00 20.00     0.006 C 
ENDBRANCH   5   9
ENDBRANCH   4   5
ENDBRANCH   3   4
TORSDOF 4
ENDMDL
MODEL 6
REMARK VINA RESULT:      -4.5     11.338     12.010
REMARK  4 active torsions:
REMARK  status: ('A' for Active; 'I' for Inactive)
REMARK    1  A    between atoms: C3_3  and  C9_9 
REMARK    2  A    between atoms: C6_6  and  C8_8 
REMARK    3  A    between atoms: C7_7  and  C9_9 
REMARK    4  A    between atoms: C8_8  and  C9_9 
ROOT
HETATM    1  C1  UNL     1     -34.823  16.999  -0.249  1.00 20.00     0.012 C 
HETATM    2  C2  UNL     1     -34.337  16.627  -1.282  1.00 20.00    -0.117 C 
HETATM    3  C6  UNL     1     -33.740  16.173  -2.546  1.00 20.00     0.093 C 
ENDROOT
BRANCH   3   4
HETATM    4  C8  UNL     1     -34.798  16.072  -3.650  1.00 20.00     0.024 C 
BRANCH   4   5
HETATM    5  C9  UNL     1     -35.576  14.744  -3.594  1.00 20.00     0.055 C 
BRANCH   5   6
HETATM    6  C3  UNL     1     -35.138  13.776  -4.694  1.00 20.00     0.127 C 
HETATM    7  C4  UNL     1     -34.959  14.352  -6.077  1.00 20.00     0.091 C 
HETATM    8  O10 UNL     1     -34.910  12.586  -4.475  1.00 20.00    -0.298 OA
ENDBRANCH   5   6
BRANCH   5   9
HETATM    9  C7  UNL     1     -37.100  14.952  -3.645  1.00 20.00     0.007 C 
HETATM   10  C5  UNL     1     -37.554  16.404  -3.572  1.00 20.00     0.006 C 
ENDBRANCH   5   9
ENDBRANCH   4   5
ENDBRANCH   3   4
TORSDOF 4
ENDMDL
MODEL 7
REMARK VINA RESULT:      -4.5     10.515     12.430
REMARK  4 active torsions:
REMARK  status: ('A' for Active; 'I' for Inactive)
REMARK    1  A    between atoms: C3_3  and  C9_9 
REMARK    2  A    between atoms: C6_6  and  C8_8 
REMARK    3  A    between atoms: C7_7  and  C9_9 
REMARK    4  A    between atoms: C8_8  and  C9_9 
ROOT
HETATM    1  C1  UNL     1     -34.349  16.661  -1.287  1.00 20.00     0.012 C 
HETATM    2  C2  UNL     1     -34.087  16.950  -2.423  1.00 20.00    -0.117 C 
HETATM    3  C6  UNL     1     -33.768  17.307  -3.812  1.00 20.00     0.093 C 
ENDROOT
BRANCH   3   4
HETATM    4  C8  UNL     1     -33.474  16.056  -4.648  1.00 20.00     0.024 C 
BRANCH   4   5
HETATM    5  C9  UNL     1     -34.666  15.082  -4.682  1.00 20.00     0.055 C 
BRANCH   5   6
HETATM    6  C3  UNL     1     -34.263  13.667  -4.266  1.00 20.00     0.127 C 
HETATM    7  C4  UNL     1     -32.949  13.518  -3.541  1.00 20.00     0.091 C 
HETATM    8  O10 UNL     1     -34.977  12.687  -4.480  1.00 20.00    -0.298 OA
ENDBRANCH   5   6
BRANCH   5   9
HETATM    9  C7  UNL     1     -35.363  15.054  -6.054  1.00 20.00     0.007 C 
HETATM   10  C5  UNL     1     -34.425  14.975  -7.251  1.00 20.00     0.006 C 
ENDBRANCH   5   9
ENDBRANCH   4   5
ENDBRANCH   3   4
TORSDOF 4
ENDMDL
MODEL 8
REMARK VINA RESULT:      -4.5     11.097     12.132
REMARK  4 active torsions:
REMARK  status: ('A' for Active; 'I' for Inactive)
REMARK    1  A    between atoms: C3_3  and  C9_9 
REMARK    2  A    between atoms: C6_6  and  C8_8 
REMARK    3  A    between atoms: C7_7  and  C9_9 
REMARK    4  A    between atoms: C8_8  and  C9_9 
ROOT
HETATM    1  C1  UNL     1     -35.160  17.401   0.758  1.00 20.00     0.012 C 
HETATM    2  C2  UNL     1     -34.683  17.048  -0.285  1.00 20.00    -0.117 C 
HETATM    3  C6  UNL     1     -34.097  16.620  -1.563  1.00 20.00     0.093 C 
ENDROOT
BRANCH   3   4
HETATM    4  C8  UNL     1     -35.049  15.688  -2.320  1.00 20.00     0.024 C 
BRANCH   4   5
HETATM    5  C9  UNL     1     -34.639  15.502  -3.792  1.00 20.00     0.055 C 
BRANCH   5   6
HETATM    6  C3  UNL     1     -34.493  14.026  -4.165  1.00 20.00     0.127 C 
HETATM    7  C4  UNL     1     -34.855  13.641  -5.578  1.00 20.00     0.091 C 
HETATM    8  O10 UNL     1     -34.076  13.182  -3.371  1.00 20.00    -0.298 OA
ENDBRANCH   5   6
BRANCH   5   9
HETATM    9  C7  UNL     1     -33.351  16.268  -4.145  1.00 20.00     0.007 C 
HETATM   10  C5  UNL     1     -33.467  17.203  -5.342  1.00 20.00     0.006 C 
ENDBRANCH   5   9
ENDBRANCH   4   5
ENDBRANCH   3   4
TORSDOF 4
ENDMDL
MODEL 9
REMARK VINA RESULT:      -4.4     11.197     12.552
REMARK  4 active torsions:
REMARK  status: ('A' for Active; 'I' for Inactive)
REMARK    1  A    between atoms: C3_3  and  C9_9 
REMARK    2  A    between atoms: C6_6  and  C8_8 
REMARK    3  A    between atoms: C7_7  and  C9_9 
REMARK    4  A    between atoms: C8_8  and  C9_9 
ROOT
HETATM    1  C1  UNL     1     -33.086  18.776  -1.009  1.00 20.00     0.012 C 
HETATM    2  C2  UNL     1     -33.761  17.788  -0.908  1.00 20.00    -0.117 C 
HETATM    3  C6  UNL     1     -34.587  16.579  -0.781  1.00 20.00     0.093 C 
ENDROOT
BRANCH   3   4
HETATM    4  C8  UNL     1     -35.054  16.086  -2.156  1.00 20.00     0.024 C 
BRANCH   4   5
HETATM    5  C9  UNL     1     -33.883  15.614  -3.036  1.00 20.00     0.055 C 
BRANCH   5   6
HETATM    6  C3  UNL     1     -33.718  16.483  -4.284  1.00 20.00     0.127 C 
HETATM    7  C4  UNL     1     -34.776  17.529  -4.531  1.00 20.00     0.091 C 
HETATM    8  O10 UNL     1     -32.758  16.368  -5.047  1.00 20.00    -0.298 OA
ENDBRANCH   5   6
BRANCH   5   9
HETATM    9  C7  UNL     1     -34.006  14.132  -3.434  1.00 20.00     0.007 C 
HETATM   10  C5  UNL     1     -35.291  13.767  -4.164  1.00 20.00     0.006 C 
ENDBRANCH   5   9
ENDBRANCH   4   5
ENDBRANCH   3   4
TORSDOF 4
ENDMDL
