MODEL 1
REMARK VINA RESULT:      -4.1      0.000      0.000
REMARK  2 active torsions:
REMARK  status: ('A' for Active; 'I' for Inactive)
REMARK    1  A    between atoms: C5_5  and  N8_8 
REMARK    2  A    between atoms: C6_6  and  N8_8 
ROOT
HETATM    1  N8  UNL     1     -34.727  15.321  -2.702  1.00 20.00     0.097 N 
HETATM    2  H22 UNL     1     -35.657  15.683  -2.503  1.00 20.00     0.317 HD
ENDROOT
BRANCH   1   3
HETATM    3  C5  UNL     1     -33.746  16.381  -2.455  1.00 20.00     0.225 A 
HETATM    4  C1  UNL     1     -34.150  17.830  -2.540  1.00 20.00     0.042 A 
HETATM    5  C4  UNL     1     -33.777  17.234  -1.210  1.00 20.00     0.016 A 
HETATM    6  C7  UNL     1     -34.809  17.064  -0.149  1.00 20.00     0.012 C 
ENDBRANCH   1   3
BRANCH   1   7
HETATM    7  C6  UNL     1     -34.663  14.877  -4.084  1.00 20.00     0.268 C 
HETATM    8  C2  UNL     1     -35.833  13.930  -4.350  1.00 20.00     0.205 C 
HETATM    9  O9  UNL     1     -34.984  12.768  -4.172  1.00 20.00    -0.387 OA
HETATM   10  C3  UNL     1     -33.806  13.614  -4.153  1.00 20.00     0.205 C 
ENDBRANCH   1   7
TORSDOF 2
ENDMDL
MODEL 2
REMARK VINA RESULT:      -3.8      2.054      2.290
REMARK  2 active torsions:
REMARK  status: ('A' for Active; 'I' for Inactive)
REMARK    1  A    between atoms: C5_5  and  N8_8 
REMARK    2  A    between atoms: C6_6  and  N8_8 
ROOT
HETATM    1  N8  UNL     1     -36.589  16.503  -2.579  1.00 20.00     0.097 N 
HETATM    2  H22 UNL     1     -36.600  17.520  -2.541  1.00 20.00     0.317 HD
ENDROOT
BRANCH   1   3
HETATM    3  C5  UNL     1     -35.219  16.038  -2.345  1.00 20.00     0.225 A 
HETATM    4  C1  UNL     1     -34.057  16.990  -2.472  1.00 20.00     0.042 A 
HETATM    5  C4  UNL     1     -34.428  16.438  -1.123  1.00 20.00     0.016 A 
HETATM    6  C7  UNL     1     -34.981  17.338  -0.072  1.00 20.00     0.012 C 
ENDBRANCH   1   3
BRANCH   1   7
HETATM    7  C6  UNL     1     -37.066  16.058  -3.877  1.00 20.00     0.268 C 
HETATM    8  C2  UNL     1     -38.496  15.541  -3.723  1.00 20.00     0.205 C 
HETATM    9  O9  UNL     1     -38.035  14.167  -3.671  1.00 20.00    -0.387 OA
HETATM   10  C3  UNL     1     -36.700  14.585  -4.054  1.00 20.00     0.205 C 
ENDBRANCH   1   7
TORSDOF 2
ENDMDL
MODEL 3
REMARK VINA RESULT:      -3.6     11.472     12.211
REMARK  2 active torsions:
REMARK  status: ('A' for Active; 'I' for Inactive)
REMARK    1  A    between atoms: C5_5  and  N8_8 
REMARK    2  A    between atoms: C6_6  and  N8_8 
ROOT
HETATM    1  N8  UNL     1     -34.164   6.522   3.925  1.00 20.00     0.097 N 
HETATM    2  H22 UNL     1     -34.436   7.496   4.038  1.00 20.00     0.317 HD
ENDROOT
BRANCH   1   3
HETATM    3  C5  UNL     1     -33.603   6.040   5.190  1.00 20.00     0.225 A 
HETATM    4  C1  UNL     1     -34.367   6.209   6.478  1.00 20.00     0.042 A 
HETATM    5  C4  UNL     1     -34.153   4.833   5.909  1.00 20.00     0.016 A 
HETATM    6  C7  UNL     1     -35.309   4.050   5.388  1.00 20.00     0.012 C 
ENDBRANCH   1   3
BRANCH   1   7
HETATM    7  C6  UNL     1     -33.187   6.410   2.856  1.00 20.00     0.268 C 
HETATM    8  C2  UNL     1     -31.805   6.202   3.474  1.00 20.00     0.205 C 
HETATM    9  O9  UNL     1     -31.481   7.607   3.319  1.00 20.00    -0.387 OA
HETATM   10  C3  UNL     1     -32.671   7.807   2.515  1.00 20.00     0.205 C 
ENDBRANCH   1   7
TORSDOF 2
ENDMDL
MODEL 4
REMARK VINA RESULT:      -3.6      2.929      4.102
REMARK  2 active torsions:
REMARK  status: ('A' for Active; 'I' for Inactive)
REMARK    1  A    between atoms: C5_5  and  N8_8 
REMARK    2  A    between atoms: C6_6  and  N8_8 
ROOT
HETATM    1  N8  UNL     1     -33.042  15.982  -5.017  1.00 20.00     0.097 N 
HETATM    2  H22 UNL     1     -33.166  15.347  -5.802  1.00 20.00     0.317 HD
ENDROOT
BRANCH   1   3
HETATM    3  C5  UNL     1     -33.084  15.208  -3.773  1.00 20.00     0.225 A 
HETATM    4  C1  UNL     1     -34.370  15.080  -2.996  1.00 20.00     0.042 A 
HETATM    5  C4  UNL     1     -33.783  13.873  -3.677  1.00 20.00     0.016 A 
HETATM    6  C7  UNL     1     -34.484  13.252  -4.835  1.00 20.00     0.012 C 
ENDBRANCH   1   3
BRANCH   1   7
HETATM    7  C6  UNL     1     -34.092  16.986  -5.031  1.00 20.00     0.268 C 
HETATM    8  C2  UNL     1     -34.908  16.823  -6.313  1.00 20.00     0.205 C 
HETATM    9  O9  UNL     1     -34.181  17.899  -6.959  1.00 20.00    -0.387 OA
HETATM   10  C3  UNL     1     -33.553  18.249  -5.699  1.00 20.00     0.205 C 
ENDBRANCH   1   7
TORSDOF 2
ENDMDL
MODEL 5
REMARK VINA RESULT:      -3.6     12.188     14.240
REMARK  2 active torsions:
REMARK  status: ('A' for Active; 'I' for Inactive)
REMARK    1  A    between atoms: C5_5  and  N8_8 
REMARK    2  A    between atoms: C6_6  and  N8_8 
ROOT
HETATM    1  N8  UNL     1     -41.500   3.776  -1.971  1.00 20.00     0.097 N 
HETATM    2  H22 UNL     1     -41.029   4.110  -2.808  1.00 20.00     0.317 HD
ENDROOT
BRANCH   1   3
HETATM    3  C5  UNL     1     -42.631   2.934  -2.370  1.00 20.00     0.225 A 
HETATM    4  C1  UNL     1     -43.251   3.085  -3.735  1.00 20.00     0.042 A 
HETATM    5  C4  UNL     1     -42.495   1.831  -3.391  1.00 20.00     0.016 A 
HETATM    6  C7  UNL     1     -41.204   1.524  -4.070  1.00 20.00     0.012 C 
ENDBRANCH   1   3
BRANCH   1   7
HETATM    7  C6  UNL     1     -41.959   4.909  -1.185  1.00 20.00     0.268 C 
HETATM    8  C2  UNL     1     -42.048   6.134  -2.095  1.00 20.00     0.205 C 
HETATM    9  O9  UNL     1     -40.762   6.620  -1.633  1.00 20.00    -0.387 OA
HETATM   10  C3  UNL     1     -40.743   5.614  -0.587  1.00 20.00     0.205 C 
ENDBRANCH   1   7
TORSDOF 2
ENDMDL
MODEL 6
REMARK VINA RESULT:      -3.6      2.706      3.744
REMARK  2 active torsions:
REMARK  status: ('A' for Active; 'I' for Inactive)
REMARK    1  A    between atoms: C5_5  and  N8_8 
REMARK    2  A    between atoms: C6_6  and  N8_8 
ROOT
HETATM    1  N8  UNL     1     -33.817  15.208  -5.745  1.00 20.00     0.097 N 
HETATM    2  H22 UNL     1     -32.800  15.176  -5.756  1.00 20.00     0.317 HD
ENDROOT
BRANCH   1   3
HETATM    3  C5  UNL     1     -34.313  14.123  -4.893  1.00 20.00     0.225 A 
HETATM    4  C1  UNL     1     -33.434  13.530  -3.823  1.00 20.00     0.042 A 
HETATM    5  C4  UNL     1     -34.648  14.329  -3.436  1.00 20.00     0.016 A 
HETATM    6  C7  UNL     1     -34.493  15.647  -2.759  1.00 20.00     0.012 C 
ENDBRANCH   1   3
BRANCH   1   7
HETATM    7  C6  UNL     1     -34.325  15.069  -7.098  1.00 20.00     0.268 C 
HETATM    8  C2  UNL     1     -34.904  16.412  -7.545  1.00 20.00     0.205 C 
HETATM    9  O9  UNL     1     -36.252  15.979  -7.234  1.00 20.00    -0.387 OA
HETATM   10  C3  UNL     1     -35.784  14.621  -7.030  1.00 20.00     0.205 C 
ENDBRANCH   1   7
TORSDOF 2
ENDMDL
MODEL 7
REMARK VINA RESULT:      -3.5     11.169     11.972
REMARK  2 active torsions:
REMARK  status: ('A' for Active; 'I' for Inactive)
REMARK    1  A    between atoms: C5_5  and  N8_8 
REMARK    2  A    between atoms: C6_6  and  N8_8 
ROOT
HETATM    1  N8  UNL     1     -41.385   7.304  -2.200  1.00 20.00     0.097 N 
HETATM    2  H22 UNL     1     -41.091   6.532  -2.793  1.00 20.00     0.317 HD
ENDROOT
BRANCH   1   3
HETATM    3  C5  UNL     1     -41.098   6.963  -0.804  1.00 20.00     0.225 A 
HETATM    4  C1  UNL     1     -42.102   6.193   0.015  1.00 20.00     0.042 A 
HETATM    5  C4  UNL     1     -40.795   5.551  -0.365  1.00 20.00     0.016 A 
HETATM    6  C7  UNL     1     -40.772   4.405  -1.316  1.00 20.00     0.012 C 
ENDBRANCH   1   3
BRANCH   1   7
HETATM    7  C6  UNL     1     -42.806   7.547  -2.386  1.00 20.00     0.268 C 
HETATM    8  C2  UNL     1     -43.375   6.459  -3.295  1.00 20.00     0.205 C 
HETATM    9  O9  UNL     1     -43.303   7.332  -4.451  1.00 20.00    -0.387 OA
HETATM   10  C3  UNL     1     -42.992   8.461  -3.596  1.00 20.00     0.205 C 
ENDBRANCH   1   7
TORSDOF 2
ENDMDL
MODEL 8
REMARK VINA RESULT:      -3.5      2.673      4.317
REMARK  2 active torsions:
REMARK  status: ('A' for Active; 'I' for Inactive)
REMARK    1  A    between atoms: C5_5  and  N8_8 
REMARK    2  A    between atoms: C6_6  and  N8_8 
ROOT
HETATM    1  N8  UNL     1     -33.970  15.180  -5.639  1.00 20.00     0.097 N 
HETATM    2  H22 UNL     1     -32.997  15.468  -5.704  1.00 20.00     0.317 HD
ENDROOT
BRANCH   1   3
HETATM    3  C5  UNL     1     -34.817  16.267  -6.139  1.00 20.00     0.225 A 
HETATM    4  C1  UNL     1     -34.572  16.862  -7.501  1.00 20.00     0.042 A 
HETATM    5  C4  UNL     1     -35.821  16.063  -7.247  1.00 20.00     0.016 A 
HETATM    6  C7  UNL     1     -36.018  14.746  -7.916  1.00 20.00     0.012 C 
ENDBRANCH   1   3
BRANCH   1   7
HETATM    7  C6  UNL     1     -34.296  14.871  -4.257  1.00 20.00     0.268 C 
HETATM    8  C2  UNL     1     -33.581  13.579  -3.862  1.00 20.00     0.205 C 
HETATM    9  O9  UNL     1     -34.783  12.800  -4.084  1.00 20.00    -0.387 OA
HETATM   10  C3  UNL     1     -35.561  14.015  -4.232  1.00 20.00     0.205 C 
ENDBRANCH   1   7
TORSDOF 2
ENDMDL
MODEL 9
REMARK VINA RESULT:      -3.5     11.526     12.277
REMARK  2 active torsions:
REMARK  status: ('A' for Active; 'I' for Inactive)
REMARK    1  A    between atoms: C5_5  and  N8_8 
REMARK    2  A    between atoms: C6_6  and  N8_8 
ROOT
HETATM    1  N8  UNL     1     -34.362   5.957   3.534  1.00 20.00     0.097 N 
HETATM    2  H22 UNL     1     -34.343   5.177   2.882  1.00 20.00     0.317 HD
ENDROOT
BRANCH   1   3
HETATM    3  C5  UNL     1     -32.993   6.227   3.984  1.00 20.00     0.225 A 
HETATM    4  C1  UNL     1     -31.815   5.785   3.155  1.00 20.00     0.042 A 
HETATM    5  C4  UNL     1     -32.111   7.252   3.314  1.00 20.00     0.016 A 
HETATM    6  C7  UNL     1     -32.565   8.055   2.144  1.00 20.00     0.012 C 
ENDBRANCH   1   3
BRANCH   1   7
HETATM    7  C6  UNL     1     -35.216   5.629   4.663  1.00 20.00     0.268 C 
HETATM    8  C2  UNL     1     -34.384   5.692   5.943  1.00 20.00     0.205 C 
HETATM    9  O9  UNL     1     -34.208   4.253   5.946  1.00 20.00    -0.387 OA
HETATM   10  C3  UNL     1     -35.182   4.118   4.880  1.00 20.00     0.205 C 
ENDBRANCH   1   7
TORSDOF 2
ENDMDL
