MODEL 1
REMARK VINA RESULT:      -5.2      0.000      0.000
REMARK  4 active torsions:
REMARK  status: ('A' for Active; 'I' for Inactive)
REMARK    1  A    between atoms: C3_3  and  C9_9 
REMARK    2  A    between atoms: C6_6  and  C8_8 
REMARK    3  A    between atoms: C7_7  and  C9_9 
REMARK    4  A    between atoms: C8_8  and  C9_9 
ROOT
HETATM    1  C1  UNL     1     -32.138   8.840   1.247  1.00 20.00     0.012 C 
HETATM    2  C2  UNL     1     -32.037   8.112   2.196  1.00 20.00    -0.117 C 
HETATM    3  C6  UNL     1     -31.909   7.221   3.359  1.00 20.00     0.093 C 
ENDROOT
BRANCH   3   4
HETATM    4  C8  UNL     1     -32.987   6.130   3.337  1.00 20.00     0.024 C 
BRANCH   4   5
HETATM    5  C9  UNL     1     -34.006   6.294   4.479  1.00 20.00     0.055 C 
BRANCH   5   6
HETATM    6  C3  UNL     1     -35.138   5.268   4.391  1.00 20.00     0.127 C 
HETATM    7  C4  UNL     1     -35.086   4.112   5.357  1.00 20.00     0.091 C 
HETATM    8  O10 UNL     1     -36.070   5.379   3.594  1.00 20.00    -0.298 OA
ENDBRANCH   5   6
BRANCH   5   9
HETATM    9  C7  UNL     1     -33.341   6.235   5.865  1.00 20.00     0.007 C 
HETATM   10  C5  UNL     1     -33.702   7.382   6.800  1.00 20.00     0.006 C 
ENDBRANCH   5   9
ENDBRANCH   4   5
ENDBRANCH   3   4
TORSDOF 4
ENDMDL
MODEL 2
REMARK VINA RESULT:      -4.9      1.550      2.188
REMARK  4 active torsions:
REMARK  status: ('A' for Active; 'I' for Inactive)
REMARK    1  A    between atoms: C3_3  and  C9_9 
REMARK    2  A    between atoms: C6_6  and  C8_8 
REMARK    3  A    between atoms: C7_7  and  C9_9 
REMARK    4  A    between atoms: C8_8  and  C9_9 
ROOT
HETATM    1  C1  UNL     1     -32.159   9.092   1.433  1.00 20.00     0.012 C 
HETATM    2  C2  UNL     1     -32.109   8.091   2.094  1.00 20.00    -0.117 C 
HETATM    3  C6  UNL     1     -32.045   6.864   2.900  1.00 20.00     0.093 C 
ENDROOT
BRANCH   3   4
HETATM    4  C8  UNL     1     -32.982   6.951   4.111  1.00 20.00     0.024 C 
BRANCH   4   5
HETATM    5  C9  UNL     1     -33.644   5.599   4.436  1.00 20.00     0.055 C 
BRANCH   5   6
HETATM    6  C3  UNL     1     -34.312   5.602   5.812  1.00 20.00     0.127 C 
HETATM    7  C4  UNL     1     -35.058   4.355   6.209  1.00 20.00     0.091 C 
HETATM    8  O10 UNL     1     -34.231   6.559   6.583  1.00 20.00    -0.298 OA
ENDBRANCH   5   6
BRANCH   5   9
HETATM    9  C7  UNL     1     -34.652   5.172   3.356  1.00 20.00     0.007 C 
HETATM   10  C5  UNL     1     -35.933   5.997   3.309  1.00 20.00     0.006 C 
ENDBRANCH   5   9
ENDBRANCH   4   5
ENDBRANCH   3   4
TORSDOF 4
ENDMDL
MODEL 3
REMARK VINA RESULT:      -4.7     11.032     11.872
REMARK  4 active torsions:
REMARK  status: ('A' for Active; 'I' for Inactive)
REMARK    1  A    between atoms: C3_3  and  C9_9 
REMARK    2  A    between atoms: C6_6  and  C8_8 
REMARK    3  A    between atoms: C7_7  and  C9_9 
REMARK    4  A    between atoms: C8_8  and  C9_9 
ROOT
HETATM    1  C1  UNL     1     -35.173  17.392   0.790  1.00 20.00     0.012 C 
HETATM    2  C2  UNL     1     -34.671  17.103  -0.261  1.00 20.00    -0.117 C 
HETATM    3  C6  UNL     1     -34.054  16.752  -1.549  1.00 20.00     0.093 C 
ENDROOT
BRANCH   3   4
HETATM    4  C8  UNL     1     -34.986  15.864  -2.382  1.00 20.00     0.024 C 
BRANCH   4   5
HETATM    5  C9  UNL     1     -34.235  14.703  -3.059  1.00 20.00     0.055 C 
BRANCH   5   6
HETATM    6  C3  UNL     1     -35.158  13.857  -3.939  1.00 20.00     0.127 C 
HETATM    7  C4  UNL     1     -36.563  14.364  -4.137  1.00 20.00     0.091 C 
HETATM    8  O10 UNL     1     -34.779  12.823  -4.491  1.00 20.00    -0.298 OA
ENDBRANCH   5   6
BRANCH   5   9
HETATM    9  C7  UNL     1     -33.024  15.190  -3.872  1.00 20.00     0.007 C 
HETATM   10  C5  UNL     1     -33.351  16.179  -4.984  1.00 20.00     0.006 C 
ENDBRANCH   5   9
ENDBRANCH   4   5
ENDBRANCH   3   4
TORSDOF 4
ENDMDL
MODEL 4
REMARK VINA RESULT:      -4.6     11.230     12.331
REMARK  4 active torsions:
REMARK  status: ('A' for Active; 'I' for Inactive)
REMARK    1  A    between atoms: C3_3  and  C9_9 
REMARK    2  A    between atoms: C6_6  and  C8_8 
REMARK    3  A    between atoms: C7_7  and  C9_9 
REMARK    4  A    between atoms: C8_8  and  C9_9 
ROOT
HETATM    1  C1  UNL     1     -34.686  16.690  -0.657  1.00 20.00     0.012 C 
HETATM    2  C2  UNL     1     -34.211  16.635  -1.758  1.00 20.00    -0.117 C 
HETATM    3  C6  UNL     1     -33.631  16.572  -3.107  1.00 20.00     0.093 C 
ENDROOT
BRANCH   3   4
HETATM    4  C8  UNL     1     -33.204  15.140  -3.455  1.00 20.00     0.024 C 
BRANCH   4   5
HETATM    5  C9  UNL     1     -33.921  14.605  -4.708  1.00 20.00     0.055 C 
BRANCH   5   6
HETATM    6  C3  UNL     1     -35.139  13.750  -4.352  1.00 20.00     0.127 C 
HETATM    7  C4  UNL     1     -36.406  14.485  -3.997  1.00 20.00     0.091 C 
HETATM    8  O10 UNL     1     -35.111  12.520  -4.376  1.00 20.00    -0.298 OA
ENDBRANCH   5   6
BRANCH   5   9
HETATM    9  C7  UNL     1     -34.327  15.733  -5.672  1.00 20.00     0.007 C 
HETATM   10  C5  UNL     1     -34.420  15.325  -7.137  1.00 20.00     0.006 C 
ENDBRANCH   5   9
ENDBRANCH   4   5
ENDBRANCH   3   4
TORSDOF 4
ENDMDL
MODEL 5
REMARK VINA RESULT:      -4.4     11.150     12.121
REMARK  4 active torsions:
REMARK  status: ('A' for Active; 'I' for Inactive)
REMARK    1  A    between atoms: C3_3  and  C9_9 
REMARK    2  A    between atoms: C6_6  and  C8_8 
REMARK    3  A    between atoms: C7_7  and  C9_9 
REMARK    4  A    between atoms: C8_8  and  C9_9 
ROOT
HETATM    1  C1  UNL     1     -34.759  17.005  -0.256  1.00 20.00     0.012 C 
HETATM    2  C2  UNL     1     -34.327  16.650  -1.318  1.00 20.00    -0.117 C 
HETATM    3  C6  UNL     1     -33.797  16.220  -2.620  1.00 20.00     0.093 C 
ENDROOT
BRANCH   3   4
HETATM    4  C8  UNL     1     -34.331  14.834  -3.001  1.00 20.00     0.024 C 
BRANCH   4   5
HETATM    5  C9  UNL     1     -35.320  14.893  -4.180  1.00 20.00     0.055 C 
BRANCH   5   6
HETATM    6  C3  UNL     1     -35.045  13.802  -5.216  1.00 20.00     0.127 C 
HETATM    7  C4  UNL     1     -35.112  14.208  -6.666  1.00 20.00     0.091 C 
HETATM    8  O10 UNL     1     -34.754  12.648  -4.900  1.00 20.00    -0.298 OA
ENDBRANCH   5   6
BRANCH   5   9
HETATM    9  C7  UNL     1     -36.785  14.826  -3.714  1.00 20.00     0.007 C 
HETATM   10  C5  UNL     1     -37.464  16.179  -3.534  1.00 20.00     0.006 C 
ENDBRANCH   5   9
ENDBRANCH   4   5
ENDBRANCH   3   4
TORSDOF 4
ENDMDL
MODEL 6
REMARK VINA RESULT:      -4.4     11.352     12.170
REMARK  4 active torsions:
REMARK  status: ('A' for Active; 'I' for Inactive)
REMARK    1  A    between atoms: C3_3  and  C9_9 
REMARK    2  A    between atoms: C6_6  and  C8_8 
REMARK    3  A    between atoms: C7_7  and  C9_9 
REMARK    4  A    between atoms: C8_8  and  C9_9 
ROOT
HETATM    1  C1  UNL     1     -34.837  16.987  -0.378  1.00 20.00     0.012 C 
HETATM    2  C2  UNL     1     -34.350  16.605  -1.407  1.00 20.00    -0.117 C 
HETATM    3  C6  UNL     1     -33.749  16.138  -2.665  1.00 20.00     0.093 C 
ENDROOT
BRANCH   3   4
HETATM    4  C8  UNL     1     -34.817  15.963  -3.752  1.00 20.00     0.024 C 
BRANCH   4   5
HETATM    5  C9  UNL     1     -35.697  14.723  -3.512  1.00 20.00     0.055 C 
BRANCH   5   6
HETATM    6  C3  UNL     1     -37.188  15.047  -3.615  1.00 20.00     0.127 C 
HETATM    7  C4  UNL     1     -37.570  16.505  -3.609  1.00 20.00     0.091 C 
HETATM    8  O10 UNL     1     -38.048  14.173  -3.726  1.00 20.00    -0.298 OA
ENDBRANCH   5   6
BRANCH   5   9
HETATM    9  C7  UNL     1     -35.338  13.564  -4.457  1.00 20.00     0.007 C 
HETATM   10  C5  UNL     1     -34.783  13.988  -5.812  1.00 20.00     0.006 C 
ENDBRANCH   5   9
ENDBRANCH   4   5
ENDBRANCH   3   4
TORSDOF 4
ENDMDL
MODEL 7
REMARK VINA RESULT:      -4.4     10.748     12.171
REMARK  4 active torsions:
REMARK  status: ('A' for Active; 'I' for Inactive)
REMARK    1  A    between atoms: C3_3  and  C9_9 
REMARK    2  A    between atoms: C6_6  and  C8_8 
REMARK    3  A    between atoms: C7_7  and  C9_9 
REMARK    4  A    between atoms: C8_8  and  C9_9 
ROOT
HETATM    1  C1  UNL     1     -34.426  15.077  -7.474  1.00 20.00     0.012 C 
HETATM    2  C2  UNL     1     -34.892  15.676  -6.544  1.00 20.00    -0.117 C 
HETATM    3  C6  UNL     1     -35.460  16.414  -5.406  1.00 20.00     0.093 C 
ENDROOT
BRANCH   3   4
HETATM    4  C8  UNL     1     -36.223  15.472  -4.466  1.00 20.00     0.024 C 
BRANCH   4   5
HETATM    5  C9  UNL     1     -35.325  14.911  -3.347  1.00 20.00     0.055 C 
BRANCH   5   6
HETATM    6  C3  UNL     1     -34.546  13.675  -3.801  1.00 20.00     0.127 C 
HETATM    7  C4  UNL     1     -33.053  13.698  -3.596  1.00 20.00     0.091 C 
HETATM    8  O10 UNL     1     -35.098  12.688  -4.287  1.00 20.00    -0.298 OA
ENDBRANCH   5   6
BRANCH   5   9
HETATM    9  C7  UNL     1     -34.361  15.973  -2.789  1.00 20.00     0.007 C 
HETATM   10  C5  UNL     1     -34.618  16.376  -1.342  1.00 20.00     0.006 C 
ENDBRANCH   5   9
ENDBRANCH   4   5
ENDBRANCH   3   4
TORSDOF 4
ENDMDL
MODEL 8
REMARK VINA RESULT:      -4.3     11.080     12.496
REMARK  4 active torsions:
REMARK  status: ('A' for Active; 'I' for Inactive)
REMARK    1  A    between atoms: C3_3  and  C9_9 
REMARK    2  A    between atoms: C6_6  and  C8_8 
REMARK    3  A    between atoms: C7_7  and  C9_9 
REMARK    4  A    between atoms: C8_8  and  C9_9 
ROOT
HETATM    1  C1  UNL     1     -34.778  16.654  -0.959  1.00 20.00     0.012 C 
HETATM    2  C2  UNL     1     -34.307  16.134  -1.933  1.00 20.00    -0.117 C 
HETATM    3  C6  UNL     1     -33.729  15.501  -3.127  1.00 20.00     0.093 C 
ENDROOT
BRANCH   3   4
HETATM    4  C8  UNL     1     -34.466  14.201  -3.472  1.00 20.00     0.024 C 
BRANCH   4   5
HETATM    5  C9  UNL     1     -35.400  14.364  -4.685  1.00 20.00     0.055 C 
BRANCH   5   6
HETATM    6  C3  UNL     1     -36.790  14.859  -4.278  1.00 20.00     0.127 C 
HETATM    7  C4  UNL     1     -37.100  16.310  -4.540  1.00 20.00     0.091 C 
HETATM    8  O10 UNL     1     -37.637  14.114  -3.783  1.00 20.00    -0.298 OA
ENDBRANCH   5   6
BRANCH   5   9
HETATM    9  C7  UNL     1     -34.801  15.287  -5.760  1.00 20.00     0.007 C 
HETATM   10  C5  UNL     1     -34.812  14.719  -7.174  1.00 20.00     0.006 C 
ENDBRANCH   5   9
ENDBRANCH   4   5
ENDBRANCH   3   4
TORSDOF 4
ENDMDL
MODEL 9
REMARK VINA RESULT:      -4.3     11.421     12.552
REMARK  4 active torsions:
REMARK  status: ('A' for Active; 'I' for Inactive)
REMARK    1  A    between atoms: C3_3  and  C9_9 
REMARK    2  A    between atoms: C6_6  and  C8_8 
REMARK    3  A    between atoms: C7_7  and  C9_9 
REMARK    4  A    between atoms: C8_8  and  C9_9 
ROOT
HETATM    1  C1  UNL     1     -35.266  14.274  -6.800  1.00 20.00     0.012 C 
HETATM    2  C2  UNL     1     -35.164  14.001  -5.636  1.00 20.00    -0.117 C 
HETATM    3  C6  UNL     1     -35.043  13.666  -4.209  1.00 20.00     0.093 C 
ENDROOT
BRANCH   3   4
HETATM    4  C8  UNL     1     -33.682  14.107  -3.654  1.00 20.00     0.024 C 
BRANCH   4   5
HETATM    5  C9  UNL     1     -33.705  15.559  -3.142  1.00 20.00     0.055 C 
BRANCH   5   6
HETATM    6  C3  UNL     1     -33.630  16.574  -4.284  1.00 20.00     0.127 C 
HETATM    7  C4  UNL     1     -34.728  17.604  -4.354  1.00 20.00     0.091 C 
HETATM    8  O10 UNL     1     -32.709  16.580  -5.102  1.00 20.00    -0.298 OA
ENDBRANCH   5   6
BRANCH   5   9
HETATM    9  C7  UNL     1     -34.931  15.844  -2.257  1.00 20.00     0.007 C 
HETATM   10  C5  UNL     1     -34.625  16.557  -0.945  1.00 20.00     0.006 C 
ENDBRANCH   5   9
ENDBRANCH   4   5
ENDBRANCH   3   4
TORSDOF 4
ENDMDL
