MODEL 1
REMARK VINA RESULT:      -5.8      0.000      0.000
REMARK  3 active torsions:
REMARK  status: ('A' for Active; 'I' for Inactive)
REMARK    1  A    between atoms: C6_6  and  C9_9 
REMARK    2  A    between atoms: C7_7  and  O10_10 
REMARK    3  A    between atoms: C8_8  and  C9_9 
ROOT
HETATM    1  C1  UNL     1     -32.137   9.180   1.067  1.00 20.00     0.012 C 
HETATM    2  C2  UNL     1     -32.089   8.324   1.909  1.00 20.00    -0.117 C 
HETATM    3  C8  UNL     1     -32.027   7.277   2.937  1.00 20.00     0.093 C 
ENDROOT
BRANCH   3   4
HETATM    4  C9  UNL     1     -33.185   7.420   3.909  1.00 20.00     0.019 C 
BRANCH   4   5
HETATM    5  C6  UNL     1     -33.592   6.069   4.476  1.00 20.00     0.015 C 
HETATM    6  C4  UNL     1     -34.035   6.137   5.935  1.00 20.00     0.007 C 
HETATM    7  C3  UNL     1     -34.880   4.880   6.145  1.00 20.00     0.003 C 
HETATM    8  C5  UNL     1     -35.247   4.370   4.752  1.00 20.00     0.032 C 
HETATM    9  C7  UNL     1     -34.816   5.470   3.790  1.00 20.00     0.122 C 
BRANCH   9  10
HETATM   10  O10 UNL     1     -34.486   4.948   2.517  1.00 20.00    -0.395 OA
HETATM   11  H24 UNL     1     -35.267   4.464   2.195  1.00 20.00     0.210 HD
ENDBRANCH   9  10
ENDBRANCH   4   5
ENDBRANCH   3   4
TORSDOF 3
ENDMDL
MODEL 2
REMARK VINA RESULT:      -5.7      1.568      2.009
REMARK  3 active torsions:
REMARK  status: ('A' for Active; 'I' for Inactive)
REMARK    1  A    between atoms: C6_6  and  C9_9 
REMARK    2  A    between atoms: C7_7  and  O10_10 
REMARK    3  A    between atoms: C8_8  and  C9_9 
ROOT
HETATM    1  C1  UNL     1     -32.216   9.364   1.290  1.00 20.00     0.012 C 
HETATM    2  C2  UNL     1     -32.228   8.288   1.824  1.00 20.00    -0.117 C 
HETATM    3  C8  UNL     1     -32.242   6.971   2.473  1.00 20.00     0.093 C 
ENDROOT
BRANCH   3   4
HETATM    4  C9  UNL     1     -32.481   7.119   3.966  1.00 20.00     0.019 C 
BRANCH   4   5
HETATM    5  C6  UNL     1     -33.825   6.531   4.365  1.00 20.00     0.015 C 
HETATM    6  C4  UNL     1     -34.264   5.374   3.472  1.00 20.00     0.007 C 
HETATM    7  C3  UNL     1     -35.285   4.602   4.307  1.00 20.00     0.003 C 
HETATM    8  C5  UNL     1     -35.094   5.059   5.753  1.00 20.00     0.032 C 
HETATM    9  C7  UNL     1     -33.817   5.890   5.750  1.00 20.00     0.122 C 
BRANCH   9  10
HETATM   10  O10 UNL     1     -33.833   6.871   6.769  1.00 20.00    -0.395 OA
HETATM   11  H24 UNL     1     -34.468   7.557   6.497  1.00 20.00     0.210 HD
ENDBRANCH   9  10
ENDBRANCH   4   5
ENDBRANCH   3   4
TORSDOF 3
ENDMDL
MODEL 3
REMARK VINA RESULT:      -4.9     11.070     12.161
REMARK  3 active torsions:
REMARK  status: ('A' for Active; 'I' for Inactive)
REMARK    1  A    between atoms: C6_6  and  C9_9 
REMARK    2  A    between atoms: C7_7  and  O10_10 
REMARK    3  A    between atoms: C8_8  and  C9_9 
ROOT
HETATM    1  C1  UNL     1     -34.781  17.055  -0.027  1.00 20.00     0.012 C 
HETATM    2  C2  UNL     1     -34.361  16.844  -1.132  1.00 20.00    -0.117 C 
HETATM    3  C8  UNL     1     -33.847  16.588  -2.484  1.00 20.00     0.093 C 
ENDROOT
BRANCH   3   4
HETATM    4  C9  UNL     1     -34.008  15.121  -2.844  1.00 20.00     0.019 C 
BRANCH   4   5
HETATM    5  C6  UNL     1     -34.677  14.962  -4.200  1.00 20.00     0.015 C 
HETATM    6  C4  UNL     1     -34.054  15.837  -5.285  1.00 20.00     0.007 C 
HETATM    7  C3  UNL     1     -34.457  15.172  -6.601  1.00 20.00     0.003 C 
HETATM    8  C5  UNL     1     -34.911  13.757  -6.248  1.00 20.00     0.032 C 
HETATM    9  C7  UNL     1     -34.531  13.561  -4.785  1.00 20.00     0.122 C 
BRANCH   9  10
HETATM   10  O10 UNL     1     -35.394  12.644  -4.142  1.00 20.00    -0.395 OA
HETATM   11  H24 UNL     1     -35.993  12.288  -4.823  1.00 20.00     0.210 HD
ENDBRANCH   9  10
ENDBRANCH   4   5
ENDBRANCH   3   4
TORSDOF 3
ENDMDL
MODEL 4
REMARK VINA RESULT:      -4.8     11.222     11.754
REMARK  3 active torsions:
REMARK  status: ('A' for Active; 'I' for Inactive)
REMARK    1  A    between atoms: C6_6  and  C9_9 
REMARK    2  A    between atoms: C7_7  and  O10_10 
REMARK    3  A    between atoms: C8_8  and  C9_9 
ROOT
HETATM    1  C1  UNL     1     -32.729  18.666  -0.046  1.00 20.00     0.012 C 
HETATM    2  C2  UNL     1     -33.475  17.826  -0.472  1.00 20.00    -0.117 C 
HETATM    3  C8  UNL     1     -34.388  16.799  -0.989  1.00 20.00     0.093 C 
ENDROOT
BRANCH   3   4
HETATM    4  C9  UNL     1     -34.221  16.649  -2.492  1.00 20.00     0.019 C 
BRANCH   4   5
HETATM    5  C6  UNL     1     -34.411  15.203  -2.921  1.00 20.00     0.015 C 
HETATM    6  C4  UNL     1     -35.813  14.911  -3.450  1.00 20.00     0.007 C 
HETATM    7  C3  UNL     1     -35.656  13.648  -4.297  1.00 20.00     0.003 C 
HETATM    8  C5  UNL     1     -34.161  13.500  -4.577  1.00 20.00     0.032 C 
HETATM    9  C7  UNL     1     -33.527  14.801  -4.098  1.00 20.00     0.122 C 
BRANCH   9  10
HETATM   10  O10 UNL     1     -32.187  14.607  -3.690  1.00 20.00    -0.395 OA
HETATM   11  H24 UNL     1     -32.160  13.780  -3.176  1.00 20.00     0.210 HD
ENDBRANCH   9  10
ENDBRANCH   4   5
ENDBRANCH   3   4
TORSDOF 3
ENDMDL
MODEL 5
REMARK VINA RESULT:      -4.8     11.159     12.206
REMARK  3 active torsions:
REMARK  status: ('A' for Active; 'I' for Inactive)
REMARK    1  A    between atoms: C6_6  and  C9_9 
REMARK    2  A    between atoms: C7_7  and  O10_10 
REMARK    3  A    between atoms: C8_8  and  C9_9 
ROOT
HETATM    1  C1  UNL     1     -34.648  17.514   0.301  1.00 20.00     0.012 C 
HETATM    2  C2  UNL     1     -34.715  16.815  -0.674  1.00 20.00    -0.117 C 
HETATM    3  C8  UNL     1     -34.801  15.959  -1.864  1.00 20.00     0.093 C 
ENDROOT
BRANCH   3   4
HETATM    4  C9  UNL     1     -33.550  16.107  -2.713  1.00 20.00     0.019 C 
BRANCH   4   5
HETATM    5  C6  UNL     1     -33.574  15.145  -3.891  1.00 20.00     0.015 C 
HETATM    6  C4  UNL     1     -34.296  13.836  -3.584  1.00 20.00     0.007 C 
HETATM    7  C3  UNL     1     -34.684  13.274  -4.952  1.00 20.00     0.003 C 
HETATM    8  C5  UNL     1     -34.567  14.432  -5.943  1.00 20.00     0.032 C 
HETATM    9  C7  UNL     1     -34.355  15.676  -5.089  1.00 20.00     0.122 C 
BRANCH   9  10
HETATM   10  O10 UNL     1     -33.619  16.664  -5.784  1.00 20.00    -0.395 OA
HETATM   11  H24 UNL     1     -34.127  17.493  -5.728  1.00 20.00     0.210 HD
ENDBRANCH   9  10
ENDBRANCH   4   5
ENDBRANCH   3   4
TORSDOF 3
ENDMDL
MODEL 6
REMARK VINA RESULT:      -4.6     11.282     12.752
REMARK  3 active torsions:
REMARK  status: ('A' for Active; 'I' for Inactive)
REMARK    1  A    between atoms: C6_6  and  C9_9 
REMARK    2  A    between atoms: C7_7  and  O10_10 
REMARK    3  A    between atoms: C8_8  and  C9_9 
ROOT
HETATM    1  C1  UNL     1     -34.311  17.014  -0.695  1.00 20.00     0.012 C 
HETATM    2  C2  UNL     1     -34.763  16.398  -1.622  1.00 20.00    -0.117 C 
HETATM    3  C8  UNL     1     -35.319  15.648  -2.756  1.00 20.00     0.093 C 
ENDROOT
BRANCH   3   4
HETATM    4  C9  UNL     1     -34.377  14.527  -3.162  1.00 20.00     0.019 C 
BRANCH   4   5
HETATM    5  C6  UNL     1     -34.117  14.549  -4.660  1.00 20.00     0.015 C 
HETATM    6  C4  UNL     1     -35.228  13.889  -5.473  1.00 20.00     0.007 C 
HETATM    7  C3  UNL     1     -35.077  14.466  -6.881  1.00 20.00     0.003 C 
HETATM    8  C5  UNL     1     -34.202  15.712  -6.744  1.00 20.00     0.032 C 
HETATM    9  C7  UNL     1     -34.076  15.957  -5.245  1.00 20.00     0.122 C 
BRANCH   9  10
HETATM   10  O10 UNL     1     -32.862  16.610  -4.926  1.00 20.00    -0.395 OA
HETATM   11  H24 UNL     1     -32.262  15.936  -4.559  1.00 20.00     0.210 HD
ENDBRANCH   9  10
ENDBRANCH   4   5
ENDBRANCH   3   4
TORSDOF 3
ENDMDL
MODEL 7
REMARK VINA RESULT:      -4.5     11.222     12.298
REMARK  3 active torsions:
REMARK  status: ('A' for Active; 'I' for Inactive)
REMARK    1  A    between atoms: C6_6  and  C9_9 
REMARK    2  A    between atoms: C7_7  and  O10_10 
REMARK    3  A    between atoms: C8_8  and  C9_9 
ROOT
HETATM    1  C1  UNL     1     -36.486  14.825  -7.908  1.00 20.00     0.012 C 
HETATM    2  C2  UNL     1     -35.605  14.657  -7.109  1.00 20.00    -0.117 C 
HETATM    3  C8  UNL     1     -34.527  14.455  -6.133  1.00 20.00     0.093 C 
ENDROOT
BRANCH   3   4
HETATM    4  C9  UNL     1     -35.013  13.599  -4.975  1.00 20.00     0.019 C 
BRANCH   4   5
HETATM    5  C6  UNL     1     -34.840  14.325  -3.650  1.00 20.00     0.015 C 
HETATM    6  C4  UNL     1     -33.531  15.105  -3.558  1.00 20.00     0.007 C 
HETATM    7  C3  UNL     1     -33.774  16.148  -2.467  1.00 20.00     0.003 C 
HETATM    8  C5  UNL     1     -35.288  16.224  -2.273  1.00 20.00     0.032 C 
HETATM    9  C7  UNL     1     -35.885  15.411  -3.416  1.00 20.00     0.122 C 
BRANCH   9  10
HETATM   10  O10 UNL     1     -37.134  14.852  -3.058  1.00 20.00    -0.395 OA
HETATM   11  H24 UNL     1     -37.556  14.544  -3.880  1.00 20.00     0.210 HD
ENDBRANCH   9  10
ENDBRANCH   4   5
ENDBRANCH   3   4
TORSDOF 3
ENDMDL
MODEL 8
REMARK VINA RESULT:      -4.4     11.349     12.814
REMARK  3 active torsions:
REMARK  status: ('A' for Active; 'I' for Inactive)
REMARK    1  A    between atoms: C6_6  and  C9_9 
REMARK    2  A    between atoms: C7_7  and  O10_10 
REMARK    3  A    between atoms: C8_8  and  C9_9 
ROOT
HETATM    1  C1  UNL     1     -35.174  17.483   0.952  1.00 20.00     0.012 C 
HETATM    2  C2  UNL     1     -34.665  17.231  -0.107  1.00 20.00    -0.117 C 
HETATM    3  C8  UNL     1     -34.041  16.926  -1.400  1.00 20.00     0.093 C 
ENDROOT
BRANCH   3   4
HETATM    4  C9  UNL     1     -34.737  15.749  -2.061  1.00 20.00     0.019 C 
BRANCH   4   5
HETATM    5  C6  UNL     1     -34.636  15.834  -3.575  1.00 20.00     0.015 C 
HETATM    6  C4  UNL     1     -35.376  17.034  -4.161  1.00 20.00     0.007 C 
HETATM    7  C3  UNL     1     -34.737  17.255  -5.532  1.00 20.00     0.003 C 
HETATM    8  C5  UNL     1     -33.414  16.490  -5.520  1.00 20.00     0.032 C 
HETATM    9  C7  UNL     1     -33.211  16.054  -4.074  1.00 20.00     0.122 C 
BRANCH   9  10
HETATM   10  O10 UNL     1     -32.449  14.865  -3.992  1.00 20.00    -0.395 OA
HETATM   11  H24 UNL     1     -32.495  14.558  -3.069  1.00 20.00     0.210 HD
ENDBRANCH   9  10
ENDBRANCH   4   5
ENDBRANCH   3   4
TORSDOF 3
ENDMDL
MODEL 9
REMARK VINA RESULT:      -4.3     11.207     12.402
REMARK  3 active torsions:
REMARK  status: ('A' for Active; 'I' for Inactive)
REMARK    1  A    between atoms: C6_6  and  C9_9 
REMARK    2  A    between atoms: C7_7  and  O10_10 
REMARK    3  A    between atoms: C8_8  and  C9_9 
ROOT
HETATM    1  C1  UNL     1     -34.518  16.641  -1.178  1.00 20.00     0.012 C 
HETATM    2  C2  UNL     1     -34.060  16.130  -2.164  1.00 20.00    -0.117 C 
HETATM    3  C8  UNL     1     -33.498  15.508  -3.370  1.00 20.00     0.093 C 
ENDROOT
BRANCH   3   4
HETATM    4  C9  UNL     1     -34.101  14.130  -3.585  1.00 20.00     0.019 C 
BRANCH   4   5
HETATM    5  C6  UNL     1     -35.226  14.181  -4.607  1.00 20.00     0.015 C 
HETATM    6  C4  UNL     1     -36.561  14.616  -4.010  1.00 20.00     0.007 C 
HETATM    7  C3  UNL     1     -37.377  15.117  -5.202  1.00 20.00     0.003 C 
HETATM    8  C5  UNL     1     -36.381  15.355  -6.337  1.00 20.00     0.032 C 
HETATM    9  C7  UNL     1     -35.002  15.221  -5.701  1.00 20.00     0.122 C 
BRANCH   9  10
HETATM   10  O10 UNL     1     -34.038  14.780  -6.638  1.00 20.00    -0.395 OA
HETATM   11  H24 UNL     1     -34.094  15.374  -7.407  1.00 20.00     0.210 HD
ENDBRANCH   9  10
ENDBRANCH   4   5
ENDBRANCH   3   4
TORSDOF 3
ENDMDL
