MODEL 1
REMARK VINA RESULT:      -6.1      0.000      0.000
REMARK  2 active torsions:
REMARK  status: ('A' for Active; 'I' for Inactive)
REMARK    1  A    between atoms: C7_7  and  C9_9 
REMARK    2  A    between atoms: C8_8  and  C9_9 
ROOT
HETATM    1  C1  UNL     1     -32.206   9.434   1.438  1.00 20.00     0.012 C 
HETATM    2  C2  UNL     1     -32.222   8.326   1.901  1.00 20.00    -0.117 C 
HETATM    3  C8  UNL     1     -32.240   6.968   2.462  1.00 20.00     0.093 C 
ENDROOT
BRANCH   3   4
HETATM    4  C9  UNL     1     -32.459   7.014   3.966  1.00 20.00     0.024 C 
BRANCH   4   5
HETATM    5  C7  UNL     1     -33.875   6.610   4.326  1.00 20.00     0.056 C 
HETATM    6  C3  UNL     1     -34.033   6.245   5.788  1.00 20.00     0.131 C 
HETATM    7  C4  UNL     1     -34.845   4.987   5.971  1.00 20.00     0.079 C 
HETATM    8  O10 UNL     1     -33.561   6.888   6.716  1.00 20.00    -0.298 OA
HETATM    9  C5  UNL     1     -35.393   4.756   4.568  1.00 20.00     0.008 C 
HETATM   10  C6  UNL     1     -34.317   5.313   3.644  1.00 20.00     0.013 C 
ENDBRANCH   4   5
ENDBRANCH   3   4
TORSDOF 2
ENDMDL
MODEL 2
REMARK VINA RESULT:      -5.6      1.540      1.983
REMARK  2 active torsions:
REMARK  status: ('A' for Active; 'I' for Inactive)
REMARK    1  A    between atoms: C7_7  and  C9_9 
REMARK    2  A    between atoms: C8_8  and  C9_9 
ROOT
HETATM    1  C1  UNL     1     -32.168   9.303   1.081  1.00 20.00     0.012 C 
HETATM    2  C2  UNL     1     -32.140   8.386   1.856  1.00 20.00    -0.117 C 
HETATM    3  C8  UNL     1     -32.100   7.263   2.802  1.00 20.00     0.093 C 
ENDROOT
BRANCH   3   4
HETATM    4  C9  UNL     1     -33.270   7.338   3.771  1.00 20.00     0.024 C 
BRANCH   4   5
HETATM    5  C7  UNL     1     -33.495   6.008   4.463  1.00 20.00     0.056 C 
HETATM    6  C3  UNL     1     -34.584   5.179   3.813  1.00 20.00     0.131 C 
HETATM    7  C4  UNL     1     -35.514   4.570   4.832  1.00 20.00     0.079 C 
HETATM    8  O10 UNL     1     -34.703   5.018   2.605  1.00 20.00    -0.298 OA
HETATM    9  C5  UNL     1     -34.782   4.852   6.138  1.00 20.00     0.008 C 
HETATM   10  C6  UNL     1     -34.043   6.160   5.884  1.00 20.00     0.013 C 
ENDBRANCH   4   5
ENDBRANCH   3   4
TORSDOF 2
ENDMDL
MODEL 3
REMARK VINA RESULT:      -4.9     11.216     12.245
REMARK  2 active torsions:
REMARK  status: ('A' for Active; 'I' for Inactive)
REMARK    1  A    between atoms: C7_7  and  C9_9 
REMARK    2  A    between atoms: C8_8  and  C9_9 
ROOT
HETATM    1  C1  UNL     1     -34.721  17.433   0.311  1.00 20.00     0.012 C 
HETATM    2  C2  UNL     1     -34.763  16.776  -0.694  1.00 20.00    -0.117 C 
HETATM    3  C8  UNL     1     -34.819  15.971  -1.921  1.00 20.00     0.093 C 
ENDROOT
BRANCH   3   4
HETATM    4  C9  UNL     1     -33.559  16.171  -2.750  1.00 20.00     0.024 C 
BRANCH   4   5
HETATM    5  C7  UNL     1     -33.403  15.072  -3.782  1.00 20.00     0.056 C 
HETATM    6  C3  UNL     1     -33.856  15.492  -5.166  1.00 20.00     0.131 C 
HETATM    7  C4  UNL     1     -34.695  14.430  -5.832  1.00 20.00     0.079 C 
HETATM    8  O10 UNL     1     -33.580  16.564  -5.689  1.00 20.00    -0.298 OA
HETATM    9  C5  UNL     1     -34.508  13.244  -4.895  1.00 20.00     0.008 C 
HETATM   10  C6  UNL     1     -34.317  13.873  -3.520  1.00 20.00     0.013 C 
ENDBRANCH   4   5
ENDBRANCH   3   4
TORSDOF 2
ENDMDL
MODEL 4
REMARK VINA RESULT:      -4.8     11.164     12.404
REMARK  2 active torsions:
REMARK  status: ('A' for Active; 'I' for Inactive)
REMARK    1  A    between atoms: C7_7  and  C9_9 
REMARK    2  A    between atoms: C8_8  and  C9_9 
ROOT
HETATM    1  C1  UNL     1     -34.786  16.977  -0.293  1.00 20.00     0.012 C 
HETATM    2  C2  UNL     1     -34.319  16.642  -1.348  1.00 20.00    -0.117 C 
HETATM    3  C8  UNL     1     -33.745  16.237  -2.638  1.00 20.00     0.093 C 
ENDROOT
BRANCH   3   4
HETATM    4  C9  UNL     1     -34.205  14.836  -3.013  1.00 20.00     0.024 C 
BRANCH   4   5
HETATM    5  C7  UNL     1     -35.212  14.875  -4.144  1.00 20.00     0.056 C 
HETATM    6  C3  UNL     1     -35.021  13.753  -5.145  1.00 20.00     0.131 C 
HETATM    7  C4  UNL     1     -35.114  14.244  -6.568  1.00 20.00     0.079 C 
HETATM    8  O10 UNL     1     -34.814  12.585  -4.844  1.00 20.00    -0.298 OA
HETATM    9  C5  UNL     1     -35.633  15.664  -6.380  1.00 20.00     0.008 C 
HETATM   10  C6  UNL     1     -35.056  16.105  -5.041  1.00 20.00     0.013 C 
ENDBRANCH   4   5
ENDBRANCH   3   4
TORSDOF 2
ENDMDL
MODEL 5
REMARK VINA RESULT:      -4.6     11.154     11.715
REMARK  2 active torsions:
REMARK  status: ('A' for Active; 'I' for Inactive)
REMARK    1  A    between atoms: C7_7  and  C9_9 
REMARK    2  A    between atoms: C8_8  and  C9_9 
ROOT
HETATM    1  C1  UNL     1     -35.171  17.354   0.589  1.00 20.00     0.012 C 
HETATM    2  C2  UNL     1     -34.425  17.268  -0.348  1.00 20.00    -0.117 C 
HETATM    3  C8  UNL     1     -33.506  17.163  -1.490  1.00 20.00     0.093 C 
ENDROOT
BRANCH   3   4
HETATM    4  C9  UNL     1     -34.268  16.808  -2.758  1.00 20.00     0.024 C 
BRANCH   4   5
HETATM    5  C7  UNL     1     -34.534  15.318  -2.838  1.00 20.00     0.056 C 
HETATM    6  C3  UNL     1     -33.514  14.579  -3.681  1.00 20.00     0.131 C 
HETATM    7  C4  UNL     1     -34.163  13.589  -4.614  1.00 20.00     0.079 C 
HETATM    8  O10 UNL     1     -32.305  14.759  -3.618  1.00 20.00    -0.298 OA
HETATM    9  C5  UNL     1     -35.601  13.574  -4.111  1.00 20.00     0.008 C 
HETATM   10  C6  UNL     1     -35.832  14.982  -3.578  1.00 20.00     0.013 C 
ENDBRANCH   4   5
ENDBRANCH   3   4
TORSDOF 2
ENDMDL
MODEL 6
REMARK VINA RESULT:      -4.6     11.300     12.805
REMARK  2 active torsions:
REMARK  status: ('A' for Active; 'I' for Inactive)
REMARK    1  A    between atoms: C7_7  and  C9_9 
REMARK    2  A    between atoms: C8_8  and  C9_9 
ROOT
HETATM    1  C1  UNL     1     -34.426  16.778  -0.966  1.00 20.00     0.012 C 
HETATM    2  C2  UNL     1     -34.839  16.121  -1.882  1.00 20.00    -0.117 C 
HETATM    3  C8  UNL     1     -35.350  15.321  -3.003  1.00 20.00     0.093 C 
ENDROOT
BRANCH   3   4
HETATM    4  C9  UNL     1     -34.326  14.280  -3.427  1.00 20.00     0.024 C 
BRANCH   4   5
HETATM    5  C7  UNL     1     -34.063  14.345  -4.919  1.00 20.00     0.056 C 
HETATM    6  C3  UNL     1     -33.615  15.717  -5.381  1.00 20.00     0.131 C 
HETATM    7  C4  UNL     1     -34.321  16.147  -6.642  1.00 20.00     0.079 C 
HETATM    8  O10 UNL     1     -32.779  16.402  -4.804  1.00 20.00    -0.298 OA
HETATM    9  C5  UNL     1     -35.022  14.863  -7.066  1.00 20.00     0.008 C 
HETATM   10  C6  UNL     1     -35.328  14.147  -5.757  1.00 20.00     0.013 C 
ENDBRANCH   4   5
ENDBRANCH   3   4
TORSDOF 2
ENDMDL
MODEL 7
REMARK VINA RESULT:      -4.5     11.130     11.850
REMARK  2 active torsions:
REMARK  status: ('A' for Active; 'I' for Inactive)
REMARK    1  A    between atoms: C7_7  and  C9_9 
REMARK    2  A    between atoms: C8_8  and  C9_9 
ROOT
HETATM    1  C1  UNL     1     -35.025  17.783   0.866  1.00 20.00     0.012 C 
HETATM    2  C2  UNL     1     -34.816  17.106  -0.104  1.00 20.00    -0.117 C 
HETATM    3  C8  UNL     1     -34.557  16.274  -1.287  1.00 20.00     0.093 C 
ENDROOT
BRANCH   3   4
HETATM    4  C9  UNL     1     -35.501  16.648  -2.420  1.00 20.00     0.024 C 
BRANCH   4   5
HETATM    5  C7  UNL     1     -35.218  15.826  -3.661  1.00 20.00     0.056 C 
HETATM    6  C3  UNL     1     -36.099  14.598  -3.771  1.00 20.00     0.131 C 
HETATM    7  C4  UNL     1     -35.315  13.373  -4.170  1.00 20.00     0.079 C 
HETATM    8  O10 UNL     1     -37.306  14.592  -3.562  1.00 20.00    -0.298 OA
HETATM    9  C5  UNL     1     -33.967  13.971  -4.552  1.00 20.00     0.008 C 
HETATM   10  C6  UNL     1     -33.824  15.193  -3.654  1.00 20.00     0.013 C 
ENDBRANCH   4   5
ENDBRANCH   3   4
TORSDOF 2
ENDMDL
MODEL 8
REMARK VINA RESULT:      -4.4     11.163     12.303
REMARK  2 active torsions:
REMARK  status: ('A' for Active; 'I' for Inactive)
REMARK    1  A    between atoms: C7_7  and  C9_9 
REMARK    2  A    between atoms: C8_8  and  C9_9 
ROOT
HETATM    1  C1  UNL     1     -36.455  14.797  -7.918  1.00 20.00     0.012 C 
HETATM    2  C2  UNL     1     -35.552  14.667  -7.137  1.00 20.00    -0.117 C 
HETATM    3  C8  UNL     1     -34.445  14.513  -6.184  1.00 20.00     0.093 C 
ENDROOT
BRANCH   3   4
HETATM    4  C9  UNL     1     -34.744  13.398  -5.193  1.00 20.00     0.024 C 
BRANCH   4   5
HETATM    5  C7  UNL     1     -34.879  13.940  -3.784  1.00 20.00     0.056 C 
HETATM    6  C3  UNL     1     -36.199  14.644  -3.544  1.00 20.00     0.131 C 
HETATM    7  C4  UNL     1     -36.018  15.945  -2.804  1.00 20.00     0.079 C 
HETATM    8  O10 UNL     1     -37.287  14.215  -3.906  1.00 20.00    -0.298 OA
HETATM    9  C5  UNL     1     -34.559  15.867  -2.376  1.00 20.00     0.008 C 
HETATM   10  C6  UNL     1     -33.882  15.060  -3.477  1.00 20.00     0.013 C 
ENDBRANCH   4   5
ENDBRANCH   3   4
TORSDOF 2
ENDMDL
MODEL 9
REMARK VINA RESULT:      -4.4      9.490     10.711
REMARK  2 active torsions:
REMARK  status: ('A' for Active; 'I' for Inactive)
REMARK    1  A    between atoms: C7_7  and  C9_9 
REMARK    2  A    between atoms: C8_8  and  C9_9 
ROOT
HETATM    1  C1  UNL     1     -41.472   1.644  -3.661  1.00 20.00     0.012 C 
HETATM    2  C2  UNL     1     -41.713   2.688  -3.119  1.00 20.00    -0.117 C 
HETATM    3  C8  UNL     1     -42.014   3.965  -2.458  1.00 20.00     0.093 C 
ENDROOT
BRANCH   3   4
HETATM    4  C9  UNL     1     -40.929   4.314  -1.451  1.00 20.00     0.024 C 
BRANCH   4   5
HETATM    5  C7  UNL     1     -41.155   5.691  -0.859  1.00 20.00     0.056 C 
HETATM    6  C3  UNL     1     -42.372   5.756   0.041  1.00 20.00     0.131 C 
HETATM    7  C4  UNL     1     -43.205   6.985  -0.224  1.00 20.00     0.079 C 
HETATM    8  O10 UNL     1     -42.655   4.915   0.884  1.00 20.00    -0.298 OA
HETATM    9  C5  UNL     1     -42.296   7.793  -1.140  1.00 20.00     0.008 C 
HETATM   10  C6  UNL     1     -41.506   6.744  -1.913  1.00 20.00     0.013 C 
ENDBRANCH   4   5
ENDBRANCH   3   4
TORSDOF 2
ENDMDL
