MODEL 1
REMARK VINA RESULT:      -4.7      0.000      0.000
REMARK  0 active torsions:
REMARK  status: ('A' for Active; 'I' for Inactive)
ROOT
HETATM    1  C1  UNL     1     -33.571  18.137  -4.906  1.00 20.00     0.002 A 
HETATM    2  C2  UNL     1     -33.741  17.059  -5.777  1.00 20.00     0.009 A 
HETATM    3  C3  UNL     1     -33.818  17.993  -3.531  1.00 20.00     0.019 A 
HETATM    4  C4  UNL     1     -34.151  15.846  -5.249  1.00 20.00    -0.032 A 
HETATM    5  C5  UNL     1     -34.391  15.701  -3.875  1.00 20.00    -0.033 A 
HETATM    6  C6  UNL     1     -34.237  16.769  -3.007  1.00 20.00     0.017 A 
HETATM    7  C7  UNL     1     -34.855  14.315  -3.557  1.00 20.00     0.042 C 
HETATM    8  C8  UNL     1     -34.397  13.557  -4.814  1.00 20.00     0.030 C 
HETATM    9  C9  UNL     1     -34.425  14.565  -5.976  1.00 20.00     0.116 C 
HETATM   10 CL10 UNL     1     -36.026  14.626  -6.743  1.00 20.00    -0.120 Cl
HETATM   11 BR11 UNL     1     -34.585  16.619  -1.157  1.00 20.00    -0.051 Br
ENDROOT
TORSDOF 0
ENDMDL
MODEL 2
REMARK VINA RESULT:      -4.6      2.756      4.212
REMARK  0 active torsions:
REMARK  status: ('A' for Active; 'I' for Inactive)
ROOT
HETATM    1  C1  UNL     1     -34.420  13.263  -4.716  1.00 20.00     0.002 A 
HETATM    2  C2  UNL     1     -33.908  13.978  -3.631  1.00 20.00     0.009 A 
HETATM    3  C3  UNL     1     -35.114  13.921  -5.744  1.00 20.00     0.019 A 
HETATM    4  C4  UNL     1     -34.096  15.350  -3.600  1.00 20.00    -0.032 A 
HETATM    5  C5  UNL     1     -34.782  16.007  -4.630  1.00 20.00    -0.033 A 
HETATM    6  C6  UNL     1     -35.304  15.304  -5.703  1.00 20.00     0.017 A 
HETATM    7  C7  UNL     1     -34.884  17.474  -4.353  1.00 20.00     0.042 C 
HETATM    8  C8  UNL     1     -33.776  17.652  -3.303  1.00 20.00     0.030 C 
HETATM    9  C9  UNL     1     -33.667  16.319  -2.541  1.00 20.00     0.116 C 
HETATM   10 CL10 UNL     1     -34.793  16.264  -1.168  1.00 20.00    -0.120 Cl
HETATM   11 BR11 UNL     1     -36.264  16.152  -7.090  1.00 20.00    -0.051 Br
ENDROOT
TORSDOF 0
ENDMDL
MODEL 3
REMARK VINA RESULT:      -4.6      5.038      6.598
REMARK  0 active torsions:
REMARK  status: ('A' for Active; 'I' for Inactive)
ROOT
HETATM    1  C1  UNL     1     -35.506  17.765   2.672  1.00 20.00     0.002 A 
HETATM    2  C2  UNL     1     -35.542  17.787   1.276  1.00 20.00     0.009 A 
HETATM    3  C3  UNL     1     -34.337  18.125   3.363  1.00 20.00     0.019 A 
HETATM    4  C4  UNL     1     -34.402  18.178   0.594  1.00 20.00    -0.032 A 
HETATM    5  C5  UNL     1     -33.239  18.545   1.286  1.00 20.00    -0.033 A 
HETATM    6  C6  UNL     1     -33.190  18.514   2.669  1.00 20.00     0.017 A 
HETATM    7  C7  UNL     1     -32.139  18.893   0.333  1.00 20.00     0.042 C 
HETATM    8  C8  UNL     1     -32.937  19.147  -0.956  1.00 20.00     0.030 C 
HETATM    9  C9  UNL     1     -34.190  18.256  -0.886  1.00 20.00     0.116 C 
HETATM   10 CL10 UNL     1     -33.871  16.638  -1.546  1.00 20.00    -0.120 Cl
HETATM   11 BR11 UNL     1     -31.630  18.967   3.632  1.00 20.00    -0.051 Br
ENDROOT
TORSDOF 0
ENDMDL
MODEL 4
REMARK VINA RESULT:      -4.5      2.992      4.086
REMARK  0 active torsions:
REMARK  status: ('A' for Active; 'I' for Inactive)
ROOT
HETATM    1  C1  UNL     1     -33.420  17.840  -5.217  1.00 20.00     0.002 A 
HETATM    2  C2  UNL     1     -33.655  18.666  -4.116  1.00 20.00     0.009 A 
HETATM    3  C3  UNL     1     -33.527  16.444  -5.101  1.00 20.00     0.019 A 
HETATM    4  C4  UNL     1     -34.002  18.075  -2.912  1.00 20.00    -0.032 A 
HETATM    5  C5  UNL     1     -34.115  16.682  -2.799  1.00 20.00    -0.033 A 
HETATM    6  C6  UNL     1     -33.871  15.855  -3.882  1.00 20.00     0.017 A 
HETATM    7  C7  UNL     1     -34.465  16.287  -1.399  1.00 20.00     0.042 C 
HETATM    8  C8  UNL     1     -35.005  17.615  -0.845  1.00 20.00     0.030 C 
HETATM    9  C9  UNL     1     -34.274  18.741  -1.598  1.00 20.00     0.116 C 
HETATM   10 CL10 UNL     1     -32.747  19.168  -0.799  1.00 20.00    -0.120 Cl
HETATM   11 BR11 UNL     1     -33.980  13.974  -3.757  1.00 20.00    -0.051 Br
ENDROOT
TORSDOF 0
ENDMDL
MODEL 5
REMARK VINA RESULT:      -4.5      2.730      4.272
REMARK  0 active torsions:
REMARK  status: ('A' for Active; 'I' for Inactive)
ROOT
HETATM    1  C1  UNL     1     -34.259  13.647  -3.908  1.00 20.00     0.002 A 
HETATM    2  C2  UNL     1     -33.879  14.879  -3.369  1.00 20.00     0.009 A 
HETATM    3  C3  UNL     1     -34.725  13.557  -5.229  1.00 20.00     0.019 A 
HETATM    4  C4  UNL     1     -33.967  16.004  -4.173  1.00 20.00    -0.032 A 
HETATM    5  C5  UNL     1     -34.425  15.911  -5.494  1.00 20.00    -0.033 A 
HETATM    6  C6  UNL     1     -34.816  14.696  -6.032  1.00 20.00     0.017 A 
HETATM    7  C7  UNL     1     -34.462  17.259  -6.143  1.00 20.00     0.042 C 
HETATM    8  C8  UNL     1     -33.530  18.056  -5.215  1.00 20.00     0.030 C 
HETATM    9  C9  UNL     1     -33.647  17.423  -3.817  1.00 20.00     0.116 C 
HETATM   10 CL10 UNL     1     -34.982  18.139  -2.891  1.00 20.00    -0.120 Cl
HETATM   11 BR11 UNL     1     -35.471  14.540  -7.796  1.00 20.00    -0.051 Br
ENDROOT
TORSDOF 0
ENDMDL
MODEL 6
REMARK VINA RESULT:      -4.5      2.194      2.962
REMARK  0 active torsions:
REMARK  status: ('A' for Active; 'I' for Inactive)
ROOT
HETATM    1  C1  UNL     1     -34.146  17.410  -1.529  1.00 20.00     0.002 A 
HETATM    2  C2  UNL     1     -34.366  16.067  -1.843  1.00 20.00     0.009 A 
HETATM    3  C3  UNL     1     -33.917  18.354  -2.543  1.00 20.00     0.019 A 
HETATM    4  C4  UNL     1     -34.360  15.694  -3.177  1.00 20.00    -0.032 A 
HETATM    5  C5  UNL     1     -34.139  16.639  -4.188  1.00 20.00    -0.033 A 
HETATM    6  C6  UNL     1     -33.907  17.970  -3.885  1.00 20.00     0.017 A 
HETATM    7  C7  UNL     1     -34.146  15.990  -5.536  1.00 20.00     0.042 C 
HETATM    8  C8  UNL     1     -34.866  14.668  -5.222  1.00 20.00     0.030 C 
HETATM    9  C9  UNL     1     -34.545  14.325  -3.756  1.00 20.00     0.116 C 
HETATM   10 CL10 UNL     1     -33.037  13.396  -3.624  1.00 20.00    -0.120 Cl
HETATM   11 BR11 UNL     1     -33.570  19.263  -5.220  1.00 20.00    -0.051 Br
ENDROOT
TORSDOF 0
ENDMDL
MODEL 7
REMARK VINA RESULT:      -4.5      2.042      2.841
REMARK  0 active torsions:
REMARK  status: ('A' for Active; 'I' for Inactive)
ROOT
HETATM    1  C1  UNL     1     -34.838  16.132  -7.784  1.00 20.00     0.002 A 
HETATM    2  C2  UNL     1     -34.744  14.939  -7.066  1.00 20.00     0.009 A 
HETATM    3  C3  UNL     1     -34.477  17.354  -7.194  1.00 20.00     0.019 A 
HETATM    4  C4  UNL     1     -34.279  14.991  -5.762  1.00 20.00    -0.032 A 
HETATM    5  C5  UNL     1     -33.912  16.210  -5.176  1.00 20.00    -0.033 A 
HETATM    6  C6  UNL     1     -34.014  17.399  -5.877  1.00 20.00     0.017 A 
HETATM    7  C7  UNL     1     -33.477  16.012  -3.758  1.00 20.00     0.042 C 
HETATM    8  C8  UNL     1     -33.181  14.503  -3.751  1.00 20.00     0.030 C 
HETATM    9  C9  UNL     1     -34.116  13.862  -4.791  1.00 20.00     0.116 C 
HETATM   10 CL10 UNL     1     -35.685  13.435  -4.078  1.00 20.00    -0.120 Cl
HETATM   11 BR11 UNL     1     -33.562  19.064  -5.108  1.00 20.00    -0.051 Br
ENDROOT
TORSDOF 0
ENDMDL
MODEL 8
REMARK VINA RESULT:      -4.4     12.223     13.673
REMARK  0 active torsions:
REMARK  status: ('A' for Active; 'I' for Inactive)
ROOT
HETATM    1  C1  UNL     1     -40.477   5.920  -0.440  1.00 20.00     0.002 A 
HETATM    2  C2  UNL     1     -40.724   4.585  -0.769  1.00 20.00     0.009 A 
HETATM    3  C3  UNL     1     -41.167   6.957  -1.089  1.00 20.00     0.019 A 
HETATM    4  C4  UNL     1     -41.670   4.312  -1.743  1.00 20.00    -0.032 A 
HETATM    5  C5  UNL     1     -42.363   5.348  -2.385  1.00 20.00    -0.033 A 
HETATM    6  C6  UNL     1     -42.115   6.674  -2.074  1.00 20.00     0.017 A 
HETATM    7  C7  UNL     1     -43.301   4.803  -3.416  1.00 20.00     0.042 C 
HETATM    8  C8  UNL     1     -43.417   3.339  -2.963  1.00 20.00     0.030 C 
HETATM    9  C9  UNL     1     -42.086   2.977  -2.281  1.00 20.00     0.116 C 
HETATM   10 CL10 UNL     1     -40.893   2.391  -3.458  1.00 20.00    -0.120 Cl
HETATM   11 BR11 UNL     1     -43.005   8.095  -2.944  1.00 20.00    -0.051 Br
ENDROOT
TORSDOF 0
ENDMDL
MODEL 9
REMARK VINA RESULT:      -4.4      3.223      4.411
REMARK  0 active torsions:
REMARK  status: ('A' for Active; 'I' for Inactive)
ROOT
HETATM    1  C1  UNL     1     -34.437  13.882  -3.772  1.00 20.00     0.002 A 
HETATM    2  C2  UNL     1     -33.893  14.992  -3.124  1.00 20.00     0.009 A 
HETATM    3  C3  UNL     1     -35.801  13.843  -4.104  1.00 20.00     0.019 A 
HETATM    4  C4  UNL     1     -34.730  16.055  -2.825  1.00 20.00    -0.032 A 
HETATM    5  C5  UNL     1     -36.090  16.018  -3.163  1.00 20.00    -0.033 A 
HETATM    6  C6  UNL     1     -36.640  14.916  -3.795  1.00 20.00     0.017 A 
HETATM    7  C7  UNL     1     -36.787  17.262  -2.708  1.00 20.00     0.042 C 
HETATM    8  C8  UNL     1     -35.593  18.209  -2.503  1.00 20.00     0.030 C 
HETATM    9  C9  UNL     1     -34.390  17.331  -2.117  1.00 20.00     0.116 C 
HETATM   10 CL10 UNL     1     -34.320  17.060  -0.364  1.00 20.00    -0.120 Cl
HETATM   11 BR11 UNL     1     -38.474  14.818  -4.234  1.00 20.00    -0.051 Br
ENDROOT
TORSDOF 0
ENDMDL
