MODEL 1
REMARK VINA RESULT:      -4.5      0.000      0.000
REMARK  4 active torsions:
REMARK  status: ('A' for Active; 'I' for Inactive)
REMARK    1  A    between atoms: C4_4  and  C8_8 
REMARK    2  A    between atoms: C8_8  and  C11_11 
REMARK    3  A    between atoms: C9_9  and  C10_10 
REMARK    4  A    between atoms: C10_10  and  C11_11 
ROOT
HETATM    1  C1  UNL     1     -35.205   4.642   6.284  1.00 20.00     0.002 C 
HETATM    2  C2  UNL     1     -34.212   5.806   6.228  1.00 20.00     0.006 C 
HETATM    3  C3  UNL     1     -35.377   4.153   4.846  1.00 20.00     0.020 C 
HETATM    4  C4  UNL     1     -33.686   5.831   4.789  1.00 20.00     0.004 C 
HETATM    5  C5  UNL     1     -34.883   5.315   3.993  1.00 20.00     0.086 C 
HETATM    6 CL12 UNL     1     -34.455   4.796   2.354  1.00 20.00    -0.125 Cl
ENDROOT
BRANCH   4   7
HETATM    7  C8  UNL     1     -33.204   7.209   4.364  1.00 20.00     0.010 C 
BRANCH   7   8
HETATM    8  C11 UNL     1     -31.932   7.180   3.497  1.00 20.00    -0.018 C 
HETATM    9  C7  UNL     1     -30.831   8.010   4.166  1.00 20.00     0.010 C 
BRANCH   8  10
HETATM   10  C10 UNL     1     -32.146   7.609   2.030  1.00 20.00     0.004 C 
BRANCH  10  11
HETATM   11  C9  UNL     1     -32.213   9.121   1.796  1.00 20.00    -0.004 C 
HETATM   12  C6  UNL     1     -32.504   9.440   0.336  1.00 20.00     0.005 C 
ENDBRANCH  10  11
ENDBRANCH   8  10
ENDBRANCH   7   8
ENDBRANCH   4   7
TORSDOF 4
ENDMDL
MODEL 2
REMARK VINA RESULT:      -4.5     10.884     13.563
REMARK  4 active torsions:
REMARK  status: ('A' for Active; 'I' for Inactive)
REMARK    1  A    between atoms: C4_4  and  C8_8 
REMARK    2  A    between atoms: C8_8  and  C11_11 
REMARK    3  A    between atoms: C9_9  and  C10_10 
REMARK    4  A    between atoms: C10_10  and  C11_11 
ROOT
HETATM    1  C1  UNL     1     -34.217  18.487  -6.821  1.00 20.00     0.002 C 
HETATM    2  C2  UNL     1     -33.628  18.067  -5.471  1.00 20.00     0.006 C 
HETATM    3  C3  UNL     1     -34.763  17.213  -7.467  1.00 20.00     0.020 C 
HETATM    4  C4  UNL     1     -34.024  16.599  -5.286  1.00 20.00     0.004 C 
HETATM    5  C5  UNL     1     -34.058  16.085  -6.725  1.00 20.00     0.086 C 
HETATM    6 CL12 UNL     1     -34.920  14.545  -6.891  1.00 20.00    -0.125 Cl
ENDROOT
BRANCH   4   7
HETATM    7  C8  UNL     1     -33.066  15.842  -4.379  1.00 20.00     0.010 C 
BRANCH   7   8
HETATM    8  C11 UNL     1     -33.756  15.161  -3.182  1.00 20.00    -0.018 C 
HETATM    9  C7  UNL     1     -34.204  13.749  -3.578  1.00 20.00     0.010 C 
BRANCH   8  10
HETATM   10  C10 UNL     1     -34.919  15.968  -2.568  1.00 20.00     0.004 C 
BRANCH  10  11
HETATM   11  C9  UNL     1     -34.686  16.464  -1.139  1.00 20.00    -0.004 C 
HETATM   12  C6  UNL     1     -33.609  17.538  -1.096  1.00 20.00     0.005 C 
ENDBRANCH  10  11
ENDBRANCH   8  10
ENDBRANCH   7   8
ENDBRANCH   4   7
TORSDOF 4
ENDMDL
MODEL 3
REMARK VINA RESULT:      -4.5     11.114     12.392
REMARK  4 active torsions:
REMARK  status: ('A' for Active; 'I' for Inactive)
REMARK    1  A    between atoms: C4_4  and  C8_8 
REMARK    2  A    between atoms: C8_8  and  C11_11 
REMARK    3  A    between atoms: C9_9  and  C10_10 
REMARK    4  A    between atoms: C10_10  and  C11_11 
ROOT
HETATM    1  C1  UNL     1     -34.853  13.198  -4.604  1.00 20.00     0.002 C 
HETATM    2  C2  UNL     1     -34.241  14.012  -3.460  1.00 20.00     0.006 C 
HETATM    3  C3  UNL     1     -34.846  14.109  -5.832  1.00 20.00     0.020 C 
HETATM    4  C4  UNL     1     -33.718  15.300  -4.103  1.00 20.00     0.004 C 
HETATM    5  C5  UNL     1     -34.697  15.511  -5.257  1.00 20.00     0.086 C 
HETATM    6 CL12 UNL     1     -34.104  16.662  -6.467  1.00 20.00    -0.125 Cl
ENDROOT
BRANCH   4   7
HETATM    7  C8  UNL     1     -33.652  16.461  -3.123  1.00 20.00     0.010 C 
BRANCH   7   8
HETATM    8  C11 UNL     1     -34.911  16.605  -2.248  1.00 20.00    -0.018 C 
HETATM    9  C7  UNL     1     -35.703  17.843  -2.682  1.00 20.00     0.010 C 
BRANCH   8  10
HETATM   10  C10 UNL     1     -34.639  16.616  -0.729  1.00 20.00     0.004 C 
BRANCH  10  11
HETATM   11  C9  UNL     1     -33.919  17.861  -0.205  1.00 20.00    -0.004 C 
HETATM   12  C6  UNL     1     -34.372  18.206   1.207  1.00 20.00     0.005 C 
ENDBRANCH  10  11
ENDBRANCH   8  10
ENDBRANCH   7   8
ENDBRANCH   4   7
TORSDOF 4
ENDMDL
MODEL 4
REMARK VINA RESULT:      -4.5     10.847     12.018
REMARK  4 active torsions:
REMARK  status: ('A' for Active; 'I' for Inactive)
REMARK    1  A    between atoms: C4_4  and  C8_8 
REMARK    2  A    between atoms: C8_8  and  C11_11 
REMARK    3  A    between atoms: C9_9  and  C10_10 
REMARK    4  A    between atoms: C10_10  and  C11_11 
ROOT
HETATM    1  C1  UNL     1     -33.356  13.703  -3.805  1.00 20.00     0.002 C 
HETATM    2  C2  UNL     1     -33.130  15.183  -3.489  1.00 20.00     0.006 C 
HETATM    3  C3  UNL     1     -34.856  13.541  -4.056  1.00 20.00     0.020 C 
HETATM    4  C4  UNL     1     -34.470  15.874  -3.759  1.00 20.00     0.004 C 
HETATM    5  C5  UNL     1     -35.478  14.777  -3.419  1.00 20.00     0.086 C 
HETATM    6 CL12 UNL     1     -37.099  15.103  -4.056  1.00 20.00    -0.125 Cl
ENDROOT
BRANCH   4   7
HETATM    7  C8  UNL     1     -34.646  17.151  -2.952  1.00 20.00     0.010 C 
BRANCH   7   8
HETATM    8  C11 UNL     1     -33.850  17.164  -1.633  1.00 20.00    -0.018 C 
HETATM    9  C7  UNL     1     -34.757  16.725  -0.478  1.00 20.00     0.010 C 
BRANCH   8  10
HETATM   10  C10 UNL     1     -33.151  18.504  -1.321  1.00 20.00     0.004 C 
BRANCH  10  11
HETATM   11  C9  UNL     1     -33.146  18.909   0.155  1.00 20.00    -0.004 C 
HETATM   12  C6  UNL     1     -31.726  19.082   0.675  1.00 20.00     0.005 C 
ENDBRANCH  10  11
ENDBRANCH   8  10
ENDBRANCH   7   8
ENDBRANCH   4   7
TORSDOF 4
ENDMDL
MODEL 5
REMARK VINA RESULT:      -4.5     11.368     12.699
REMARK  4 active torsions:
REMARK  status: ('A' for Active; 'I' for Inactive)
REMARK    1  A    between atoms: C4_4  and  C8_8 
REMARK    2  A    between atoms: C8_8  and  C11_11 
REMARK    3  A    between atoms: C9_9  and  C10_10 
REMARK    4  A    between atoms: C10_10  and  C11_11 
ROOT
HETATM    1  C1  UNL     1     -34.069  16.075  -6.784  1.00 20.00     0.002 C 
HETATM    2  C2  UNL     1     -33.800  16.746  -5.434  1.00 20.00     0.006 C 
HETATM    3  C3  UNL     1     -34.655  14.698  -6.470  1.00 20.00     0.020 C 
HETATM    4  C4  UNL     1     -34.419  15.821  -4.381  1.00 20.00     0.004 C 
HETATM    5  C5  UNL     1     -34.259  14.443  -5.021  1.00 20.00     0.086 C 
HETATM    6 CL12 UNL     1     -35.277  13.205  -4.266  1.00 20.00    -0.125 Cl
ENDROOT
BRANCH   4   7
HETATM    7  C8  UNL     1     -33.756  15.955  -3.019  1.00 20.00     0.010 C 
BRANCH   7   8
HETATM    8  C11 UNL     1     -34.755  16.138  -1.860  1.00 20.00    -0.018 C 
HETATM    9  C7  UNL     1     -36.086  16.669  -2.404  1.00 20.00     0.010 C 
BRANCH   8  10
HETATM   10  C10 UNL     1     -34.235  17.009  -0.698  1.00 20.00     0.004 C 
BRANCH  10  11
HETATM   11  C9  UNL     1     -33.333  18.175  -1.109  1.00 20.00    -0.004 C 
HETATM   12  C6  UNL     1     -32.571  18.731   0.085  1.00 20.00     0.005 C 
ENDBRANCH  10  11
ENDBRANCH   8  10
ENDBRANCH   7   8
ENDBRANCH   4   7
TORSDOF 4
ENDMDL
MODEL 6
REMARK VINA RESULT:      -4.5     10.949     12.748
REMARK  4 active torsions:
REMARK  status: ('A' for Active; 'I' for Inactive)
REMARK    1  A    between atoms: C4_4  and  C8_8 
REMARK    2  A    between atoms: C8_8  and  C11_11 
REMARK    3  A    between atoms: C9_9  and  C10_10 
REMARK    4  A    between atoms: C10_10  and  C11_11 
ROOT
HETATM    1  C1  UNL     1     -33.459  13.655  -3.752  1.00 20.00     0.002 C 
HETATM    2  C2  UNL     1     -32.839  15.055  -3.774  1.00 20.00     0.006 C 
HETATM    3  C3  UNL     1     -34.647  13.696  -4.713  1.00 20.00     0.020 C 
HETATM    4  C4  UNL     1     -33.563  15.811  -4.893  1.00 20.00     0.004 C 
HETATM    5  C5  UNL     1     -34.954  15.180  -4.867  1.00 20.00     0.086 C 
HETATM    6 CL12 UNL     1     -35.894  15.512  -6.332  1.00 20.00    -0.125 Cl
ENDROOT
BRANCH   4   7
HETATM    7  C8  UNL     1     -33.559  17.317  -4.683  1.00 20.00     0.010 C 
BRANCH   7   8
HETATM    8  C11 UNL     1     -34.436  17.780  -3.505  1.00 20.00    -0.018 C 
HETATM    9  C7  UNL     1     -35.544  18.706  -4.019  1.00 20.00     0.010 C 
BRANCH   8  10
HETATM   10  C10 UNL     1     -33.657  18.427  -2.341  1.00 20.00     0.004 C 
BRANCH  10  11
HETATM   11  C9  UNL     1     -33.614  17.608  -1.049  1.00 20.00    -0.004 C 
HETATM   12  C6  UNL     1     -34.696  16.537  -1.039  1.00 20.00     0.005 C 
ENDBRANCH  10  11
ENDBRANCH   8  10
ENDBRANCH   7   8
ENDBRANCH   4   7
TORSDOF 4
ENDMDL
MODEL 7
REMARK VINA RESULT:      -4.5      1.711      2.053
REMARK  4 active torsions:
REMARK  status: ('A' for Active; 'I' for Inactive)
REMARK    1  A    between atoms: C4_4  and  C8_8 
REMARK    2  A    between atoms: C8_8  and  C11_11 
REMARK    3  A    between atoms: C9_9  and  C10_10 
REMARK    4  A    between atoms: C10_10  and  C11_11 
ROOT
HETATM    1  C1  UNL     1     -34.927   4.018   5.003  1.00 20.00     0.002 C 
HETATM    2  C2  UNL     1     -34.854   5.031   3.858  1.00 20.00     0.006 C 
HETATM    3  C3  UNL     1     -34.567   4.782   6.278  1.00 20.00     0.020 C 
HETATM    4  C4  UNL     1     -34.647   6.395   4.525  1.00 20.00     0.004 C 
HETATM    5  C5  UNL     1     -33.851   6.030   5.777  1.00 20.00     0.086 C 
HETATM    6 CL12 UNL     1     -33.840   7.319   6.992  1.00 20.00    -0.125 Cl
ENDROOT
BRANCH   4   7
HETATM    7  C8  UNL     1     -33.950   7.394   3.614  1.00 20.00     0.010 C 
BRANCH   7   8
HETATM    8  C11 UNL     1     -32.558   6.934   3.141  1.00 20.00    -0.018 C 
HETATM    9  C7  UNL     1     -31.478   7.540   4.044  1.00 20.00     0.010 C 
BRANCH   8  10
HETATM   10  C10 UNL     1     -32.265   7.210   1.651  1.00 20.00     0.004 C 
BRANCH  10  11
HETATM   11  C9  UNL     1     -31.534   8.524   1.363  1.00 20.00    -0.004 C 
HETATM   12  C6  UNL     1     -32.517   9.664   1.138  1.00 20.00     0.005 C 
ENDBRANCH  10  11
ENDBRANCH   8  10
ENDBRANCH   7   8
ENDBRANCH   4   7
TORSDOF 4
ENDMDL
MODEL 8
REMARK VINA RESULT:      -4.4     11.174     12.923
REMARK  4 active torsions:
REMARK  status: ('A' for Active; 'I' for Inactive)
REMARK    1  A    between atoms: C4_4  and  C8_8 
REMARK    2  A    between atoms: C8_8  and  C11_11 
REMARK    3  A    between atoms: C9_9  and  C10_10 
REMARK    4  A    between atoms: C10_10  and  C11_11 
ROOT
HETATM    1  C1  UNL     1     -34.626  16.464  -1.396  1.00 20.00     0.002 C 
HETATM    2  C2  UNL     1     -35.630  16.039  -2.471  1.00 20.00     0.006 C 
HETATM    3  C3  UNL     1     -33.712  17.502  -2.048  1.00 20.00     0.020 C 
HETATM    4  C4  UNL     1     -35.395  16.985  -3.653  1.00 20.00     0.004 C 
HETATM    5  C5  UNL     1     -33.901  17.282  -3.543  1.00 20.00     0.086 C 
HETATM    6 CL12 UNL     1     -33.404  18.697  -4.487  1.00 20.00    -0.125 Cl
ENDROOT
BRANCH   4   7
HETATM    7  C8  UNL     1     -35.812  16.377  -4.984  1.00 20.00     0.010 C 
BRANCH   7   8
HETATM    8  C11 UNL     1     -34.700  15.556  -5.664  1.00 20.00    -0.018 C 
HETATM    9  C7  UNL     1     -34.381  16.157  -7.037  1.00 20.00     0.010 C 
BRANCH   8  10
HETATM   10  C10 UNL     1     -34.991  14.044  -5.766  1.00 20.00     0.004 C 
BRANCH  10  11
HETATM   11  C9  UNL     1     -34.743  13.244  -4.485  1.00 20.00    -0.004 C 
HETATM   12  C6  UNL     1     -33.411  13.618  -3.851  1.00 20.00     0.005 C 
ENDBRANCH  10  11
ENDBRANCH   8  10
ENDBRANCH   7   8
ENDBRANCH   4   7
TORSDOF 4
ENDMDL
MODEL 9
REMARK VINA RESULT:      -4.4     11.080     13.525
REMARK  4 active torsions:
REMARK  status: ('A' for Active; 'I' for Inactive)
REMARK    1  A    between atoms: C4_4  and  C8_8 
REMARK    2  A    between atoms: C8_8  and  C11_11 
REMARK    3  A    between atoms: C9_9  and  C10_10 
REMARK    4  A    between atoms: C10_10  and  C11_11 
ROOT
HETATM    1  C1  UNL     1     -35.668  14.587  -7.680  1.00 20.00     0.002 C 
HETATM    2  C2  UNL     1     -34.297  15.050  -7.178  1.00 20.00     0.006 C 
HETATM    3  C3  UNL     1     -36.684  15.602  -7.156  1.00 20.00     0.020 C 
HETATM    4  C4  UNL     1     -34.532  16.425  -6.543  1.00 20.00     0.004 C 
HETATM    5  C5  UNL     1     -35.960  16.301  -6.012  1.00 20.00     0.086 C 
HETATM    6 CL12 UNL     1     -36.694  17.866  -5.623  1.00 20.00    -0.125 Cl
ENDROOT
BRANCH   4   7
HETATM    7  C8  UNL     1     -33.500  16.765  -5.479  1.00 20.00     0.010 C 
BRANCH   7   8
HETATM    8  C11 UNL     1     -33.787  16.120  -4.110  1.00 20.00    -0.018 C 
HETATM    9  C7  UNL     1     -33.884  17.210  -3.036  1.00 20.00     0.010 C 
BRANCH   8  10
HETATM   10  C10 UNL     1     -32.792  15.015  -3.702  1.00 20.00     0.004 C 
BRANCH  10  11
HETATM   11  C9  UNL     1     -33.341  13.587  -3.763  1.00 20.00    -0.004 C 
HETATM   12  C6  UNL     1     -34.859  13.585  -3.873  1.00 20.00     0.005 C 
ENDBRANCH  10  11
ENDBRANCH   8  10
ENDBRANCH   7   8
ENDBRANCH   4   7
TORSDOF 4
ENDMDL
