MODEL 1
REMARK VINA RESULT:      -4.0      0.000      0.000
REMARK  2 active torsions:
REMARK  status: ('A' for Active; 'I' for Inactive)
REMARK    1  A    between atoms: C5_5  and  N8_8 
REMARK    2  A    between atoms: C6_6  and  N8_8 
ROOT
HETATM    1  N8  UNL     1     -33.500   6.124   5.065  1.00 20.00     0.097 N 
HETATM    2  H22 UNL     1     -33.287   7.007   5.523  1.00 20.00     0.317 HD
ENDROOT
BRANCH   1   3
HETATM    3  C5  UNL     1     -33.452   6.324   3.613  1.00 20.00     0.225 A 
HETATM    4  C1  UNL     1     -32.355   5.682   2.802  1.00 20.00     0.042 A 
HETATM    5  C4  UNL     1     -32.387   7.177   2.968  1.00 20.00     0.016 A 
HETATM    6  C7  UNL     1     -31.330   7.863   3.764  1.00 20.00     0.012 C 
ENDBRANCH   1   3
BRANCH   1   7
HETATM    7  C6  UNL     1     -34.818   5.667   5.474  1.00 20.00     0.268 C 
HETATM    8  C2  UNL     1     -34.683   4.279   6.098  1.00 20.00     0.205 C 
HETATM    9  O9  UNL     1     -35.093   3.641   4.862  1.00 20.00    -0.387 OA
HETATM   10  C3  UNL     1     -35.465   4.928   4.304  1.00 20.00     0.205 C 
ENDBRANCH   1   7
TORSDOF 2
ENDMDL
MODEL 2
REMARK VINA RESULT:      -3.9      2.254      4.218
REMARK  2 active torsions:
REMARK  status: ('A' for Active; 'I' for Inactive)
REMARK    1  A    between atoms: C5_5  and  N8_8 
REMARK    2  A    between atoms: C6_6  and  N8_8 
ROOT
HETATM    1  N8  UNL     1     -33.497   6.532   4.061  1.00 20.00     0.097 N 
HETATM    2  H22 UNL     1     -33.321   6.473   5.061  1.00 20.00     0.317 HD
ENDROOT
BRANCH   1   3
HETATM    3  C5  UNL     1     -34.357   5.412   3.669  1.00 20.00     0.225 A 
HETATM    4  C1  UNL     1     -35.850   5.511   3.851  1.00 20.00     0.042 A 
HETATM    5  C4  UNL     1     -35.055   4.553   4.696  1.00 20.00     0.016 A 
HETATM    6  C7  UNL     1     -34.909   4.793   6.160  1.00 20.00     0.012 C 
ENDBRANCH   1   3
BRANCH   1   7
HETATM    7  C6  UNL     1     -32.236   6.486   3.340  1.00 20.00     0.268 C 
HETATM    8  C2  UNL     1     -31.343   7.620   3.841  1.00 20.00     0.205 C 
HETATM    9  O9  UNL     1     -31.701   8.454   2.709  1.00 20.00    -0.387 OA
HETATM   10  C3  UNL     1     -32.365   7.331   2.073  1.00 20.00     0.205 C 
ENDBRANCH   1   7
TORSDOF 2
ENDMDL
MODEL 3
REMARK VINA RESULT:      -3.9     11.685     12.687
REMARK  2 active torsions:
REMARK  status: ('A' for Active; 'I' for Inactive)
REMARK    1  A    between atoms: C5_5  and  N8_8 
REMARK    2  A    between atoms: C6_6  and  N8_8 
ROOT
HETATM    1  N8  UNL     1     -34.737  15.745  -3.883  1.00 20.00     0.097 N 
HETATM    2  H22 UNL     1     -34.720  16.656  -4.335  1.00 20.00     0.317 HD
ENDROOT
BRANCH   1   3
HETATM    3  C5  UNL     1     -34.041  15.845  -2.597  1.00 20.00     0.225 A 
HETATM    4  C1  UNL     1     -34.776  16.350  -1.382  1.00 20.00     0.042 A 
HETATM    5  C4  UNL     1     -33.681  17.181  -1.994  1.00 20.00     0.016 A 
HETATM    6  C7  UNL     1     -34.011  18.470  -2.669  1.00 20.00     0.012 C 
ENDBRANCH   1   3
BRANCH   1   7
HETATM    7  C6  UNL     1     -34.091  14.764  -4.739  1.00 20.00     0.268 C 
HETATM    8  C2  UNL     1     -35.153  13.801  -5.267  1.00 20.00     0.205 C 
HETATM    9  O9  UNL     1     -34.814  12.813  -4.261  1.00 20.00    -0.387 OA
HETATM   10  C3  UNL     1     -33.644  13.582  -3.878  1.00 20.00     0.205 C 
ENDBRANCH   1   7
TORSDOF 2
ENDMDL
MODEL 4
REMARK VINA RESULT:      -3.7     12.389     12.883
REMARK  2 active torsions:
REMARK  status: ('A' for Active; 'I' for Inactive)
REMARK    1  A    between atoms: C5_5  and  N8_8 
REMARK    2  A    between atoms: C6_6  and  N8_8 
ROOT
HETATM    1  N8  UNL     1     -36.524  16.334  -2.530  1.00 20.00     0.097 N 
HETATM    2  H22 UNL     1     -37.103  17.016  -2.046  1.00 20.00     0.317 HD
ENDROOT
BRANCH   1   3
HETATM    3  C5  UNL     1     -35.181  16.897  -2.703  1.00 20.00     0.225 A 
HETATM    4  C1  UNL     1     -33.969  16.062  -2.379  1.00 20.00     0.042 A 
HETATM    5  C4  UNL     1     -34.313  17.249  -1.520  1.00 20.00     0.016 A 
HETATM    6  C7  UNL     1     -34.768  17.046  -0.114  1.00 20.00     0.012 C 
ENDBRANCH   1   3
BRANCH   1   7
HETATM    7  C6  UNL     1     -37.116  16.018  -3.819  1.00 20.00     0.268 C 
HETATM    8  C2  UNL     1     -38.560  15.571  -3.598  1.00 20.00     0.205 C 
HETATM    9  O9  UNL     1     -38.181  14.173  -3.683  1.00 20.00    -0.387 OA
HETATM   10  C3  UNL     1     -36.852  14.545  -4.131  1.00 20.00     0.205 C 
ENDBRANCH   1   7
TORSDOF 2
ENDMDL
MODEL 5
REMARK VINA RESULT:      -3.6     12.745     13.508
REMARK  2 active torsions:
REMARK  status: ('A' for Active; 'I' for Inactive)
REMARK    1  A    between atoms: C5_5  and  N8_8 
REMARK    2  A    between atoms: C6_6  and  N8_8 
ROOT
HETATM    1  N8  UNL     1     -34.981  16.713  -2.975  1.00 20.00     0.097 N 
HETATM    2  H22 UNL     1     -34.784  17.663  -3.280  1.00 20.00     0.317 HD
ENDROOT
BRANCH   1   3
HETATM    3  C5  UNL     1     -34.224  16.447  -1.749  1.00 20.00     0.225 A 
HETATM    4  C1  UNL     1     -34.768  16.895  -0.416  1.00 20.00     0.042 A 
HETATM    5  C4  UNL     1     -33.541  17.555  -0.984  1.00 20.00     0.016 A 
HETATM    6  C7  UNL     1     -33.597  18.977  -1.430  1.00 20.00     0.012 C 
ENDBRANCH   1   3
BRANCH   1   7
HETATM    7  C6  UNL     1     -34.605  15.778  -4.022  1.00 20.00     0.268 C 
HETATM    8  C2  UNL     1     -33.128  15.424  -3.855  1.00 20.00     0.205 C 
HETATM    9  O9  UNL     1     -32.745  16.376  -4.881  1.00 20.00    -0.387 OA
HETATM   10  C3  UNL     1     -34.137  16.570  -5.242  1.00 20.00     0.205 C 
ENDBRANCH   1   7
TORSDOF 2
ENDMDL
MODEL 6
REMARK VINA RESULT:      -3.5      9.766     11.196
REMARK  2 active torsions:
REMARK  status: ('A' for Active; 'I' for Inactive)
REMARK    1  A    between atoms: C5_5  and  N8_8 
REMARK    2  A    between atoms: C6_6  and  N8_8 
ROOT
HETATM    1  N8  UNL     1     -41.609   3.642  -1.656  1.00 20.00     0.097 N 
HETATM    2  H22 UNL     1     -40.769   3.808  -2.206  1.00 20.00     0.317 HD
ENDROOT
BRANCH   1   3
HETATM    3  C5  UNL     1     -42.688   3.231  -2.558  1.00 20.00     0.225 A 
HETATM    4  C1  UNL     1     -43.217   1.820  -2.503  1.00 20.00     0.042 A 
HETATM    5  C4  UNL     1     -42.441   2.283  -3.707  1.00 20.00     0.016 A 
HETATM    6  C7  UNL     1     -41.091   1.715  -3.988  1.00 20.00     0.012 C 
ENDBRANCH   1   3
BRANCH   1   7
HETATM    7  C6  UNL     1     -41.972   4.856  -0.943  1.00 20.00     0.268 C 
HETATM    8  C2  UNL     1     -42.201   5.972  -1.962  1.00 20.00     0.205 C 
HETATM    9  O9  UNL     1     -40.871   6.505  -1.733  1.00 20.00    -0.387 OA
HETATM   10  C3  UNL     1     -40.696   5.621  -0.596  1.00 20.00     0.205 C 
ENDBRANCH   1   7
TORSDOF 2
ENDMDL
MODEL 7
REMARK VINA RESULT:      -3.5     12.487     13.636
REMARK  2 active torsions:
REMARK  status: ('A' for Active; 'I' for Inactive)
REMARK    1  A    between atoms: C5_5  and  N8_8 
REMARK    2  A    between atoms: C6_6  and  N8_8 
ROOT
HETATM    1  N8  UNL     1     -34.172  15.437  -5.305  1.00 20.00     0.097 N 
HETATM    2  H22 UNL     1     -33.670  14.750  -5.862  1.00 20.00     0.317 HD
ENDROOT
BRANCH   1   3
HETATM    3  C5  UNL     1     -33.301  16.598  -5.095  1.00 20.00     0.225 A 
HETATM    4  C1  UNL     1     -33.780  17.755  -4.256  1.00 20.00     0.042 A 
HETATM    5  C4  UNL     1     -33.592  17.932  -5.738  1.00 20.00     0.016 A 
HETATM    6  C7  UNL     1     -34.776  18.145  -6.619  1.00 20.00     0.012 C 
ENDBRANCH   1   3
BRANCH   1   7
HETATM    7  C6  UNL     1     -34.554  14.849  -4.032  1.00 20.00     0.268 C 
HETATM    8  C2  UNL     1     -33.767  13.554  -3.835  1.00 20.00     0.205 C 
HETATM    9  O9  UNL     1     -34.892  12.756  -4.285  1.00 20.00    -0.387 OA
HETATM   10  C3  UNL     1     -35.751  13.926  -4.259  1.00 20.00     0.205 C 
ENDBRANCH   1   7
TORSDOF 2
ENDMDL
MODEL 8
REMARK VINA RESULT:      -3.5      9.395     10.737
REMARK  2 active torsions:
REMARK  status: ('A' for Active; 'I' for Inactive)
REMARK    1  A    between atoms: C5_5  and  N8_8 
REMARK    2  A    between atoms: C6_6  and  N8_8 
ROOT
HETATM    1  N8  UNL     1     -41.282   3.804  -1.728  1.00 20.00     0.097 N 
HETATM    2  H22 UNL     1     -41.587   3.281  -0.910  1.00 20.00     0.317 HD
ENDROOT
BRANCH   1   3
HETATM    3  C5  UNL     1     -41.407   5.236  -1.444  1.00 20.00     0.225 A 
HETATM    4  C1  UNL     1     -40.634   5.847  -0.304  1.00 20.00     0.042 A 
HETATM    5  C4  UNL     1     -42.132   5.739  -0.220  1.00 20.00     0.016 A 
HETATM    6  C7  UNL     1     -42.760   4.813   0.766  1.00 20.00     0.012 C 
ENDBRANCH   1   3
BRANCH   1   7
HETATM    7  C6  UNL     1     -42.097   3.436  -2.874  1.00 20.00     0.268 C 
HETATM    8  C2  UNL     1     -43.276   2.595  -2.387  1.00 20.00     0.205 C 
HETATM    9  O9  UNL     1     -42.602   1.365  -2.757  1.00 20.00    -0.387 OA
HETATM   10  C3  UNL     1     -41.572   2.120  -3.446  1.00 20.00     0.205 C 
ENDBRANCH   1   7
TORSDOF 2
ENDMDL
MODEL 9
REMARK VINA RESULT:      -3.5     12.613     13.995
REMARK  2 active torsions:
REMARK  status: ('A' for Active; 'I' for Inactive)
REMARK    1  A    between atoms: C5_5  and  N8_8 
REMARK    2  A    between atoms: C6_6  and  N8_8 
ROOT
HETATM    1  N8  UNL     1     -33.302  15.768  -5.216  1.00 20.00     0.097 N 
HETATM    2  H22 UNL     1     -34.054  15.382  -5.781  1.00 20.00     0.317 HD
ENDROOT
BRANCH   1   3
HETATM    3  C5  UNL     1     -33.421  15.242  -3.853  1.00 20.00     0.225 A 
HETATM    4  C1  UNL     1     -32.780  13.925  -3.497  1.00 20.00     0.042 A 
HETATM    5  C4  UNL     1     -34.280  14.041  -3.541  1.00 20.00     0.016 A 
HETATM    6  C7  UNL     1     -35.054  13.324  -4.595  1.00 20.00     0.012 C 
ENDBRANCH   1   3
BRANCH   1   7
HETATM    7  C6  UNL     1     -33.390  17.219  -5.214  1.00 20.00     0.268 C 
HETATM    8  C2  UNL     1     -34.475  17.642  -4.225  1.00 20.00     0.205 C 
HETATM    9  O9  UNL     1     -35.439  17.811  -5.296  1.00 20.00    -0.387 OA
HETATM   10  C3  UNL     1     -34.390  17.651  -6.286  1.00 20.00     0.205 C 
ENDBRANCH   1   7
TORSDOF 2
ENDMDL
