MODEL 1
REMARK VINA RESULT:      -5.1      0.000      0.000
REMARK  4 active torsions:
REMARK  status: ('A' for Active; 'I' for Inactive)
REMARK    1  A    between atoms: C5_5  and  C9_9 
REMARK    2  A    between atoms: C7_7  and  C8_8 
REMARK    3  A    between atoms: C8_8  and  C9_9 
REMARK    4  A    between atoms: C9_9  and  O10_10 
ROOT
HETATM    1  C1  UNL     1     -31.994   8.961   1.302  1.00 20.00     0.012 C 
HETATM    2  C2  UNL     1     -32.110   8.080   2.109  1.00 20.00    -0.117 C 
HETATM    3  C7  UNL     1     -32.249   6.999   3.098  1.00 20.00     0.096 C 
ENDROOT
BRANCH   3   4
HETATM    4  C8  UNL     1     -33.633   7.037   3.760  1.00 20.00     0.050 C 
BRANCH   4   5
HETATM    5  C9  UNL     1     -34.376   5.683   3.770  1.00 20.00     0.059 C 
HETATM    6  C6  UNL     1     -35.866   5.853   3.603  1.00 20.00     0.046 C 
BRANCH   5   7
HETATM    7  C5  UNL     1     -34.075   4.948   5.083  1.00 20.00     0.019 A 
HETATM    8  C3  UNL     1     -34.528   5.524   6.395  1.00 20.00     0.008 A 
HETATM    9  C4  UNL     1     -35.186   4.287   5.851  1.00 20.00     0.008 A 
ENDBRANCH   5   7
BRANCH   5  10
HETATM   10  O10 UNL     1     -33.875   4.884   2.696  1.00 20.00    -0.390 OA
HETATM   11  H24 UNL     1     -33.008   4.558   2.981  1.00 20.00     0.210 HD
ENDBRANCH   5  10
ENDBRANCH   4   5
ENDBRANCH   3   4
TORSDOF 4
ENDMDL
MODEL 2
REMARK VINA RESULT:      -4.9     11.350     12.076
REMARK  4 active torsions:
REMARK  status: ('A' for Active; 'I' for Inactive)
REMARK    1  A    between atoms: C5_5  and  C9_9 
REMARK    2  A    between atoms: C7_7  and  C8_8 
REMARK    3  A    between atoms: C8_8  and  C9_9 
REMARK    4  A    between atoms: C9_9  and  O10_10 
ROOT
HETATM    1  C1  UNL     1     -34.752  17.523   0.481  1.00 20.00     0.012 C 
HETATM    2  C2  UNL     1     -34.757  16.875  -0.529  1.00 20.00    -0.117 C 
HETATM    3  C7  UNL     1     -34.767  16.079  -1.767  1.00 20.00     0.096 C 
ENDROOT
BRANCH   3   4
HETATM    4  C8  UNL     1     -33.486  16.315  -2.579  1.00 20.00     0.050 C 
BRANCH   4   5
HETATM    5  C9  UNL     1     -33.333  15.400  -3.814  1.00 20.00     0.059 C 
HETATM    6  C6  UNL     1     -33.414  16.174  -5.107  1.00 20.00     0.046 C 
BRANCH   5   7
HETATM    7  C5  UNL     1     -34.418  14.316  -3.781  1.00 20.00     0.019 A 
HETATM    8  C3  UNL     1     -35.461  14.255  -4.863  1.00 20.00     0.008 A 
HETATM    9  C4  UNL     1     -34.398  13.194  -4.782  1.00 20.00     0.008 A 
ENDBRANCH   5   7
BRANCH   5  10
HETATM   10  O10 UNL     1     -32.063  14.748  -3.740  1.00 20.00    -0.390 OA
HETATM   11  H24 UNL     1     -31.467  15.247  -4.319  1.00 20.00     0.210 HD
ENDBRANCH   5  10
ENDBRANCH   4   5
ENDBRANCH   3   4
TORSDOF 4
ENDMDL
MODEL 3
REMARK VINA RESULT:      -4.8      1.198      1.557
REMARK  4 active torsions:
REMARK  status: ('A' for Active; 'I' for Inactive)
REMARK    1  A    between atoms: C5_5  and  C9_9 
REMARK    2  A    between atoms: C7_7  and  C8_8 
REMARK    3  A    between atoms: C8_8  and  C9_9 
REMARK    4  A    between atoms: C9_9  and  O10_10 
ROOT
HETATM    1  C1  UNL     1     -32.143   8.831   1.108  1.00 20.00     0.012 C 
HETATM    2  C2  UNL     1     -31.948   8.232   2.130  1.00 20.00    -0.117 C 
HETATM    3  C7  UNL     1     -31.706   7.502   3.384  1.00 20.00     0.096 C 
ENDROOT
BRANCH   3   4
HETATM    4  C8  UNL     1     -32.516   6.199   3.424  1.00 20.00     0.050 C 
BRANCH   4   5
HETATM    5  C9  UNL     1     -33.693   6.205   4.422  1.00 20.00     0.059 C 
HETATM    6  C6  UNL     1     -33.370   6.980   5.676  1.00 20.00     0.046 C 
BRANCH   5   7
HETATM    7  C5  UNL     1     -34.064   4.760   4.780  1.00 20.00     0.019 A 
HETATM    8  C3  UNL     1     -34.761   4.454   6.076  1.00 20.00     0.008 A 
HETATM    9  C4  UNL     1     -35.504   4.325   4.775  1.00 20.00     0.008 A 
ENDBRANCH   5   7
BRANCH   5  10
HETATM   10  O10 UNL     1     -34.825   6.802   3.785  1.00 20.00    -0.390 OA
HETATM   11  H24 UNL     1     -35.252   7.358   4.454  1.00 20.00     0.210 HD
ENDBRANCH   5  10
ENDBRANCH   4   5
ENDBRANCH   3   4
TORSDOF 4
ENDMDL
MODEL 4
REMARK VINA RESULT:      -4.8     10.767     12.114
REMARK  4 active torsions:
REMARK  status: ('A' for Active; 'I' for Inactive)
REMARK    1  A    between atoms: C5_5  and  C9_9 
REMARK    2  A    between atoms: C7_7  and  C8_8 
REMARK    3  A    between atoms: C8_8  and  C9_9 
REMARK    4  A    between atoms: C9_9  and  O10_10 
ROOT
HETATM    1  C1  UNL     1     -34.797  17.014  -0.107  1.00 20.00     0.012 C 
HETATM    2  C2  UNL     1     -34.487  16.623  -1.200  1.00 20.00    -0.117 C 
HETATM    3  C7  UNL     1     -34.105  16.146  -2.538  1.00 20.00     0.096 C 
ENDROOT
BRANCH   3   4
HETATM    4  C8  UNL     1     -35.049  15.034  -3.013  1.00 20.00     0.050 C 
BRANCH   4   5
HETATM    5  C9  UNL     1     -34.423  14.052  -4.028  1.00 20.00     0.059 C 
HETATM    6  C6  UNL     1     -33.022  13.650  -3.639  1.00 20.00     0.046 C 
BRANCH   5   7
HETATM    7  C5  UNL     1     -34.418  14.696  -5.421  1.00 20.00     0.019 A 
HETATM    8  C3  UNL     1     -35.177  14.062  -6.552  1.00 20.00     0.008 A 
HETATM    9  C4  UNL     1     -35.660  15.354  -5.955  1.00 20.00     0.008 A 
ENDBRANCH   5   7
BRANCH   5  10
HETATM   10  O10 UNL     1     -35.242  12.882  -4.091  1.00 20.00    -0.390 OA
HETATM   11  H24 UNL     1     -36.143  13.169  -3.876  1.00 20.00     0.210 HD
ENDBRANCH   5  10
ENDBRANCH   4   5
ENDBRANCH   3   4
TORSDOF 4
ENDMDL
MODEL 5
REMARK VINA RESULT:      -4.7      0.992      4.822
REMARK  4 active torsions:
REMARK  status: ('A' for Active; 'I' for Inactive)
REMARK    1  A    between atoms: C5_5  and  C9_9 
REMARK    2  A    between atoms: C7_7  and  C8_8 
REMARK    3  A    between atoms: C8_8  and  C9_9 
REMARK    4  A    between atoms: C9_9  and  O10_10 
ROOT
HETATM    1  C1  UNL     1     -35.139   4.271   5.948  1.00 20.00     0.012 C 
HETATM    2  C2  UNL     1     -34.875   4.871   4.942  1.00 20.00    -0.117 C 
HETATM    3  C7  UNL     1     -34.554   5.605   3.708  1.00 20.00     0.096 C 
ENDROOT
BRANCH   3   4
HETATM    4  C8  UNL     1     -33.771   6.887   4.022  1.00 20.00     0.050 C 
BRANCH   4   5
HETATM    5  C9  UNL     1     -32.488   7.077   3.182  1.00 20.00     0.059 C 
HETATM    6  C6  UNL     1     -31.372   7.699   3.985  1.00 20.00     0.046 C 
BRANCH   5   7
HETATM    7  C5  UNL     1     -32.805   7.947   1.960  1.00 20.00     0.019 A 
HETATM    8  C3  UNL     1     -32.485   9.416   1.972  1.00 20.00     0.008 A 
HETATM    9  C4  UNL     1     -31.691   8.482   1.103  1.00 20.00     0.008 A 
ENDBRANCH   5   7
BRANCH   5  10
HETATM   10  O10 UNL     1     -32.064   5.796   2.710  1.00 20.00    -0.390 OA
HETATM   11  H24 UNL     1     -31.475   5.436   3.390  1.00 20.00     0.210 HD
ENDBRANCH   5  10
ENDBRANCH   4   5
ENDBRANCH   3   4
TORSDOF 4
ENDMDL
MODEL 6
REMARK VINA RESULT:      -4.6     10.957     12.457
REMARK  4 active torsions:
REMARK  status: ('A' for Active; 'I' for Inactive)
REMARK    1  A    between atoms: C5_5  and  C9_9 
REMARK    2  A    between atoms: C7_7  and  C8_8 
REMARK    3  A    between atoms: C8_8  and  C9_9 
REMARK    4  A    between atoms: C9_9  and  O10_10 
ROOT
HETATM    1  C1  UNL     1     -34.333  17.647  -6.560  1.00 20.00     0.012 C 
HETATM    2  C2  UNL     1     -34.886  16.582  -6.513  1.00 20.00    -0.117 C 
HETATM    3  C7  UNL     1     -35.566  15.279  -6.457  1.00 20.00     0.096 C 
ENDROOT
BRANCH   3   4
HETATM    4  C8  UNL     1     -34.713  14.248  -5.705  1.00 20.00     0.050 C 
BRANCH   4   5
HETATM    5  C9  UNL     1     -35.209  13.923  -4.279  1.00 20.00     0.059 C 
HETATM    6  C6  UNL     1     -36.536  14.575  -3.978  1.00 20.00     0.046 C 
BRANCH   5   7
HETATM    7  C5  UNL     1     -34.157  14.378  -3.259  1.00 20.00     0.019 A 
HETATM    8  C3  UNL     1     -33.007  15.244  -3.692  1.00 20.00     0.008 A 
HETATM    9  C4  UNL     1     -34.095  15.817  -2.828  1.00 20.00     0.008 A 
ENDBRANCH   5   7
BRANCH   5  10
HETATM   10  O10 UNL     1     -35.349  12.505  -4.160  1.00 20.00    -0.390 OA
HETATM   11  H24 UNL     1     -36.260  12.345  -3.871  1.00 20.00     0.210 HD
ENDBRANCH   5  10
ENDBRANCH   4   5
ENDBRANCH   3   4
TORSDOF 4
ENDMDL
MODEL 7
REMARK VINA RESULT:      -4.6     10.992     11.884
REMARK  4 active torsions:
REMARK  status: ('A' for Active; 'I' for Inactive)
REMARK    1  A    between atoms: C5_5  and  C9_9 
REMARK    2  A    between atoms: C7_7  and  C8_8 
REMARK    3  A    between atoms: C8_8  and  C9_9 
REMARK    4  A    between atoms: C9_9  and  O10_10 
ROOT
HETATM    1  C1  UNL     1     -34.559  16.699  -0.794  1.00 20.00     0.012 C 
HETATM    2  C2  UNL     1     -34.140  16.311  -1.850  1.00 20.00    -0.117 C 
HETATM    3  C7  UNL     1     -33.625  15.839  -3.145  1.00 20.00     0.096 C 
ENDROOT
BRANCH   3   4
HETATM    4  C8  UNL     1     -33.928  14.348  -3.344  1.00 20.00     0.050 C 
BRANCH   4   5
HETATM    5  C9  UNL     1     -35.169  14.057  -4.216  1.00 20.00     0.059 C 
HETATM    6  C6  UNL     1     -34.923  14.363  -5.673  1.00 20.00     0.046 C 
BRANCH   5   7
HETATM    7  C5  UNL     1     -36.357  14.879  -3.700  1.00 20.00     0.019 A 
HETATM    8  C3  UNL     1     -37.070  15.836  -4.614  1.00 20.00     0.008 A 
HETATM    9  C4  UNL     1     -37.751  14.571  -4.171  1.00 20.00     0.008 A 
ENDBRANCH   5   7
BRANCH   5  10
HETATM   10  O10 UNL     1     -35.503  12.674  -4.081  1.00 20.00    -0.390 OA
HETATM   11  H24 UNL     1     -34.986  12.341  -3.332  1.00 20.00     0.210 HD
ENDBRANCH   5  10
ENDBRANCH   4   5
ENDBRANCH   3   4
TORSDOF 4
ENDMDL
MODEL 8
REMARK VINA RESULT:      -4.6     11.146     12.714
REMARK  4 active torsions:
REMARK  status: ('A' for Active; 'I' for Inactive)
REMARK    1  A    between atoms: C5_5  and  C9_9 
REMARK    2  A    between atoms: C7_7  and  C8_8 
REMARK    3  A    between atoms: C8_8  and  C9_9 
REMARK    4  A    between atoms: C9_9  and  O10_10 
ROOT
HETATM    1  C1  UNL     1     -34.584  16.628  -0.830  1.00 20.00     0.012 C 
HETATM    2  C2  UNL     1     -34.269  16.976  -1.935  1.00 20.00    -0.117 C 
HETATM    3  C7  UNL     1     -33.880  17.405  -3.288  1.00 20.00     0.096 C 
ENDROOT
BRANCH   3   4
HETATM    4  C8  UNL     1     -34.730  16.697  -4.352  1.00 20.00     0.050 C 
BRANCH   4   5
HETATM    5  C9  UNL     1     -33.931  15.783  -5.307  1.00 20.00     0.059 C 
HETATM    6  C6  UNL     1     -34.187  16.114  -6.756  1.00 20.00     0.046 C 
BRANCH   5   7
HETATM    7  C5  UNL     1     -34.295  14.319  -5.030  1.00 20.00     0.019 A 
HETATM    8  C3  UNL     1     -33.870  13.661  -3.747  1.00 20.00     0.008 A 
HETATM    9  C4  UNL     1     -35.320  13.979  -3.983  1.00 20.00     0.008 A 
ENDBRANCH   5   7
BRANCH   5  10
HETATM   10  O10 UNL     1     -32.538  15.947  -5.031  1.00 20.00    -0.390 OA
HETATM   11  H24 UNL     1     -32.117  16.162  -5.877  1.00 20.00     0.210 HD
ENDBRANCH   5  10
ENDBRANCH   4   5
ENDBRANCH   3   4
TORSDOF 4
ENDMDL
MODEL 9
REMARK VINA RESULT:      -4.5     11.726     13.041
REMARK  4 active torsions:
REMARK  status: ('A' for Active; 'I' for Inactive)
REMARK    1  A    between atoms: C5_5  and  C9_9 
REMARK    2  A    between atoms: C7_7  and  C8_8 
REMARK    3  A    between atoms: C8_8  and  C9_9 
REMARK    4  A    between atoms: C9_9  and  O10_10 
ROOT
HETATM    1  C1  UNL     1     -34.682  17.413   0.048  1.00 20.00     0.012 C 
HETATM    2  C2  UNL     1     -34.742  16.700  -0.917  1.00 20.00    -0.117 C 
HETATM    3  C7  UNL     1     -34.818  15.826  -2.098  1.00 20.00     0.096 C 
ENDROOT
BRANCH   3   4
HETATM    4  C8  UNL     1     -33.503  15.858  -2.889  1.00 20.00     0.050 C 
BRANCH   4   5
HETATM    5  C9  UNL     1     -33.669  16.158  -4.395  1.00 20.00     0.059 C 
HETATM    6  C6  UNL     1     -34.055  17.595  -4.649  1.00 20.00     0.046 C 
BRANCH   5   7
HETATM    7  C5  UNL     1     -34.727  15.218  -4.986  1.00 20.00     0.019 A 
HETATM    8  C3  UNL     1     -35.703  15.724  -6.012  1.00 20.00     0.008 A 
HETATM    9  C4  UNL     1     -34.621  14.763  -6.416  1.00 20.00     0.008 A 
ENDBRANCH   5   7
BRANCH   5  10
HETATM   10  O10 UNL     1     -32.428  15.887  -5.050  1.00 20.00    -0.390 OA
HETATM   11  H24 UNL     1     -32.149  16.719  -5.461  1.00 20.00     0.210 HD
ENDBRANCH   5  10
ENDBRANCH   4   5
ENDBRANCH   3   4
TORSDOF 4
ENDMDL
