MODEL 1
REMARK VINA RESULT:      -5.2      0.000      0.000
REMARK  2 active torsions:
REMARK  status: ('A' for Active; 'I' for Inactive)
REMARK    1  A    between atoms: C1_1  and  C6_6 
REMARK    2  A    between atoms: C1_1  and  C8_8 
ROOT
HETATM    1  C2  UNL     1     -34.615   5.678   6.559  1.00 20.00     0.027 C 
HETATM    2  C3  UNL     1     -33.697   6.270   5.500  1.00 20.00     0.016 C 
HETATM    3  C4  UNL     1     -35.073   4.273   6.170  1.00 20.00     0.167 C 
HETATM    4  C5  UNL     1     -35.460   5.196   4.012  1.00 20.00     0.179 C 
HETATM    5  C6  UNL     1     -34.389   6.283   4.133  1.00 20.00     0.079 C 
HETATM    6  O10 UNL     1     -35.081   4.044   4.761  1.00 20.00    -0.390 OA
ENDROOT
BRANCH   5   7
HETATM    7  C1  UNL     1     -33.354   6.097   3.063  1.00 20.00     0.132 C 
HETATM    8  O9  UNL     1     -33.524   5.289   2.152  1.00 20.00    -0.298 OA
BRANCH   7   9
HETATM    9  C8  UNL     1     -32.110   6.958   3.181  1.00 20.00     0.074 C 
HETATM   10  C7  UNL     1     -32.097   8.106   2.188  1.00 20.00     0.013 C 
ENDBRANCH   7   9
ENDBRANCH   5   7
TORSDOF 2
ENDMDL
MODEL 2
REMARK VINA RESULT:      -4.5     11.523     12.713
REMARK  2 active torsions:
REMARK  status: ('A' for Active; 'I' for Inactive)
REMARK    1  A    between atoms: C1_1  and  C6_6 
REMARK    2  A    between atoms: C1_1  and  C8_8 
ROOT
HETATM    1  C2  UNL     1     -34.662  16.369  -2.013  1.00 20.00     0.027 C 
HETATM    2  C3  UNL     1     -35.315  15.217  -2.763  1.00 20.00     0.016 C 
HETATM    3  C4  UNL     1     -33.744  17.175  -2.931  1.00 20.00     0.167 C 
HETATM    4  C5  UNL     1     -32.947  15.063  -3.682  1.00 20.00     0.179 C 
HETATM    5  C6  UNL     1     -34.251  14.315  -3.396  1.00 20.00     0.079 C 
HETATM    6  O10 UNL     1     -33.222  16.419  -4.025  1.00 20.00    -0.390 OA
ENDROOT
BRANCH   5   7
HETATM    7  C1  UNL     1     -34.797  13.739  -4.669  1.00 20.00     0.132 C 
HETATM    8  O9  UNL     1     -34.694  12.539  -4.916  1.00 20.00    -0.298 OA
BRANCH   7   9
HETATM    9  C8  UNL     1     -35.471  14.720  -5.610  1.00 20.00     0.074 C 
HETATM   10  C7  UNL     1     -34.764  14.825  -6.950  1.00 20.00     0.013 C 
ENDBRANCH   7   9
ENDBRANCH   5   7
TORSDOF 2
ENDMDL
MODEL 3
REMARK VINA RESULT:      -4.4     11.549     12.789
REMARK  2 active torsions:
REMARK  status: ('A' for Active; 'I' for Inactive)
REMARK    1  A    between atoms: C1_1  and  C6_6 
REMARK    2  A    between atoms: C1_1  and  C8_8 
ROOT
HETATM    1  C2  UNL     1     -34.048  16.841  -2.072  1.00 20.00     0.027 C 
HETATM    2  C3  UNL     1     -34.875  15.579  -2.268  1.00 20.00     0.016 C 
HETATM    3  C4  UNL     1     -33.748  17.517  -3.409  1.00 20.00     0.167 C 
HETATM    4  C5  UNL     1     -33.222  15.332  -4.187  1.00 20.00     0.179 C 
HETATM    5  C6  UNL     1     -34.163  14.611  -3.219  1.00 20.00     0.079 C 
HETATM    6  O10 UNL     1     -33.743  16.617  -4.517  1.00 20.00    -0.390 OA
ENDROOT
BRANCH   5   7
HETATM    7  C1  UNL     1     -35.195  13.843  -3.991  1.00 20.00     0.132 C 
HETATM    8  O9  UNL     1     -34.930  12.749  -4.487  1.00 20.00    -0.298 OA
BRANCH   7   9
HETATM    9  C8  UNL     1     -36.559  14.495  -4.115  1.00 20.00     0.074 C 
HETATM   10  C7  UNL     1     -36.785  15.125  -5.477  1.00 20.00     0.013 C 
ENDBRANCH   7   9
ENDBRANCH   5   7
TORSDOF 2
ENDMDL
MODEL 4
REMARK VINA RESULT:      -4.2     11.590     12.706
REMARK  2 active torsions:
REMARK  status: ('A' for Active; 'I' for Inactive)
REMARK    1  A    between atoms: C1_1  and  C6_6 
REMARK    2  A    between atoms: C1_1  and  C8_8 
ROOT
HETATM    1  C2  UNL     1     -35.007  13.931  -3.955  1.00 20.00     0.027 C 
HETATM    2  C3  UNL     1     -35.297  15.135  -3.070  1.00 20.00     0.016 C 
HETATM    3  C4  UNL     1     -33.523  13.569  -3.925  1.00 20.00     0.167 C 
HETATM    4  C5  UNL     1     -33.138  15.903  -4.176  1.00 20.00     0.179 C 
HETATM    5  C6  UNL     1     -34.437  16.331  -3.490  1.00 20.00     0.079 C 
HETATM    6  O10 UNL     1     -32.671  14.674  -3.624  1.00 20.00    -0.390 OA
ENDROOT
BRANCH   5   7
HETATM    7  C1  UNL     1     -34.124  17.154  -2.275  1.00 20.00     0.132 C 
HETATM    8  O9  UNL     1     -33.521  18.222  -2.372  1.00 20.00    -0.298 OA
BRANCH   7   9
HETATM    9  C8  UNL     1     -34.592  16.589  -0.947  1.00 20.00     0.074 C 
HETATM   10  C7  UNL     1     -34.516  17.605   0.179  1.00 20.00     0.013 C 
ENDBRANCH   7   9
ENDBRANCH   5   7
TORSDOF 2
ENDMDL
MODEL 5
REMARK VINA RESULT:      -4.2     12.023     12.631
REMARK  2 active torsions:
REMARK  status: ('A' for Active; 'I' for Inactive)
REMARK    1  A    between atoms: C1_1  and  C6_6 
REMARK    2  A    between atoms: C1_1  and  C8_8 
ROOT
HETATM    1  C2  UNL     1     -34.432  13.233  -4.823  1.00 20.00     0.027 C 
HETATM    2  C3  UNL     1     -33.804  14.042  -3.699  1.00 20.00     0.016 C 
HETATM    3  C4  UNL     1     -35.198  14.134  -5.791  1.00 20.00     0.167 C 
HETATM    4  C5  UNL     1     -36.082  15.168  -3.839  1.00 20.00     0.179 C 
HETATM    5  C6  UNL     1     -34.871  14.853  -2.957  1.00 20.00     0.079 C 
HETATM    6  O10 UNL     1     -35.673  15.341  -5.194  1.00 20.00    -0.390 OA
ENDROOT
BRANCH   5   7
HETATM    7  C1  UNL     1     -34.256  16.130  -2.465  1.00 20.00     0.132 C 
HETATM    8  O9  UNL     1     -33.509  16.791  -3.184  1.00 20.00    -0.298 OA
BRANCH   7   9
HETATM    9  C8  UNL     1     -34.611  16.540  -1.048  1.00 20.00     0.074 C 
HETATM   10  C7  UNL     1     -33.765  17.695  -0.543  1.00 20.00     0.013 C 
ENDBRANCH   7   9
ENDBRANCH   5   7
TORSDOF 2
ENDMDL
MODEL 6
REMARK VINA RESULT:      -4.1     11.440     13.459
REMARK  2 active torsions:
REMARK  status: ('A' for Active; 'I' for Inactive)
REMARK    1  A    between atoms: C1_1  and  C6_6 
REMARK    2  A    between atoms: C1_1  and  C8_8 
ROOT
HETATM    1  C2  UNL     1     -37.101  15.636  -6.379  1.00 20.00     0.027 C 
HETATM    2  C3  UNL     1     -36.462  14.963  -5.174  1.00 20.00     0.016 C 
HETATM    3  C4  UNL     1     -36.750  14.902  -7.673  1.00 20.00     0.167 C 
HETATM    4  C5  UNL     1     -34.528  14.853  -6.825  1.00 20.00     0.179 C 
HETATM    5  C6  UNL     1     -34.943  14.870  -5.352  1.00 20.00     0.079 C 
HETATM    6  O10 UNL     1     -35.516  14.187  -7.607  1.00 20.00    -0.390 OA
ENDROOT
BRANCH   5   7
HETATM    7  C1  UNL     1     -34.449  13.629  -4.670  1.00 20.00     0.132 C 
HETATM    8  O9  UNL     1     -35.000  12.545  -4.852  1.00 20.00    -0.298 OA
BRANCH   7   9
HETATM    9  C8  UNL     1     -33.247  13.799  -3.760  1.00 20.00     0.074 C 
HETATM   10  C7  UNL     1     -32.872  15.256  -3.553  1.00 20.00     0.013 C 
ENDBRANCH   7   9
ENDBRANCH   5   7
TORSDOF 2
ENDMDL
MODEL 7
REMARK VINA RESULT:      -4.1     11.391     12.595
REMARK  2 active torsions:
REMARK  status: ('A' for Active; 'I' for Inactive)
REMARK    1  A    between atoms: C1_1  and  C6_6 
REMARK    2  A    between atoms: C1_1  and  C8_8 
ROOT
HETATM    1  C2  UNL     1     -34.509  14.525  -5.998  1.00 20.00     0.027 C 
HETATM    2  C3  UNL     1     -34.785  15.675  -5.041  1.00 20.00     0.016 C 
HETATM    3  C4  UNL     1     -34.760  13.176  -5.326  1.00 20.00     0.167 C 
HETATM    4  C5  UNL     1     -33.561  14.080  -3.481  1.00 20.00     0.179 C 
HETATM    5  C6  UNL     1     -33.938  15.534  -3.772  1.00 20.00     0.079 C 
HETATM    6  O10 UNL     1     -34.604  13.206  -3.907  1.00 20.00    -0.390 OA
ENDROOT
BRANCH   5   7
HETATM    7  C1  UNL     1     -34.702  16.103  -2.613  1.00 20.00     0.132 C 
HETATM    8  O9  UNL     1     -35.920  15.953  -2.523  1.00 20.00    -0.298 OA
BRANCH   7   9
HETATM    9  C8  UNL     1     -33.887  16.859  -1.581  1.00 20.00     0.074 C 
HETATM   10  C7  UNL     1     -34.634  17.056  -0.275  1.00 20.00     0.013 C 
ENDBRANCH   7   9
ENDBRANCH   5   7
TORSDOF 2
ENDMDL
MODEL 8
REMARK VINA RESULT:      -4.1     11.793     13.803
REMARK  2 active torsions:
REMARK  status: ('A' for Active; 'I' for Inactive)
REMARK    1  A    between atoms: C1_1  and  C6_6 
REMARK    2  A    between atoms: C1_1  and  C8_8 
ROOT
HETATM    1  C2  UNL     1     -34.766  16.662  -7.209  1.00 20.00     0.027 C 
HETATM    2  C3  UNL     1     -34.056  15.523  -6.491  1.00 20.00     0.016 C 
HETATM    3  C4  UNL     1     -35.891  17.239  -6.351  1.00 20.00     0.167 C 
HETATM    4  C5  UNL     1     -36.474  14.974  -5.919  1.00 20.00     0.179 C 
HETATM    5  C6  UNL     1     -35.055  14.430  -6.097  1.00 20.00     0.079 C 
HETATM    6  O10 UNL     1     -36.432  16.307  -5.415  1.00 20.00    -0.390 OA
ENDROOT
BRANCH   5   7
HETATM    7  C1  UNL     1     -34.593  13.788  -4.822  1.00 20.00     0.132 C 
HETATM    8  O9  UNL     1     -34.990  12.670  -4.497  1.00 20.00    -0.298 OA
BRANCH   7   9
HETATM    9  C8  UNL     1     -33.623  14.595  -3.980  1.00 20.00     0.074 C 
HETATM   10  C7  UNL     1     -34.305  15.313  -2.829  1.00 20.00     0.013 C 
ENDBRANCH   7   9
ENDBRANCH   5   7
TORSDOF 2
ENDMDL
MODEL 9
REMARK VINA RESULT:      -4.0     11.676     12.958
REMARK  2 active torsions:
REMARK  status: ('A' for Active; 'I' for Inactive)
REMARK    1  A    between atoms: C1_1  and  C6_6 
REMARK    2  A    between atoms: C1_1  and  C8_8 
ROOT
HETATM    1  C2  UNL     1     -35.958  15.047  -6.836  1.00 20.00     0.027 C 
HETATM    2  C3  UNL     1     -34.587  14.701  -6.274  1.00 20.00     0.016 C 
HETATM    3  C4  UNL     1     -36.851  15.674  -5.767  1.00 20.00     0.167 C 
HETATM    4  C5  UNL     1     -36.066  13.930  -4.352  1.00 20.00     0.179 C 
HETATM    5  C6  UNL     1     -34.721  13.771  -5.063  1.00 20.00     0.079 C 
HETATM    6  O10 UNL     1     -36.512  15.282  -4.437  1.00 20.00    -0.390 OA
ENDROOT
BRANCH   5   7
HETATM    7  C1  UNL     1     -33.602  14.056  -4.106  1.00 20.00     0.132 C 
HETATM    8  O9  UNL     1     -33.053  13.147  -3.485  1.00 20.00    -0.298 OA
BRANCH   7   9
HETATM    9  C8  UNL     1     -33.203  15.512  -3.959  1.00 20.00     0.074 C 
HETATM   10  C7  UNL     1     -33.657  16.113  -2.641  1.00 20.00     0.013 C 
ENDBRANCH   7   9
ENDBRANCH   5   7
TORSDOF 2
ENDMDL
