MODEL 1
REMARK VINA RESULT:      -5.9      0.000      0.000
REMARK  2 active torsions:
REMARK  status: ('A' for Active; 'I' for Inactive)
REMARK    1  A    between atoms: C7_7  and  C9_9 
REMARK    2  A    between atoms: C8_8  and  C9_9 
ROOT
HETATM    1  C1  UNL     1     -32.127   8.769   1.264  1.00 20.00     0.012 C 
HETATM    2  C2  UNL     1     -31.980   8.127   2.268  1.00 20.00    -0.117 C 
HETATM    3  C8  UNL     1     -31.798   7.346   3.499  1.00 20.00     0.093 C 
ENDROOT
BRANCH   3   4
HETATM    4  C9  UNL     1     -32.795   6.198   3.556  1.00 20.00     0.024 C 
BRANCH   4   5
HETATM    5  C7  UNL     1     -33.984   6.546   4.436  1.00 20.00     0.056 C 
HETATM    6  C3  UNL     1     -35.074   5.506   4.293  1.00 20.00     0.131 C 
HETATM    7  C4  UNL     1     -35.246   4.679   5.540  1.00 20.00     0.079 C 
HETATM    8  O10 UNL     1     -35.747   5.353   3.280  1.00 20.00    -0.298 OA
HETATM    9  C5  UNL     1     -33.983   5.019   6.320  1.00 20.00     0.008 C 
HETATM   10  C6  UNL     1     -33.670   6.458   5.932  1.00 20.00     0.013 C 
ENDBRANCH   4   5
ENDBRANCH   3   4
TORSDOF 2
ENDMDL
MODEL 2
REMARK VINA RESULT:      -5.1     11.395     12.330
REMARK  2 active torsions:
REMARK  status: ('A' for Active; 'I' for Inactive)
REMARK    1  A    between atoms: C7_7  and  C9_9 
REMARK    2  A    between atoms: C8_8  and  C9_9 
ROOT
HETATM    1  C1  UNL     1     -35.028  17.234   0.254  1.00 20.00     0.012 C 
HETATM    2  C2  UNL     1     -34.495  16.951  -0.783  1.00 20.00    -0.117 C 
HETATM    3  C8  UNL     1     -33.839  16.608  -2.052  1.00 20.00     0.093 C 
ENDROOT
BRANCH   3   4
HETATM    4  C9  UNL     1     -34.529  15.420  -2.708  1.00 20.00     0.024 C 
BRANCH   4   5
HETATM    5  C7  UNL     1     -33.657  14.809  -3.792  1.00 20.00     0.056 C 
HETATM    6  C3  UNL     1     -34.465  13.855  -4.648  1.00 20.00     0.131 C 
HETATM    7  C4  UNL     1     -34.674  14.377  -6.045  1.00 20.00     0.079 C 
HETATM    8  O10 UNL     1     -34.897  12.779  -4.254  1.00 20.00    -0.298 OA
HETATM    9  C5  UNL     1     -34.269  15.838  -5.901  1.00 20.00     0.008 C 
HETATM   10  C6  UNL     1     -33.186  15.829  -4.831  1.00 20.00     0.013 C 
ENDBRANCH   4   5
ENDBRANCH   3   4
TORSDOF 2
ENDMDL
MODEL 3
REMARK VINA RESULT:      -5.0      1.549      2.052
REMARK  2 active torsions:
REMARK  status: ('A' for Active; 'I' for Inactive)
REMARK    1  A    between atoms: C7_7  and  C9_9 
REMARK    2  A    between atoms: C8_8  and  C9_9 
ROOT
HETATM    1  C1  UNL     1     -32.310   9.521   0.766  1.00 20.00     0.012 C 
HETATM    2  C2  UNL     1     -32.153   8.684   1.611  1.00 20.00    -0.117 C 
HETATM    3  C8  UNL     1     -31.955   7.660   2.646  1.00 20.00     0.093 C 
ENDROOT
BRANCH   3   4
HETATM    4  C9  UNL     1     -33.265   7.358   3.358  1.00 20.00     0.024 C 
BRANCH   4   5
HETATM    5  C7  UNL     1     -33.209   6.014   4.066  1.00 20.00     0.056 C 
HETATM    6  C3  UNL     1     -33.832   6.113   5.443  1.00 20.00     0.131 C 
HETATM    7  C4  UNL     1     -35.130   5.355   5.540  1.00 20.00     0.079 C 
HETATM    8  O10 UNL     1     -33.337   6.732   6.376  1.00 20.00    -0.298 OA
HETATM    9  C5  UNL     1     -35.451   5.089   4.076  1.00 20.00     0.008 C 
HETATM   10  C6  UNL     1     -34.090   4.950   3.406  1.00 20.00     0.013 C 
ENDBRANCH   4   5
ENDBRANCH   3   4
TORSDOF 2
ENDMDL
MODEL 4
REMARK VINA RESULT:      -4.7     11.224     12.063
REMARK  2 active torsions:
REMARK  status: ('A' for Active; 'I' for Inactive)
REMARK    1  A    between atoms: C7_7  and  C9_9 
REMARK    2  A    between atoms: C8_8  and  C9_9 
ROOT
HETATM    1  C1  UNL     1     -35.116  17.429   0.520  1.00 20.00     0.012 C 
HETATM    2  C2  UNL     1     -34.533  17.104  -0.477  1.00 20.00    -0.117 C 
HETATM    3  C8  UNL     1     -33.815  16.708  -1.697  1.00 20.00     0.093 C 
ENDROOT
BRANCH   3   4
HETATM    4  C9  UNL     1     -34.565  15.602  -2.424  1.00 20.00     0.024 C 
BRANCH   4   5
HETATM    5  C7  UNL     1     -33.989  15.366  -3.810  1.00 20.00     0.056 C 
HETATM    6  C3  UNL     1     -33.883  13.883  -4.097  1.00 20.00     0.131 C 
HETATM    7  C4  UNL     1     -34.854  13.434  -5.157  1.00 20.00     0.079 C 
HETATM    8  O10 UNL     1     -33.094  13.132  -3.537  1.00 20.00    -0.298 OA
HETATM    9  C5  UNL     1     -35.796  14.626  -5.248  1.00 20.00     0.008 C 
HETATM   10  C6  UNL     1     -34.918  15.831  -4.934  1.00 20.00     0.013 C 
ENDBRANCH   4   5
ENDBRANCH   3   4
TORSDOF 2
ENDMDL
MODEL 5
REMARK VINA RESULT:      -4.4     11.641     12.353
REMARK  2 active torsions:
REMARK  status: ('A' for Active; 'I' for Inactive)
REMARK    1  A    between atoms: C7_7  and  C9_9 
REMARK    2  A    between atoms: C8_8  and  C9_9 
ROOT
HETATM    1  C1  UNL     1     -35.100  17.448   0.678  1.00 20.00     0.012 C 
HETATM    2  C2  UNL     1     -34.546  17.270  -0.372  1.00 20.00    -0.117 C 
HETATM    3  C8  UNL     1     -33.865  17.057  -1.656  1.00 20.00     0.093 C 
ENDROOT
BRANCH   3   4
HETATM    4  C9  UNL     1     -34.205  15.685  -2.220  1.00 20.00     0.024 C 
BRANCH   4   5
HETATM    5  C7  UNL     1     -34.976  15.803  -3.524  1.00 20.00     0.056 C 
HETATM    6  C3  UNL     1     -34.073  15.511  -4.704  1.00 20.00     0.131 C 
HETATM    7  C4  UNL     1     -34.427  14.217  -5.390  1.00 20.00     0.079 C 
HETATM    8  O10 UNL     1     -33.160  16.243  -5.066  1.00 20.00    -0.298 OA
HETATM    9  C5  UNL     1     -35.348  13.561  -4.371  1.00 20.00     0.008 C 
HETATM   10  C6  UNL     1     -36.051  14.726  -3.687  1.00 20.00     0.013 C 
ENDBRANCH   4   5
ENDBRANCH   3   4
TORSDOF 2
ENDMDL
MODEL 6
REMARK VINA RESULT:      -4.4     10.921     13.022
REMARK  2 active torsions:
REMARK  status: ('A' for Active; 'I' for Inactive)
REMARK    1  A    between atoms: C7_7  and  C9_9 
REMARK    2  A    between atoms: C8_8  and  C9_9 
ROOT
HETATM    1  C1  UNL     1     -37.862  15.615  -6.974  1.00 20.00     0.012 C 
HETATM    2  C2  UNL     1     -36.816  15.113  -7.281  1.00 20.00    -0.117 C 
HETATM    3  C8  UNL     1     -35.537  14.497  -7.661  1.00 20.00     0.093 C 
ENDROOT
BRANCH   3   4
HETATM    4  C9  UNL     1     -34.423  14.960  -6.734  1.00 20.00     0.024 C 
BRANCH   4   5
HETATM    5  C7  UNL     1     -34.856  14.891  -5.279  1.00 20.00     0.056 C 
HETATM    6  C3  UNL     1     -34.371  13.607  -4.640  1.00 20.00     0.131 C 
HETATM    7  C4  UNL     1     -33.297  13.848  -3.612  1.00 20.00     0.079 C 
HETATM    8  O10 UNL     1     -34.804  12.496  -4.921  1.00 20.00    -0.298 OA
HETATM    9  C5  UNL     1     -32.898  15.288  -3.904  1.00 20.00     0.008 C 
HETATM   10  C6  UNL     1     -34.179  15.946  -4.399  1.00 20.00     0.013 C 
ENDBRANCH   4   5
ENDBRANCH   3   4
TORSDOF 2
ENDMDL
MODEL 7
REMARK VINA RESULT:      -4.3      9.534     11.017
REMARK  2 active torsions:
REMARK  status: ('A' for Active; 'I' for Inactive)
REMARK    1  A    between atoms: C7_7  and  C9_9 
REMARK    2  A    between atoms: C8_8  and  C9_9 
ROOT
HETATM    1  C1  UNL     1     -41.224   1.747  -3.922  1.00 20.00     0.012 C 
HETATM    2  C2  UNL     1     -42.162   2.280  -3.396  1.00 20.00    -0.117 C 
HETATM    3  C8  UNL     1     -43.314   2.930  -2.755  1.00 20.00     0.093 C 
ENDROOT
BRANCH   3   4
HETATM    4  C9  UNL     1     -42.854   3.842  -1.627  1.00 20.00     0.024 C 
BRANCH   4   5
HETATM    5  C7  UNL     1     -41.604   4.612  -2.018  1.00 20.00     0.056 C 
HETATM    6  C3  UNL     1     -41.931   6.071  -2.258  1.00 20.00     0.131 C 
HETATM    7  C4  UNL     1     -41.343   6.970  -1.202  1.00 20.00     0.079 C 
HETATM    8  O10 UNL     1     -42.593   6.479  -3.204  1.00 20.00    -0.298 OA
HETATM    9  C5  UNL     1     -40.949   5.973  -0.121  1.00 20.00     0.008 C 
HETATM   10  C6  UNL     1     -40.579   4.709  -0.886  1.00 20.00     0.013 C 
ENDBRANCH   4   5
ENDBRANCH   3   4
TORSDOF 2
ENDMDL
MODEL 8
REMARK VINA RESULT:      -4.2     10.916     13.327
REMARK  2 active torsions:
REMARK  status: ('A' for Active; 'I' for Inactive)
REMARK    1  A    between atoms: C7_7  and  C9_9 
REMARK    2  A    between atoms: C8_8  and  C9_9 
ROOT
HETATM    1  C1  UNL     1     -34.258  18.317  -7.872  1.00 20.00     0.012 C 
HETATM    2  C2  UNL     1     -34.696  17.206  -7.762  1.00 20.00    -0.117 C 
HETATM    3  C8  UNL     1     -35.236  15.846  -7.631  1.00 20.00     0.093 C 
ENDROOT
BRANCH   3   4
HETATM    4  C9  UNL     1     -34.322  14.987  -6.769  1.00 20.00     0.024 C 
BRANCH   4   5
HETATM    5  C7  UNL     1     -34.825  14.916  -5.337  1.00 20.00     0.056 C 
HETATM    6  C3  UNL     1     -34.391  13.619  -4.685  1.00 20.00     0.131 C 
HETATM    7  C4  UNL     1     -33.363  13.836  -3.606  1.00 20.00     0.079 C 
HETATM    8  O10 UNL     1     -34.828  12.517  -4.995  1.00 20.00    -0.298 OA
HETATM    9  C5  UNL     1     -32.928  15.271  -3.867  1.00 20.00     0.008 C 
HETATM   10  C6  UNL     1     -34.174  15.953  -4.419  1.00 20.00     0.013 C 
ENDBRANCH   4   5
ENDBRANCH   3   4
TORSDOF 2
ENDMDL
MODEL 9
REMARK VINA RESULT:      -4.2     10.985     12.365
REMARK  2 active torsions:
REMARK  status: ('A' for Active; 'I' for Inactive)
REMARK    1  A    between atoms: C7_7  and  C9_9 
REMARK    2  A    between atoms: C8_8  and  C9_9 
ROOT
HETATM    1  C1  UNL     1     -39.512  14.574  -4.285  1.00 20.00     0.012 C 
HETATM    2  C2  UNL     1     -38.561  15.265  -4.525  1.00 20.00    -0.117 C 
HETATM    3  C8  UNL     1     -37.400  16.116  -4.817  1.00 20.00     0.093 C 
ENDROOT
BRANCH   3   4
HETATM    4  C9  UNL     1     -36.172  15.264  -5.106  1.00 20.00     0.024 C 
BRANCH   4   5
HETATM    5  C7  UNL     1     -35.705  14.532  -3.859  1.00 20.00     0.056 C 
HETATM    6  C3  UNL     1     -34.635  13.518  -4.207  1.00 20.00     0.131 C 
HETATM    7  C4  UNL     1     -33.282  13.907  -3.673  1.00 20.00     0.079 C 
HETATM    8  O10 UNL     1     -34.844  12.494  -4.846  1.00 20.00    -0.298 OA
HETATM    9  C5  UNL     1     -33.498  15.365  -3.294  1.00 20.00     0.008 C 
HETATM   10  C6  UNL     1     -34.961  15.437  -2.874  1.00 20.00     0.013 C 
ENDBRANCH   4   5
ENDBRANCH   3   4
TORSDOF 2
ENDMDL
