MODEL 1
REMARK VINA RESULT:      -5.7      0.000      0.000
REMARK  4 active torsions:
REMARK  status: ('A' for Active; 'I' for Inactive)
REMARK    1  A    between atoms: C3_3  and  C7_7 
REMARK    2  A    between atoms: C3_3  and  C9_9 
REMARK    3  A    between atoms: C6_6  and  C8_8 
REMARK    4  A    between atoms: C7_7  and  C8_8 
ROOT
HETATM    1  C1  UNL     1     -32.139   8.771   1.095  1.00 20.00     0.012 C 
HETATM    2  C2  UNL     1     -32.026   8.192   2.140  1.00 20.00    -0.117 C 
HETATM    3  C6  UNL     1     -31.886   7.485   3.421  1.00 20.00     0.093 C 
ENDROOT
BRANCH   3   4
HETATM    4  C8  UNL     1     -32.287   6.017   3.288  1.00 20.00     0.019 C 
BRANCH   4   5
HETATM    5  C7  UNL     1     -33.717   5.876   2.769  1.00 20.00     0.079 C 
BRANCH   5   6
HETATM    6  C3  UNL     1     -34.713   5.568   3.878  1.00 20.00     0.130 C 
HETATM    7  O10 UNL     1     -35.929   5.631   3.701  1.00 20.00    -0.298 OA
BRANCH   6   8
HETATM    8  C9  UNL     1     -34.118   5.204   5.237  1.00 20.00     0.047 C 
HETATM    9  C4  UNL     1     -34.822   3.988   5.832  1.00 20.00     0.017 C 
HETATM   10  C5  UNL     1     -34.207   6.400   6.176  1.00 20.00     0.017 C 
ENDBRANCH   6   8
ENDBRANCH   5   6
ENDBRANCH   4   5
ENDBRANCH   3   4
TORSDOF 4
ENDMDL
MODEL 2
REMARK VINA RESULT:      -5.4      0.830      1.453
REMARK  4 active torsions:
REMARK  status: ('A' for Active; 'I' for Inactive)
REMARK    1  A    between atoms: C3_3  and  C7_7 
REMARK    2  A    between atoms: C3_3  and  C9_9 
REMARK    3  A    between atoms: C6_6  and  C8_8 
REMARK    4  A    between atoms: C7_7  and  C8_8 
ROOT
HETATM    1  C1  UNL     1     -32.514   9.486   0.523  1.00 20.00     0.012 C 
HETATM    2  C2  UNL     1     -32.212   8.831   1.482  1.00 20.00    -0.117 C 
HETATM    3  C6  UNL     1     -31.841   8.032   2.658  1.00 20.00     0.093 C 
ENDROOT
BRANCH   3   4
HETATM    4  C8  UNL     1     -32.482   6.646   2.608  1.00 20.00     0.019 C 
BRANCH   4   5
HETATM    5  C7  UNL     1     -32.847   6.151   4.007  1.00 20.00     0.079 C 
BRANCH   5   6
HETATM    6  C3  UNL     1     -34.272   5.622   4.086  1.00 20.00     0.130 C 
HETATM    7  O10 UNL     1     -34.921   5.337   3.080  1.00 20.00    -0.298 OA
BRANCH   6   8
HETATM    8  C9  UNL     1     -34.867   5.493   5.487  1.00 20.00     0.047 C 
HETATM    9  C4  UNL     1     -34.097   6.352   6.486  1.00 20.00     0.017 C 
HETATM   10  C5  UNL     1     -34.870   4.030   5.913  1.00 20.00     0.017 C 
ENDBRANCH   6   8
ENDBRANCH   5   6
ENDBRANCH   4   5
ENDBRANCH   3   4
TORSDOF 4
ENDMDL
MODEL 3
REMARK VINA RESULT:      -5.1      1.439      1.725
REMARK  4 active torsions:
REMARK  status: ('A' for Active; 'I' for Inactive)
REMARK    1  A    between atoms: C3_3  and  C7_7 
REMARK    2  A    between atoms: C3_3  and  C9_9 
REMARK    3  A    between atoms: C6_6  and  C8_8 
REMARK    4  A    between atoms: C7_7  and  C8_8 
ROOT
HETATM    1  C1  UNL     1     -32.141   8.931   0.956  1.00 20.00     0.012 C 
HETATM    2  C2  UNL     1     -31.906   8.316   1.959  1.00 20.00    -0.117 C 
HETATM    3  C6  UNL     1     -31.616   7.565   3.189  1.00 20.00     0.093 C 
ENDROOT
BRANCH   3   4
HETATM    4  C8  UNL     1     -32.507   6.329   3.303  1.00 20.00     0.019 C 
BRANCH   4   5
HETATM    5  C7  UNL     1     -33.875   6.681   3.887  1.00 20.00     0.079 C 
BRANCH   5   6
HETATM    6  C3  UNL     1     -34.014   6.259   5.343  1.00 20.00     0.130 C 
HETATM    7  O10 UNL     1     -33.388   6.812   6.247  1.00 20.00    -0.298 OA
BRANCH   6   8
HETATM    8  C9  UNL     1     -34.953   5.087   5.619  1.00 20.00     0.047 C 
HETATM    9  C4  UNL     1     -34.213   3.946   6.310  1.00 20.00     0.017 C 
HETATM   10  C5  UNL     1     -35.586   4.616   4.315  1.00 20.00     0.017 C 
ENDBRANCH   6   8
ENDBRANCH   5   6
ENDBRANCH   4   5
ENDBRANCH   3   4
TORSDOF 4
ENDMDL
MODEL 4
REMARK VINA RESULT:      -4.9      1.946      5.163
REMARK  4 active torsions:
REMARK  status: ('A' for Active; 'I' for Inactive)
REMARK    1  A    between atoms: C3_3  and  C7_7 
REMARK    2  A    between atoms: C3_3  and  C9_9 
REMARK    3  A    between atoms: C6_6  and  C8_8 
REMARK    4  A    between atoms: C7_7  and  C8_8 
ROOT
HETATM    1  C1  UNL     1     -35.153   4.228   6.272  1.00 20.00     0.012 C 
HETATM    2  C2  UNL     1     -35.031   4.687   5.171  1.00 20.00    -0.117 C 
HETATM    3  C6  UNL     1     -34.883   5.247   3.820  1.00 20.00     0.093 C 
ENDROOT
BRANCH   3   4
HETATM    4  C8  UNL     1     -34.030   6.514   3.839  1.00 20.00     0.019 C 
BRANCH   4   5
HETATM    5  C7  UNL     1     -32.779   6.356   2.975  1.00 20.00     0.079 C 
BRANCH   5   6
HETATM    6  C3  UNL     1     -32.020   7.664   2.802  1.00 20.00     0.130 C 
HETATM    7  O10 UNL     1     -31.139   8.017   3.585  1.00 20.00    -0.298 OA
BRANCH   6   8
HETATM    8  C9  UNL     1     -32.433   8.531   1.615  1.00 20.00     0.047 C 
HETATM    9  C4  UNL     1     -31.372   8.496   0.519  1.00 20.00     0.017 C 
HETATM   10  C5  UNL     1     -32.686   9.959   2.084  1.00 20.00     0.017 C 
ENDBRANCH   6   8
ENDBRANCH   5   6
ENDBRANCH   4   5
ENDBRANCH   3   4
TORSDOF 4
ENDMDL
MODEL 5
REMARK VINA RESULT:      -4.7      1.416      4.285
REMARK  4 active torsions:
REMARK  status: ('A' for Active; 'I' for Inactive)
REMARK    1  A    between atoms: C3_3  and  C7_7 
REMARK    2  A    between atoms: C3_3  and  C9_9 
REMARK    3  A    between atoms: C6_6  and  C8_8 
REMARK    4  A    between atoms: C7_7  and  C8_8 
ROOT
HETATM    1  C1  UNL     1     -33.670   7.188   6.752  1.00 20.00     0.012 C 
HETATM    2  C2  UNL     1     -34.214   6.205   6.330  1.00 20.00    -0.117 C 
HETATM    3  C6  UNL     1     -34.881   5.000   5.817  1.00 20.00     0.093 C 
ENDROOT
BRANCH   3   4
HETATM    4  C8  UNL     1     -34.617   4.818   4.323  1.00 20.00     0.019 C 
BRANCH   4   5
HETATM    5  C7  UNL     1     -34.367   6.159   3.634  1.00 20.00     0.079 C 
BRANCH   5   6
HETATM    6  C3  UNL     1     -32.931   6.308   3.150  1.00 20.00     0.130 C 
HETATM    7  O10 UNL     1     -32.254   5.341   2.803  1.00 20.00    -0.298 OA
BRANCH   6   8
HETATM    8  C9  UNL     1     -32.364   7.726   3.147  1.00 20.00     0.047 C 
HETATM    9  C4  UNL     1     -32.005   8.167   1.731  1.00 20.00     0.017 C 
HETATM   10  C5  UNL     1     -31.150   7.798   4.066  1.00 20.00     0.017 C 
ENDBRANCH   6   8
ENDBRANCH   5   6
ENDBRANCH   4   5
ENDBRANCH   3   4
TORSDOF 4
ENDMDL
MODEL 6
REMARK VINA RESULT:      -4.6     11.303     12.381
REMARK  4 active torsions:
REMARK  status: ('A' for Active; 'I' for Inactive)
REMARK    1  A    between atoms: C3_3  and  C7_7 
REMARK    2  A    between atoms: C3_3  and  C9_9 
REMARK    3  A    between atoms: C6_6  and  C8_8 
REMARK    4  A    between atoms: C7_7  and  C8_8 
ROOT
HETATM    1  C1  UNL     1     -34.837  17.120   0.008  1.00 20.00     0.012 C 
HETATM    2  C2  UNL     1     -34.391  16.799  -1.059  1.00 20.00    -0.117 C 
HETATM    3  C6  UNL     1     -33.843  16.409  -2.366  1.00 20.00     0.093 C 
ENDROOT
BRANCH   3   4
HETATM    4  C8  UNL     1     -34.574  15.190  -2.927  1.00 20.00     0.019 C 
BRANCH   4   5
HETATM    5  C7  UNL     1     -33.749  14.498  -4.012  1.00 20.00     0.079 C 
BRANCH   5   6
HETATM    6  C3  UNL     1     -34.610  13.696  -4.978  1.00 20.00     0.130 C 
HETATM    7  O10 UNL     1     -34.914  12.523  -4.764  1.00 20.00    -0.298 OA
BRANCH   6   8
HETATM    8  C9  UNL     1     -35.051  14.421  -6.248  1.00 20.00     0.047 C 
HETATM    9  C4  UNL     1     -34.058  15.517  -6.623  1.00 20.00     0.017 C 
HETATM   10  C5  UNL     1     -36.450  14.995  -6.054  1.00 20.00     0.017 C 
ENDBRANCH   6   8
ENDBRANCH   5   6
ENDBRANCH   4   5
ENDBRANCH   3   4
TORSDOF 4
ENDMDL
MODEL 7
REMARK VINA RESULT:      -4.5     10.973     12.269
REMARK  4 active torsions:
REMARK  status: ('A' for Active; 'I' for Inactive)
REMARK    1  A    between atoms: C3_3  and  C7_7 
REMARK    2  A    between atoms: C3_3  and  C9_9 
REMARK    3  A    between atoms: C6_6  and  C8_8 
REMARK    4  A    between atoms: C7_7  and  C8_8 
ROOT
HETATM    1  C1  UNL     1     -33.945  17.600  -0.302  1.00 20.00     0.012 C 
HETATM    2  C2  UNL     1     -34.308  16.801  -1.121  1.00 20.00    -0.117 C 
HETATM    3  C6  UNL     1     -34.756  15.823  -2.121  1.00 20.00     0.093 C 
ENDROOT
BRANCH   3   4
HETATM    4  C8  UNL     1     -33.690  15.606  -3.195  1.00 20.00     0.019 C 
BRANCH   4   5
HETATM    5  C7  UNL     1     -33.579  14.131  -3.578  1.00 20.00     0.079 C 
BRANCH   5   6
HETATM    6  C3  UNL     1     -34.477  13.763  -4.751  1.00 20.00     0.130 C 
HETATM    7  O10 UNL     1     -34.770  12.596  -5.009  1.00 20.00    -0.298 OA
BRANCH   6   8
HETATM    8  C9  UNL     1     -34.973  14.923  -5.611  1.00 20.00     0.047 C 
HETATM    9  C4  UNL     1     -36.494  15.041  -5.544  1.00 20.00     0.017 C 
HETATM   10  C5  UNL     1     -34.504  14.738  -7.049  1.00 20.00     0.017 C 
ENDBRANCH   6   8
ENDBRANCH   5   6
ENDBRANCH   4   5
ENDBRANCH   3   4
TORSDOF 4
ENDMDL
MODEL 8
REMARK VINA RESULT:      -4.4      1.318      4.138
REMARK  4 active torsions:
REMARK  status: ('A' for Active; 'I' for Inactive)
REMARK    1  A    between atoms: C3_3  and  C7_7 
REMARK    2  A    between atoms: C3_3  and  C9_9 
REMARK    3  A    between atoms: C6_6  and  C8_8 
REMARK    4  A    between atoms: C7_7  and  C8_8 
ROOT
HETATM    1  C1  UNL     1     -33.784   6.937   6.679  1.00 20.00     0.012 C 
HETATM    2  C2  UNL     1     -34.355   5.899   6.490  1.00 20.00    -0.117 C 
HETATM    3  C6  UNL     1     -35.055   4.627   6.263  1.00 20.00     0.093 C 
ENDROOT
BRANCH   3   4
HETATM    4  C8  UNL     1     -35.063   4.259   4.779  1.00 20.00     0.019 C 
BRANCH   4   5
HETATM    5  C7  UNL     1     -35.229   5.498   3.901  1.00 20.00     0.079 C 
BRANCH   5   6
HETATM    6  C3  UNL     1     -34.115   5.639   2.872  1.00 20.00     0.130 C 
HETATM    7  O10 UNL     1     -34.150   5.059   1.788  1.00 20.00    -0.298 OA
BRANCH   6   8
HETATM    8  C9  UNL     1     -32.934   6.518   3.275  1.00 20.00     0.047 C 
HETATM    9  C4  UNL     1     -32.851   7.758   2.389  1.00 20.00     0.017 C 
HETATM   10  C5  UNL     1     -31.643   5.711   3.206  1.00 20.00     0.017 C 
ENDBRANCH   6   8
ENDBRANCH   5   6
ENDBRANCH   4   5
ENDBRANCH   3   4
TORSDOF 4
ENDMDL
MODEL 9
REMARK VINA RESULT:      -4.3      1.296      4.227
REMARK  4 active torsions:
REMARK  status: ('A' for Active; 'I' for Inactive)
REMARK    1  A    between atoms: C3_3  and  C7_7 
REMARK    2  A    between atoms: C3_3  and  C9_9 
REMARK    3  A    between atoms: C6_6  and  C8_8 
REMARK    4  A    between atoms: C7_7  and  C8_8 
ROOT
HETATM    1  C1  UNL     1     -33.701   7.240   7.003  1.00 20.00     0.012 C 
HETATM    2  C2  UNL     1     -34.125   6.263   6.450  1.00 20.00    -0.117 C 
HETATM    3  C6  UNL     1     -34.644   5.065   5.775  1.00 20.00     0.093 C 
ENDROOT
BRANCH   3   4
HETATM    4  C8  UNL     1     -34.984   5.359   4.314  1.00 20.00     0.019 C 
BRANCH   4   5
HETATM    5  C7  UNL     1     -34.205   6.566   3.794  1.00 20.00     0.079 C 
BRANCH   5   6
HETATM    6  C3  UNL     1     -33.023   6.166   2.921  1.00 20.00     0.130 C 
HETATM    7  O10 UNL     1     -32.972   5.077   2.350  1.00 20.00    -0.298 OA
BRANCH   6   8
HETATM    8  C9  UNL     1     -31.888   7.181   2.816  1.00 20.00     0.047 C 
HETATM    9  C4  UNL     1     -31.477   7.684   4.197  1.00 20.00     0.017 C 
HETATM   10  C5  UNL     1     -32.311   8.338   1.918  1.00 20.00     0.017 C 
ENDBRANCH   6   8
ENDBRANCH   5   6
ENDBRANCH   4   5
ENDBRANCH   3   4
TORSDOF 4
ENDMDL
