MODEL 1
REMARK VINA RESULT:      -5.7      0.000      0.000
REMARK  4 active torsions:
REMARK  status: ('A' for Active; 'I' for Inactive)
REMARK    1  A    between atoms: C3_3  and  C6_6 
REMARK    2  A    between atoms: C3_3  and  C7_7 
REMARK    3  A    between atoms: C5_5  and  C8_8 
REMARK    4  A    between atoms: C7_7  and  C8_8 
ROOT
HETATM    1  C1  UNL     1     -32.133   8.598   1.732  1.00 20.00     0.012 C 
HETATM    2  C2  UNL     1     -32.213   7.632   2.440  1.00 20.00    -0.117 C 
HETATM    3  C5  UNL     1     -32.306   6.449   3.310  1.00 20.00     0.093 C 
ENDROOT
BRANCH   3   4
HETATM    4  C8  UNL     1     -33.525   5.598   2.949  1.00 20.00     0.019 C 
BRANCH   4   5
HETATM    5  C7  UNL     1     -34.711   5.852   3.879  1.00 20.00     0.079 C 
BRANCH   5   6
HETATM    6  C3  UNL     1     -34.868   4.808   4.976  1.00 20.00     0.126 C 
HETATM    7  O9  UNL     1     -35.143   3.634   4.732  1.00 20.00    -0.298 OA
BRANCH   6   8
HETATM    8  C6  UNL     1     -34.697   5.321   6.396  1.00 20.00     0.074 C 
HETATM    9  C4  UNL     1     -33.951   6.641   6.457  1.00 20.00     0.013 C 
ENDBRANCH   6   8
ENDBRANCH   5   6
ENDBRANCH   4   5
ENDBRANCH   3   4
TORSDOF 4
ENDMDL
MODEL 2
REMARK VINA RESULT:      -5.3      1.549      1.949
REMARK  4 active torsions:
REMARK  status: ('A' for Active; 'I' for Inactive)
REMARK    1  A    between atoms: C3_3  and  C6_6 
REMARK    2  A    between atoms: C3_3  and  C7_7 
REMARK    3  A    between atoms: C5_5  and  C8_8 
REMARK    4  A    between atoms: C7_7  and  C8_8 
ROOT
HETATM    1  C1  UNL     1     -32.169   8.858   1.232  1.00 20.00     0.012 C 
HETATM    2  C2  UNL     1     -32.014   8.173   2.205  1.00 20.00    -0.117 C 
HETATM    3  C5  UNL     1     -31.821   7.338   3.399  1.00 20.00     0.093 C 
ENDROOT
BRANCH   3   4
HETATM    4  C8  UNL     1     -32.783   6.148   3.399  1.00 20.00     0.019 C 
BRANCH   4   5
HETATM    5  C7  UNL     1     -34.084   6.448   4.142  1.00 20.00     0.079 C 
BRANCH   5   6
HETATM    6  C3  UNL     1     -34.005   6.209   5.643  1.00 20.00     0.126 C 
HETATM    7  O9  UNL     1     -33.418   6.980   6.401  1.00 20.00    -0.298 OA
BRANCH   6   8
HETATM    8  C6  UNL     1     -34.670   4.936   6.139  1.00 20.00     0.074 C 
HETATM    9  C4  UNL     1     -35.176   4.060   5.008  1.00 20.00     0.013 C 
ENDBRANCH   6   8
ENDBRANCH   5   6
ENDBRANCH   4   5
ENDBRANCH   3   4
TORSDOF 4
ENDMDL
MODEL 3
REMARK VINA RESULT:      -5.1      2.243      4.937
REMARK  4 active torsions:
REMARK  status: ('A' for Active; 'I' for Inactive)
REMARK    1  A    between atoms: C3_3  and  C6_6 
REMARK    2  A    between atoms: C3_3  and  C7_7 
REMARK    3  A    between atoms: C5_5  and  C8_8 
REMARK    4  A    between atoms: C7_7  and  C8_8 
ROOT
HETATM    1  C1  UNL     1     -35.170   4.234   6.231  1.00 20.00     0.012 C 
HETATM    2  C2  UNL     1     -35.067   4.745   5.150  1.00 20.00    -0.117 C 
HETATM    3  C5  UNL     1     -34.944   5.368   3.824  1.00 20.00     0.093 C 
ENDROOT
BRANCH   3   4
HETATM    4  C8  UNL     1     -33.973   6.550   3.861  1.00 20.00     0.019 C 
BRANCH   4   5
HETATM    5  C7  UNL     1     -32.809   6.381   2.885  1.00 20.00     0.079 C 
BRANCH   5   6
HETATM    6  C3  UNL     1     -31.870   7.579   2.832  1.00 20.00     0.126 C 
HETATM    7  O9  UNL     1     -31.183   7.918   3.794  1.00 20.00    -0.298 OA
BRANCH   6   8
HETATM    8  C6  UNL     1     -31.864   8.348   1.521  1.00 20.00     0.074 C 
HETATM    9  C4  UNL     1     -32.531   9.706   1.636  1.00 20.00     0.013 C 
ENDBRANCH   6   8
ENDBRANCH   5   6
ENDBRANCH   4   5
ENDBRANCH   3   4
TORSDOF 4
ENDMDL
MODEL 4
REMARK VINA RESULT:      -4.9      1.245      3.781
REMARK  4 active torsions:
REMARK  status: ('A' for Active; 'I' for Inactive)
REMARK    1  A    between atoms: C3_3  and  C6_6 
REMARK    2  A    between atoms: C3_3  and  C7_7 
REMARK    3  A    between atoms: C5_5  and  C8_8 
REMARK    4  A    between atoms: C7_7  and  C8_8 
ROOT
HETATM    1  C1  UNL     1     -33.666   7.210   6.709  1.00 20.00     0.012 C 
HETATM    2  C2  UNL     1     -34.185   6.144   6.521  1.00 20.00    -0.117 C 
HETATM    3  C5  UNL     1     -34.819   4.837   6.295  1.00 20.00     0.093 C 
ENDROOT
BRANCH   3   4
HETATM    4  C8  UNL     1     -35.152   4.636   4.815  1.00 20.00     0.019 C 
BRANCH   4   5
HETATM    5  C7  UNL     1     -34.845   5.874   3.974  1.00 20.00     0.079 C 
BRANCH   5   6
HETATM    6  C3  UNL     1     -33.734   5.666   2.955  1.00 20.00     0.126 C 
HETATM    7  O9  UNL     1     -33.901   5.016   1.923  1.00 20.00    -0.298 OA
BRANCH   6   8
HETATM    8  C6  UNL     1     -32.393   6.286   3.312  1.00 20.00     0.074 C 
HETATM    9  C4  UNL     1     -32.168   7.626   2.637  1.00 20.00     0.013 C 
ENDBRANCH   6   8
ENDBRANCH   5   6
ENDBRANCH   4   5
ENDBRANCH   3   4
TORSDOF 4
ENDMDL
MODEL 5
REMARK VINA RESULT:      -4.6      1.582      4.497
REMARK  4 active torsions:
REMARK  status: ('A' for Active; 'I' for Inactive)
REMARK    1  A    between atoms: C3_3  and  C6_6 
REMARK    2  A    between atoms: C3_3  and  C7_7 
REMARK    3  A    between atoms: C5_5  and  C8_8 
REMARK    4  A    between atoms: C7_7  and  C8_8 
ROOT
HETATM    1  C1  UNL     1     -35.030   3.739   5.457  1.00 20.00     0.012 C 
HETATM    2  C2  UNL     1     -34.729   4.797   5.938  1.00 20.00    -0.117 C 
HETATM    3  C5  UNL     1     -34.364   6.092   6.532  1.00 20.00     0.093 C 
ENDROOT
BRANCH   3   4
HETATM    4  C8  UNL     1     -33.453   6.888   5.595  1.00 20.00     0.019 C 
BRANCH   4   5
HETATM    5  C7  UNL     1     -33.765   6.633   4.121  1.00 20.00     0.079 C 
BRANCH   5   6
HETATM    6  C3  UNL     1     -32.529   6.550   3.235  1.00 20.00     0.126 C 
HETATM    7  O9  UNL     1     -32.133   5.488   2.758  1.00 20.00    -0.298 OA
BRANCH   6   8
HETATM    8  C6  UNL     1     -31.798   7.863   3.008  1.00 20.00     0.074 C 
HETATM    9  C4  UNL     1     -32.026   8.429   1.619  1.00 20.00     0.013 C 
ENDBRANCH   6   8
ENDBRANCH   5   6
ENDBRANCH   4   5
ENDBRANCH   3   4
TORSDOF 4
ENDMDL
MODEL 6
REMARK VINA RESULT:      -4.5     11.354     12.341
REMARK  4 active torsions:
REMARK  status: ('A' for Active; 'I' for Inactive)
REMARK    1  A    between atoms: C3_3  and  C6_6 
REMARK    2  A    between atoms: C3_3  and  C7_7 
REMARK    3  A    between atoms: C5_5  and  C8_8 
REMARK    4  A    between atoms: C7_7  and  C8_8 
ROOT
HETATM    1  C1  UNL     1     -34.446  17.180  -0.269  1.00 20.00     0.012 C 
HETATM    2  C2  UNL     1     -34.613  16.506  -1.248  1.00 20.00    -0.117 C 
HETATM    3  C5  UNL     1     -34.823  15.680  -2.446  1.00 20.00     0.093 C 
ENDROOT
BRANCH   3   4
HETATM    4  C8  UNL     1     -33.521  15.511  -3.232  1.00 20.00     0.019 C 
BRANCH   4   5
HETATM    5  C7  UNL     1     -33.314  14.078  -3.718  1.00 20.00     0.079 C 
BRANCH   5   6
HETATM    6  C3  UNL     1     -34.386  13.594  -4.684  1.00 20.00     0.126 C 
HETATM    7  O9  UNL     1     -35.035  12.567  -4.486  1.00 20.00    -0.298 OA
BRANCH   6   8
HETATM    8  C6  UNL     1     -34.580  14.445  -5.928  1.00 20.00     0.074 C 
HETATM    9  C4  UNL     1     -35.989  14.994  -6.049  1.00 20.00     0.013 C 
ENDBRANCH   6   8
ENDBRANCH   5   6
ENDBRANCH   4   5
ENDBRANCH   3   4
TORSDOF 4
ENDMDL
MODEL 7
REMARK VINA RESULT:      -4.0     11.467     12.415
REMARK  4 active torsions:
REMARK  status: ('A' for Active; 'I' for Inactive)
REMARK    1  A    between atoms: C3_3  and  C6_6 
REMARK    2  A    between atoms: C3_3  and  C7_7 
REMARK    3  A    between atoms: C5_5  and  C8_8 
REMARK    4  A    between atoms: C7_7  and  C8_8 
ROOT
HETATM    1  C1  UNL     1     -32.983  18.545  -0.498  1.00 20.00     0.012 C 
HETATM    2  C2  UNL     1     -33.664  17.622  -0.852  1.00 20.00    -0.117 C 
HETATM    3  C5  UNL     1     -34.500  16.491  -1.280  1.00 20.00     0.093 C 
ENDROOT
BRANCH   3   4
HETATM    4  C8  UNL     1     -33.984  15.892  -2.591  1.00 20.00     0.019 C 
BRANCH   4   5
HETATM    5  C7  UNL     1     -34.957  14.879  -3.193  1.00 20.00     0.079 C 
BRANCH   5   6
HETATM    6  C3  UNL     1     -34.292  13.848  -4.095  1.00 20.00     0.126 C 
HETATM    7  O9  UNL     1     -33.287  13.227  -3.754  1.00 20.00    -0.298 OA
BRANCH   6   8
HETATM    8  C6  UNL     1     -34.934  13.663  -5.461  1.00 20.00     0.074 C 
HETATM    9  C4  UNL     1     -34.526  14.738  -6.451  1.00 20.00     0.013 C 
ENDBRANCH   6   8
ENDBRANCH   5   6
ENDBRANCH   4   5
ENDBRANCH   3   4
TORSDOF 4
ENDMDL
MODEL 8
REMARK VINA RESULT:      -4.0     11.248     12.788
REMARK  4 active torsions:
REMARK  status: ('A' for Active; 'I' for Inactive)
REMARK    1  A    between atoms: C3_3  and  C6_6 
REMARK    2  A    between atoms: C3_3  and  C7_7 
REMARK    3  A    between atoms: C5_5  and  C8_8 
REMARK    4  A    between atoms: C7_7  and  C8_8 
ROOT
HETATM    1  C1  UNL     1     -34.638  14.977  -7.628  1.00 20.00     0.012 C 
HETATM    2  C2  UNL     1     -34.288  15.759  -6.787  1.00 20.00    -0.117 C 
HETATM    3  C5  UNL     1     -33.863  16.721  -5.760  1.00 20.00     0.093 C 
ENDROOT
BRANCH   3   4
HETATM    4  C8  UNL     1     -32.979  16.046  -4.709  1.00 20.00     0.019 C 
BRANCH   4   5
HETATM    5  C7  UNL     1     -33.793  15.328  -3.634  1.00 20.00     0.079 C 
BRANCH   5   6
HETATM    6  C3  UNL     1     -33.863  13.818  -3.821  1.00 20.00     0.126 C 
HETATM    7  O9  UNL     1     -32.881  13.092  -3.675  1.00 20.00    -0.298 OA
BRANCH   6   8
HETATM    8  C6  UNL     1     -35.220  13.271  -4.233  1.00 20.00     0.074 C 
HETATM    9  C4  UNL     1     -36.334  14.289  -4.077  1.00 20.00     0.013 C 
ENDBRANCH   6   8
ENDBRANCH   5   6
ENDBRANCH   4   5
ENDBRANCH   3   4
TORSDOF 4
ENDMDL
MODEL 9
REMARK VINA RESULT:      -4.0     11.614     12.532
REMARK  4 active torsions:
REMARK  status: ('A' for Active; 'I' for Inactive)
REMARK    1  A    between atoms: C3_3  and  C6_6 
REMARK    2  A    between atoms: C3_3  and  C7_7 
REMARK    3  A    between atoms: C5_5  and  C8_8 
REMARK    4  A    between atoms: C7_7  and  C8_8 
ROOT
HETATM    1  C1  UNL     1     -34.931  14.901  -6.910  1.00 20.00     0.012 C 
HETATM    2  C2  UNL     1     -34.843  14.139  -5.987  1.00 20.00    -0.117 C 
HETATM    3  C5  UNL     1     -34.739  13.202  -4.859  1.00 20.00     0.093 C 
ENDROOT
BRANCH   3   4
HETATM    4  C8  UNL     1     -33.873  13.784  -3.739  1.00 20.00     0.019 C 
BRANCH   4   5
HETATM    5  C7  UNL     1     -34.542  14.965  -3.038  1.00 20.00     0.079 C 
BRANCH   5   6
HETATM    6  C3  UNL     1     -33.752  16.264  -3.129  1.00 20.00     0.126 C 
HETATM    7  O9  UNL     1     -33.138  16.589  -4.144  1.00 20.00    -0.298 OA
BRANCH   6   8
HETATM    8  C6  UNL     1     -33.746  17.115  -1.871  1.00 20.00     0.074 C 
HETATM    9  C4  UNL     1     -34.703  16.603  -0.811  1.00 20.00     0.013 C 
ENDBRANCH   6   8
ENDBRANCH   5   6
ENDBRANCH   4   5
ENDBRANCH   3   4
TORSDOF 4
ENDMDL
