MODEL 1
REMARK VINA RESULT:      -4.2      0.000      0.000
REMARK  2 active torsions:
REMARK  status: ('A' for Active; 'I' for Inactive)
REMARK    1  A    between atoms: C8_8  and  C9_9 
REMARK    2  A    between atoms: C8_8  and  N10_10 
ROOT
HETATM    1  C1  UNL     1     -33.907  13.654  -3.897  1.00 20.00     0.032 C 
HETATM    2  C2  UNL     1     -34.565  13.629  -5.273  1.00 20.00     0.024 C 
HETATM    3  C3  UNL     1     -34.454  14.796  -3.039  1.00 20.00     0.272 C 
HETATM    4  C4  UNL     1     -34.996  16.105  -5.009  1.00 20.00     0.292 C 
HETATM    5  C5  UNL     1     -34.457  15.004  -5.929  1.00 20.00     0.110 C 
HETATM    6  N10 UNL     1     -34.296  16.091  -3.716  1.00 20.00     0.090 N 
HETATM    7 CL11 UNL     1     -35.349  15.009  -7.476  1.00 20.00    -0.123 Cl
ENDROOT
BRANCH   6   8
HETATM    8  C8  UNL     1     -34.776  17.176  -2.861  1.00 20.00     0.276 C 
BRANCH   8   9
HETATM    9  C9  UNL     1     -33.932  17.316  -1.590  1.00 20.00     0.006 C 
HETATM   10  C6  UNL     1     -33.275  18.693  -1.478  1.00 20.00     0.011 C 
HETATM   11  C7  UNL     1     -34.737  17.000  -0.328  1.00 20.00     0.011 C 
ENDBRANCH   8   9
ENDBRANCH   6   8
TORSDOF 2
ENDMDL
MODEL 2
REMARK VINA RESULT:      -4.2      2.781      4.979
REMARK  2 active torsions:
REMARK  status: ('A' for Active; 'I' for Inactive)
REMARK    1  A    between atoms: C8_8  and  C9_9 
REMARK    2  A    between atoms: C8_8  and  N10_10 
ROOT
HETATM    1  C1  UNL     1     -33.694  18.206  -3.564  1.00 20.00     0.032 C 
HETATM    2  C2  UNL     1     -33.811  18.662  -2.114  1.00 20.00     0.024 C 
HETATM    3  C3  UNL     1     -34.698  17.096  -3.881  1.00 20.00     0.272 C 
HETATM    4  C4  UNL     1     -34.729  16.373  -1.564  1.00 20.00     0.292 C 
HETATM    5  C5  UNL     1     -33.718  17.458  -1.179  1.00 20.00     0.110 C 
HETATM    6  N10 UNL     1     -34.538  15.959  -2.963  1.00 20.00     0.090 N 
HETATM    7 CL11 UNL     1     -33.994  17.978   0.508  1.00 20.00    -0.123 Cl
ENDROOT
BRANCH   6   8
HETATM    8  C8  UNL     1     -35.469  14.886  -3.311  1.00 20.00     0.276 C 
BRANCH   8   9
HETATM    9  C9  UNL     1     -34.764  13.730  -4.029  1.00 20.00     0.006 C 
HETATM   10  C6  UNL     1     -34.984  13.765  -5.542  1.00 20.00     0.011 C 
HETATM   11  C7  UNL     1     -33.270  13.678  -3.704  1.00 20.00     0.011 C 
ENDBRANCH   8   9
ENDBRANCH   6   8
TORSDOF 2
ENDMDL
MODEL 3
REMARK VINA RESULT:      -4.1      1.983      2.656
REMARK  2 active torsions:
REMARK  status: ('A' for Active; 'I' for Inactive)
REMARK    1  A    between atoms: C8_8  and  C9_9 
REMARK    2  A    between atoms: C8_8  and  N10_10 
ROOT
HETATM    1  C1  UNL     1     -33.599  17.589  -5.222  1.00 20.00     0.032 C 
HETATM    2  C2  UNL     1     -33.086  16.166  -5.034  1.00 20.00     0.024 C 
HETATM    3  C3  UNL     1     -33.801  18.291  -3.878  1.00 20.00     0.272 C 
HETATM    4  C4  UNL     1     -34.177  16.172  -2.755  1.00 20.00     0.292 C 
HETATM    5  C5  UNL     1     -33.994  15.406  -4.069  1.00 20.00     0.110 C 
HETATM    6  N10 UNL     1     -34.703  17.522  -3.009  1.00 20.00     0.090 N 
HETATM    7 CL11 UNL     1     -33.312  13.787  -3.744  1.00 20.00    -0.123 Cl
ENDROOT
BRANCH   6   8
HETATM    8  C8  UNL     1     -34.926  18.230  -1.749  1.00 20.00     0.276 C 
BRANCH   8   9
HETATM    9  C9  UNL     1     -34.126  17.609  -0.597  1.00 20.00     0.006 C 
HETATM   10  C6  UNL     1     -32.903  18.447  -0.222  1.00 20.00     0.011 C 
HETATM   11  C7  UNL     1     -34.999  17.348   0.632  1.00 20.00     0.011 C 
ENDBRANCH   8   9
ENDBRANCH   6   8
TORSDOF 2
ENDMDL
MODEL 4
REMARK VINA RESULT:      -4.1      1.831      1.932
REMARK  2 active torsions:
REMARK  status: ('A' for Active; 'I' for Inactive)
REMARK    1  A    between atoms: C8_8  and  C9_9 
REMARK    2  A    between atoms: C8_8  and  N10_10 
ROOT
HETATM    1  C1  UNL     1     -33.762  14.720  -3.812  1.00 20.00     0.032 C 
HETATM    2  C2  UNL     1     -35.169  14.133  -3.861  1.00 20.00     0.024 C 
HETATM    3  C3  UNL     1     -33.667  15.853  -2.789  1.00 20.00     0.272 C 
HETATM    4  C4  UNL     1     -36.027  16.362  -3.035  1.00 20.00     0.292 C 
HETATM    5  C5  UNL     1     -36.192  15.247  -4.074  1.00 20.00     0.110 C 
HETATM    6  N10 UNL     1     -34.659  16.902  -3.065  1.00 20.00     0.090 N 
HETATM    7 CL11 UNL     1     -37.845  14.575  -3.992  1.00 20.00    -0.123 Cl
ENDROOT
BRANCH   6   8
HETATM    8  C8  UNL     1     -34.521  18.000  -2.110  1.00 20.00     0.276 C 
BRANCH   8   9
HETATM    9  C9  UNL     1     -33.887  17.534  -0.794  1.00 20.00     0.006 C 
HETATM   10  C6  UNL     1     -32.797  18.489  -0.305  1.00 20.00     0.011 C 
HETATM   11  C7  UNL     1     -34.934  17.307   0.299  1.00 20.00     0.011 C 
ENDBRANCH   8   9
ENDBRANCH   6   8
TORSDOF 2
ENDMDL
MODEL 5
REMARK VINA RESULT:      -4.0      1.926      2.392
REMARK  2 active torsions:
REMARK  status: ('A' for Active; 'I' for Inactive)
REMARK    1  A    between atoms: C8_8  and  C9_9 
REMARK    2  A    between atoms: C8_8  and  N10_10 
ROOT
HETATM    1  C1  UNL     1     -36.751  15.117  -4.340  1.00 20.00     0.032 C 
HETATM    2  C2  UNL     1     -35.474  14.350  -4.665  1.00 20.00     0.024 C 
HETATM    3  C3  UNL     1     -36.443  16.432  -3.620  1.00 20.00     0.272 C 
HETATM    4  C4  UNL     1     -34.379  15.528  -2.716  1.00 20.00     0.292 C 
HETATM    5  C5  UNL     1     -34.630  14.181  -3.403  1.00 20.00     0.110 C 
HETATM    6  N10 UNL     1     -35.652  16.196  -2.403  1.00 20.00     0.090 N 
HETATM    7 CL11 UNL     1     -33.074  13.406  -3.814  1.00 20.00    -0.123 Cl
ENDROOT
BRANCH   6   8
HETATM    8  C8  UNL     1     -35.409  17.456  -1.701  1.00 20.00     0.276 C 
BRANCH   8   9
HETATM    9  C9  UNL     1     -34.461  17.271  -0.510  1.00 20.00     0.006 C 
HETATM   10  C6  UNL     1     -33.253  18.205  -0.579  1.00 20.00     0.011 C 
HETATM   11  C7  UNL     1     -35.185  17.424   0.829  1.00 20.00     0.011 C 
ENDBRANCH   8   9
ENDBRANCH   6   8
TORSDOF 2
ENDMDL
MODEL 6
REMARK VINA RESULT:      -4.0      1.652      2.253
REMARK  2 active torsions:
REMARK  status: ('A' for Active; 'I' for Inactive)
REMARK    1  A    between atoms: C8_8  and  C9_9 
REMARK    2  A    between atoms: C8_8  and  N10_10 
ROOT
HETATM    1  C1  UNL     1     -34.493  14.815  -6.778  1.00 20.00     0.032 C 
HETATM    2  C2  UNL     1     -35.961  14.699  -7.177  1.00 20.00     0.024 C 
HETATM    3  C3  UNL     1     -34.295  14.512  -5.291  1.00 20.00     0.272 C 
HETATM    4  C4  UNL     1     -36.559  15.221  -4.777  1.00 20.00     0.292 C 
HETATM    5  C5  UNL     1     -36.823  15.553  -6.250  1.00 20.00     0.110 C 
HETATM    6  N10 UNL     1     -35.133  15.384  -4.456  1.00 20.00     0.090 N 
HETATM    7 CL11 UNL     1     -38.551  15.306  -6.631  1.00 20.00    -0.123 Cl
ENDROOT
BRANCH   6   8
HETATM    8  C8  UNL     1     -34.894  15.117  -3.038  1.00 20.00     0.276 C 
BRANCH   8   9
HETATM    9  C9  UNL     1     -34.070  16.229  -2.380  1.00 20.00     0.006 C 
HETATM   10  C6  UNL     1     -33.981  17.481  -3.254  1.00 20.00     0.011 C 
HETATM   11  C7  UNL     1     -34.592  16.582  -0.986  1.00 20.00     0.011 C 
ENDBRANCH   8   9
ENDBRANCH   6   8
TORSDOF 2
ENDMDL
MODEL 7
REMARK VINA RESULT:      -3.9      1.393      2.360
REMARK  2 active torsions:
REMARK  status: ('A' for Active; 'I' for Inactive)
REMARK    1  A    between atoms: C8_8  and  C9_9 
REMARK    2  A    between atoms: C8_8  and  N10_10 
ROOT
HETATM    1  C1  UNL     1     -34.052  17.829  -6.218  1.00 20.00     0.032 C 
HETATM    2  C2  UNL     1     -34.384  16.707  -7.196  1.00 20.00     0.024 C 
HETATM    3  C3  UNL     1     -33.440  17.281  -4.928  1.00 20.00     0.272 C 
HETATM    4  C4  UNL     1     -34.588  15.161  -5.207  1.00 20.00     0.292 C 
HETATM    5  C5  UNL     1     -35.242  15.649  -6.504  1.00 20.00     0.110 C 
HETATM    6  N10 UNL     1     -34.326  16.289  -4.301  1.00 20.00     0.090 N 
HETATM    7 CL11 UNL     1     -35.511  14.271  -7.609  1.00 20.00    -0.123 Cl
ENDROOT
BRANCH   6   8
HETATM    8  C8  UNL     1     -33.750  15.813  -3.044  1.00 20.00     0.276 C 
BRANCH   8   9
HETATM    9  C9  UNL     1     -34.498  16.371  -1.827  1.00 20.00     0.006 C 
HETATM   10  C6  UNL     1     -33.663  17.390  -1.050  1.00 20.00     0.011 C 
HETATM   11  C7  UNL     1     -35.854  16.967  -2.211  1.00 20.00     0.011 C 
ENDBRANCH   8   9
ENDBRANCH   6   8
TORSDOF 2
ENDMDL
MODEL 8
REMARK VINA RESULT:      -3.9      2.066      2.398
REMARK  2 active torsions:
REMARK  status: ('A' for Active; 'I' for Inactive)
REMARK    1  A    between atoms: C8_8  and  C9_9 
REMARK    2  A    between atoms: C8_8  and  N10_10 
ROOT
HETATM    1  C1  UNL     1     -33.045  15.567  -4.049  1.00 20.00     0.032 C 
HETATM    2  C2  UNL     1     -33.336  16.485  -5.232  1.00 20.00     0.024 C 
HETATM    3  C3  UNL     1     -34.111  15.708  -2.960  1.00 20.00     0.272 C 
HETATM    4  C4  UNL     1     -34.596  17.987  -3.638  1.00 20.00     0.292 C 
HETATM    5  C5  UNL     1     -33.538  17.918  -4.744  1.00 20.00     0.110 C 
HETATM    6  N10 UNL     1     -34.236  17.104  -2.518  1.00 20.00     0.090 N 
HETATM    7 CL11 UNL     1     -34.015  18.963  -6.113  1.00 20.00    -0.123 Cl
ENDROOT
BRANCH   6   8
HETATM    8  C8  UNL     1     -35.221  17.213  -1.443  1.00 20.00     0.276 C 
BRANCH   8   9
HETATM    9  C9  UNL     1     -34.553  17.305  -0.066  1.00 20.00     0.006 C 
HETATM   10  C6  UNL     1     -33.300  18.181  -0.085  1.00 20.00     0.011 C 
HETATM   11  C7  UNL     1     -35.527  17.781   1.014  1.00 20.00     0.011 C 
ENDBRANCH   8   9
ENDBRANCH   6   8
TORSDOF 2
ENDMDL
MODEL 9
REMARK VINA RESULT:      -3.9     12.937     14.713
REMARK  2 active torsions:
REMARK  status: ('A' for Active; 'I' for Inactive)
REMARK    1  A    between atoms: C8_8  and  C9_9 
REMARK    2  A    between atoms: C8_8  and  N10_10 
ROOT
HETATM    1  C1  UNL     1     -40.763   5.103  -0.445  1.00 20.00     0.032 C 
HETATM    2  C2  UNL     1     -41.271   6.534  -0.587  1.00 20.00     0.024 C 
HETATM    3  C3  UNL     1     -41.091   4.270  -1.686  1.00 20.00     0.272 C 
HETATM    4  C4  UNL     1     -43.019   5.658  -2.187  1.00 20.00     0.292 C 
HETATM    5  C5  UNL     1     -42.753   6.529  -0.955  1.00 20.00     0.110 C 
HETATM    6  N10 UNL     1     -42.534   4.286  -1.969  1.00 20.00     0.090 N 
HETATM    7 CL11 UNL     1     -43.308   8.200  -1.256  1.00 20.00    -0.123 Cl
ENDROOT
BRANCH   6   8
HETATM    8  C8  UNL     1     -42.836   3.446  -3.127  1.00 20.00     0.276 C 
BRANCH   8   9
HETATM    9  C9  UNL     1     -42.239   2.041  -2.982  1.00 20.00     0.006 C 
HETATM   10  C6  UNL     1     -43.297   0.993  -2.634  1.00 20.00     0.011 C 
HETATM   11  C7  UNL     1     -41.454   1.621  -4.226  1.00 20.00     0.011 C 
ENDBRANCH   8   9
ENDBRANCH   6   8
TORSDOF 2
ENDMDL
