MODEL 1
REMARK VINA RESULT:      -5.0      0.000      0.000
REMARK  3 active torsions:
REMARK  status: ('A' for Active; 'I' for Inactive)
REMARK    1  A    between atoms: C4_4  and  C9_9 
REMARK    2  A    between atoms: C5_5  and  C10_10 
REMARK    3  A    between atoms: C9_9  and  C11_11 
ROOT
HETATM    1  C1  UNL     1     -33.457  13.850  -3.935  1.00 20.00     0.006 C 
HETATM    2  C2  UNL     1     -34.635  13.709  -4.896  1.00 20.00     0.021 C 
HETATM    3  C3  UNL     1     -33.216  16.277  -4.584  1.00 20.00     0.010 C 
HETATM    4  C4  UNL     1     -33.280  15.283  -3.416  1.00 20.00    -0.014 C 
HETATM    5  C5  UNL     1     -34.399  16.157  -5.564  1.00 20.00     0.004 C 
HETATM    6  C6  UNL     1     -34.544  14.703  -6.056  1.00 20.00     0.086 C 
HETATM    7 CL12 UNL     1     -35.994  14.506  -7.091  1.00 20.00    -0.125 Cl
ENDROOT
BRANCH   4   8
HETATM    8  C9  UNL     1     -34.368  15.660  -2.406  1.00 20.00     0.004 C 
BRANCH   8   9
HETATM    9  C11 UNL     1     -33.955  16.872  -1.580  1.00 20.00    -0.004 C 
HETATM   10  C8  UNL     1     -34.773  16.971  -0.303  1.00 20.00     0.005 C 
ENDBRANCH   8   9
ENDBRANCH   4   8
BRANCH   5  11
HETATM   11  C10 UNL     1     -34.197  17.146  -6.718  1.00 20.00     0.001 C 
HETATM   12  C7  UNL     1     -33.698  18.462  -6.227  1.00 20.00     0.005 C 
ENDBRANCH   5  11
TORSDOF 3
ENDMDL
MODEL 2
REMARK VINA RESULT:      -4.7      1.680      3.398
REMARK  3 active torsions:
REMARK  status: ('A' for Active; 'I' for Inactive)
REMARK    1  A    between atoms: C4_4  and  C9_9 
REMARK    2  A    between atoms: C5_5  and  C10_10 
REMARK    3  A    between atoms: C9_9  and  C11_11 
ROOT
HETATM    1  C1  UNL     1     -35.618  17.761  -2.778  1.00 20.00     0.006 C 
HETATM    2  C2  UNL     1     -34.839  17.686  -4.089  1.00 20.00     0.021 C 
HETATM    3  C3  UNL     1     -34.733  15.491  -2.119  1.00 20.00     0.010 C 
HETATM    4  C4  UNL     1     -34.977  16.934  -1.656  1.00 20.00    -0.014 C 
HETATM    5  C5  UNL     1     -33.943  15.390  -3.439  1.00 20.00     0.004 C 
HETATM    6  C6  UNL     1     -34.617  16.239  -4.535  1.00 20.00     0.086 C 
HETATM    7 CL12 UNL     1     -33.646  16.249  -6.041  1.00 20.00    -0.125 Cl
ENDROOT
BRANCH   4   8
HETATM    8  C9  UNL     1     -33.696  17.586  -1.129  1.00 20.00     0.004 C 
BRANCH   8   9
HETATM    9  C11 UNL     1     -33.886  18.106   0.291  1.00 20.00    -0.004 C 
HETATM   10  C8  UNL     1     -35.156  17.550   0.915  1.00 20.00     0.005 C 
ENDBRANCH   8   9
ENDBRANCH   4   8
BRANCH   5  11
HETATM   11  C10 UNL     1     -33.818  13.915  -3.837  1.00 20.00     0.001 C 
HETATM   12  C7  UNL     1     -35.125  13.361  -4.294  1.00 20.00     0.005 C 
ENDBRANCH   5  11
TORSDOF 3
ENDMDL
MODEL 3
REMARK VINA RESULT:      -4.6      2.045      3.097
REMARK  3 active torsions:
REMARK  status: ('A' for Active; 'I' for Inactive)
REMARK    1  A    between atoms: C4_4  and  C9_9 
REMARK    2  A    between atoms: C5_5  and  C10_10 
REMARK    3  A    between atoms: C9_9  and  C11_11 
ROOT
HETATM    1  C1  UNL     1     -33.634  16.968  -3.137  1.00 20.00     0.006 C 
HETATM    2  C2  UNL     1     -33.428  15.518  -3.572  1.00 20.00     0.021 C 
HETATM    3  C3  UNL     1     -36.112  16.550  -2.910  1.00 20.00     0.010 C 
HETATM    4  C4  UNL     1     -34.866  17.153  -2.244  1.00 20.00    -0.014 C 
HETATM    5  C5  UNL     1     -35.930  15.086  -3.352  1.00 20.00     0.004 C 
HETATM    6  C6  UNL     1     -34.678  14.944  -4.241  1.00 20.00     0.086 C 
HETATM    7 CL12 UNL     1     -34.365  13.229  -4.658  1.00 20.00    -0.125 Cl
ENDROOT
BRANCH   4   8
HETATM    8  C9  UNL     1     -34.642  16.586  -0.840  1.00 20.00     0.004 C 
BRANCH   8   9
HETATM    9  C11 UNL     1     -34.377  17.698   0.168  1.00 20.00    -0.004 C 
HETATM   10  C8  UNL     1     -35.315  17.595   1.360  1.00 20.00     0.005 C 
ENDBRANCH   8   9
ENDBRANCH   4   8
BRANCH   5  11
HETATM   11  C10 UNL     1     -37.205  14.612  -4.059  1.00 20.00     0.001 C 
HETATM   12  C7  UNL     1     -37.375  15.282  -5.380  1.00 20.00     0.005 C 
ENDBRANCH   5  11
TORSDOF 3
ENDMDL
MODEL 4
REMARK VINA RESULT:      -4.5      1.075      1.080
REMARK  3 active torsions:
REMARK  status: ('A' for Active; 'I' for Inactive)
REMARK    1  A    between atoms: C4_4  and  C9_9 
REMARK    2  A    between atoms: C5_5  and  C10_10 
REMARK    3  A    between atoms: C9_9  and  C11_11 
ROOT
HETATM    1  C1  UNL     1     -34.423  14.471  -3.239  1.00 20.00     0.006 C 
HETATM    2  C2  UNL     1     -35.739  14.594  -4.004  1.00 20.00     0.021 C 
HETATM    3  C3  UNL     1     -33.348  16.118  -4.820  1.00 20.00     0.010 C 
HETATM    4  C4  UNL     1     -33.551  15.728  -3.349  1.00 20.00    -0.014 C 
HETATM    5  C5  UNL     1     -34.663  16.253  -5.612  1.00 20.00     0.004 C 
HETATM    6  C6  UNL     1     -35.510  14.973  -5.469  1.00 20.00     0.086 C 
HETATM    7 CL12 UNL     1     -37.105  15.154  -6.267  1.00 20.00    -0.125 Cl
ENDROOT
BRANCH   4   8
HETATM    8  C9  UNL     1     -34.118  16.888  -2.526  1.00 20.00     0.004 C 
BRANCH   8   9
HETATM    9  C11 UNL     1     -34.609  16.410  -1.165  1.00 20.00    -0.004 C 
HETATM   10  C8  UNL     1     -34.406  17.476  -0.101  1.00 20.00     0.005 C 
ENDBRANCH   8   9
ENDBRANCH   4   8
BRANCH   5  11
HETATM   11  C10 UNL     1     -34.338  16.577  -7.074  1.00 20.00     0.001 C 
HETATM   12  C7  UNL     1     -34.436  18.040  -7.342  1.00 20.00     0.005 C 
ENDBRANCH   5  11
TORSDOF 3
ENDMDL
MODEL 5
REMARK VINA RESULT:      -4.4      2.132      4.642
REMARK  3 active torsions:
REMARK  status: ('A' for Active; 'I' for Inactive)
REMARK    1  A    between atoms: C4_4  and  C9_9 
REMARK    2  A    between atoms: C5_5  and  C10_10 
REMARK    3  A    between atoms: C9_9  and  C11_11 
ROOT
HETATM    1  C1  UNL     1     -33.670  17.228  -5.268  1.00 20.00     0.006 C 
HETATM    2  C2  UNL     1     -34.961  17.842  -4.731  1.00 20.00     0.021 C 
HETATM    3  C3  UNL     1     -33.444  15.855  -3.163  1.00 20.00     0.010 C 
HETATM    4  C4  UNL     1     -33.392  15.833  -4.698  1.00 20.00    -0.014 C 
HETATM    5  C5  UNL     1     -34.741  16.466  -2.597  1.00 20.00     0.004 C 
HETATM    6  C6  UNL     1     -34.985  17.863  -3.201  1.00 20.00     0.086 C 
HETATM    7 CL12 UNL     1     -36.556  18.540  -2.664  1.00 20.00    -0.125 Cl
ENDROOT
BRANCH   4   8
HETATM    8  C9  UNL     1     -34.336  14.780  -5.283  1.00 20.00     0.004 C 
BRANCH   8   9
HETATM    9  C11 UNL     1     -34.419  14.896  -6.800  1.00 20.00    -0.004 C 
HETATM   10  C8  UNL     1     -35.849  14.733  -7.288  1.00 20.00     0.005 C 
ENDBRANCH   8   9
ENDBRANCH   4   8
BRANCH   5  11
HETATM   11  C10 UNL     1     -34.654  16.498  -1.067  1.00 20.00     0.001 C 
HETATM   12  C7  UNL     1     -33.773  17.604  -0.595  1.00 20.00     0.005 C 
ENDBRANCH   5  11
TORSDOF 3
ENDMDL
MODEL 6
REMARK VINA RESULT:      -4.4      2.189      4.461
REMARK  3 active torsions:
REMARK  status: ('A' for Active; 'I' for Inactive)
REMARK    1  A    between atoms: C4_4  and  C9_9 
REMARK    2  A    between atoms: C5_5  and  C10_10 
REMARK    3  A    between atoms: C9_9  and  C11_11 
ROOT
HETATM    1  C1  UNL     1     -33.519  17.706  -5.000  1.00 20.00     0.006 C 
HETATM    2  C2  UNL     1     -34.837  18.268  -4.470  1.00 20.00     0.021 C 
HETATM    3  C3  UNL     1     -33.399  16.129  -3.033  1.00 20.00     0.010 C 
HETATM    4  C4  UNL     1     -33.269  16.259  -4.557  1.00 20.00    -0.014 C 
HETATM    5  C5  UNL     1     -34.724  16.685  -2.476  1.00 20.00     0.004 C 
HETATM    6  C6  UNL     1     -34.939  18.137  -2.949  1.00 20.00     0.086 C 
HETATM    7 CL12 UNL     1     -36.535  18.763  -2.428  1.00 20.00    -0.125 Cl
ENDROOT
BRANCH   4   8
HETATM    8  C9  UNL     1     -34.181  15.273  -5.292  1.00 20.00     0.004 C 
BRANCH   8   9
HETATM    9  C11 UNL     1     -34.097  13.882  -4.677  1.00 20.00    -0.004 C 
HETATM   10  C8  UNL     1     -35.467  13.390  -4.239  1.00 20.00     0.005 C 
ENDBRANCH   8   9
ENDBRANCH   4   8
BRANCH   5  11
HETATM   11  C10 UNL     1     -34.716  16.565  -0.948  1.00 20.00     0.001 C 
HETATM   12  C7  UNL     1     -33.912  17.653  -0.320  1.00 20.00     0.005 C 
ENDBRANCH   5  11
TORSDOF 3
ENDMDL
MODEL 7
REMARK VINA RESULT:      -4.4      2.409      3.923
REMARK  3 active torsions:
REMARK  status: ('A' for Active; 'I' for Inactive)
REMARK    1  A    between atoms: C4_4  and  C9_9 
REMARK    2  A    between atoms: C5_5  and  C10_10 
REMARK    3  A    between atoms: C9_9  and  C11_11 
ROOT
HETATM    1  C1  UNL     1     -34.368  15.161  -6.356  1.00 20.00     0.006 C 
HETATM    2  C2  UNL     1     -34.143  16.659  -6.164  1.00 20.00     0.021 C 
HETATM    3  C3  UNL     1     -34.590  14.871  -3.859  1.00 20.00     0.010 C 
HETATM    4  C4  UNL     1     -35.197  14.534  -5.229  1.00 20.00    -0.014 C 
HETATM    5  C5  UNL     1     -34.358  16.378  -3.640  1.00 20.00     0.004 C 
HETATM    6  C6  UNL     1     -33.528  16.969  -4.797  1.00 20.00     0.086 C 
HETATM    7 CL12 UNL     1     -33.359  18.746  -4.638  1.00 20.00    -0.125 Cl
ENDROOT
BRANCH   4   8
HETATM    8  C9  UNL     1     -36.670  14.938  -5.312  1.00 20.00     0.004 C 
BRANCH   8   9
HETATM    9  C11 UNL     1     -37.398  14.642  -4.007  1.00 20.00    -0.004 C 
HETATM   10  C8  UNL     1     -38.208  15.842  -3.543  1.00 20.00     0.005 C 
ENDBRANCH   8   9
ENDBRANCH   4   8
BRANCH   5  11
HETATM   11  C10 UNL     1     -33.691  16.590  -2.276  1.00 20.00     0.001 C 
HETATM   12  C7  UNL     1     -34.677  16.474  -1.164  1.00 20.00     0.005 C 
ENDBRANCH   5  11
TORSDOF 3
ENDMDL
MODEL 8
REMARK VINA RESULT:      -4.3      2.733      5.104
REMARK  3 active torsions:
REMARK  status: ('A' for Active; 'I' for Inactive)
REMARK    1  A    between atoms: C4_4  and  C9_9 
REMARK    2  A    between atoms: C5_5  and  C10_10 
REMARK    3  A    between atoms: C9_9  and  C11_11 
ROOT
HETATM    1  C1  UNL     1     -34.765  17.326  -3.734  1.00 20.00     0.006 C 
HETATM    2  C2  UNL     1     -36.087  17.684  -3.058  1.00 20.00     0.021 C 
HETATM    3  C3  UNL     1     -33.764  16.770  -1.485  1.00 20.00     0.010 C 
HETATM    4  C4  UNL     1     -33.946  16.304  -2.936  1.00 20.00    -0.014 C 
HETATM    5  C5  UNL     1     -35.086  17.131  -0.781  1.00 20.00     0.004 C 
HETATM    6  C6  UNL     1     -35.878  18.155  -1.617  1.00 20.00     0.086 C 
HETATM    7 CL12 UNL     1     -37.482  18.491  -0.889  1.00 20.00    -0.125 Cl
ENDROOT
BRANCH   4   8
HETATM    8  C9  UNL     1     -34.558  14.903  -3.011  1.00 20.00     0.004 C 
BRANCH   8   9
HETATM    9  C11 UNL     1     -33.665  13.953  -3.801  1.00 20.00    -0.004 C 
HETATM   10  C8  UNL     1     -34.460  13.198  -4.854  1.00 20.00     0.005 C 
ENDBRANCH   8   9
ENDBRANCH   4   8
BRANCH   5  11
HETATM   11  C10 UNL     1     -34.779  17.644   0.631  1.00 20.00     0.001 C 
HETATM   12  C7  UNL     1     -33.559  18.501   0.646  1.00 20.00     0.005 C 
ENDBRANCH   5  11
TORSDOF 3
ENDMDL
MODEL 9
REMARK VINA RESULT:      -4.3      1.900      2.855
REMARK  3 active torsions:
REMARK  status: ('A' for Active; 'I' for Inactive)
REMARK    1  A    between atoms: C4_4  and  C9_9 
REMARK    2  A    between atoms: C5_5  and  C10_10 
REMARK    3  A    between atoms: C9_9  and  C11_11 
ROOT
HETATM    1  C1  UNL     1     -33.531  17.450  -4.840  1.00 20.00     0.006 C 
HETATM    2  C2  UNL     1     -33.677  16.183  -5.680  1.00 20.00     0.021 C 
HETATM    3  C3  UNL     1     -35.836  17.082  -3.880  1.00 20.00     0.010 C 
HETATM    4  C4  UNL     1     -34.372  17.414  -3.558  1.00 20.00    -0.014 C 
HETATM    5  C5  UNL     1     -36.009  15.805  -4.723  1.00 20.00     0.004 C 
HETATM    6  C6  UNL     1     -35.144  15.879  -5.996  1.00 20.00     0.086 C 
HETATM    7 CL12 UNL     1     -35.220  14.349  -6.927  1.00 20.00    -0.125 Cl
ENDROOT
BRANCH   4   8
HETATM    8  C9  UNL     1     -33.786  16.454  -2.519  1.00 20.00     0.004 C 
BRANCH   8   9
HETATM    9  C11 UNL     1     -34.701  16.330  -1.306  1.00 20.00    -0.004 C 
HETATM   10  C8  UNL     1     -34.384  17.393  -0.267  1.00 20.00     0.005 C 
ENDBRANCH   8   9
ENDBRANCH   4   8
BRANCH   5  11
HETATM   11  C10 UNL     1     -37.497  15.609  -5.039  1.00 20.00     0.001 C 
HETATM   12  C7  UNL     1     -38.174  14.794  -3.990  1.00 20.00     0.005 C 
ENDBRANCH   5  11
TORSDOF 3
ENDMDL
