MODEL 1
REMARK VINA RESULT:      -4.9      0.000      0.000
REMARK  2 active torsions:
REMARK  status: ('A' for Active; 'I' for Inactive)
REMARK    1  A    between atoms: C6_6  and  C7_7 
REMARK    2  A    between atoms: C7_7  and  N9_9 
ROOT
HETATM    1  C1  UNL     1     -32.126   8.916   1.414  1.00 20.00     0.012 C 
HETATM    2  C2  UNL     1     -32.140   8.024   2.216  1.00 20.00    -0.116 C 
HETATM    3  C6  UNL     1     -32.151   6.932   3.202  1.00 20.00     0.113 C 
ENDROOT
BRANCH   3   4
HETATM    4  C7  UNL     1     -33.387   6.042   3.068  1.00 20.00     0.141 C 
BRANCH   4   5
HETATM    5  N9  UNL     1     -34.002   5.703   4.348  1.00 20.00    -0.349 N 
HETATM    6  C4  UNL     1     -34.872   4.675   4.580  1.00 20.00     0.111 A 
HETATM    7  C3  UNL     1     -35.169   4.762   5.920  1.00 20.00     0.135 A 
HETATM    8  N8  UNL     1     -34.508   5.809   6.508  1.00 20.00    -0.255 NA
HETATM    9  C5  UNL     1     -33.814   6.356   5.534  1.00 20.00     0.209 A 
ENDBRANCH   4   5
ENDBRANCH   3   4
TORSDOF 2
ENDMDL
MODEL 2
REMARK VINA RESULT:      -4.2     10.930     12.094
REMARK  2 active torsions:
REMARK  status: ('A' for Active; 'I' for Inactive)
REMARK    1  A    between atoms: C6_6  and  C7_7 
REMARK    2  A    between atoms: C7_7  and  N9_9 
ROOT
HETATM    1  C1  UNL     1     -33.702  17.985  -0.110  1.00 20.00     0.012 C 
HETATM    2  C2  UNL     1     -34.122  17.157  -0.871  1.00 20.00    -0.116 C 
HETATM    3  C6  UNL     1     -34.641  16.141  -1.799  1.00 20.00     0.113 C 
ENDROOT
BRANCH   3   4
HETATM    4  C7  UNL     1     -33.742  15.959  -3.022  1.00 20.00     0.141 C 
BRANCH   4   5
HETATM    5  N9  UNL     1     -34.184  14.895  -3.919  1.00 20.00    -0.349 N 
HETATM    6  C4  UNL     1     -34.537  15.037  -5.231  1.00 20.00     0.111 A 
HETATM    7  C3  UNL     1     -34.876  13.770  -5.643  1.00 20.00     0.135 A 
HETATM    8  N8  UNL     1     -34.741  12.864  -4.623  1.00 20.00    -0.255 NA
HETATM    9  C5  UNL     1     -34.322  13.573  -3.598  1.00 20.00     0.209 A 
ENDBRANCH   4   5
ENDBRANCH   3   4
TORSDOF 2
ENDMDL
MODEL 3
REMARK VINA RESULT:      -4.2     11.154     11.740
REMARK  2 active torsions:
REMARK  status: ('A' for Active; 'I' for Inactive)
REMARK    1  A    between atoms: C6_6  and  C7_7 
REMARK    2  A    between atoms: C7_7  and  N9_9 
ROOT
HETATM    1  C1  UNL     1     -35.145  17.397   0.697  1.00 20.00     0.012 C 
HETATM    2  C2  UNL     1     -34.691  17.033  -0.352  1.00 20.00    -0.116 C 
HETATM    3  C6  UNL     1     -34.130  16.588  -1.637  1.00 20.00     0.113 C 
ENDROOT
BRANCH   3   4
HETATM    4  C7  UNL     1     -35.216  16.185  -2.636  1.00 20.00     0.141 C 
BRANCH   4   5
HETATM    5  N9  UNL     1     -34.917  14.949  -3.354  1.00 20.00    -0.349 N 
HETATM    6  C4  UNL     1     -35.805  14.191  -4.063  1.00 20.00     0.111 A 
HETATM    7  C3  UNL     1     -35.062  13.141  -4.549  1.00 20.00     0.135 A 
HETATM    8  N8  UNL     1     -33.752  13.237  -4.156  1.00 20.00    -0.255 NA
HETATM    9  C5  UNL     1     -33.697  14.337  -3.437  1.00 20.00     0.209 A 
ENDBRANCH   4   5
ENDBRANCH   3   4
TORSDOF 2
ENDMDL
MODEL 4
REMARK VINA RESULT:      -3.8     11.827     12.954
REMARK  2 active torsions:
REMARK  status: ('A' for Active; 'I' for Inactive)
REMARK    1  A    between atoms: C6_6  and  C7_7 
REMARK    2  A    between atoms: C7_7  and  N9_9 
ROOT
HETATM    1  C1  UNL     1     -34.788  16.993  -0.312  1.00 20.00     0.012 C 
HETATM    2  C2  UNL     1     -34.321  16.631  -1.357  1.00 20.00    -0.116 C 
HETATM    3  C6  UNL     1     -33.747  16.193  -2.638  1.00 20.00     0.113 C 
ENDROOT
BRANCH   3   4
HETATM    4  C7  UNL     1     -34.477  14.979  -3.216  1.00 20.00     0.141 C 
BRANCH   4   5
HETATM    5  N9  UNL     1     -34.513  14.961  -4.675  1.00 20.00    -0.349 N 
HETATM    6  C4  UNL     1     -34.007  15.918  -5.509  1.00 20.00     0.111 A 
HETATM    7  C3  UNL     1     -34.279  15.460  -6.776  1.00 20.00     0.135 A 
HETATM    8  N8  UNL     1     -34.934  14.256  -6.738  1.00 20.00    -0.255 NA
HETATM    9  C5  UNL     1     -35.060  13.983  -5.458  1.00 20.00     0.209 A 
ENDBRANCH   4   5
ENDBRANCH   3   4
TORSDOF 2
ENDMDL
MODEL 5
REMARK VINA RESULT:      -3.8     11.862     12.493
REMARK  2 active torsions:
REMARK  status: ('A' for Active; 'I' for Inactive)
REMARK    1  A    between atoms: C6_6  and  C7_7 
REMARK    2  A    between atoms: C7_7  and  N9_9 
ROOT
HETATM    1  C1  UNL     1     -34.788  16.981  -0.384  1.00 20.00     0.012 C 
HETATM    2  C2  UNL     1     -34.444  16.524  -1.439  1.00 20.00    -0.116 C 
HETATM    3  C6  UNL     1     -34.017  15.963  -2.729  1.00 20.00     0.113 C 
ENDROOT
BRANCH   3   4
HETATM    4  C7  UNL     1     -34.927  16.396  -3.880  1.00 20.00     0.141 C 
BRANCH   4   5
HETATM    5  N9  UNL     1     -36.273  15.835  -3.801  1.00 20.00    -0.349 N 
HETATM    6  C4  UNL     1     -37.431  16.534  -3.612  1.00 20.00     0.111 A 
HETATM    7  C3  UNL     1     -38.421  15.581  -3.609  1.00 20.00     0.135 A 
HETATM    8  N8  UNL     1     -37.901  14.325  -3.790  1.00 20.00    -0.255 NA
HETATM    9  C5  UNL     1     -36.604  14.512  -3.902  1.00 20.00     0.209 A 
ENDBRANCH   4   5
ENDBRANCH   3   4
TORSDOF 2
ENDMDL
MODEL 6
REMARK VINA RESULT:      -3.7     10.927     12.283
REMARK  2 active torsions:
REMARK  status: ('A' for Active; 'I' for Inactive)
REMARK    1  A    between atoms: C6_6  and  C7_7 
REMARK    2  A    between atoms: C7_7  and  N9_9 
ROOT
HETATM    1  C1  UNL     1     -36.555  17.721  -2.530  1.00 20.00     0.012 C 
HETATM    2  C2  UNL     1     -35.619  17.033  -2.230  1.00 20.00    -0.116 C 
HETATM    3  C6  UNL     1     -34.473  16.190  -1.857  1.00 20.00     0.113 C 
ENDROOT
BRANCH   3   4
HETATM    4  C7  UNL     1     -33.564  15.886  -3.049  1.00 20.00     0.141 C 
BRANCH   4   5
HETATM    5  N9  UNL     1     -34.093  14.856  -3.938  1.00 20.00    -0.349 N 
HETATM    6  C4  UNL     1     -34.488  15.030  -5.234  1.00 20.00     0.111 A 
HETATM    7  C3  UNL     1     -34.906  13.786  -5.645  1.00 20.00     0.135 A 
HETATM    8  N8  UNL     1     -34.777  12.863  -4.639  1.00 20.00    -0.255 NA
HETATM    9  C5  UNL     1     -34.285  13.539  -3.624  1.00 20.00     0.209 A 
ENDBRANCH   4   5
ENDBRANCH   3   4
TORSDOF 2
ENDMDL
MODEL 7
REMARK VINA RESULT:      -3.6      9.853     10.880
REMARK  2 active torsions:
REMARK  status: ('A' for Active; 'I' for Inactive)
REMARK    1  A    between atoms: C6_6  and  C7_7 
REMARK    2  A    between atoms: C7_7  and  N9_9 
ROOT
HETATM    1  C1  UNL     1     -41.178   1.582  -4.115  1.00 20.00     0.012 C 
HETATM    2  C2  UNL     1     -41.813   2.258  -3.354  1.00 20.00    -0.116 C 
HETATM    3  C6  UNL     1     -42.595   3.081  -2.419  1.00 20.00     0.113 C 
ENDROOT
BRANCH   3   4
HETATM    4  C7  UNL     1     -42.627   4.554  -2.830  1.00 20.00     0.141 C 
BRANCH   4   5
HETATM    5  N9  UNL     1     -41.895   5.429  -1.918  1.00 20.00    -0.349 N 
HETATM    6  C4  UNL     1     -41.885   6.794  -1.941  1.00 20.00     0.111 A 
HETATM    7  C3  UNL     1     -41.063   7.159  -0.901  1.00 20.00     0.135 A 
HETATM    8  N8  UNL     1     -40.574   6.057  -0.248  1.00 20.00    -0.255 NA
HETATM    9  C5  UNL     1     -41.094   5.031  -0.885  1.00 20.00     0.209 A 
ENDBRANCH   4   5
ENDBRANCH   3   4
TORSDOF 2
ENDMDL
MODEL 8
REMARK VINA RESULT:      -3.5     10.944     13.197
REMARK  2 active torsions:
REMARK  status: ('A' for Active; 'I' for Inactive)
REMARK    1  A    between atoms: C6_6  and  C7_7 
REMARK    2  A    between atoms: C7_7  and  N9_9 
ROOT
HETATM    1  C1  UNL     1     -37.838  15.198  -7.663  1.00 20.00     0.012 C 
HETATM    2  C2  UNL     1     -36.669  14.950  -7.771  1.00 20.00    -0.116 C 
HETATM    3  C6  UNL     1     -35.237  14.642  -7.907  1.00 20.00     0.113 C 
ENDROOT
BRANCH   3   4
HETATM    4  C7  UNL     1     -34.396  15.296  -6.810  1.00 20.00     0.141 C 
BRANCH   4   5
HETATM    5  N9  UNL     1     -34.381  14.542  -5.560  1.00 20.00    -0.349 N 
HETATM    6  C4  UNL     1     -33.846  14.954  -4.372  1.00 20.00     0.111 A 
HETATM    7  C3  UNL     1     -34.074  13.914  -3.503  1.00 20.00     0.135 A 
HETATM    8  N8  UNL     1     -34.730  12.883  -4.125  1.00 20.00    -0.255 NA
HETATM    9  C5  UNL     1     -34.901  13.292  -5.363  1.00 20.00     0.209 A 
ENDBRANCH   4   5
ENDBRANCH   3   4
TORSDOF 2
ENDMDL
MODEL 9
REMARK VINA RESULT:      -3.5     11.288     12.255
REMARK  2 active torsions:
REMARK  status: ('A' for Active; 'I' for Inactive)
REMARK    1  A    between atoms: C6_6  and  C7_7 
REMARK    2  A    between atoms: C7_7  and  N9_9 
ROOT
HETATM    1  C1  UNL     1     -34.600  13.347  -4.323  1.00 20.00     0.012 C 
HETATM    2  C2  UNL     1     -33.894  14.280  -4.055  1.00 20.00    -0.116 C 
HETATM    3  C6  UNL     1     -33.024  15.419  -3.725  1.00 20.00     0.113 C 
ENDROOT
BRANCH   3   4
HETATM    4  C7  UNL     1     -33.810  16.719  -3.555  1.00 20.00     0.141 C 
BRANCH   4   5
HETATM    5  N9  UNL     1     -33.987  17.115  -2.160  1.00 20.00    -0.349 N 
HETATM    6  C4  UNL     1     -33.483  18.238  -1.567  1.00 20.00     0.111 A 
HETATM    7  C3  UNL     1     -33.914  18.171  -0.263  1.00 20.00     0.135 A 
HETATM    8  N8  UNL     1     -34.663  17.043  -0.046  1.00 20.00    -0.255 NA
HETATM    9  C5  UNL     1     -34.689  16.428  -1.208  1.00 20.00     0.209 A 
ENDBRANCH   4   5
ENDBRANCH   3   4
TORSDOF 2
ENDMDL
