MODEL 1
REMARK VINA RESULT:      -3.7      0.000      0.000
REMARK  2 active torsions:
REMARK  status: ('A' for Active; 'I' for Inactive)
REMARK    1  A    between atoms: C1_1  and  C7_7 
REMARK    2  A    between atoms: C7_7  and  S10_10 
ROOT
HETATM    1  C1  UNL     1     -34.071  16.058  -3.613  1.00 20.00     0.061 A 
HETATM    2  C2  UNL     1     -33.849  17.383  -3.924  1.00 20.00     0.006 A 
HETATM    3  C3  UNL     1     -34.410  16.925  -1.627  1.00 20.00     0.072 A 
HETATM    4  C4  UNL     1     -33.491  18.011  -5.212  1.00 20.00     0.058 C 
HETATM    5  C5  UNL     1     -34.713  17.039  -0.183  1.00 20.00     0.078 C 
HETATM    6  N8  UNL     1     -34.391  15.793  -2.296  1.00 20.00    -0.249 NA
HETATM    7  S9  UNL     1     -34.051  18.346  -2.519  1.00 20.00    -0.078 SA
ENDROOT
BRANCH   1   8
HETATM    8  C7  UNL     1     -33.989  14.891  -4.576  1.00 20.00     0.093 C 
HETATM    9  C6  UNL     1     -33.580  13.588  -3.890  1.00 20.00     0.028 C 
BRANCH   8  10
HETATM   10  S10 UNL     1     -35.568  14.666  -5.471  1.00 20.00    -0.172 SA
HETATM   11  H21 UNL     1     -35.565  15.875  -6.044  1.00 20.00     0.102 HD
ENDBRANCH   8  10
ENDBRANCH   1   8
TORSDOF 2
ENDMDL
MODEL 2
REMARK VINA RESULT:      -3.7      2.056      4.057
REMARK  2 active torsions:
REMARK  status: ('A' for Active; 'I' for Inactive)
REMARK    1  A    between atoms: C1_1  and  C7_7 
REMARK    2  A    between atoms: C7_7  and  S10_10 
ROOT
HETATM    1  C1  UNL     1     -34.749  15.671  -2.868  1.00 20.00     0.061 A 
HETATM    2  C2  UNL     1     -34.242  14.552  -3.496  1.00 20.00     0.006 A 
HETATM    3  C3  UNL     1     -36.620  14.882  -3.699  1.00 20.00     0.072 A 
HETATM    4  C4  UNL     1     -32.855  14.052  -3.577  1.00 20.00     0.058 C 
HETATM    5  C5  UNL     1     -38.054  14.749  -4.038  1.00 20.00     0.078 C 
HETATM    6  N8  UNL     1     -36.113  15.862  -2.984  1.00 20.00    -0.249 NA
HETATM    7  S9  UNL     1     -35.516  13.697  -4.264  1.00 20.00    -0.078 SA
ENDROOT
BRANCH   1   8
HETATM    8  C7  UNL     1     -33.950  16.689  -2.081  1.00 20.00     0.093 C 
HETATM    9  C6  UNL     1     -33.758  18.001  -2.839  1.00 20.00     0.028 C 
BRANCH   8  10
HETATM   10  S10 UNL     1     -34.717  17.006  -0.451  1.00 20.00    -0.172 SA
HETATM   11  H21 UNL     1     -35.406  18.085  -0.839  1.00 20.00     0.102 HD
ENDBRANCH   8  10
ENDBRANCH   1   8
TORSDOF 2
ENDMDL
MODEL 3
REMARK VINA RESULT:      -3.5      1.672      3.131
REMARK  2 active torsions:
REMARK  status: ('A' for Active; 'I' for Inactive)
REMARK    1  A    between atoms: C1_1  and  C7_7 
REMARK    2  A    between atoms: C7_7  and  S10_10 
ROOT
HETATM    1  C1  UNL     1     -34.881  15.926  -3.752  1.00 20.00     0.061 A 
HETATM    2  C2  UNL     1     -34.525  16.710  -2.674  1.00 20.00     0.006 A 
HETATM    3  C3  UNL     1     -34.061  17.641  -4.847  1.00 20.00     0.072 A 
HETATM    4  C4  UNL     1     -34.662  16.456  -1.226  1.00 20.00     0.058 C 
HETATM    5  C5  UNL     1     -33.640  18.516  -5.962  1.00 20.00     0.078 C 
HETATM    6  N8  UNL     1     -34.618  16.459  -4.999  1.00 20.00    -0.249 NA
HETATM    7  S9  UNL     1     -33.827  18.174  -3.233  1.00 20.00    -0.078 SA
ENDROOT
BRANCH   1   8
HETATM    8  C7  UNL     1     -35.530  14.558  -3.683  1.00 20.00     0.093 C 
HETATM    9  C6  UNL     1     -37.027  14.600  -3.983  1.00 20.00     0.028 C 
BRANCH   8  10
HETATM   10  S10 UNL     1     -34.692  13.378  -4.801  1.00 20.00    -0.172 SA
HETATM   11  H21 UNL     1     -34.717  14.176  -5.874  1.00 20.00     0.102 HD
ENDBRANCH   8  10
ENDBRANCH   1   8
TORSDOF 2
ENDMDL
MODEL 4
REMARK VINA RESULT:      -3.5      1.351      3.780
REMARK  2 active torsions:
REMARK  status: ('A' for Active; 'I' for Inactive)
REMARK    1  A    between atoms: C1_1  and  C7_7 
REMARK    2  A    between atoms: C7_7  and  S10_10 
ROOT
HETATM    1  C1  UNL     1     -33.980  17.171  -2.580  1.00 20.00     0.061 A 
HETATM    2  C2  UNL     1     -33.717  17.663  -3.842  1.00 20.00     0.006 A 
HETATM    3  C3  UNL     1     -33.598  15.268  -3.604  1.00 20.00     0.072 A 
HETATM    4  C4  UNL     1     -33.703  19.054  -4.336  1.00 20.00     0.058 C 
HETATM    5  C5  UNL     1     -33.438  13.818  -3.847  1.00 20.00     0.078 C 
HETATM    6  N8  UNL     1     -33.913  15.797  -2.442  1.00 20.00    -0.249 NA
HETATM    7  S9  UNL     1     -33.369  16.363  -4.905  1.00 20.00    -0.078 SA
ENDROOT
BRANCH   1   8
HETATM    8  C7  UNL     1     -34.332  17.994  -1.358  1.00 20.00     0.093 C 
HETATM    9  C6  UNL     1     -34.842  17.139  -0.199  1.00 20.00     0.028 C 
BRANCH   8  10
HETATM   10  S10 UNL     1     -32.911  19.009  -0.818  1.00 20.00    -0.172 SA
HETATM   11  H21 UNL     1     -33.179  20.046  -1.620  1.00 20.00     0.102 HD
ENDBRANCH   8  10
ENDBRANCH   1   8
TORSDOF 2
ENDMDL
MODEL 5
REMARK VINA RESULT:      -3.5      1.626      4.106
REMARK  2 active torsions:
REMARK  status: ('A' for Active; 'I' for Inactive)
REMARK    1  A    between atoms: C1_1  and  C7_7 
REMARK    2  A    between atoms: C7_7  and  S10_10 
ROOT
HETATM    1  C1  UNL     1     -35.278  16.314  -2.536  1.00 20.00     0.061 A 
HETATM    2  C2  UNL     1     -36.415  15.983  -3.244  1.00 20.00     0.006 A 
HETATM    3  C3  UNL     1     -34.533  14.507  -3.533  1.00 20.00     0.072 A 
HETATM    4  C4  UNL     1     -37.729  16.654  -3.300  1.00 20.00     0.058 C 
HETATM    5  C5  UNL     1     -33.634  13.408  -3.950  1.00 20.00     0.078 C 
HETATM    6  N8  UNL     1     -34.198  15.467  -2.700  1.00 20.00    -0.249 NA
HETATM    7  S9  UNL     1     -36.131  14.559  -4.156  1.00 20.00    -0.078 SA
ENDROOT
BRANCH   1   8
HETATM    8  C7  UNL     1     -35.119  17.502  -1.609  1.00 20.00     0.093 C 
HETATM    9  C6  UNL     1     -34.791  17.091  -0.175  1.00 20.00     0.028 C 
BRANCH   8  10
HETATM   10  S10 UNL     1     -33.854  18.662  -2.241  1.00 20.00    -0.172 SA
HETATM   11  H21 UNL     1     -34.015  19.569  -1.270  1.00 20.00     0.102 HD
ENDBRANCH   8  10
ENDBRANCH   1   8
TORSDOF 2
ENDMDL
MODEL 6
REMARK VINA RESULT:      -3.5      1.556      1.590
REMARK  2 active torsions:
REMARK  status: ('A' for Active; 'I' for Inactive)
REMARK    1  A    between atoms: C1_1  and  C7_7 
REMARK    2  A    between atoms: C7_7  and  S10_10 
ROOT
HETATM    1  C1  UNL     1     -34.714  15.974  -3.212  1.00 20.00     0.061 A 
HETATM    2  C2  UNL     1     -35.727  16.841  -3.567  1.00 20.00     0.006 A 
HETATM    3  C3  UNL     1     -35.027  16.933  -1.264  1.00 20.00     0.072 A 
HETATM    4  C4  UNL     1     -36.387  17.049  -4.872  1.00 20.00     0.058 C 
HETATM    5  C5  UNL     1     -34.878  17.273   0.168  1.00 20.00     0.078 C 
HETATM    6  N8  UNL     1     -34.311  16.026  -1.892  1.00 20.00    -0.249 NA
HETATM    7  S9  UNL     1     -36.202  17.762  -2.200  1.00 20.00    -0.078 SA
ENDROOT
BRANCH   1   8
HETATM    8  C7  UNL     1     -34.019  14.991  -4.132  1.00 20.00     0.093 C 
HETATM    9  C6  UNL     1     -32.609  14.639  -3.660  1.00 20.00     0.028 C 
BRANCH   8  10
HETATM   10  S10 UNL     1     -35.014  13.472  -4.343  1.00 20.00    -0.172 SA
HETATM   11  H21 UNL     1     -33.992  12.624  -4.180  1.00 20.00     0.102 HD
ENDBRANCH   8  10
ENDBRANCH   1   8
TORSDOF 2
ENDMDL
MODEL 7
REMARK VINA RESULT:      -3.4      2.546      3.266
REMARK  2 active torsions:
REMARK  status: ('A' for Active; 'I' for Inactive)
REMARK    1  A    between atoms: C1_1  and  C7_7 
REMARK    2  A    between atoms: C7_7  and  S10_10 
ROOT
HETATM    1  C1  UNL     1     -36.187  14.955  -3.812  1.00 20.00     0.061 A 
HETATM    2  C2  UNL     1     -35.022  14.320  -4.191  1.00 20.00     0.006 A 
HETATM    3  C3  UNL     1     -34.817  15.900  -2.384  1.00 20.00     0.072 A 
HETATM    4  C4  UNL     1     -34.788  13.310  -5.242  1.00 20.00     0.058 C 
HETATM    5  C5  UNL     1     -34.308  16.756  -1.289  1.00 20.00     0.078 C 
HETATM    6  N8  UNL     1     -36.072  15.860  -2.775  1.00 20.00    -0.249 NA
HETATM    7  S9  UNL     1     -33.723  14.874  -3.218  1.00 20.00    -0.078 SA
ENDROOT
BRANCH   1   8
HETATM    8  C7  UNL     1     -37.557  14.742  -4.424  1.00 20.00     0.093 C 
HETATM    9  C6  UNL     1     -38.692  15.112  -3.471  1.00 20.00     0.028 C 
BRANCH   8  10
HETATM   10  S10 UNL     1     -37.724  15.664  -5.995  1.00 20.00    -0.172 SA
HETATM   11  H21 UNL     1     -39.053  15.803  -5.923  1.00 20.00     0.102 HD
ENDBRANCH   8  10
ENDBRANCH   1   8
TORSDOF 2
ENDMDL
MODEL 8
REMARK VINA RESULT:      -3.4      2.013      4.315
REMARK  2 active torsions:
REMARK  status: ('A' for Active; 'I' for Inactive)
REMARK    1  A    between atoms: C1_1  and  C7_7 
REMARK    2  A    between atoms: C7_7  and  S10_10 
ROOT
HETATM    1  C1  UNL     1     -35.281  15.879  -4.287  1.00 20.00     0.061 A 
HETATM    2  C2  UNL     1     -35.004  14.668  -4.887  1.00 20.00     0.006 A 
HETATM    3  C3  UNL     1     -34.784  16.610  -6.295  1.00 20.00     0.072 A 
HETATM    4  C4  UNL     1     -35.037  13.301  -4.330  1.00 20.00     0.058 C 
HETATM    5  C5  UNL     1     -34.545  17.528  -7.431  1.00 20.00     0.078 C 
HETATM    6  N8  UNL     1     -35.154  16.994  -5.093  1.00 20.00    -0.249 NA
HETATM    7  S9  UNL     1     -34.570  14.923  -6.527  1.00 20.00    -0.078 SA
ENDROOT
BRANCH   1   8
HETATM    8  C7  UNL     1     -35.699  16.085  -2.846  1.00 20.00     0.093 C 
HETATM    9  C6  UNL     1     -34.508  16.185  -1.895  1.00 20.00     0.028 C 
BRANCH   8  10
HETATM   10  S10 UNL     1     -36.769  17.558  -2.677  1.00 20.00    -0.172 SA
HETATM   11  H21 UNL     1     -37.288  17.483  -3.908  1.00 20.00     0.102 HD
ENDBRANCH   8  10
ENDBRANCH   1   8
TORSDOF 2
ENDMDL
MODEL 9
REMARK VINA RESULT:      -3.4      3.073      4.501
REMARK  2 active torsions:
REMARK  status: ('A' for Active; 'I' for Inactive)
REMARK    1  A    between atoms: C1_1  and  C7_7 
REMARK    2  A    between atoms: C7_7  and  S10_10 
ROOT
HETATM    1  C1  UNL     1     -33.956  17.904   0.128  1.00 20.00     0.061 A 
HETATM    2  C2  UNL     1     -33.059  18.690   0.822  1.00 20.00     0.006 A 
HETATM    3  C3  UNL     1     -35.041  18.043   2.030  1.00 20.00     0.072 A 
HETATM    4  C4  UNL     1     -31.763  19.256   0.397  1.00 20.00     0.058 C 
HETATM    5  C5  UNL     1     -36.083  17.857   3.064  1.00 20.00     0.078 C 
HETATM    6  N8  UNL     1     -35.093  17.531   0.820  1.00 20.00    -0.249 NA
HETATM    7  S9  UNL     1     -33.654  18.983   2.404  1.00 20.00    -0.078 SA
ENDROOT
BRANCH   1   8
HETATM    8  C7  UNL     1     -33.800  17.422  -1.300  1.00 20.00     0.093 C 
HETATM    9  C6  UNL     1     -34.672  16.206  -1.610  1.00 20.00     0.028 C 
BRANCH   8  10
HETATM   10  S10 UNL     1     -34.144  18.768  -2.489  1.00 20.00    -0.172 SA
HETATM   11  H21 UNL     1     -33.091  19.517  -2.144  1.00 20.00     0.102 HD
ENDBRANCH   8  10
ENDBRANCH   1   8
TORSDOF 2
ENDMDL
