MODEL 1
REMARK VINA RESULT:      -4.0      0.000      0.000
REMARK  2 active torsions:
REMARK  status: ('A' for Active; 'I' for Inactive)
REMARK    1  A    between atoms: C1_1  and  C7_7 
REMARK    2  A    between atoms: C7_7  and  S10_10 
ROOT
HETATM    1  C1  UNL     1     -34.799  15.625  -2.809  1.00 20.00     0.061 A 
HETATM    2  C2  UNL     1     -34.270  14.548  -3.489  1.00 20.00     0.006 A 
HETATM    3  C3  UNL     1     -36.647  14.867  -3.715  1.00 20.00     0.072 A 
HETATM    4  C4  UNL     1     -32.876  14.067  -3.573  1.00 20.00     0.058 C 
HETATM    5  C5  UNL     1     -38.073  14.739  -4.085  1.00 20.00     0.078 C 
HETATM    6  N8  UNL     1     -36.161  15.810  -2.938  1.00 20.00    -0.249 NA
HETATM    7  S9  UNL     1     -35.520  13.724  -4.325  1.00 20.00    -0.078 SA
ENDROOT
BRANCH   1   8
HETATM    8  C7  UNL     1     -34.024  16.606  -1.953  1.00 20.00     0.093 C 
HETATM    9  C6  UNL     1     -34.636  16.793  -0.566  1.00 20.00     0.028 C 
BRANCH   8  10
HETATM   10  S10 UNL     1     -33.867  18.227  -2.784  1.00 20.00    -0.172 SA
HETATM   11  H21 UNL     1     -33.801  18.945  -1.655  1.00 20.00     0.102 HD
ENDBRANCH   8  10
ENDBRANCH   1   8
TORSDOF 2
ENDMDL
MODEL 2
REMARK VINA RESULT:      -3.7      1.921      4.109
REMARK  2 active torsions:
REMARK  status: ('A' for Active; 'I' for Inactive)
REMARK    1  A    between atoms: C1_1  and  C7_7 
REMARK    2  A    between atoms: C7_7  and  S10_10 
ROOT
HETATM    1  C1  UNL     1     -34.265  16.029  -3.395  1.00 20.00     0.061 A 
HETATM    2  C2  UNL     1     -34.262  16.915  -2.338  1.00 20.00     0.006 A 
HETATM    3  C3  UNL     1     -33.816  17.866  -4.505  1.00 20.00     0.072 A 
HETATM    4  C4  UNL     1     -34.495  16.680  -0.898  1.00 20.00     0.058 C 
HETATM    5  C5  UNL     1     -33.519  18.787  -5.623  1.00 20.00     0.078 C 
HETATM    6  N8  UNL     1     -34.011  16.572  -4.638  1.00 20.00    -0.249 NA
HETATM    7  S9  UNL     1     -33.925  18.495  -2.912  1.00 20.00    -0.078 SA
ENDROOT
BRANCH   1   8
HETATM    8  C7  UNL     1     -34.524  14.538  -3.307  1.00 20.00     0.093 C 
HETATM    9  C6  UNL     1     -33.334  13.703  -3.776  1.00 20.00     0.028 C 
BRANCH   8  10
HETATM   10  S10 UNL     1     -36.019  14.072  -4.251  1.00 20.00    -0.172 SA
HETATM   11  H21 UNL     1     -36.399  15.328  -4.519  1.00 20.00     0.102 HD
ENDBRANCH   8  10
ENDBRANCH   1   8
TORSDOF 2
ENDMDL
MODEL 3
REMARK VINA RESULT:      -3.6      1.952      4.166
REMARK  2 active torsions:
REMARK  status: ('A' for Active; 'I' for Inactive)
REMARK    1  A    between atoms: C1_1  and  C7_7 
REMARK    2  A    between atoms: C7_7  and  S10_10 
ROOT
HETATM    1  C1  UNL     1     -34.419  16.058  -4.254  1.00 20.00     0.061 A 
HETATM    2  C2  UNL     1     -33.969  17.350  -4.429  1.00 20.00     0.006 A 
HETATM    3  C3  UNL     1     -34.447  16.705  -2.158  1.00 20.00     0.072 A 
HETATM    4  C4  UNL     1     -33.587  18.065  -5.664  1.00 20.00     0.058 C 
HETATM    5  C5  UNL     1     -34.621  16.682  -0.690  1.00 20.00     0.078 C 
HETATM    6  N8  UNL     1     -34.692  15.686  -2.953  1.00 20.00    -0.249 NA
HETATM    7  S9  UNL     1     -33.884  18.141  -2.910  1.00 20.00    -0.078 SA
ENDROOT
BRANCH   1   8
HETATM    8  C7  UNL     1     -34.629  15.031  -5.349  1.00 20.00     0.093 C 
HETATM    9  C6  UNL     1     -35.944  15.229  -6.100  1.00 20.00     0.028 C 
BRANCH   8  10
HETATM   10  S10 UNL     1     -34.546  13.330  -4.682  1.00 20.00    -0.172 SA
HETATM   11  H21 UNL     1     -34.676  12.721  -5.868  1.00 20.00     0.102 HD
ENDBRANCH   8  10
ENDBRANCH   1   8
TORSDOF 2
ENDMDL
MODEL 4
REMARK VINA RESULT:      -3.6      2.347      3.043
REMARK  2 active torsions:
REMARK  status: ('A' for Active; 'I' for Inactive)
REMARK    1  A    between atoms: C1_1  and  C7_7 
REMARK    2  A    between atoms: C7_7  and  S10_10 
ROOT
HETATM    1  C1  UNL     1     -34.317  17.037  -2.653  1.00 20.00     0.061 A 
HETATM    2  C2  UNL     1     -33.804  17.553  -3.824  1.00 20.00     0.006 A 
HETATM    3  C3  UNL     1     -33.789  15.152  -3.641  1.00 20.00     0.072 A 
HETATM    4  C4  UNL     1     -33.662  18.956  -4.264  1.00 20.00     0.058 C 
HETATM    5  C5  UNL     1     -33.618  13.704  -3.893  1.00 20.00     0.078 C 
HETATM    6  N8  UNL     1     -34.310  15.660  -2.546  1.00 20.00    -0.249 NA
HETATM    7  S9  UNL     1     -33.286  16.272  -4.840  1.00 20.00    -0.078 SA
ENDROOT
BRANCH   1   8
HETATM    8  C7  UNL     1     -34.882  17.839  -1.497  1.00 20.00     0.093 C 
HETATM    9  C6  UNL     1     -34.735  17.125  -0.154  1.00 20.00     0.028 C 
BRANCH   8  10
HETATM   10  S10 UNL     1     -36.637  18.263  -1.784  1.00 20.00    -0.172 SA
HETATM   11  H21 UNL     1     -36.886  18.642  -0.524  1.00 20.00     0.102 HD
ENDBRANCH   8  10
ENDBRANCH   1   8
TORSDOF 2
ENDMDL
MODEL 5
REMARK VINA RESULT:      -3.5      1.566      3.982
REMARK  2 active torsions:
REMARK  status: ('A' for Active; 'I' for Inactive)
REMARK    1  A    between atoms: C1_1  and  C7_7 
REMARK    2  A    between atoms: C7_7  and  S10_10 
ROOT
HETATM    1  C1  UNL     1     -34.430  15.890  -2.750  1.00 20.00     0.061 A 
HETATM    2  C2  UNL     1     -33.906  16.978  -3.415  1.00 20.00     0.006 A 
HETATM    3  C3  UNL     1     -34.362  17.301  -1.072  1.00 20.00     0.072 A 
HETATM    4  C4  UNL     1     -33.513  17.130  -4.831  1.00 20.00     0.058 C 
HETATM    5  C5  UNL     1     -34.498  17.863   0.289  1.00 20.00     0.078 C 
HETATM    6  N8  UNL     1     -34.691  16.073  -1.407  1.00 20.00    -0.249 NA
HETATM    7  S9  UNL     1     -33.732  18.291  -2.325  1.00 20.00    -0.078 SA
ENDROOT
BRANCH   1   8
HETATM    8  C7  UNL     1     -34.733  14.535  -3.358  1.00 20.00     0.093 C 
HETATM    9  C6  UNL     1     -33.482  13.824  -3.870  1.00 20.00     0.028 C 
BRANCH   8  10
HETATM   10  S10 UNL     1     -35.961  14.676  -4.705  1.00 20.00    -0.172 SA
HETATM   11  H21 UNL     1     -35.230  14.018  -5.615  1.00 20.00     0.102 HD
ENDBRANCH   8  10
ENDBRANCH   1   8
TORSDOF 2
ENDMDL
MODEL 6
REMARK VINA RESULT:      -3.5      1.710      1.726
REMARK  2 active torsions:
REMARK  status: ('A' for Active; 'I' for Inactive)
REMARK    1  A    between atoms: C1_1  and  C7_7 
REMARK    2  A    between atoms: C7_7  and  S10_10 
ROOT
HETATM    1  C1  UNL     1     -34.451  15.969  -3.956  1.00 20.00     0.061 A 
HETATM    2  C2  UNL     1     -34.158  14.677  -4.340  1.00 20.00     0.006 A 
HETATM    3  C3  UNL     1     -35.698  15.869  -5.756  1.00 20.00     0.072 A 
HETATM    4  C4  UNL     1     -33.268  13.677  -3.716  1.00 20.00     0.058 C 
HETATM    5  C5  UNL     1     -36.636  16.259  -6.831  1.00 20.00     0.078 C 
HETATM    6  N8  UNL     1     -35.333  16.654  -4.766  1.00 20.00    -0.249 NA
HETATM    7  S9  UNL     1     -35.018  14.293  -5.772  1.00 20.00    -0.078 SA
ENDROOT
BRANCH   1   8
HETATM    8  C7  UNL     1     -33.892  16.686  -2.743  1.00 20.00     0.093 C 
HETATM    9  C6  UNL     1     -34.638  16.341  -1.455  1.00 20.00     0.028 C 
BRANCH   8  10
HETATM   10  S10 UNL     1     -33.891  18.498  -2.991  1.00 20.00    -0.172 SA
HETATM   11  H21 UNL     1     -34.689  18.481  -4.066  1.00 20.00     0.102 HD
ENDBRANCH   8  10
ENDBRANCH   1   8
TORSDOF 2
ENDMDL
MODEL 7
REMARK VINA RESULT:      -3.4      1.675      3.371
REMARK  2 active torsions:
REMARK  status: ('A' for Active; 'I' for Inactive)
REMARK    1  A    between atoms: C1_1  and  C7_7 
REMARK    2  A    between atoms: C7_7  and  S10_10 
ROOT
HETATM    1  C1  UNL     1     -35.180  15.778  -3.271  1.00 20.00     0.061 A 
HETATM    2  C2  UNL     1     -35.281  16.628  -2.191  1.00 20.00     0.006 A 
HETATM    3  C3  UNL     1     -36.672  17.166  -4.082  1.00 20.00     0.072 A 
HETATM    4  C4  UNL     1     -34.587  16.597  -0.887  1.00 20.00     0.058 C 
HETATM    5  C5  UNL     1     -37.639  17.796  -5.006  1.00 20.00     0.078 C 
HETATM    6  N8  UNL     1     -35.977  16.084  -4.356  1.00 20.00    -0.249 NA
HETATM    7  S9  UNL     1     -36.415  17.867  -2.536  1.00 20.00    -0.078 SA
ENDROOT
BRANCH   1   8
HETATM    8  C7  UNL     1     -34.288  14.556  -3.364  1.00 20.00     0.093 C 
HETATM    9  C6  UNL     1     -32.831  14.908  -3.663  1.00 20.00     0.028 C 
BRANCH   8  10
HETATM   10  S10 UNL     1     -34.910  13.378  -4.617  1.00 20.00    -0.172 SA
HETATM   11  H21 UNL     1     -33.912  12.496  -4.471  1.00 20.00     0.102 HD
ENDBRANCH   8  10
ENDBRANCH   1   8
TORSDOF 2
ENDMDL
MODEL 8
REMARK VINA RESULT:      -3.4      1.929      4.103
REMARK  2 active torsions:
REMARK  status: ('A' for Active; 'I' for Inactive)
REMARK    1  A    between atoms: C1_1  and  C7_7 
REMARK    2  A    between atoms: C7_7  and  S10_10 
ROOT
HETATM    1  C1  UNL     1     -35.630  15.477  -4.153  1.00 20.00     0.061 A 
HETATM    2  C2  UNL     1     -36.559  16.495  -4.180  1.00 20.00     0.006 A 
HETATM    3  C3  UNL     1     -35.191  16.377  -2.202  1.00 20.00     0.072 A 
HETATM    4  C4  UNL     1     -37.545  16.857  -5.220  1.00 20.00     0.058 C 
HETATM    5  C5  UNL     1     -34.566  16.624  -0.884  1.00 20.00     0.078 C 
HETATM    6  N8  UNL     1     -34.843  15.408  -3.020  1.00 20.00    -0.249 NA
HETATM    7  S9  UNL     1     -36.456  17.408  -2.732  1.00 20.00    -0.078 SA
ENDROOT
BRANCH   1   8
HETATM    8  C7  UNL     1     -35.400  14.450  -5.244  1.00 20.00     0.093 C 
HETATM    9  C6  UNL     1     -34.673  13.204  -4.740  1.00 20.00     0.028 C 
BRANCH   8  10
HETATM   10  S10 UNL     1     -34.484  15.176  -6.650  1.00 20.00    -0.172 SA
HETATM   11  H21 UNL     1     -33.772  16.036  -5.910  1.00 20.00     0.102 HD
ENDBRANCH   8  10
ENDBRANCH   1   8
TORSDOF 2
ENDMDL
MODEL 9
REMARK VINA RESULT:      -3.4      1.595      2.493
REMARK  2 active torsions:
REMARK  status: ('A' for Active; 'I' for Inactive)
REMARK    1  A    between atoms: C1_1  and  C7_7 
REMARK    2  A    between atoms: C7_7  and  S10_10 
ROOT
HETATM    1  C1  UNL     1     -34.841  16.115  -2.525  1.00 20.00     0.061 A 
HETATM    2  C2  UNL     1     -36.122  16.380  -2.960  1.00 20.00     0.006 A 
HETATM    3  C3  UNL     1     -35.091  14.406  -3.875  1.00 20.00     0.072 A 
HETATM    4  C4  UNL     1     -37.036  17.486  -2.609  1.00 20.00     0.058 C 
HETATM    5  C5  UNL     1     -34.808  13.164  -4.627  1.00 20.00     0.078 C 
HETATM    6  N8  UNL     1     -34.248  14.983  -3.048  1.00 20.00    -0.249 NA
HETATM    7  S9  UNL     1     -36.615  15.172  -4.072  1.00 20.00    -0.078 SA
ENDROOT
BRANCH   1   8
HETATM    8  C7  UNL     1     -34.046  16.944  -1.535  1.00 20.00     0.093 C 
HETATM    9  C6  UNL     1     -34.727  17.052  -0.172  1.00 20.00     0.028 C 
BRANCH   8  10
HETATM   10  S10 UNL     1     -33.711  18.616  -2.195  1.00 20.00    -0.172 SA
HETATM   11  H21 UNL     1     -34.998  18.979  -2.282  1.00 20.00     0.102 HD
ENDBRANCH   8  10
ENDBRANCH   1   8
TORSDOF 2
ENDMDL
