MODEL 1
REMARK VINA RESULT:      -5.4      0.000      0.000
REMARK  2 active torsions:
REMARK  status: ('A' for Active; 'I' for Inactive)
REMARK    1  A    between atoms: C4_4  and  C5_5 
REMARK    2  A    between atoms: C5_5  and  C7_7 
ROOT
HETATM    1  C1  UNL     1     -34.123   6.055   5.822  1.00 20.00     0.033 A 
HETATM    2  C2  UNL     1     -34.845   5.272   6.697  1.00 20.00     0.088 A 
HETATM    3  C3  UNL     1     -35.061   4.372   4.658  1.00 20.00     0.102 A 
HETATM    4  C4  UNL     1     -34.260   5.485   4.533  1.00 20.00     0.027 A 
HETATM    5  N10 UNL     1     -35.411   4.253   5.978  1.00 20.00    -0.374 N 
HETATM    6  H22 UNL     1     -35.998   3.525   6.363  1.00 20.00     0.164 HD
ENDROOT
BRANCH   4   7
HETATM    7  C5  UNL     1     -33.678   5.953   3.273  1.00 20.00     0.165 C 
HETATM    8  O11 UNL     1     -33.668   5.310   2.228  1.00 20.00    -0.292 OA
BRANCH   7   9
HETATM    9  C7  UNL     1     -33.070   7.289   3.272  1.00 20.00     0.065 A 
HETATM   10  C6  UNL     1     -31.588   7.425   3.512  1.00 20.00     0.018 A 
HETATM   11  C8  UNL     1     -32.149   7.677   2.142  1.00 20.00    -0.006 A 
HETATM   12  C9  UNL     1     -32.184   9.060   1.589  1.00 20.00     0.011 C 
ENDBRANCH   7   9
ENDBRANCH   4   7
TORSDOF 2
ENDMDL
MODEL 2
REMARK VINA RESULT:      -4.9     11.481     12.300
REMARK  2 active torsions:
REMARK  status: ('A' for Active; 'I' for Inactive)
REMARK    1  A    between atoms: C4_4  and  C5_5 
REMARK    2  A    between atoms: C5_5  and  C7_7 
ROOT
HETATM    1  C1  UNL     1     -35.174  14.691  -3.584  1.00 20.00     0.033 A 
HETATM    2  C2  UNL     1     -34.813  13.440  -4.035  1.00 20.00     0.088 A 
HETATM    3  C3  UNL     1     -32.926  14.570  -3.613  1.00 20.00     0.102 A 
HETATM    4  C4  UNL     1     -33.981  15.405  -3.317  1.00 20.00     0.027 A 
HETATM    5  N10 UNL     1     -33.444  13.378  -4.049  1.00 20.00    -0.374 N 
HETATM    6  H22 UNL     1     -32.901  12.576  -4.337  1.00 20.00     0.164 HD
ENDROOT
BRANCH   4   7
HETATM    7  C5  UNL     1     -33.841  16.776  -2.818  1.00 20.00     0.165 C 
HETATM    8  O11 UNL     1     -33.839  17.778  -3.525  1.00 20.00    -0.292 OA
BRANCH   7   9
HETATM    9  C7  UNL     1     -33.700  16.948  -1.368  1.00 20.00     0.065 A 
HETATM   10  C6  UNL     1     -33.309  18.296  -0.820  1.00 20.00     0.018 A 
HETATM   11  C8  UNL     1     -34.709  17.789  -0.625  1.00 20.00    -0.006 A 
HETATM   12  C9  UNL     1     -35.176  17.377   0.729  1.00 20.00     0.011 C 
ENDBRANCH   7   9
ENDBRANCH   4   7
TORSDOF 2
ENDMDL
MODEL 3
REMARK VINA RESULT:      -4.8     11.628     12.468
REMARK  2 active torsions:
REMARK  status: ('A' for Active; 'I' for Inactive)
REMARK    1  A    between atoms: C4_4  and  C5_5 
REMARK    2  A    between atoms: C5_5  and  C7_7 
ROOT
HETATM    1  C1  UNL     1     -35.115  14.639  -4.375  1.00 20.00     0.033 A 
HETATM    2  C2  UNL     1     -34.724  13.320  -4.451  1.00 20.00     0.088 A 
HETATM    3  C3  UNL     1     -32.970  14.499  -3.709  1.00 20.00     0.102 A 
HETATM    4  C4  UNL     1     -34.006  15.384  -3.906  1.00 20.00     0.027 A 
HETATM    5  N10 UNL     1     -33.417  13.247  -4.044  1.00 20.00    -0.374 N 
HETATM    6  H22 UNL     1     -32.868  12.399  -3.998  1.00 20.00     0.164 HD
ENDROOT
BRANCH   4   7
HETATM    7  C5  UNL     1     -33.927  16.826  -3.659  1.00 20.00     0.165 C 
HETATM    8  O11 UNL     1     -33.437  17.639  -4.436  1.00 20.00    -0.292 OA
BRANCH   7   9
HETATM    9  C7  UNL     1     -34.479  17.319  -2.393  1.00 20.00     0.065 A 
HETATM   10  C6  UNL     1     -34.708  16.350  -1.261  1.00 20.00     0.018 A 
HETATM   11  C8  UNL     1     -33.596  17.356  -1.170  1.00 20.00    -0.006 A 
HETATM   12  C9  UNL     1     -33.690  18.493  -0.212  1.00 20.00     0.011 C 
ENDBRANCH   7   9
ENDBRANCH   4   7
TORSDOF 2
ENDMDL
MODEL 4
REMARK VINA RESULT:      -4.8     11.935     13.051
REMARK  2 active torsions:
REMARK  status: ('A' for Active; 'I' for Inactive)
REMARK    1  A    between atoms: C4_4  and  C5_5 
REMARK    2  A    between atoms: C5_5  and  C7_7 
ROOT
HETATM    1  C1  UNL     1     -34.026  15.885  -6.355  1.00 20.00     0.033 A 
HETATM    2  C2  UNL     1     -34.802  15.242  -7.295  1.00 20.00     0.088 A 
HETATM    3  C3  UNL     1     -34.775  13.961  -5.458  1.00 20.00     0.102 A 
HETATM    4  C4  UNL     1     -34.010  15.074  -5.193  1.00 20.00     0.027 A 
HETATM    5  N10 UNL     1     -35.252  14.073  -6.739  1.00 20.00    -0.374 N 
HETATM    6  H22 UNL     1     -35.843  13.398  -7.203  1.00 20.00     0.164 HD
ENDROOT
BRANCH   4   7
HETATM    7  C5  UNL     1     -33.324  15.330  -3.924  1.00 20.00     0.165 C 
HETATM    8  O11 UNL     1     -32.340  14.713  -3.528  1.00 20.00    -0.292 OA
BRANCH   7   9
HETATM    9  C7  UNL     1     -33.858  16.404  -3.080  1.00 20.00     0.065 A 
HETATM   10  C6  UNL     1     -35.338  16.688  -3.096  1.00 20.00     0.018 A 
HETATM   11  C8  UNL     1     -34.714  16.047  -1.890  1.00 20.00    -0.006 A 
HETATM   12  C9  UNL     1     -34.584  16.810  -0.617  1.00 20.00     0.011 C 
ENDBRANCH   7   9
ENDBRANCH   4   7
TORSDOF 2
ENDMDL
MODEL 5
REMARK VINA RESULT:      -4.8     11.773     12.678
REMARK  2 active torsions:
REMARK  status: ('A' for Active; 'I' for Inactive)
REMARK    1  A    between atoms: C4_4  and  C5_5 
REMARK    2  A    between atoms: C5_5  and  C7_7 
ROOT
HETATM    1  C1  UNL     1     -33.744  15.550  -3.037  1.00 20.00     0.033 A 
HETATM    2  C2  UNL     1     -34.286  16.335  -2.043  1.00 20.00     0.088 A 
HETATM    3  C3  UNL     1     -35.982  15.310  -3.088  1.00 20.00     0.102 A 
HETATM    4  C4  UNL     1     -34.816  14.902  -3.697  1.00 20.00     0.027 A 
HETATM    5  N10 UNL     1     -35.647  16.181  -2.083  1.00 20.00    -0.374 N 
HETATM    6  H22 UNL     1     -36.304  16.641  -1.467  1.00 20.00     0.164 HD
ENDROOT
BRANCH   4   7
HETATM    7  C5  UNL     1     -34.749  13.964  -4.821  1.00 20.00     0.165 C 
HETATM    8  O11 UNL     1     -34.934  12.755  -4.731  1.00 20.00    -0.292 OA
BRANCH   7   9
HETATM    9  C7  UNL     1     -34.444  14.524  -6.142  1.00 20.00     0.065 A 
HETATM   10  C6  UNL     1     -35.409  14.302  -7.278  1.00 20.00     0.018 A 
HETATM   11  C8  UNL     1     -35.277  15.667  -6.667  1.00 20.00    -0.006 A 
HETATM   12  C9  UNL     1     -34.635  16.773  -7.432  1.00 20.00     0.011 C 
ENDBRANCH   7   9
ENDBRANCH   4   7
TORSDOF 2
ENDMDL
MODEL 6
REMARK VINA RESULT:      -4.7     11.874     13.078
REMARK  2 active torsions:
REMARK  status: ('A' for Active; 'I' for Inactive)
REMARK    1  A    between atoms: C4_4  and  C5_5 
REMARK    2  A    between atoms: C5_5  and  C7_7 
ROOT
HETATM    1  C1  UNL     1     -35.476  16.329  -5.850  1.00 20.00     0.033 A 
HETATM    2  C2  UNL     1     -34.782  16.055  -7.009  1.00 20.00     0.088 A 
HETATM    3  C3  UNL     1     -34.453  14.339  -5.609  1.00 20.00     0.102 A 
HETATM    4  C4  UNL     1     -35.268  15.243  -4.965  1.00 20.00     0.027 A 
HETATM    5  N10 UNL     1     -34.164  14.843  -6.851  1.00 20.00    -0.374 N 
HETATM    6  H22 UNL     1     -33.583  14.390  -7.543  1.00 20.00     0.164 HD
ENDROOT
BRANCH   4   7
HETATM    7  C5  UNL     1     -35.798  15.069  -3.611  1.00 20.00     0.165 C 
HETATM    8  O11 UNL     1     -36.944  14.715  -3.352  1.00 20.00    -0.292 OA
BRANCH   7   9
HETATM    9  C7  UNL     1     -34.884  15.334  -2.495  1.00 20.00     0.065 A 
HETATM   10  C6  UNL     1     -33.711  16.256  -2.706  1.00 20.00     0.018 A 
HETATM   11  C8  UNL     1     -34.871  16.705  -1.865  1.00 20.00    -0.006 A 
HETATM   12  C9  UNL     1     -34.717  16.851  -0.390  1.00 20.00     0.011 C 
ENDBRANCH   7   9
ENDBRANCH   4   7
TORSDOF 2
ENDMDL
MODEL 7
REMARK VINA RESULT:      -4.5     11.891     12.974
REMARK  2 active torsions:
REMARK  status: ('A' for Active; 'I' for Inactive)
REMARK    1  A    between atoms: C4_4  and  C5_5 
REMARK    2  A    between atoms: C5_5  and  C7_7 
ROOT
HETATM    1  C1  UNL     1     -34.445  16.280  -1.681  1.00 20.00     0.033 A 
HETATM    2  C2  UNL     1     -34.442  17.032  -0.527  1.00 20.00     0.088 A 
HETATM    3  C3  UNL     1     -33.747  18.358  -2.192  1.00 20.00     0.102 A 
HETATM    4  C4  UNL     1     -34.005  17.119  -2.734  1.00 20.00     0.027 A 
HETATM    5  N10 UNL     1     -34.016  18.293  -0.849  1.00 20.00    -0.374 N 
HETATM    6  H22 UNL     1     -33.915  19.058  -0.197  1.00 20.00     0.164 HD
ENDROOT
BRANCH   4   7
HETATM    7  C5  UNL     1     -33.841  16.779  -4.150  1.00 20.00     0.165 C 
HETATM    8  O11 UNL     1     -33.030  17.308  -4.903  1.00 20.00    -0.292 OA
BRANCH   7   9
HETATM    9  C7  UNL     1     -34.711  15.729  -4.691  1.00 20.00     0.065 A 
HETATM   10  C6  UNL     1     -34.395  15.132  -6.039  1.00 20.00     0.018 A 
HETATM   11  C8  UNL     1     -34.184  14.319  -4.794  1.00 20.00    -0.006 A 
HETATM   12  C9  UNL     1     -35.074  13.163  -4.493  1.00 20.00     0.011 C 
ENDBRANCH   7   9
ENDBRANCH   4   7
TORSDOF 2
ENDMDL
MODEL 8
REMARK VINA RESULT:      -4.4     10.152     11.289
REMARK  2 active torsions:
REMARK  status: ('A' for Active; 'I' for Inactive)
REMARK    1  A    between atoms: C4_4  and  C5_5 
REMARK    2  A    between atoms: C5_5  and  C7_7 
ROOT
HETATM    1  C1  UNL     1     -41.040   5.210  -0.795  1.00 20.00     0.033 A 
HETATM    2  C2  UNL     1     -40.574   6.418  -0.324  1.00 20.00     0.088 A 
HETATM    3  C3  UNL     1     -41.832   6.842  -2.128  1.00 20.00     0.102 A 
HETATM    4  C4  UNL     1     -41.836   5.478  -1.936  1.00 20.00     0.027 A 
HETATM    5  N10 UNL     1     -41.062   7.403  -1.143  1.00 20.00    -0.374 N 
HETATM    6  H22 UNL     1     -40.880   8.391  -1.036  1.00 20.00     0.164 HD
ENDROOT
BRANCH   4   7
HETATM    7  C5  UNL     1     -42.550   4.520  -2.784  1.00 20.00     0.165 C 
HETATM    8  O11 UNL     1     -43.392   4.825  -3.622  1.00 20.00    -0.292 OA
BRANCH   7   9
HETATM    9  C7  UNL     1     -42.222   3.100  -2.611  1.00 20.00     0.065 A 
HETATM   10  C6  UNL     1     -43.331   2.080  -2.627  1.00 20.00     0.018 A 
HETATM   11  C8  UNL     1     -42.376   2.162  -3.783  1.00 20.00    -0.006 A 
HETATM   12  C9  UNL     1     -41.379   1.079  -4.011  1.00 20.00     0.011 C 
ENDBRANCH   7   9
ENDBRANCH   4   7
TORSDOF 2
ENDMDL
MODEL 9
REMARK VINA RESULT:      -4.4      1.485      2.227
REMARK  2 active torsions:
REMARK  status: ('A' for Active; 'I' for Inactive)
REMARK    1  A    between atoms: C4_4  and  C5_5 
REMARK    2  A    between atoms: C5_5  and  C7_7 
ROOT
HETATM    1  C1  UNL     1     -34.365   5.555   3.254  1.00 20.00     0.033 A 
HETATM    2  C2  UNL     1     -35.114   4.963   4.248  1.00 20.00     0.088 A 
HETATM    3  C3  UNL     1     -33.685   6.376   5.237  1.00 20.00     0.102 A 
HETATM    4  C4  UNL     1     -33.462   6.448   3.880  1.00 20.00     0.027 A 
HETATM    5  N10 UNL     1     -34.692   5.470   5.449  1.00 20.00    -0.374 N 
HETATM    6  H22 UNL     1     -35.065   5.213   6.353  1.00 20.00     0.164 HD
ENDROOT
BRANCH   4   7
HETATM    7  C5  UNL     1     -32.460   7.310   3.246  1.00 20.00     0.165 C 
HETATM    8  O11 UNL     1     -31.292   7.404   3.610  1.00 20.00    -0.292 OA
BRANCH   7   9
HETATM    9  C7  UNL     1     -32.897   8.108   2.095  1.00 20.00     0.065 A 
HETATM   10  C6  UNL     1     -32.558   9.576   2.044  1.00 20.00     0.018 A 
HETATM   11  C8  UNL     1     -31.865   8.617   1.119  1.00 20.00    -0.006 A 
HETATM   12  C9  UNL     1     -32.160   8.637  -0.341  1.00 20.00     0.011 C 
ENDBRANCH   7   9
ENDBRANCH   4   7
TORSDOF 2
ENDMDL
