MODEL 1
REMARK VINA RESULT:      -3.7      0.000      0.000
REMARK  2 active torsions:
REMARK  status: ('A' for Active; 'I' for Inactive)
REMARK    1  A    between atoms: C4_4  and  C5_5 
REMARK    2  A    between atoms: C5_5  and  C6_6 
ROOT
HETATM    1  C1  UNL     1     -34.468  15.723  -5.188  1.00 20.00     0.034 A 
HETATM    2  C2  UNL     1     -34.724  13.414  -5.274  1.00 20.00     0.069 A 
HETATM    3  C3  UNL     1     -34.809  14.591  -5.984  1.00 20.00     0.018 A 
HETATM    4  C4  UNL     1     -34.135  15.366  -3.899  1.00 20.00    -0.015 A 
HETATM    5  S7  UNL     1     -34.235  13.675  -3.654  1.00 20.00    -0.105 SA
HETATM    6 BR9  UNL     1     -35.310  14.739  -7.793  1.00 20.00    -0.051 Br
ENDROOT
BRANCH   4   7
HETATM    7  C5  UNL     1     -33.729  16.242  -2.779  1.00 20.00     0.061 C 
BRANCH   7   8
HETATM    8  C6  UNL     1     -34.716  16.274  -1.601  1.00 20.00     0.119 C 
HETATM    9 CL8  UNL     1     -34.159  17.366  -0.310  1.00 20.00    -0.130 Cl
ENDBRANCH   7   8
ENDBRANCH   4   7
TORSDOF 2
ENDMDL
MODEL 2
REMARK VINA RESULT:      -3.7      3.884      4.855
REMARK  2 active torsions:
REMARK  status: ('A' for Active; 'I' for Inactive)
REMARK    1  A    between atoms: C4_4  and  C5_5 
REMARK    2  A    between atoms: C5_5  and  C6_6 
ROOT
HETATM    1  C1  UNL     1     -34.567  15.332  -2.796  1.00 20.00     0.034 A 
HETATM    2  C2  UNL     1     -33.757  17.476  -3.181  1.00 20.00     0.069 A 
HETATM    3  C3  UNL     1     -34.310  16.623  -2.252  1.00 20.00     0.018 A 
HETATM    4  C4  UNL     1     -34.201  15.248  -4.123  1.00 20.00    -0.015 A 
HETATM    5  S7  UNL     1     -33.551  16.721  -4.705  1.00 20.00    -0.105 SA
HETATM    6 BR9  UNL     1     -34.696  17.064  -0.463  1.00 20.00    -0.051 Br
ENDROOT
BRANCH   4   7
HETATM    7  C5  UNL     1     -34.308  14.089  -5.034  1.00 20.00     0.061 C 
BRANCH   7   8
HETATM    8  C6  UNL     1     -35.342  14.253  -6.160  1.00 20.00     0.119 C 
HETATM    9 CL8  UNL     1     -34.591  14.862  -7.655  1.00 20.00    -0.130 Cl
ENDBRANCH   7   8
ENDBRANCH   4   7
TORSDOF 2
ENDMDL
MODEL 3
REMARK VINA RESULT:      -3.6      3.650      4.623
REMARK  2 active torsions:
REMARK  status: ('A' for Active; 'I' for Inactive)
REMARK    1  A    between atoms: C4_4  and  C5_5 
REMARK    2  A    between atoms: C5_5  and  C6_6 
ROOT
HETATM    1  C1  UNL     1     -34.747  16.060  -2.023  1.00 20.00     0.034 A 
HETATM    2  C2  UNL     1     -33.860  17.827  -3.246  1.00 20.00     0.069 A 
HETATM    3  C3  UNL     1     -34.058  17.306  -1.985  1.00 20.00     0.018 A 
HETATM    4  C4  UNL     1     -35.049  15.675  -3.311  1.00 20.00    -0.015 A 
HETATM    5  S7  UNL     1     -34.504  16.814  -4.467  1.00 20.00    -0.105 SA
HETATM    6 BR9  UNL     1     -33.502  18.109  -0.376  1.00 20.00    -0.051 Br
ENDROOT
BRANCH   4   7
HETATM    7  C5  UNL     1     -35.753  14.456  -3.766  1.00 20.00     0.061 C 
BRANCH   7   8
HETATM    8  C6  UNL     1     -34.844  13.392  -4.402  1.00 20.00     0.119 C 
HETATM    9 CL8  UNL     1     -33.187  13.474  -3.755  1.00 20.00    -0.130 Cl
ENDBRANCH   7   8
ENDBRANCH   4   7
TORSDOF 2
ENDMDL
MODEL 4
REMARK VINA RESULT:      -3.6      4.301      5.340
REMARK  2 active torsions:
REMARK  status: ('A' for Active; 'I' for Inactive)
REMARK    1  A    between atoms: C4_4  and  C5_5 
REMARK    2  A    between atoms: C5_5  and  C6_6 
ROOT
HETATM    1  C1  UNL     1     -34.609  16.513  -1.068  1.00 20.00     0.034 A 
HETATM    2  C2  UNL     1     -33.605  18.425  -1.929  1.00 20.00     0.069 A 
HETATM    3  C3  UNL     1     -34.015  17.777  -0.785  1.00 20.00     0.018 A 
HETATM    4  C4  UNL     1     -34.629  16.243  -2.420  1.00 20.00    -0.015 A 
HETATM    5  S7  UNL     1     -33.936  17.510  -3.339  1.00 20.00    -0.105 SA
HETATM    6 BR9  UNL     1     -33.834  18.441   0.967  1.00 20.00    -0.051 Br
ENDROOT
BRANCH   4   7
HETATM    7  C5  UNL     1     -35.157  15.047  -3.111  1.00 20.00     0.061 C 
BRANCH   7   8
HETATM    8  C6  UNL     1     -34.084  14.037  -3.551  1.00 20.00     0.119 C 
HETATM    9 CL8  UNL     1     -34.631  13.066  -4.940  1.00 20.00    -0.130 Cl
ENDBRANCH   7   8
ENDBRANCH   4   7
TORSDOF 2
ENDMDL
MODEL 5
REMARK VINA RESULT:      -3.6      3.561      4.525
REMARK  2 active torsions:
REMARK  status: ('A' for Active; 'I' for Inactive)
REMARK    1  A    between atoms: C4_4  and  C5_5 
REMARK    2  A    between atoms: C5_5  and  C6_6 
ROOT
HETATM    1  C1  UNL     1     -34.305  15.973  -4.712  1.00 20.00     0.034 A 
HETATM    2  C2  UNL     1     -34.540  14.070  -3.397  1.00 20.00     0.069 A 
HETATM    3  C3  UNL     1     -34.369  15.438  -3.393  1.00 20.00     0.018 A 
HETATM    4  C4  UNL     1     -34.430  14.994  -5.674  1.00 20.00    -0.015 A 
HETATM    5  S7  UNL     1     -34.623  13.438  -4.987  1.00 20.00    -0.105 SA
HETATM    6 BR9  UNL     1     -34.232  16.513  -1.855  1.00 20.00    -0.051 Br
ENDROOT
BRANCH   4   7
HETATM    7  C5  UNL     1     -34.414  15.143  -7.145  1.00 20.00     0.061 C 
BRANCH   7   8
HETATM    8  C6  UNL     1     -35.581  14.454  -7.871  1.00 20.00     0.119 C 
HETATM    9 CL8  UNL     1     -37.156  15.072  -7.314  1.00 20.00    -0.130 Cl
ENDBRANCH   7   8
ENDBRANCH   4   7
TORSDOF 2
ENDMDL
MODEL 6
REMARK VINA RESULT:      -3.5      2.122      2.516
REMARK  2 active torsions:
REMARK  status: ('A' for Active; 'I' for Inactive)
REMARK    1  A    between atoms: C4_4  and  C5_5 
REMARK    2  A    between atoms: C5_5  and  C6_6 
ROOT
HETATM    1  C1  UNL     1     -34.251  15.446  -2.852  1.00 20.00     0.034 A 
HETATM    2  C2  UNL     1     -34.135  16.222  -5.040  1.00 20.00     0.069 A 
HETATM    3  C3  UNL     1     -34.333  15.120  -4.236  1.00 20.00     0.018 A 
HETATM    4  C4  UNL     1     -33.993  16.785  -2.650  1.00 20.00    -0.015 A 
HETATM    5  S7  UNL     1     -33.851  17.641  -4.125  1.00 20.00    -0.105 SA
HETATM    6 BR9  UNL     1     -34.675  13.373  -4.847  1.00 20.00    -0.051 Br
ENDROOT
BRANCH   4   7
HETATM    7  C5  UNL     1     -33.836  17.508  -1.370  1.00 20.00     0.061 C 
BRANCH   7   8
HETATM    8  C6  UNL     1     -34.733  16.996  -0.230  1.00 20.00     0.119 C 
HETATM    9 CL8  UNL     1     -34.519  17.957   1.253  1.00 20.00    -0.130 Cl
ENDBRANCH   7   8
ENDBRANCH   4   7
TORSDOF 2
ENDMDL
MODEL 7
REMARK VINA RESULT:      -3.5     11.737     12.248
REMARK  2 active torsions:
REMARK  status: ('A' for Active; 'I' for Inactive)
REMARK    1  A    between atoms: C4_4  and  C5_5 
REMARK    2  A    between atoms: C5_5  and  C6_6 
ROOT
HETATM    1  C1  UNL     1     -33.309   6.337   4.936  1.00 20.00     0.034 A 
HETATM    2  C2  UNL     1     -34.757   5.028   3.675  1.00 20.00     0.069 A 
HETATM    3  C3  UNL     1     -34.376   5.394   4.947  1.00 20.00     0.018 A 
HETATM    4  C4  UNL     1     -32.915   6.658   3.654  1.00 20.00    -0.015 A 
HETATM    5  S7  UNL     1     -33.830   5.821   2.473  1.00 20.00    -0.105 SA
HETATM    6 BR9  UNL     1     -35.143   4.751   6.541  1.00 20.00    -0.051 Br
ENDROOT
BRANCH   4   7
HETATM    7  C5  UNL     1     -31.850   7.589   3.225  1.00 20.00     0.061 C 
BRANCH   7   8
HETATM    8  C6  UNL     1     -31.989   8.098   1.781  1.00 20.00     0.119 C 
HETATM    9 CL8  UNL     1     -32.577   9.778   1.732  1.00 20.00    -0.130 Cl
ENDBRANCH   7   8
ENDBRANCH   4   7
TORSDOF 2
ENDMDL
MODEL 8
REMARK VINA RESULT:      -3.5     12.618     13.438
REMARK  2 active torsions:
REMARK  status: ('A' for Active; 'I' for Inactive)
REMARK    1  A    between atoms: C4_4  and  C5_5 
REMARK    2  A    between atoms: C5_5  and  C6_6 
ROOT
HETATM    1  C1  UNL     1     -41.023   3.780  -2.270  1.00 20.00     0.034 A 
HETATM    2  C2  UNL     1     -43.196   3.001  -1.996  1.00 20.00     0.069 A 
HETATM    3  C3  UNL     1     -42.013   2.843  -2.684  1.00 20.00     0.018 A 
HETATM    4  C4  UNL     1     -41.488   4.619  -1.280  1.00 20.00    -0.015 A 
HETATM    5  S7  UNL     1     -43.110   4.276  -0.856  1.00 20.00    -0.105 SA
HETATM    6 BR9  UNL     1     -41.694   1.557  -4.021  1.00 20.00    -0.051 Br
ENDROOT
BRANCH   4   7
HETATM    7  C5  UNL     1     -40.772   5.715  -0.593  1.00 20.00     0.061 C 
BRANCH   7   8
HETATM    8  C6  UNL     1     -41.286   7.125  -0.929  1.00 20.00     0.119 C 
HETATM    9 CL8  UNL     1     -41.830   7.237  -2.620  1.00 20.00    -0.130 Cl
ENDBRANCH   7   8
ENDBRANCH   4   7
TORSDOF 2
ENDMDL
MODEL 9
REMARK VINA RESULT:      -3.5      2.999      3.763
REMARK  2 active torsions:
REMARK  status: ('A' for Active; 'I' for Inactive)
REMARK    1  A    between atoms: C4_4  and  C5_5 
REMARK    2  A    between atoms: C5_5  and  C6_6 
ROOT
HETATM    1  C1  UNL     1     -33.399  16.414  -5.140  1.00 20.00     0.034 A 
HETATM    2  C2  UNL     1     -33.926  18.049  -3.574  1.00 20.00     0.069 A 
HETATM    3  C3  UNL     1     -33.665  17.793  -4.902  1.00 20.00     0.018 A 
HETATM    4  C4  UNL     1     -33.466  15.668  -3.983  1.00 20.00    -0.015 A 
HETATM    5  S7  UNL     1     -33.849  16.629  -2.619  1.00 20.00    -0.105 SA
HETATM    6 BR9  UNL     1     -33.652  19.079  -6.277  1.00 20.00    -0.051 Br
ENDROOT
BRANCH   4   7
HETATM    7  C5  UNL     1     -33.254  14.214  -3.812  1.00 20.00     0.061 C 
BRANCH   7   8
HETATM    8  C6  UNL     1     -34.276  13.328  -4.542  1.00 20.00     0.119 C 
HETATM    9 CL8  UNL     1     -35.947  13.838  -4.200  1.00 20.00    -0.130 Cl
ENDBRANCH   7   8
ENDBRANCH   4   7
TORSDOF 2
ENDMDL
