MODEL 1
REMARK VINA RESULT:      -4.1      0.000      0.000
REMARK  3 active torsions:
REMARK  status: ('A' for Active; 'I' for Inactive)
REMARK    1  A    between atoms: C5_5  and  C6_6 
REMARK    2  A    between atoms: C5_5  and  C7_7 
REMARK    3  A    between atoms: C7_7  and  C8_8 
ROOT
HETATM    1  C1  UNL     1     -33.666   5.219   2.345  1.00 20.00     0.011 C 
HETATM    2  C7  UNL     1     -33.261   5.581   3.786  1.00 20.00    -0.010 C 
ENDROOT
BRANCH   2   3
HETATM    3  C5  UNL     1     -32.662   7.016   3.828  1.00 20.00     0.020 C 
BRANCH   3   4
HETATM    4  C6  UNL     1     -31.820   7.436   2.622  1.00 20.00     0.115 C 
HETATM    5 CL9  UNL     1     -32.391   8.956   1.898  1.00 20.00    -0.130 Cl
ENDBRANCH   3   4
ENDBRANCH   2   3
BRANCH   2   6
HETATM    6  C8  UNL     1     -34.429   5.365   4.826  1.00 20.00    -0.048 C 
HETATM    7  C2  UNL     1     -34.308   6.377   5.989  1.00 20.00     0.015 C 
HETATM    8  C3  UNL     1     -34.431   3.946   5.425  1.00 20.00     0.015 C 
HETATM    9  C4  UNL     1     -35.803   5.610   4.161  1.00 20.00     0.015 C 
ENDBRANCH   2   6
TORSDOF 3
ENDMDL
MODEL 2
REMARK VINA RESULT:      -4.1      0.051      1.429
REMARK  3 active torsions:
REMARK  status: ('A' for Active; 'I' for Inactive)
REMARK    1  A    between atoms: C5_5  and  C6_6 
REMARK    2  A    between atoms: C5_5  and  C7_7 
REMARK    3  A    between atoms: C7_7  and  C8_8 
ROOT
HETATM    1  C1  UNL     1     -33.682   5.240   2.373  1.00 20.00     0.011 C 
HETATM    2  C7  UNL     1     -33.266   5.583   3.816  1.00 20.00    -0.010 C 
ENDROOT
BRANCH   2   3
HETATM    3  C5  UNL     1     -32.650   7.010   3.869  1.00 20.00     0.020 C 
BRANCH   3   4
HETATM    4  C6  UNL     1     -31.797   7.427   2.670  1.00 20.00     0.115 C 
HETATM    5 CL9  UNL     1     -32.368   8.938   1.929  1.00 20.00    -0.130 Cl
ENDBRANCH   3   4
ENDBRANCH   2   3
BRANCH   2   6
HETATM    6  C8  UNL     1     -34.432   5.371   4.859  1.00 20.00    -0.048 C 
HETATM    7  C2  UNL     1     -35.804   5.606   4.187  1.00 20.00     0.015 C 
HETATM    8  C3  UNL     1     -34.323   6.319   6.068  1.00 20.00     0.015 C 
HETATM    9  C4  UNL     1     -34.434   3.917   5.385  1.00 20.00     0.015 C 
ENDBRANCH   2   6
TORSDOF 3
ENDMDL
MODEL 3
REMARK VINA RESULT:      -4.0      0.875      1.980
REMARK  3 active torsions:
REMARK  status: ('A' for Active; 'I' for Inactive)
REMARK    1  A    between atoms: C5_5  and  C6_6 
REMARK    2  A    between atoms: C5_5  and  C7_7 
REMARK    3  A    between atoms: C7_7  and  C8_8 
ROOT
HETATM    1  C1  UNL     1     -33.754   6.497   5.907  1.00 20.00     0.011 C 
HETATM    2  C7  UNL     1     -33.827   6.491   4.368  1.00 20.00    -0.010 C 
ENDROOT
BRANCH   2   3
HETATM    3  C5  UNL     1     -32.397   6.397   3.766  1.00 20.00     0.020 C 
BRANCH   3   4
HETATM    4  C6  UNL     1     -31.707   7.724   3.444  1.00 20.00     0.115 C 
HETATM    5 CL9  UNL     1     -32.073   8.293   1.801  1.00 20.00    -0.130 Cl
ENDBRANCH   3   4
ENDBRANCH   2   3
BRANCH   2   6
HETATM    6  C8  UNL     1     -34.811   5.392   3.805  1.00 20.00    -0.048 C 
HETATM    7  C2  UNL     1     -36.194   6.014   3.501  1.00 20.00     0.015 C 
HETATM    8  C3  UNL     1     -35.018   4.224   4.787  1.00 20.00     0.015 C 
HETATM    9  C4  UNL     1     -34.278   4.814   2.474  1.00 20.00     0.015 C 
ENDBRANCH   2   6
TORSDOF 3
ENDMDL
MODEL 4
REMARK VINA RESULT:      -3.8     11.614     12.852
REMARK  3 active torsions:
REMARK  status: ('A' for Active; 'I' for Inactive)
REMARK    1  A    between atoms: C5_5  and  C6_6 
REMARK    2  A    between atoms: C5_5  and  C7_7 
REMARK    3  A    between atoms: C7_7  and  C8_8 
ROOT
HETATM    1  C1  UNL     1     -33.435  17.069  -5.043  1.00 20.00     0.011 C 
HETATM    2  C7  UNL     1     -33.537  15.593  -4.614  1.00 20.00    -0.010 C 
ENDROOT
BRANCH   2   3
HETATM    3  C5  UNL     1     -33.678  15.494  -3.069  1.00 20.00     0.020 C 
BRANCH   3   4
HETATM    4  C6  UNL     1     -33.880  16.812  -2.319  1.00 20.00     0.115 C 
HETATM    5 CL9  UNL     1     -34.630  16.572  -0.725  1.00 20.00    -0.130 Cl
ENDBRANCH   3   4
ENDBRANCH   2   3
BRANCH   2   6
HETATM    6  C8  UNL     1     -34.663  14.804  -5.391  1.00 20.00    -0.048 C 
HETATM    7  C2  UNL     1     -34.668  13.318  -4.968  1.00 20.00     0.015 C 
HETATM    8  C3  UNL     1     -34.478  14.865  -6.919  1.00 20.00     0.015 C 
HETATM    9  C4  UNL     1     -36.060  15.371  -5.051  1.00 20.00     0.015 C 
ENDBRANCH   2   6
TORSDOF 3
ENDMDL
MODEL 5
REMARK VINA RESULT:      -3.8     11.066     12.322
REMARK  3 active torsions:
REMARK  status: ('A' for Active; 'I' for Inactive)
REMARK    1  A    between atoms: C5_5  and  C6_6 
REMARK    2  A    between atoms: C5_5  and  C7_7 
REMARK    3  A    between atoms: C7_7  and  C8_8 
ROOT
HETATM    1  C1  UNL     1     -33.708  17.426  -3.741  1.00 20.00     0.011 C 
HETATM    2  C7  UNL     1     -33.804  16.056  -3.045  1.00 20.00    -0.010 C 
ENDROOT
BRANCH   2   3
HETATM    3  C5  UNL     1     -34.607  16.184  -1.720  1.00 20.00     0.020 C 
BRANCH   3   4
HETATM    4  C6  UNL     1     -34.147  17.274  -0.749  1.00 20.00     0.115 C 
HETATM    5 CL9  UNL     1     -35.116  17.303   0.740  1.00 20.00    -0.130 Cl
ENDBRANCH   3   4
ENDBRANCH   2   3
BRANCH   2   6
HETATM    6  C8  UNL     1     -34.352  14.921  -3.996  1.00 20.00    -0.048 C 
HETATM    7  C2  UNL     1     -34.217  15.347  -5.475  1.00 20.00     0.015 C 
HETATM    8  C3  UNL     1     -35.832  14.589  -3.727  1.00 20.00     0.015 C 
HETATM    9  C4  UNL     1     -33.529  13.623  -3.826  1.00 20.00     0.015 C 
ENDBRANCH   2   6
TORSDOF 3
ENDMDL
MODEL 6
REMARK VINA RESULT:      -3.8     11.760     12.492
REMARK  3 active torsions:
REMARK  status: ('A' for Active; 'I' for Inactive)
REMARK    1  A    between atoms: C5_5  and  C6_6 
REMARK    2  A    between atoms: C5_5  and  C7_7 
REMARK    3  A    between atoms: C7_7  and  C8_8 
ROOT
HETATM    1  C1  UNL     1     -36.832  14.730  -3.907  1.00 20.00     0.011 C 
HETATM    2  C7  UNL     1     -35.342  14.472  -3.614  1.00 20.00    -0.010 C 
ENDROOT
BRANCH   2   3
HETATM    3  C5  UNL     1     -34.693  13.694  -4.794  1.00 20.00     0.020 C 
BRANCH   3   4
HETATM    4  C6  UNL     1     -35.228  14.009  -6.192  1.00 20.00     0.115 C 
HETATM    5 CL9  UNL     1     -34.196  15.164  -7.065  1.00 20.00    -0.130 Cl
ENDBRANCH   3   4
ENDBRANCH   2   3
BRANCH   2   6
HETATM    6  C8  UNL     1     -34.555  15.786  -3.228  1.00 20.00    -0.048 C 
HETATM    7  C2  UNL     1     -33.059  15.641  -3.586  1.00 20.00     0.015 C 
HETATM    8  C3  UNL     1     -34.658  16.116  -1.728  1.00 20.00     0.015 C 
HETATM    9  C4  UNL     1     -35.092  16.996  -4.026  1.00 20.00     0.015 C 
ENDBRANCH   2   6
TORSDOF 3
ENDMDL
MODEL 7
REMARK VINA RESULT:      -3.7     11.205     12.141
REMARK  3 active torsions:
REMARK  status: ('A' for Active; 'I' for Inactive)
REMARK    1  A    between atoms: C5_5  and  C6_6 
REMARK    2  A    between atoms: C5_5  and  C7_7 
REMARK    3  A    between atoms: C7_7  and  C8_8 
ROOT
HETATM    1  C1  UNL     1     -32.612  14.527  -3.503  1.00 20.00     0.011 C 
HETATM    2  C7  UNL     1     -33.927  15.272  -3.210  1.00 20.00    -0.010 C 
ENDROOT
BRANCH   2   3
HETATM    3  C5  UNL     1     -33.699  16.808  -3.281  1.00 20.00     0.020 C 
BRANCH   3   4
HETATM    4  C6  UNL     1     -34.121  17.615  -2.052  1.00 20.00     0.115 C 
HETATM    5 CL9  UNL     1     -34.594  16.574  -0.692  1.00 20.00    -0.130 Cl
ENDBRANCH   3   4
ENDBRANCH   2   3
BRANCH   2   6
HETATM    6  C8  UNL     1     -35.126  14.780  -4.114  1.00 20.00    -0.048 C 
HETATM    7  C2  UNL     1     -36.477  15.086  -3.428  1.00 20.00     0.015 C 
HETATM    8  C3  UNL     1     -35.067  13.268  -4.400  1.00 20.00     0.015 C 
HETATM    9  C4  UNL     1     -35.130  15.527  -5.467  1.00 20.00     0.015 C 
ENDBRANCH   2   6
TORSDOF 3
ENDMDL
MODEL 8
REMARK VINA RESULT:      -3.7     11.108     12.826
REMARK  3 active torsions:
REMARK  status: ('A' for Active; 'I' for Inactive)
REMARK    1  A    between atoms: C5_5  and  C6_6 
REMARK    2  A    between atoms: C5_5  and  C7_7 
REMARK    3  A    between atoms: C7_7  and  C8_8 
ROOT
HETATM    1  C1  UNL     1     -33.845  13.663  -3.824  1.00 20.00     0.011 C 
HETATM    2  C7  UNL     1     -34.498  15.053  -3.720  1.00 20.00    -0.010 C 
ENDROOT
BRANCH   2   3
HETATM    3  C5  UNL     1     -33.798  15.891  -2.613  1.00 20.00     0.020 C 
BRANCH   3   4
HETATM    4  C6  UNL     1     -34.680  16.360  -1.455  1.00 20.00     0.115 C 
HETATM    5 CL9  UNL     1     -33.886  17.601  -0.462  1.00 20.00    -0.130 Cl
ENDBRANCH   3   4
ENDBRANCH   2   3
BRANCH   2   6
HETATM    6  C8  UNL     1     -34.576  15.801  -5.109  1.00 20.00    -0.048 C 
HETATM    7  C2  UNL     1     -33.360  16.738  -5.285  1.00 20.00     0.015 C 
HETATM    8  C3  UNL     1     -35.856  16.645  -5.254  1.00 20.00     0.015 C 
HETATM    9  C4  UNL     1     -34.533  14.788  -6.276  1.00 20.00     0.015 C 
ENDBRANCH   2   6
TORSDOF 3
ENDMDL
MODEL 9
REMARK VINA RESULT:      -3.6     11.411     12.999
REMARK  3 active torsions:
REMARK  status: ('A' for Active; 'I' for Inactive)
REMARK    1  A    between atoms: C5_5  and  C6_6 
REMARK    2  A    between atoms: C5_5  and  C7_7 
REMARK    3  A    between atoms: C7_7  and  C8_8 
ROOT
HETATM    1  C1  UNL     1     -33.584  16.919  -5.450  1.00 20.00     0.011 C 
HETATM    2  C7  UNL     1     -34.508  15.695  -5.316  1.00 20.00    -0.010 C 
ENDROOT
BRANCH   2   3
HETATM    3  C5  UNL     1     -34.431  14.823  -6.600  1.00 20.00     0.020 C 
BRANCH   3   4
HETATM    4  C6  UNL     1     -35.732  14.655  -7.387  1.00 20.00     0.115 C 
HETATM    5 CL9  UNL     1     -37.148  15.229  -6.478  1.00 20.00    -0.130 Cl
ENDBRANCH   3   4
ENDBRANCH   2   3
BRANCH   2   6
HETATM    6  C8  UNL     1     -34.251  14.875  -3.991  1.00 20.00    -0.048 C 
HETATM    7  C2  UNL     1     -32.739  14.826  -3.673  1.00 20.00     0.015 C 
HETATM    8  C3  UNL     1     -34.767  13.426  -4.085  1.00 20.00     0.015 C 
HETATM    9  C4  UNL     1     -34.941  15.555  -2.786  1.00 20.00     0.015 C 
ENDBRANCH   2   6
TORSDOF 3
ENDMDL
