MODEL 1
REMARK VINA RESULT:      -6.2      0.000      0.000
REMARK  4 active torsions:
REMARK  status: ('A' for Active; 'I' for Inactive)
REMARK    1  A    between atoms: C8_8  and  C11_11 
REMARK    2  A    between atoms: C9_9  and  C10_10 
REMARK    3  A    between atoms: C10_10  and  C11_11 
REMARK    4  A    between atoms: C11_11  and  O12_12 
ROOT
HETATM    1  C1  UNL     1     -32.583  10.132   1.493  1.00 20.00     0.012 C 
HETATM    2  C2  UNL     1     -32.273   8.989   1.687  1.00 20.00    -0.117 C 
HETATM    3  C9  UNL     1     -31.892   7.588   1.920  1.00 20.00     0.095 C 
ENDROOT
BRANCH   3   4
HETATM    4  C10 UNL     1     -32.008   7.194   3.396  1.00 20.00     0.044 C 
BRANCH   4   5
HETATM    5  C11 UNL     1     -32.947   6.007   3.645  1.00 20.00     0.123 C 
BRANCH   5   6
HETATM    6  C8  UNL     1     -34.247   6.467   4.314  1.00 20.00     0.018 C 
HETATM    7  C6  UNL     1     -34.100   6.532   5.846  1.00 20.00     0.034 C 
HETATM    8  C4  UNL     1     -34.277   5.208   6.531  1.00 20.00    -0.030 C 
HETATM    9  C3  UNL     1     -34.811   4.136   5.929  1.00 20.00    -0.031 C 
HETATM   10  C5  UNL     1     -35.311   4.152   4.516  1.00 20.00     0.027 C 
HETATM   11  C7  UNL     1     -35.429   5.563   3.932  1.00 20.00     0.011 C 
ENDBRANCH   5   6
BRANCH   5  12
HETATM   12  O12 UNL     1     -33.267   5.392   2.402  1.00 20.00    -0.395 OA
HETATM   13  H28 UNL     1     -34.121   5.758   2.122  1.00 20.00     0.210 HD
ENDBRANCH   5  12
ENDBRANCH   4   5
ENDBRANCH   3   4
TORSDOF 4
ENDMDL
MODEL 2
REMARK VINA RESULT:      -5.3     10.895     12.592
REMARK  4 active torsions:
REMARK  status: ('A' for Active; 'I' for Inactive)
REMARK    1  A    between atoms: C8_8  and  C11_11 
REMARK    2  A    between atoms: C9_9  and  C10_10 
REMARK    3  A    between atoms: C10_10  and  C11_11 
REMARK    4  A    between atoms: C11_11  and  O12_12 
ROOT
HETATM    1  C1  UNL     1     -34.842  14.816  -6.884  1.00 20.00     0.012 C 
HETATM    2  C2  UNL     1     -34.789  14.091  -5.929  1.00 20.00    -0.117 C 
HETATM    3  C9  UNL     1     -34.729  13.201  -4.761  1.00 20.00     0.095 C 
ENDROOT
BRANCH   3   4
HETATM    4  C10 UNL     1     -33.829  13.759  -3.652  1.00 20.00     0.044 C 
BRANCH   4   5
HETATM    5  C11 UNL     1     -33.243  15.139  -3.972  1.00 20.00     0.123 C 
BRANCH   5   6
HETATM    6  C8  UNL     1     -33.653  16.168  -2.912  1.00 20.00     0.018 C 
HETATM    7  C6  UNL     1     -35.004  15.805  -2.268  1.00 20.00     0.034 C 
HETATM    8  C4  UNL     1     -36.197  16.235  -3.073  1.00 20.00    -0.030 C 
HETATM    9  C3  UNL     1     -36.122  17.111  -4.084  1.00 20.00    -0.031 C 
HETATM   10  C5  UNL     1     -34.844  17.773  -4.504  1.00 20.00     0.027 C 
HETATM   11  C7  UNL     1     -33.707  17.588  -3.495  1.00 20.00     0.011 C 
ENDBRANCH   5   6
BRANCH   5  12
HETATM   12  O12 UNL     1     -31.822  15.052  -3.997  1.00 20.00    -0.395 OA
HETATM   13  H28 UNL     1     -31.491  15.735  -3.393  1.00 20.00     0.210 HD
ENDBRANCH   5  12
ENDBRANCH   4   5
ENDBRANCH   3   4
TORSDOF 4
ENDMDL
MODEL 3
REMARK VINA RESULT:      -5.1     10.857     13.180
REMARK  4 active torsions:
REMARK  status: ('A' for Active; 'I' for Inactive)
REMARK    1  A    between atoms: C8_8  and  C11_11 
REMARK    2  A    between atoms: C9_9  and  C10_10 
REMARK    3  A    between atoms: C10_10  and  C11_11 
REMARK    4  A    between atoms: C11_11  and  O12_12 
ROOT
HETATM    1  C1  UNL     1     -33.692  16.146  -2.831  1.00 20.00     0.012 C 
HETATM    2  C2  UNL     1     -33.738  15.018  -3.239  1.00 20.00    -0.117 C 
HETATM    3  C9  UNL     1     -33.790  13.636  -3.738  1.00 20.00     0.095 C 
ENDROOT
BRANCH   3   4
HETATM    4  C10 UNL     1     -35.125  13.315  -4.418  1.00 20.00     0.044 C 
BRANCH   4   5
HETATM    5  C11 UNL     1     -36.092  14.505  -4.470  1.00 20.00     0.123 C 
BRANCH   5   6
HETATM    6  C8  UNL     1     -36.451  14.857  -5.918  1.00 20.00     0.018 C 
HETATM    7  C6  UNL     1     -35.317  14.477  -6.888  1.00 20.00     0.034 C 
HETATM    8  C4  UNL     1     -34.218  15.498  -6.968  1.00 20.00    -0.030 C 
HETATM    9  C3  UNL     1     -34.340  16.745  -6.494  1.00 20.00    -0.031 C 
HETATM   10  C5  UNL     1     -35.594  17.263  -5.858  1.00 20.00     0.027 C 
HETATM   11  C7  UNL     1     -36.802  16.344  -6.067  1.00 20.00     0.011 C 
ENDBRANCH   5   6
BRANCH   5  12
HETATM   12  O12 UNL     1     -37.287  14.170  -3.772  1.00 20.00    -0.395 OA
HETATM   13  H28 UNL     1     -37.153  14.435  -2.849  1.00 20.00     0.210 HD
ENDBRANCH   5  12
ENDBRANCH   4   5
ENDBRANCH   3   4
TORSDOF 4
ENDMDL
MODEL 4
REMARK VINA RESULT:      -5.1     11.145     12.946
REMARK  4 active torsions:
REMARK  status: ('A' for Active; 'I' for Inactive)
REMARK    1  A    between atoms: C8_8  and  C11_11 
REMARK    2  A    between atoms: C9_9  and  C10_10 
REMARK    3  A    between atoms: C10_10  and  C11_11 
REMARK    4  A    between atoms: C11_11  and  O12_12 
ROOT
HETATM    1  C1  UNL     1     -33.698  17.397  -0.910  1.00 20.00     0.012 C 
HETATM    2  C2  UNL     1     -34.367  16.650  -1.569  1.00 20.00    -0.117 C 
HETATM    3  C9  UNL     1     -35.191  15.736  -2.374  1.00 20.00     0.095 C 
ENDROOT
BRANCH   3   4
HETATM    4  C10 UNL     1     -34.341  14.763  -3.198  1.00 20.00     0.044 C 
BRANCH   4   5
HETATM    5  C11 UNL     1     -35.102  14.111  -4.359  1.00 20.00     0.123 C 
BRANCH   5   6
HETATM    6  C8  UNL     1     -34.449  14.452  -5.703  1.00 20.00     0.018 C 
HETATM    7  C6  UNL     1     -33.863  15.877  -5.699  1.00 20.00     0.034 C 
HETATM    8  C4  UNL     1     -34.874  16.951  -5.976  1.00 20.00    -0.030 C 
HETATM    9  C3  UNL     1     -36.090  16.702  -6.480  1.00 20.00    -0.031 C 
HETATM   10  C5  UNL     1     -36.562  15.326  -6.844  1.00 20.00     0.027 C 
HETATM   11  C7  UNL     1     -35.436  14.288  -6.868  1.00 20.00     0.011 C 
ENDBRANCH   5   6
BRANCH   5  12
HETATM   12  O12 UNL     1     -35.091  12.697  -4.193  1.00 20.00    -0.395 OA
HETATM   13  H28 UNL     1     -35.665  12.331  -4.884  1.00 20.00     0.210 HD
ENDBRANCH   5  12
ENDBRANCH   4   5
ENDBRANCH   3   4
TORSDOF 4
ENDMDL
MODEL 5
REMARK VINA RESULT:      -5.1     11.019     12.644
REMARK  4 active torsions:
REMARK  status: ('A' for Active; 'I' for Inactive)
REMARK    1  A    between atoms: C8_8  and  C11_11 
REMARK    2  A    between atoms: C9_9  and  C10_10 
REMARK    3  A    between atoms: C10_10  and  C11_11 
REMARK    4  A    between atoms: C11_11  and  O12_12 
ROOT
HETATM    1  C1  UNL     1     -35.559  14.945  -7.446  1.00 20.00     0.012 C 
HETATM    2  C2  UNL     1     -36.328  15.055  -6.531  1.00 20.00    -0.117 C 
HETATM    3  C9  UNL     1     -37.272  15.192  -5.413  1.00 20.00     0.095 C 
ENDROOT
BRANCH   3   4
HETATM    4  C10 UNL     1     -36.758  14.522  -4.134  1.00 20.00     0.044 C 
BRANCH   4   5
HETATM    5  C11 UNL     1     -35.321  14.000  -4.247  1.00 20.00     0.123 C 
BRANCH   5   6
HETATM    6  C8  UNL     1     -34.429  14.611  -3.161  1.00 20.00     0.018 C 
HETATM    7  C6  UNL     1     -35.077  15.862  -2.537  1.00 20.00     0.034 C 
HETATM    8  C4  UNL     1     -34.872  17.116  -3.337  1.00 20.00    -0.030 C 
HETATM    9  C3  UNL     1     -33.970  17.219  -4.323  1.00 20.00    -0.031 C 
HETATM   10  C5  UNL     1     -33.051  16.102  -4.714  1.00 20.00     0.027 C 
HETATM   11  C7  UNL     1     -33.032  14.951  -3.703  1.00 20.00     0.011 C 
ENDBRANCH   5   6
BRANCH   5  12
HETATM   12  O12 UNL     1     -35.321  12.585  -4.094  1.00 20.00    -0.395 OA
HETATM   13  H28 UNL     1     -34.426  12.281  -4.317  1.00 20.00     0.210 HD
ENDBRANCH   5  12
ENDBRANCH   4   5
ENDBRANCH   3   4
TORSDOF 4
ENDMDL
MODEL 6
REMARK VINA RESULT:      -5.1     11.351     12.768
REMARK  4 active torsions:
REMARK  status: ('A' for Active; 'I' for Inactive)
REMARK    1  A    between atoms: C8_8  and  C11_11 
REMARK    2  A    between atoms: C9_9  and  C10_10 
REMARK    3  A    between atoms: C10_10  and  C11_11 
REMARK    4  A    between atoms: C11_11  and  O12_12 
ROOT
HETATM    1  C1  UNL     1     -34.717  16.405  -1.216  1.00 20.00     0.012 C 
HETATM    2  C2  UNL     1     -34.280  17.195  -2.007  1.00 20.00    -0.117 C 
HETATM    3  C9  UNL     1     -33.746  18.167  -2.972  1.00 20.00     0.095 C 
ENDROOT
BRANCH   3   4
HETATM    4  C10 UNL     1     -33.765  17.629  -4.407  1.00 20.00     0.044 C 
BRANCH   4   5
HETATM    5  C11 UNL     1     -33.603  16.106  -4.496  1.00 20.00     0.123 C 
BRANCH   5   6
HETATM    6  C8  UNL     1     -34.502  15.523  -5.592  1.00 20.00     0.018 C 
HETATM    7  C6  UNL     1     -35.892  16.185  -5.592  1.00 20.00     0.034 C 
HETATM    8  C4  UNL     1     -36.840  15.609  -4.580  1.00 20.00    -0.030 C 
HETATM    9  C3  UNL     1     -36.624  14.445  -3.953  1.00 20.00    -0.031 C 
HETATM   10  C5  UNL     1     -35.427  13.581  -4.212  1.00 20.00     0.027 C 
HETATM   11  C7  UNL     1     -34.639  13.999  -5.457  1.00 20.00     0.011 C 
ENDBRANCH   5   6
BRANCH   5  12
HETATM   12  O12 UNL     1     -32.248  15.795  -4.804  1.00 20.00    -0.395 OA
HETATM   13  H28 UNL     1     -32.269  15.076  -5.455  1.00 20.00     0.210 HD
ENDBRANCH   5  12
ENDBRANCH   4   5
ENDBRANCH   3   4
TORSDOF 4
ENDMDL
MODEL 7
REMARK VINA RESULT:      -5.0     11.576     13.209
REMARK  4 active torsions:
REMARK  status: ('A' for Active; 'I' for Inactive)
REMARK    1  A    between atoms: C8_8  and  C11_11 
REMARK    2  A    between atoms: C9_9  and  C10_10 
REMARK    3  A    between atoms: C10_10  and  C11_11 
REMARK    4  A    between atoms: C11_11  and  O12_12 
ROOT
HETATM    1  C1  UNL     1     -34.761  17.333   0.247  1.00 20.00     0.012 C 
HETATM    2  C2  UNL     1     -34.738  16.722  -0.785  1.00 20.00    -0.117 C 
HETATM    3  C9  UNL     1     -34.710  15.969  -2.048  1.00 20.00     0.095 C 
ENDROOT
BRANCH   3   4
HETATM    4  C10 UNL     1     -33.795  16.619  -3.091  1.00 20.00     0.044 C 
BRANCH   4   5
HETATM    5  C11 UNL     1     -33.547  15.744  -4.325  1.00 20.00     0.123 C 
BRANCH   5   6
HETATM    6  C8  UNL     1     -33.993  16.462  -5.605  1.00 20.00     0.018 C 
HETATM    7  C6  UNL     1     -35.332  17.194  -5.403  1.00 20.00     0.034 C 
HETATM    8  C4  UNL     1     -36.537  16.309  -5.543  1.00 20.00    -0.030 C 
HETATM    9  C3  UNL     1     -36.489  15.085  -6.087  1.00 20.00    -0.031 C 
HETATM   10  C5  UNL     1     -35.233  14.481  -6.639  1.00 20.00     0.027 C 
HETATM   11  C7  UNL     1     -34.092  15.491  -6.791  1.00 20.00     0.011 C 
ENDBRANCH   5   6
BRANCH   5  12
HETATM   12  O12 UNL     1     -32.157  15.454  -4.425  1.00 20.00    -0.395 OA
HETATM   13  H28 UNL     1     -31.696  16.307  -4.449  1.00 20.00     0.210 HD
ENDBRANCH   5  12
ENDBRANCH   4   5
ENDBRANCH   3   4
TORSDOF 4
ENDMDL
MODEL 8
REMARK VINA RESULT:      -5.0     11.322     12.501
REMARK  4 active torsions:
REMARK  status: ('A' for Active; 'I' for Inactive)
REMARK    1  A    between atoms: C8_8  and  C11_11 
REMARK    2  A    between atoms: C9_9  and  C10_10 
REMARK    3  A    between atoms: C10_10  and  C11_11 
REMARK    4  A    between atoms: C11_11  and  O12_12 
ROOT
HETATM    1  C1  UNL     1     -35.236  17.803   1.286  1.00 20.00     0.012 C 
HETATM    2  C2  UNL     1     -34.963  17.235   0.265  1.00 20.00    -0.117 C 
HETATM    3  C9  UNL     1     -34.626  16.536  -0.984  1.00 20.00     0.095 C 
ENDROOT
BRANCH   3   4
HETATM    4  C10 UNL     1     -35.469  17.023  -2.167  1.00 20.00     0.044 C 
BRANCH   4   5
HETATM    5  C11 UNL     1     -35.707  15.951  -3.238  1.00 20.00     0.123 C 
BRANCH   5   6
HETATM    6  C8  UNL     1     -34.431  15.142  -3.496  1.00 20.00     0.018 C 
HETATM    7  C6  UNL     1     -33.374  15.979  -4.240  1.00 20.00     0.034 C 
HETATM    8  C4  UNL     1     -33.578  16.033  -5.727  1.00 20.00    -0.030 C 
HETATM    9  C3  UNL     1     -34.397  15.201  -6.386  1.00 20.00    -0.031 C 
HETATM   10  C5  UNL     1     -35.177  14.113  -5.713  1.00 20.00     0.027 C 
HETATM   11  C7  UNL     1     -34.729  13.850  -4.271  1.00 20.00     0.011 C 
ENDBRANCH   5   6
BRANCH   5  12
HETATM   12  O12 UNL     1     -36.728  15.064  -2.796  1.00 20.00    -0.395 OA
HETATM   13  H28 UNL     1     -37.533  15.596  -2.691  1.00 20.00     0.210 HD
ENDBRANCH   5  12
ENDBRANCH   4   5
ENDBRANCH   3   4
TORSDOF 4
ENDMDL
MODEL 9
REMARK VINA RESULT:      -4.8     11.335     12.506
REMARK  4 active torsions:
REMARK  status: ('A' for Active; 'I' for Inactive)
REMARK    1  A    between atoms: C8_8  and  C11_11 
REMARK    2  A    between atoms: C9_9  and  C10_10 
REMARK    3  A    between atoms: C10_10  and  C11_11 
REMARK    4  A    between atoms: C11_11  and  O12_12 
ROOT
HETATM    1  C1  UNL     1     -34.581  16.418  -1.552  1.00 20.00     0.012 C 
HETATM    2  C2  UNL     1     -33.958  15.889  -2.431  1.00 20.00    -0.117 C 
HETATM    3  C9  UNL     1     -33.191  15.242  -3.505  1.00 20.00     0.095 C 
ENDROOT
BRANCH   3   4
HETATM    4  C10 UNL     1     -34.095  14.694  -4.614  1.00 20.00     0.044 C 
BRANCH   4   5
HETATM    5  C11 UNL     1     -35.435  14.149  -4.104  1.00 20.00     0.123 C 
BRANCH   5   6
HETATM    6  C8  UNL     1     -36.583  14.557  -5.034  1.00 20.00     0.018 C 
HETATM    7  C6  UNL     1     -36.222  15.806  -5.860  1.00 20.00     0.034 C 
HETATM    8  C4  UNL     1     -36.426  17.100  -5.126  1.00 20.00    -0.030 C 
HETATM    9  C3  UNL     1     -37.134  17.197  -3.992  1.00 20.00    -0.031 C 
HETATM   10  C5  UNL     1     -37.819  16.029  -3.350  1.00 20.00     0.027 C 
HETATM   11  C7  UNL     1     -37.884  14.794  -4.254  1.00 20.00     0.011 C 
ENDBRANCH   5   6
BRANCH   5  12
HETATM   12  O12 UNL     1     -35.374  12.728  -4.050  1.00 20.00    -0.395 OA
HETATM   13  H28 UNL     1     -35.808  12.462  -3.224  1.00 20.00     0.210 HD
ENDBRANCH   5  12
ENDBRANCH   4   5
ENDBRANCH   3   4
TORSDOF 4
ENDMDL
