MODEL 1
REMARK VINA RESULT:      -4.8      0.000      0.000
REMARK  2 active torsions:
REMARK  status: ('A' for Active; 'I' for Inactive)
REMARK    1  A    between atoms: C3_3  and  C8_8 
REMARK    2  A    between atoms: C10_10  and  N11_11 
ROOT
HETATM    1  C1  UNL     1     -34.123  18.033   0.397  1.00 20.00     0.013 C 
HETATM    2  C2  UNL     1     -34.389  17.221  -0.446  1.00 20.00    -0.087 C 
HETATM    3  C10 UNL     1     -34.719  16.229  -1.472  1.00 20.00     0.364 C 
ENDROOT
BRANCH   3   4
HETATM    4  N11 UNL     1     -33.742  16.265  -2.557  1.00 20.00     0.100 N 
HETATM    5  C6  UNL     1     -33.837  17.495  -3.353  1.00 20.00     0.273 C 
HETATM    6  C4  UNL     1     -35.055  17.550  -4.277  1.00 20.00     0.031 C 
HETATM    7  C5  UNL     1     -35.132  16.316  -5.170  1.00 20.00     0.015 C 
HETATM    8  C8  UNL     1     -35.035  15.035  -4.340  1.00 20.00     0.083 C 
HETATM    9  C7  UNL     1     -33.814  15.071  -3.411  1.00 20.00     0.285 C 
BRANCH   8  10
HETATM   10  C3  UNL     1     -34.950  13.846  -5.249  1.00 20.00     0.129 C 
HETATM   11  C9  UNL     1     -35.103  14.108  -6.723  1.00 20.00     0.091 C 
HETATM   12  O12 UNL     1     -34.762  12.711  -4.813  1.00 20.00    -0.298 OA
ENDBRANCH   8  10
ENDBRANCH   3   4
TORSDOF 2
ENDMDL
MODEL 2
REMARK VINA RESULT:      -4.5      2.452      3.673
REMARK  2 active torsions:
REMARK  status: ('A' for Active; 'I' for Inactive)
REMARK    1  A    between atoms: C3_3  and  C8_8 
REMARK    2  A    between atoms: C10_10  and  N11_11 
ROOT
HETATM    1  C1  UNL     1     -33.681  18.993  -5.224  1.00 20.00     0.013 C 
HETATM    2  C2  UNL     1     -33.485  17.809  -5.185  1.00 20.00    -0.087 C 
HETATM    3  C10 UNL     1     -33.244  16.365  -5.141  1.00 20.00     0.364 C 
ENDROOT
BRANCH   3   4
HETATM    4  N11 UNL     1     -33.584  15.825  -3.827  1.00 20.00     0.100 N 
HETATM    5  C6  UNL     1     -33.147  14.432  -3.666  1.00 20.00     0.273 C 
HETATM    6  C4  UNL     1     -33.989  13.418  -4.442  1.00 20.00     0.031 C 
HETATM    7  C5  UNL     1     -35.472  13.564  -4.119  1.00 20.00     0.015 C 
HETATM    8  C8  UNL     1     -35.927  15.014  -4.289  1.00 20.00     0.083 C 
HETATM    9  C7  UNL     1     -35.012  15.974  -3.516  1.00 20.00     0.285 C 
BRANCH   8  10
HETATM   10  C3  UNL     1     -37.341  15.162  -3.812  1.00 20.00     0.129 C 
HETATM   11  C9  UNL     1     -37.789  16.551  -3.444  1.00 20.00     0.091 C 
HETATM   12  O12 UNL     1     -38.099  14.197  -3.727  1.00 20.00    -0.298 OA
ENDBRANCH   8  10
ENDBRANCH   3   4
TORSDOF 2
ENDMDL
MODEL 3
REMARK VINA RESULT:      -4.5      1.715      2.072
REMARK  2 active torsions:
REMARK  status: ('A' for Active; 'I' for Inactive)
REMARK    1  A    between atoms: C3_3  and  C8_8 
REMARK    2  A    between atoms: C10_10  and  N11_11 
ROOT
HETATM    1  C1  UNL     1     -34.804  17.027  -0.038  1.00 20.00     0.013 C 
HETATM    2  C2  UNL     1     -34.323  17.014  -1.138  1.00 20.00    -0.087 C 
HETATM    3  C10 UNL     1     -33.735  17.002  -2.480  1.00 20.00     0.364 C 
ENDROOT
BRANCH   3   4
HETATM    4  N11 UNL     1     -33.762  15.655  -3.043  1.00 20.00     0.100 N 
HETATM    5  C6  UNL     1     -33.028  15.565  -4.311  1.00 20.00     0.273 C 
HETATM    6  C4  UNL     1     -33.745  16.214  -5.497  1.00 20.00     0.031 C 
HETATM    7  C5  UNL     1     -35.163  15.676  -5.650  1.00 20.00     0.015 C 
HETATM    8  C8  UNL     1     -35.928  15.771  -4.329  1.00 20.00     0.083 C 
HETATM    9  C7  UNL     1     -35.130  15.137  -3.182  1.00 20.00     0.285 C 
BRANCH   8  10
HETATM   10  C3  UNL     1     -37.259  15.091  -4.462  1.00 20.00     0.129 C 
HETATM   11  C9  UNL     1     -38.226  15.683  -5.452  1.00 20.00     0.091 C 
HETATM   12  O12 UNL     1     -37.545  14.097  -3.796  1.00 20.00    -0.298 OA
ENDBRANCH   8  10
ENDBRANCH   3   4
TORSDOF 2
ENDMDL
MODEL 4
REMARK VINA RESULT:      -4.5      1.406      1.584
REMARK  2 active torsions:
REMARK  status: ('A' for Active; 'I' for Inactive)
REMARK    1  A    between atoms: C3_3  and  C8_8 
REMARK    2  A    between atoms: C10_10  and  N11_11 
ROOT
HETATM    1  C1  UNL     1     -32.708  19.031  -0.043  1.00 20.00     0.013 C 
HETATM    2  C2  UNL     1     -33.368  18.131  -0.485  1.00 20.00    -0.087 C 
HETATM    3  C10 UNL     1     -34.178  17.034  -1.020  1.00 20.00     0.364 C 
ENDROOT
BRANCH   3   4
HETATM    4  N11 UNL     1     -33.663  16.598  -2.316  1.00 20.00     0.100 N 
HETATM    5  C6  UNL     1     -33.722  17.663  -3.326  1.00 20.00     0.273 C 
HETATM    6  C4  UNL     1     -35.131  17.960  -3.841  1.00 20.00     0.031 C 
HETATM    7  C5  UNL     1     -35.817  16.694  -4.344  1.00 20.00     0.015 C 
HETATM    8  C8  UNL     1     -35.757  15.586  -3.292  1.00 20.00     0.083 C 
HETATM    9  C7  UNL     1     -34.321  15.375  -2.794  1.00 20.00     0.285 C 
BRANCH   8  10
HETATM   10  C3  UNL     1     -36.291  14.308  -3.868  1.00 20.00     0.129 C 
HETATM   11  C9  UNL     1     -35.296  13.401  -4.539  1.00 20.00     0.091 C 
HETATM   12  O12 UNL     1     -37.484  14.015  -3.793  1.00 20.00    -0.298 OA
ENDBRANCH   8  10
ENDBRANCH   3   4
TORSDOF 2
ENDMDL
MODEL 5
REMARK VINA RESULT:      -4.4      1.465      2.060
REMARK  2 active torsions:
REMARK  status: ('A' for Active; 'I' for Inactive)
REMARK    1  A    between atoms: C3_3  and  C8_8 
REMARK    2  A    between atoms: C10_10  and  N11_11 
ROOT
HETATM    1  C1  UNL     1     -34.457  17.016  -0.519  1.00 20.00     0.013 C 
HETATM    2  C2  UNL     1     -35.205  17.202  -1.439  1.00 20.00    -0.087 C 
HETATM    3  C10 UNL     1     -36.122  17.430  -2.558  1.00 20.00     0.364 C 
ENDROOT
BRANCH   3   4
HETATM    4  N11 UNL     1     -35.430  17.266  -3.834  1.00 20.00     0.100 N 
HETATM    5  C6  UNL     1     -36.343  17.360  -4.980  1.00 20.00     0.273 C 
HETATM    6  C4  UNL     1     -37.243  16.137  -5.166  1.00 20.00     0.031 C 
HETATM    7  C5  UNL     1     -36.427  14.850  -5.223  1.00 20.00     0.015 C 
HETATM    8  C8  UNL     1     -35.478  14.751  -4.028  1.00 20.00     0.083 C 
HETATM    9  C7  UNL     1     -34.639  16.028  -3.883  1.00 20.00     0.285 C 
BRANCH   8  10
HETATM   10  C3  UNL     1     -34.577  13.564  -4.191  1.00 20.00     0.129 C 
HETATM   11  C9  UNL     1     -33.174  13.701  -3.662  1.00 20.00     0.091 C 
HETATM   12  O12 UNL     1     -34.964  12.528  -4.729  1.00 20.00    -0.298 OA
ENDBRANCH   8  10
ENDBRANCH   3   4
TORSDOF 2
ENDMDL
MODEL 6
REMARK VINA RESULT:      -4.4      1.557      3.318
REMARK  2 active torsions:
REMARK  status: ('A' for Active; 'I' for Inactive)
REMARK    1  A    between atoms: C3_3  and  C8_8 
REMARK    2  A    between atoms: C10_10  and  N11_11 
ROOT
HETATM    1  C1  UNL     1     -33.720  18.964  -7.089  1.00 20.00     0.013 C 
HETATM    2  C2  UNL     1     -33.712  18.602  -5.945  1.00 20.00    -0.087 C 
HETATM    3  C10 UNL     1     -33.697  18.162  -4.547  1.00 20.00     0.364 C 
ENDROOT
BRANCH   3   4
HETATM    4  N11 UNL     1     -34.960  17.519  -4.196  1.00 20.00     0.100 N 
HETATM    5  C6  UNL     1     -35.070  17.254  -2.756  1.00 20.00     0.273 C 
HETATM    6  C4  UNL     1     -34.198  16.097  -2.264  1.00 20.00     0.031 C 
HETATM    7  C5  UNL     1     -34.450  14.829  -3.072  1.00 20.00     0.015 C 
HETATM    8  C8  UNL     1     -34.334  15.105  -4.572  1.00 20.00     0.083 C 
HETATM    9  C7  UNL     1     -35.204  16.301  -4.981  1.00 20.00     0.285 C 
BRANCH   8  10
HETATM   10  C3  UNL     1     -34.744  13.888  -5.346  1.00 20.00     0.129 C 
HETATM   11  C9  UNL     1     -35.171  14.105  -6.773  1.00 20.00     0.091 C 
HETATM   12  O12 UNL     1     -34.730  12.766  -4.841  1.00 20.00    -0.298 OA
ENDBRANCH   8  10
ENDBRANCH   3   4
TORSDOF 2
ENDMDL
MODEL 7
REMARK VINA RESULT:      -4.4      2.189      3.124
REMARK  2 active torsions:
REMARK  status: ('A' for Active; 'I' for Inactive)
REMARK    1  A    between atoms: C3_3  and  C8_8 
REMARK    2  A    between atoms: C10_10  and  N11_11 
ROOT
HETATM    1  C1  UNL     1     -34.737  17.033  -0.645  1.00 20.00     0.013 C 
HETATM    2  C2  UNL     1     -34.568  16.281  -1.565  1.00 20.00    -0.087 C 
HETATM    3  C10 UNL     1     -34.357  15.361  -2.686  1.00 20.00     0.364 C 
ENDROOT
BRANCH   3   4
HETATM    4  N11 UNL     1     -35.494  15.395  -3.602  1.00 20.00     0.100 N 
HETATM    5  C6  UNL     1     -35.733  14.095  -4.243  1.00 20.00     0.273 C 
HETATM    6  C4  UNL     1     -34.711  13.733  -5.322  1.00 20.00     0.031 C 
HETATM    7  C5  UNL     1     -34.586  14.840  -6.364  1.00 20.00     0.015 C 
HETATM    8  C8  UNL     1     -34.336  16.192  -5.695  1.00 20.00     0.083 C 
HETATM    9  C7  UNL     1     -35.374  16.467  -4.599  1.00 20.00     0.285 C 
BRANCH   8  10
HETATM   10  C3  UNL     1     -34.378  17.283  -6.723  1.00 20.00     0.129 C 
HETATM   11  C9  UNL     1     -35.265  17.054  -7.918  1.00 20.00     0.091 C 
HETATM   12  O12 UNL     1     -33.722  18.316  -6.596  1.00 20.00    -0.298 OA
ENDBRANCH   8  10
ENDBRANCH   3   4
TORSDOF 2
ENDMDL
MODEL 8
REMARK VINA RESULT:      -4.2      2.654      4.596
REMARK  2 active torsions:
REMARK  status: ('A' for Active; 'I' for Inactive)
REMARK    1  A    between atoms: C3_3  and  C8_8 
REMARK    2  A    between atoms: C10_10  and  N11_11 
ROOT
HETATM    1  C1  UNL     1     -39.112  15.503  -3.439  1.00 20.00     0.013 C 
HETATM    2  C2  UNL     1     -38.067  14.992  -3.735  1.00 20.00    -0.087 C 
HETATM    3  C10 UNL     1     -36.793  14.363  -4.096  1.00 20.00     0.364 C 
ENDROOT
BRANCH   3   4
HETATM    4  N11 UNL     1     -35.865  15.353  -4.637  1.00 20.00     0.100 N 
HETATM    5  C6  UNL     1     -34.657  14.735  -5.199  1.00 20.00     0.273 C 
HETATM    6  C4  UNL     1     -33.679  14.204  -4.149  1.00 20.00     0.031 C 
HETATM    7  C5  UNL     1     -33.318  15.281  -3.132  1.00 20.00     0.015 C 
HETATM    8  C8  UNL     1     -34.576  15.922  -2.545  1.00 20.00     0.083 C 
HETATM    9  C7  UNL     1     -35.525  16.392  -3.656  1.00 20.00     0.285 C 
BRANCH   8  10
HETATM   10  C3  UNL     1     -34.197  17.082  -1.673  1.00 20.00     0.129 C 
HETATM   11  C9  UNL     1     -34.675  17.041  -0.247  1.00 20.00     0.091 C 
HETATM   12  O12 UNL     1     -33.527  18.020  -2.102  1.00 20.00    -0.298 OA
ENDBRANCH   8  10
ENDBRANCH   3   4
TORSDOF 2
ENDMDL
MODEL 9
REMARK VINA RESULT:      -4.1      2.390      5.217
REMARK  2 active torsions:
REMARK  status: ('A' for Active; 'I' for Inactive)
REMARK    1  A    between atoms: C3_3  and  C8_8 
REMARK    2  A    between atoms: C10_10  and  N11_11 
ROOT
HETATM    1  C1  UNL     1     -35.665  14.427  -7.918  1.00 20.00     0.013 C 
HETATM    2  C2  UNL     1     -35.376  15.255  -7.098  1.00 20.00    -0.087 C 
HETATM    3  C10 UNL     1     -35.028  16.268  -6.098  1.00 20.00     0.364 C 
ENDROOT
BRANCH   3   4
HETATM    4  N11 UNL     1     -33.893  15.827  -5.292  1.00 20.00     0.100 N 
HETATM    5  C6  UNL     1     -34.149  14.547  -4.619  1.00 20.00     0.273 C 
HETATM    6  C4  UNL     1     -35.116  14.643  -3.438  1.00 20.00     0.031 C 
HETATM    7  C5  UNL     1     -34.667  15.703  -2.437  1.00 20.00     0.015 C 
HETATM    8  C8  UNL     1     -34.402  17.036  -3.137  1.00 20.00     0.083 C 
HETATM    9  C7  UNL     1     -33.458  16.853  -4.334  1.00 20.00     0.285 C 
BRANCH   8  10
HETATM   10  C3  UNL     1     -33.809  18.012  -2.165  1.00 20.00     0.129 C 
HETATM   11  C9  UNL     1     -33.746  17.579  -0.725  1.00 20.00     0.091 C 
HETATM   12  O12 UNL     1     -33.394  19.113  -2.526  1.00 20.00    -0.298 OA
ENDBRANCH   8  10
ENDBRANCH   3   4
TORSDOF 2
ENDMDL
