MODEL 1
REMARK VINA RESULT:      -4.6      0.000      0.000
REMARK  3 active torsions:
REMARK  status: ('A' for Active; 'I' for Inactive)
REMARK    1  A    between atoms: C5_5  and  C9_9 
REMARK    2  A    between atoms: C8_8  and  N10_10 
REMARK    3  A    between atoms: C9_9  and  N10_10 
ROOT
HETATM    1  C1  UNL     1     -32.149   9.155   0.818  1.00 20.00     0.013 C 
HETATM    2  C2  UNL     1     -32.140   8.503   1.827  1.00 20.00    -0.087 C 
HETATM    3  C8  UNL     1     -32.126   7.712   3.059  1.00 20.00     0.364 C 
ENDROOT
BRANCH   3   4
HETATM    4  N10 UNL     1     -32.983   6.523   2.923  1.00 20.00     0.095 N 
HETATM    5  C7  UNL     1     -32.153   5.310   2.990  1.00 20.00     0.310 C 
BRANCH   4   6
HETATM    6  C9  UNL     1     -34.018   6.505   3.921  1.00 20.00     0.278 C 
BRANCH   6   7
HETATM    7  C5  UNL     1     -33.464   6.182   5.265  1.00 20.00     0.018 A 
HETATM    8  C3  UNL     1     -34.225   6.554   6.510  1.00 20.00     0.011 A 
HETATM    9  C4  UNL     1     -34.049   5.102   6.145  1.00 20.00    -0.012 A 
HETATM   10  C6  UNL     1     -35.225   4.284   5.733  1.00 20.00     0.010 C 
ENDBRANCH   6   7
ENDBRANCH   4   6
ENDBRANCH   3   4
TORSDOF 3
ENDMDL
MODEL 2
REMARK VINA RESULT:      -4.3     10.798     11.818
REMARK  3 active torsions:
REMARK  status: ('A' for Active; 'I' for Inactive)
REMARK    1  A    between atoms: C5_5  and  C9_9 
REMARK    2  A    between atoms: C8_8  and  N10_10 
REMARK    3  A    between atoms: C9_9  and  N10_10 
ROOT
HETATM    1  C1  UNL     1     -34.727  14.796  -6.674  1.00 20.00     0.013 C 
HETATM    2  C2  UNL     1     -34.964  14.161  -5.682  1.00 20.00    -0.087 C 
HETATM    3  C8  UNL     1     -35.255  13.383  -4.476  1.00 20.00     0.364 C 
ENDROOT
BRANCH   3   4
HETATM    4  N10 UNL     1     -34.525  13.926  -3.319  1.00 20.00     0.095 N 
HETATM    5  C7  UNL     1     -33.082  13.917  -3.602  1.00 20.00     0.310 C 
BRANCH   4   6
HETATM    6  C9  UNL     1     -34.984  15.246  -2.981  1.00 20.00     0.278 C 
BRANCH   6   7
HETATM    7  C5  UNL     1     -33.841  16.154  -2.681  1.00 20.00     0.018 A 
HETATM    8  C3  UNL     1     -34.021  17.648  -2.742  1.00 20.00     0.011 A 
HETATM    9  C4  UNL     1     -33.769  16.976  -1.417  1.00 20.00    -0.012 A 
HETATM   10  C6  UNL     1     -34.837  16.941  -0.377  1.00 20.00     0.010 C 
ENDBRANCH   6   7
ENDBRANCH   4   6
ENDBRANCH   3   4
TORSDOF 3
ENDMDL
MODEL 3
REMARK VINA RESULT:      -4.1     10.930     13.124
REMARK  3 active torsions:
REMARK  status: ('A' for Active; 'I' for Inactive)
REMARK    1  A    between atoms: C5_5  and  C9_9 
REMARK    2  A    between atoms: C8_8  and  N10_10 
REMARK    3  A    between atoms: C9_9  and  N10_10 
ROOT
HETATM    1  C1  UNL     1     -34.477  16.931  -0.510  1.00 20.00     0.013 C 
HETATM    2  C2  UNL     1     -34.630  16.346  -1.548  1.00 20.00    -0.087 C 
HETATM    3  C8  UNL     1     -34.820  15.633  -2.813  1.00 20.00     0.364 C 
ENDROOT
BRANCH   3   4
HETATM    4  N10 UNL     1     -33.524  15.232  -3.383  1.00 20.00     0.095 N 
HETATM    5  C7  UNL     1     -33.573  13.811  -3.759  1.00 20.00     0.310 C 
BRANCH   4   6
HETATM    6  C9  UNL     1     -33.166  16.058  -4.504  1.00 20.00     0.278 C 
BRANCH   6   7
HETATM    7  C5  UNL     1     -34.369  16.687  -5.116  1.00 20.00     0.018 A 
HETATM    8  C3  UNL     1     -34.236  17.540  -6.350  1.00 20.00     0.011 A 
HETATM    9  C4  UNL     1     -34.951  16.216  -6.428  1.00 20.00    -0.012 A 
HETATM   10  C6  UNL     1     -34.362  15.089  -7.206  1.00 20.00     0.010 C 
ENDBRANCH   6   7
ENDBRANCH   4   6
ENDBRANCH   3   4
TORSDOF 3
ENDMDL
MODEL 4
REMARK VINA RESULT:      -4.1     11.254     12.361
REMARK  3 active torsions:
REMARK  status: ('A' for Active; 'I' for Inactive)
REMARK    1  A    between atoms: C5_5  and  C9_9 
REMARK    2  A    between atoms: C8_8  and  N10_10 
REMARK    3  A    between atoms: C9_9  and  N10_10 
ROOT
HETATM    1  C1  UNL     1     -34.728  16.813  -0.457  1.00 20.00     0.013 C 
HETATM    2  C2  UNL     1     -34.232  17.160  -1.493  1.00 20.00    -0.087 C 
HETATM    3  C8  UNL     1     -33.624  17.588  -2.755  1.00 20.00     0.364 C 
ENDROOT
BRANCH   3   4
HETATM    4  N10 UNL     1     -34.028  16.697  -3.855  1.00 20.00     0.095 N 
HETATM    5  C7  UNL     1     -33.737  17.344  -5.143  1.00 20.00     0.310 C 
BRANCH   4   6
HETATM    6  C9  UNL     1     -33.384  15.415  -3.755  1.00 20.00     0.278 C 
BRANCH   6   7
HETATM    7  C5  UNL     1     -34.372  14.335  -3.480  1.00 20.00     0.018 A 
HETATM    8  C3  UNL     1     -35.842  14.575  -3.703  1.00 20.00     0.011 A 
HETATM    9  C4  UNL     1     -35.099  13.602  -4.582  1.00 20.00    -0.012 A 
HETATM   10  C6  UNL     1     -34.882  13.906  -6.024  1.00 20.00     0.010 C 
ENDBRANCH   6   7
ENDBRANCH   4   6
ENDBRANCH   3   4
TORSDOF 3
ENDMDL
MODEL 5
REMARK VINA RESULT:      -4.1     11.211     12.303
REMARK  3 active torsions:
REMARK  status: ('A' for Active; 'I' for Inactive)
REMARK    1  A    between atoms: C5_5  and  C9_9 
REMARK    2  A    between atoms: C8_8  and  N10_10 
REMARK    3  A    between atoms: C9_9  and  N10_10 
ROOT
HETATM    1  C1  UNL     1     -34.417  15.167  -7.526  1.00 20.00     0.013 C 
HETATM    2  C2  UNL     1     -34.747  14.599  -6.520  1.00 20.00    -0.087 C 
HETATM    3  C8  UNL     1     -35.149  13.902  -5.297  1.00 20.00     0.364 C 
ENDROOT
BRANCH   3   4
HETATM    4  N10 UNL     1     -35.442  14.865  -4.223  1.00 20.00     0.095 N 
HETATM    5  C7  UNL     1     -36.834  14.698  -3.780  1.00 20.00     0.310 C 
BRANCH   4   6
HETATM    6  C9  UNL     1     -34.523  14.723  -3.126  1.00 20.00     0.278 C 
BRANCH   6   7
HETATM    7  C5  UNL     1     -33.641  15.918  -3.005  1.00 20.00     0.018 A 
HETATM    8  C3  UNL     1     -34.202  17.301  -3.207  1.00 20.00     0.011 A 
HETATM    9  C4  UNL     1     -33.729  16.876  -1.840  1.00 20.00    -0.012 A 
HETATM   10  C6  UNL     1     -34.706  16.697  -0.729  1.00 20.00     0.010 C 
ENDBRANCH   6   7
ENDBRANCH   4   6
ENDBRANCH   3   4
TORSDOF 3
ENDMDL
MODEL 6
REMARK VINA RESULT:      -4.0     11.237     12.035
REMARK  3 active torsions:
REMARK  status: ('A' for Active; 'I' for Inactive)
REMARK    1  A    between atoms: C5_5  and  C9_9 
REMARK    2  A    between atoms: C8_8  and  N10_10 
REMARK    3  A    between atoms: C9_9  and  N10_10 
ROOT
HETATM    1  C1  UNL     1     -35.048  13.269  -4.446  1.00 20.00     0.013 C 
HETATM    2  C2  UNL     1     -34.145  13.960  -4.059  1.00 20.00    -0.087 C 
HETATM    3  C8  UNL     1     -33.042  14.800  -3.588  1.00 20.00     0.364 C 
ENDROOT
BRANCH   3   4
HETATM    4  N10 UNL     1     -33.455  16.211  -3.520  1.00 20.00     0.095 N 
HETATM    5  C7  UNL     1     -33.619  16.739  -4.883  1.00 20.00     0.310 C 
BRANCH   4   6
HETATM    6  C9  UNL     1     -34.657  16.369  -2.748  1.00 20.00     0.278 C 
BRANCH   6   7
HETATM    7  C5  UNL     1     -34.355  16.449  -1.291  1.00 20.00     0.018 A 
HETATM    8  C3  UNL     1     -33.664  17.661  -0.724  1.00 20.00     0.011 A 
HETATM    9  C4  UNL     1     -35.098  17.376  -0.359  1.00 20.00    -0.012 A 
HETATM   10  C6  UNL     1     -36.187  18.279  -0.828  1.00 20.00     0.010 C 
ENDBRANCH   6   7
ENDBRANCH   4   6
ENDBRANCH   3   4
TORSDOF 3
ENDMDL
MODEL 7
REMARK VINA RESULT:      -4.0     11.233     12.476
REMARK  3 active torsions:
REMARK  status: ('A' for Active; 'I' for Inactive)
REMARK    1  A    between atoms: C5_5  and  C9_9 
REMARK    2  A    between atoms: C8_8  and  N10_10 
REMARK    3  A    between atoms: C9_9  and  N10_10 
ROOT
HETATM    1  C1  UNL     1     -34.908  17.175   0.128  1.00 20.00     0.013 C 
HETATM    2  C2  UNL     1     -34.382  16.902  -0.917  1.00 20.00    -0.087 C 
HETATM    3  C8  UNL     1     -33.738  16.567  -2.189  1.00 20.00     0.364 C 
ENDROOT
BRANCH   3   4
HETATM    4  N10 UNL     1     -34.590  16.960  -3.323  1.00 20.00     0.095 N 
HETATM    5  C7  UNL     1     -33.751  17.499  -4.403  1.00 20.00     0.310 C 
BRANCH   4   6
HETATM    6  C9  UNL     1     -35.392  15.859  -3.782  1.00 20.00     0.278 C 
BRANCH   6   7
HETATM    7  C5  UNL     1     -34.560  14.645  -4.010  1.00 20.00     0.018 A 
HETATM    8  C3  UNL     1     -35.213  13.308  -4.241  1.00 20.00     0.011 A 
HETATM    9  C4  UNL     1     -34.455  13.976  -5.360  1.00 20.00    -0.012 A 
HETATM   10  C6  UNL     1     -35.179  14.480  -6.561  1.00 20.00     0.010 C 
ENDBRANCH   6   7
ENDBRANCH   4   6
ENDBRANCH   3   4
TORSDOF 3
ENDMDL
MODEL 8
REMARK VINA RESULT:      -4.0     10.977     12.237
REMARK  3 active torsions:
REMARK  status: ('A' for Active; 'I' for Inactive)
REMARK    1  A    between atoms: C5_5  and  C9_9 
REMARK    2  A    between atoms: C8_8  and  N10_10 
REMARK    3  A    between atoms: C9_9  and  N10_10 
ROOT
HETATM    1  C1  UNL     1     -34.440  16.686  -0.838  1.00 20.00     0.013 C 
HETATM    2  C2  UNL     1     -35.259  16.928  -1.683  1.00 20.00    -0.087 C 
HETATM    3  C8  UNL     1     -36.256  17.228  -2.712  1.00 20.00     0.364 C 
ENDROOT
BRANCH   3   4
HETATM    4  N10 UNL     1     -36.758  15.988  -3.326  1.00 20.00     0.095 N 
HETATM    5  C7  UNL     1     -38.073  16.239  -3.934  1.00 20.00     0.310 C 
BRANCH   4   6
HETATM    6  C9  UNL     1     -35.827  15.466  -4.290  1.00 20.00     0.278 C 
BRANCH   6   7
HETATM    7  C5  UNL     1     -35.358  14.106  -3.904  1.00 20.00     0.018 A 
HETATM    8  C3  UNL     1     -34.560  13.274  -4.873  1.00 20.00     0.011 A 
HETATM    9  C4  UNL     1     -33.908  13.798  -3.620  1.00 20.00    -0.012 A 
HETATM   10  C6  UNL     1     -32.838  14.832  -3.707  1.00 20.00     0.010 C 
ENDBRANCH   6   7
ENDBRANCH   4   6
ENDBRANCH   3   4
TORSDOF 3
ENDMDL
MODEL 9
REMARK VINA RESULT:      -3.8     11.175     12.454
REMARK  3 active torsions:
REMARK  status: ('A' for Active; 'I' for Inactive)
REMARK    1  A    between atoms: C5_5  and  C9_9 
REMARK    2  A    between atoms: C8_8  and  N10_10 
REMARK    3  A    between atoms: C9_9  and  N10_10 
ROOT
HETATM    1  C1  UNL     1     -33.709  18.523  -5.771  1.00 20.00     0.013 C 
HETATM    2  C2  UNL     1     -33.538  17.482  -5.197  1.00 20.00    -0.087 C 
HETATM    3  C8  UNL     1     -33.325  16.213  -4.499  1.00 20.00     0.364 C 
ENDROOT
BRANCH   3   4
HETATM    4  N10 UNL     1     -34.589  15.713  -3.932  1.00 20.00     0.095 N 
HETATM    5  C7  UNL     1     -34.386  14.355  -3.404  1.00 20.00     0.310 C 
BRANCH   4   6
HETATM    6  C9  UNL     1     -35.095  16.599  -2.919  1.00 20.00     0.278 C 
BRANCH   6   7
HETATM    7  C5  UNL     1     -34.383  16.401  -1.625  1.00 20.00     0.018 A 
HETATM    8  C3  UNL     1     -33.528  17.500  -1.052  1.00 20.00     0.011 A 
HETATM    9  C4  UNL     1     -34.802  17.099  -0.354  1.00 20.00    -0.012 A 
HETATM   10  C6  UNL     1     -35.958  18.039  -0.301  1.00 20.00     0.010 C 
ENDBRANCH   6   7
ENDBRANCH   4   6
ENDBRANCH   3   4
TORSDOF 3
ENDMDL
