MODEL 1
REMARK VINA RESULT:      -5.5      0.000      0.000
REMARK  4 active torsions:
REMARK  status: ('A' for Active; 'I' for Inactive)
REMARK    1  A    between atoms: C2_2  and  C10_10 
REMARK    2  A    between atoms: C7_7  and  C11_11 
REMARK    3  A    between atoms: C10_10  and  N12_12 
REMARK    4  A    between atoms: C11_11  and  N12_12 
ROOT
HETATM    1  C1  UNL     1     -32.155   8.690   1.439  1.00 20.00    -0.109 C 
HETATM    2  C2  UNL     1     -31.968   7.997   2.403  1.00 20.00    -0.077 C 
HETATM    3  C8  UNL     1     -32.382   9.532   0.265  1.00 20.00     0.112 C 
ENDROOT
BRANCH   2   4
HETATM    4  C10 UNL     1     -31.745   7.147   3.575  1.00 20.00     0.362 C 
BRANCH   4   5
HETATM    5  N12 UNL     1     -32.263   5.791   3.347  1.00 20.00     0.095 N 
HETATM    6  H31 UNL     1     -31.638   5.330   2.667  1.00 20.00     0.317 HD
BRANCH   5   7
HETATM    7  C11 UNL     1     -33.606   5.799   2.886  1.00 20.00     0.279 C 
BRANCH   7   8
HETATM    8  C7  UNL     1     -34.549   5.529   4.060  1.00 20.00    -0.018 C 
HETATM    9  C5  UNL     1     -34.104   6.274   5.325  1.00 20.00     0.011 C 
HETATM   10  C3  UNL     1     -34.726   5.496   6.483  1.00 20.00     0.001 C 
HETATM   11  C4  UNL     1     -34.963   4.078   5.965  1.00 20.00     0.001 C 
HETATM   12  C6  UNL     1     -34.474   4.065   4.518  1.00 20.00     0.011 C 
HETATM   13  C9  UNL     1     -35.982   5.915   3.658  1.00 20.00     0.017 C 
ENDBRANCH   7   8
ENDBRANCH   5   7
ENDBRANCH   4   5
ENDBRANCH   2   4
TORSDOF 4
ENDMDL
MODEL 2
REMARK VINA RESULT:      -4.9     11.287     12.902
REMARK  4 active torsions:
REMARK  status: ('A' for Active; 'I' for Inactive)
REMARK    1  A    between atoms: C2_2  and  C10_10 
REMARK    2  A    between atoms: C7_7  and  C11_11 
REMARK    3  A    between atoms: C10_10  and  N12_12 
REMARK    4  A    between atoms: C11_11  and  N12_12 
ROOT
HETATM    1  C1  UNL     1     -34.195  17.135  -2.030  1.00 20.00    -0.109 C 
HETATM    2  C2  UNL     1     -33.873  17.459  -3.141  1.00 20.00    -0.077 C 
HETATM    3  C8  UNL     1     -34.587  16.741  -0.677  1.00 20.00     0.112 C 
ENDROOT
BRANCH   2   4
HETATM    4  C10 UNL     1     -33.474  17.857  -4.494  1.00 20.00     0.362 C 
BRANCH   4   5
HETATM    5  N12 UNL     1     -33.208  16.678  -5.331  1.00 20.00     0.095 N 
HETATM    6  H31 UNL     1     -32.307  16.834  -5.810  1.00 20.00     0.317 HD
BRANCH   5   7
HETATM    7  C11 UNL     1     -34.250  16.435  -6.265  1.00 20.00     0.279 C 
BRANCH   7   8
HETATM    8  C7  UNL     1     -35.006  15.167  -5.865  1.00 20.00    -0.018 C 
HETATM    9  C5  UNL     1     -36.223  15.488  -4.986  1.00 20.00     0.011 C 
HETATM   10  C3  UNL     1     -36.507  14.200  -4.216  1.00 20.00     0.001 C 
HETATM   11  C4  UNL     1     -35.189  13.427  -4.179  1.00 20.00     0.001 C 
HETATM   12  C6  UNL     1     -34.171  14.283  -4.928  1.00 20.00     0.011 C 
HETATM   13  C9  UNL     1     -35.419  14.402  -7.133  1.00 20.00     0.017 C 
ENDBRANCH   7   8
ENDBRANCH   5   7
ENDBRANCH   4   5
ENDBRANCH   2   4
TORSDOF 4
ENDMDL
MODEL 3
REMARK VINA RESULT:      -4.9     11.194     12.733
REMARK  4 active torsions:
REMARK  status: ('A' for Active; 'I' for Inactive)
REMARK    1  A    between atoms: C2_2  and  C10_10 
REMARK    2  A    between atoms: C7_7  and  C11_11 
REMARK    3  A    between atoms: C10_10  and  N12_12 
REMARK    4  A    between atoms: C11_11  and  N12_12 
ROOT
HETATM    1  C1  UNL     1     -34.839  17.208   0.176  1.00 20.00    -0.109 C 
HETATM    2  C2  UNL     1     -34.390  16.891  -0.892  1.00 20.00    -0.077 C 
HETATM    3  C8  UNL     1     -35.385  17.595   1.476  1.00 20.00     0.112 C 
ENDROOT
BRANCH   2   4
HETATM    4  C10 UNL     1     -33.845  16.509  -2.198  1.00 20.00     0.362 C 
BRANCH   4   5
HETATM    5  N12 UNL     1     -34.495  15.290  -2.702  1.00 20.00     0.095 N 
HETATM    6  H31 UNL     1     -33.763  14.706  -3.138  1.00 20.00     0.317 HD
BRANCH   5   7
HETATM    7  C11 UNL     1     -35.537  15.577  -3.623  1.00 20.00     0.279 C 
BRANCH   7   8
HETATM    8  C7  UNL     1     -35.291  14.811  -4.924  1.00 20.00    -0.018 C 
HETATM    9  C5  UNL     1     -34.143  15.429  -5.735  1.00 20.00     0.011 C 
HETATM   10  C3  UNL     1     -34.388  14.980  -7.174  1.00 20.00     0.001 C 
HETATM   11  C4  UNL     1     -35.883  14.677  -7.277  1.00 20.00     0.001 C 
HETATM   12  C6  UNL     1     -36.470  14.955  -5.896  1.00 20.00     0.011 C 
HETATM   13  C9  UNL     1     -35.013  13.335  -4.599  1.00 20.00     0.017 C 
ENDBRANCH   7   8
ENDBRANCH   5   7
ENDBRANCH   4   5
ENDBRANCH   2   4
TORSDOF 4
ENDMDL
MODEL 4
REMARK VINA RESULT:      -4.9     11.114     12.153
REMARK  4 active torsions:
REMARK  status: ('A' for Active; 'I' for Inactive)
REMARK    1  A    between atoms: C2_2  and  C10_10 
REMARK    2  A    between atoms: C7_7  and  C11_11 
REMARK    3  A    between atoms: C10_10  and  N12_12 
REMARK    4  A    between atoms: C11_11  and  N12_12 
ROOT
HETATM    1  C1  UNL     1     -32.950  18.629   0.385  1.00 20.00    -0.109 C 
HETATM    2  C2  UNL     1     -33.938  18.133  -0.088  1.00 20.00    -0.077 C 
HETATM    3  C8  UNL     1     -31.749  19.231   0.962  1.00 20.00     0.112 C 
ENDROOT
BRANCH   2   4
HETATM    4  C10 UNL     1     -35.138  17.523  -0.665  1.00 20.00     0.362 C 
BRANCH   4   5
HETATM    5  N12 UNL     1     -34.831  16.208  -1.247  1.00 20.00     0.095 N 
HETATM    6  H31 UNL     1     -34.525  15.592  -0.478  1.00 20.00     0.317 HD
BRANCH   5   7
HETATM    7  C11 UNL     1     -33.841  16.288  -2.263  1.00 20.00     0.279 C 
BRANCH   7   8
HETATM    8  C7  UNL     1     -34.326  15.540  -3.505  1.00 20.00    -0.018 C 
HETATM    9  C5  UNL     1     -35.775  15.061  -3.347  1.00 20.00     0.011 C 
HETATM   10  C3  UNL     1     -35.917  13.897  -4.326  1.00 20.00     0.001 C 
HETATM   11  C4  UNL     1     -34.506  13.352  -4.546  1.00 20.00     0.001 C 
HETATM   12  C6  UNL     1     -33.578  14.212  -3.693  1.00 20.00     0.011 C 
HETATM   13  C9  UNL     1     -34.168  16.447  -4.737  1.00 20.00     0.017 C 
ENDBRANCH   7   8
ENDBRANCH   5   7
ENDBRANCH   4   5
ENDBRANCH   2   4
TORSDOF 4
ENDMDL
MODEL 5
REMARK VINA RESULT:      -4.9     11.142     13.045
REMARK  4 active torsions:
REMARK  status: ('A' for Active; 'I' for Inactive)
REMARK    1  A    between atoms: C2_2  and  C10_10 
REMARK    2  A    between atoms: C7_7  and  C11_11 
REMARK    3  A    between atoms: C10_10  and  N12_12 
REMARK    4  A    between atoms: C11_11  and  N12_12 
ROOT
HETATM    1  C1  UNL     1     -34.783  15.934  -7.250  1.00 20.00    -0.109 C 
HETATM    2  C2  UNL     1     -34.382  16.925  -6.701  1.00 20.00    -0.077 C 
HETATM    3  C8  UNL     1     -35.269  14.728  -7.918  1.00 20.00     0.112 C 
ENDROOT
BRANCH   2   4
HETATM    4  C10 UNL     1     -33.893  18.131  -6.026  1.00 20.00     0.362 C 
BRANCH   4   5
HETATM    5  N12 UNL     1     -33.465  17.826  -4.654  1.00 20.00     0.095 N 
HETATM    6  H31 UNL     1     -32.798  17.039  -4.704  1.00 20.00     0.317 HD
BRANCH   5   7
HETATM    7  C11 UNL     1     -34.560  17.515  -3.804  1.00 20.00     0.279 C 
BRANCH   7   8
HETATM    8  C7  UNL     1     -34.398  16.092  -3.267  1.00 20.00    -0.018 C 
HETATM    9  C5  UNL     1     -33.086  15.453  -3.744  1.00 20.00     0.011 C 
HETATM   10  C3  UNL     1     -33.321  13.947  -3.649  1.00 20.00     0.001 C 
HETATM   11  C4  UNL     1     -34.835  13.747  -3.730  1.00 20.00     0.001 C 
HETATM   12  C6  UNL     1     -35.443  15.140  -3.867  1.00 20.00     0.011 C 
HETATM   13  C9  UNL     1     -34.483  16.117  -1.732  1.00 20.00     0.017 C 
ENDBRANCH   7   8
ENDBRANCH   5   7
ENDBRANCH   4   5
ENDBRANCH   2   4
TORSDOF 4
ENDMDL
MODEL 6
REMARK VINA RESULT:      -4.8     11.064     12.363
REMARK  4 active torsions:
REMARK  status: ('A' for Active; 'I' for Inactive)
REMARK    1  A    between atoms: C2_2  and  C10_10 
REMARK    2  A    between atoms: C7_7  and  C11_11 
REMARK    3  A    between atoms: C10_10  and  N12_12 
REMARK    4  A    between atoms: C11_11  and  N12_12 
ROOT
HETATM    1  C1  UNL     1     -35.295  17.567   1.340  1.00 20.00    -0.109 C 
HETATM    2  C2  UNL     1     -34.808  17.287   0.277  1.00 20.00    -0.077 C 
HETATM    3  C8  UNL     1     -35.888  17.908   2.632  1.00 20.00     0.112 C 
ENDROOT
BRANCH   2   4
HETATM    4  C10 UNL     1     -34.220  16.941  -1.019  1.00 20.00     0.362 C 
BRANCH   4   5
HETATM    5  N12 UNL     1     -35.122  16.074  -1.791  1.00 20.00     0.095 N 
HETATM    6  H31 UNL     1     -34.711  15.126  -1.797  1.00 20.00     0.317 HD
BRANCH   5   7
HETATM    7  C11 UNL     1     -35.327  16.551  -3.112  1.00 20.00     0.279 C 
BRANCH   7   8
HETATM    8  C7  UNL     1     -34.647  15.607  -4.105  1.00 20.00    -0.018 C 
HETATM    9  C5  UNL     1     -35.515  15.375  -5.350  1.00 20.00     0.011 C 
HETATM   10  C3  UNL     1     -35.033  14.046  -5.927  1.00 20.00     0.001 C 
HETATM   11  C4  UNL     1     -34.400  13.281  -4.765  1.00 20.00     0.001 C 
HETATM   12  C6  UNL     1     -34.528  14.185  -3.541  1.00 20.00     0.011 C 
HETATM   13  C9  UNL     1     -33.269  16.175  -4.482  1.00 20.00     0.017 C 
ENDBRANCH   7   8
ENDBRANCH   5   7
ENDBRANCH   4   5
ENDBRANCH   2   4
TORSDOF 4
ENDMDL
MODEL 7
REMARK VINA RESULT:      -4.8     11.650     12.613
REMARK  4 active torsions:
REMARK  status: ('A' for Active; 'I' for Inactive)
REMARK    1  A    between atoms: C2_2  and  C10_10 
REMARK    2  A    between atoms: C7_7  and  C11_11 
REMARK    3  A    between atoms: C10_10  and  N12_12 
REMARK    4  A    between atoms: C11_11  and  N12_12 
ROOT
HETATM    1  C1  UNL     1     -34.158  16.414  -1.761  1.00 20.00    -0.109 C 
HETATM    2  C2  UNL     1     -33.576  15.986  -2.722  1.00 20.00    -0.077 C 
HETATM    3  C8  UNL     1     -34.866  16.934  -0.593  1.00 20.00     0.112 C 
ENDROOT
BRANCH   2   4
HETATM    4  C10 UNL     1     -32.863  15.458  -3.889  1.00 20.00     0.362 C 
BRANCH   4   5
HETATM    5  N12 UNL     1     -33.742  14.601  -4.698  1.00 20.00     0.095 N 
HETATM    6  H31 UNL     1     -33.163  13.837  -5.081  1.00 20.00     0.317 HD
BRANCH   5   7
HETATM    7  C11 UNL     1     -34.391  15.322  -5.734  1.00 20.00     0.279 C 
BRANCH   7   8
HETATM    8  C7  UNL     1     -35.899  15.334  -5.479  1.00 20.00    -0.018 C 
HETATM    9  C5  UNL     1     -36.356  16.658  -4.849  1.00 20.00     0.011 C 
HETATM   10  C3  UNL     1     -37.668  16.328  -4.140  1.00 20.00     0.001 C 
HETATM   11  C4  UNL     1     -37.628  14.828  -3.848  1.00 20.00     0.001 C 
HETATM   12  C6  UNL     1     -36.296  14.322  -4.395  1.00 20.00     0.011 C 
HETATM   13  C9  UNL     1     -36.640  15.059  -6.798  1.00 20.00     0.017 C 
ENDBRANCH   7   8
ENDBRANCH   5   7
ENDBRANCH   4   5
ENDBRANCH   2   4
TORSDOF 4
ENDMDL
MODEL 8
REMARK VINA RESULT:      -4.6     11.029     13.620
REMARK  4 active torsions:
REMARK  status: ('A' for Active; 'I' for Inactive)
REMARK    1  A    between atoms: C2_2  and  C10_10 
REMARK    2  A    between atoms: C7_7  and  C11_11 
REMARK    3  A    between atoms: C10_10  and  N12_12 
REMARK    4  A    between atoms: C11_11  and  N12_12 
ROOT
HETATM    1  C1  UNL     1     -34.447  15.700  -2.284  1.00 20.00    -0.109 C 
HETATM    2  C2  UNL     1     -34.447  14.770  -3.045  1.00 20.00    -0.077 C 
HETATM    3  C8  UNL     1     -34.447  16.833  -1.360  1.00 20.00     0.112 C 
ENDROOT
BRANCH   2   4
HETATM    4  C10 UNL     1     -34.455  13.636  -3.973  1.00 20.00     0.362 C 
BRANCH   4   5
HETATM    5  N12 UNL     1     -34.029  14.053  -5.316  1.00 20.00     0.095 N 
HETATM    6  H31 UNL     1     -33.301  14.777  -5.200  1.00 20.00     0.317 HD
BRANCH   5   7
HETATM    7  C11 UNL     1     -35.111  14.537  -6.098  1.00 20.00     0.279 C 
BRANCH   7   8
HETATM    8  C7  UNL     1     -34.892  16.019  -6.408  1.00 20.00    -0.018 C 
HETATM    9  C5  UNL     1     -33.516  16.499  -5.928  1.00 20.00     0.011 C 
HETATM   10  C3  UNL     1     -33.659  18.011  -5.761  1.00 20.00     0.001 C 
HETATM   11  C4  UNL     1     -35.149  18.275  -5.543  1.00 20.00     0.001 C 
HETATM   12  C6  UNL     1     -35.835  16.912  -5.590  1.00 20.00     0.011 C 
HETATM   13  C9  UNL     1     -35.071  16.253  -7.917  1.00 20.00     0.017 C 
ENDBRANCH   7   8
ENDBRANCH   5   7
ENDBRANCH   4   5
ENDBRANCH   2   4
TORSDOF 4
ENDMDL
MODEL 9
REMARK VINA RESULT:      -4.6     11.476     13.651
REMARK  4 active torsions:
REMARK  status: ('A' for Active; 'I' for Inactive)
REMARK    1  A    between atoms: C2_2  and  C10_10 
REMARK    2  A    between atoms: C7_7  and  C11_11 
REMARK    3  A    between atoms: C10_10  and  N12_12 
REMARK    4  A    between atoms: C11_11  and  N12_12 
ROOT
HETATM    1  C1  UNL     1     -34.422  16.430  -1.532  1.00 20.00    -0.109 C 
HETATM    2  C2  UNL     1     -34.206  15.673  -2.440  1.00 20.00    -0.077 C 
HETATM    3  C8  UNL     1     -34.686  17.350  -0.427  1.00 20.00     0.112 C 
ENDROOT
BRANCH   2   4
HETATM    4  C10 UNL     1     -33.942  14.744  -3.542  1.00 20.00     0.362 C 
BRANCH   4   5
HETATM    5  N12 UNL     1     -33.304  15.438  -4.671  1.00 20.00     0.095 N 
HETATM    6  H31 UNL     1     -32.341  15.675  -4.385  1.00 20.00     0.317 HD
BRANCH   5   7
HETATM    7  C11 UNL     1     -34.022  16.599  -5.064  1.00 20.00     0.279 C 
BRANCH   7   8
HETATM    8  C7  UNL     1     -34.776  16.315  -6.364  1.00 20.00    -0.018 C 
HETATM    9  C5  UNL     1     -36.252  15.989  -6.102  1.00 20.00     0.011 C 
HETATM   10  C3  UNL     1     -36.706  15.192  -7.323  1.00 20.00     0.001 C 
HETATM   11  C4  UNL     1     -35.442  14.570  -7.918  1.00 20.00     0.001 C 
HETATM   12  C6  UNL     1     -34.286  15.022  -7.030  1.00 20.00     0.011 C 
HETATM   13  C9  UNL     1     -34.628  17.519  -7.309  1.00 20.00     0.017 C 
ENDBRANCH   7   8
ENDBRANCH   5   7
ENDBRANCH   4   5
ENDBRANCH   2   4
TORSDOF 4
ENDMDL
