MODEL 1
REMARK VINA RESULT:      -4.4      0.000      0.000
REMARK  3 active torsions:
REMARK  status: ('A' for Active; 'I' for Inactive)
REMARK    1  A    between atoms: C4_4  and  C8_8 
REMARK    2  A    between atoms: C7_7  and  N10_10 
REMARK    3  A    between atoms: C8_8  and  N10_10 
ROOT
HETATM    1  C1  UNL     1     -34.252  13.690  -4.073  1.00 20.00     0.089 C 
HETATM    2  C7  UNL     1     -33.353  14.782  -3.702  1.00 20.00     0.394 C 
HETATM    3  N9  UNL     1     -34.963  12.822  -4.368  1.00 20.00    -0.195 NA
ENDROOT
BRANCH   2   4
HETATM    4  N10 UNL     1     -34.086  16.054  -3.600  1.00 20.00     0.097 N 
HETATM    5  C6  UNL     1     -34.666  16.391  -4.909  1.00 20.00     0.311 C 
BRANCH   4   6
HETATM    6  C8  UNL     1     -35.096  15.995  -2.579  1.00 20.00     0.278 C 
BRANCH   6   7
HETATM    7  C4  UNL     1     -34.531  16.332  -1.243  1.00 20.00     0.018 A 
HETATM    8  C2  UNL     1     -33.643  17.538  -1.079  1.00 20.00     0.011 A 
HETATM    9  C3  UNL     1     -35.031  17.541  -0.495  1.00 20.00    -0.012 A 
HETATM   10  C5  UNL     1     -35.223  17.481   0.981  1.00 20.00     0.010 C 
ENDBRANCH   6   7
ENDBRANCH   4   6
ENDBRANCH   2   4
TORSDOF 3
ENDMDL
MODEL 2
REMARK VINA RESULT:      -4.3     10.822     11.680
REMARK  3 active torsions:
REMARK  status: ('A' for Active; 'I' for Inactive)
REMARK    1  A    between atoms: C4_4  and  C8_8 
REMARK    2  A    between atoms: C7_7  and  N10_10 
REMARK    3  A    between atoms: C8_8  and  N10_10 
ROOT
HETATM    1  C1  UNL     1     -32.174   8.769   1.682  1.00 20.00     0.089 C 
HETATM    2  C7  UNL     1     -31.867   7.853   2.779  1.00 20.00     0.394 C 
HETATM    3  N9  UNL     1     -32.415   9.499   0.812  1.00 20.00    -0.195 NA
ENDROOT
BRANCH   2   4
HETATM    4  N10 UNL     1     -32.848   6.758   2.838  1.00 20.00     0.097 N 
HETATM    5  C6  UNL     1     -32.145   5.480   3.036  1.00 20.00     0.311 C 
BRANCH   4   6
HETATM    6  C8  UNL     1     -33.823   6.984   3.869  1.00 20.00     0.278 C 
BRANCH   6   7
HETATM    7  C4  UNL     1     -33.703   5.972   4.955  1.00 20.00     0.018 A 
HETATM    8  C2  UNL     1     -34.183   6.293   6.346  1.00 20.00     0.011 A 
HETATM    9  C3  UNL     1     -34.935   5.299   5.501  1.00 20.00    -0.012 A 
HETATM   10  C5  UNL     1     -34.906   3.850   5.845  1.00 20.00     0.010 C 
ENDBRANCH   6   7
ENDBRANCH   4   6
ENDBRANCH   2   4
TORSDOF 3
ENDMDL
MODEL 3
REMARK VINA RESULT:      -4.3      1.031      1.614
REMARK  3 active torsions:
REMARK  status: ('A' for Active; 'I' for Inactive)
REMARK    1  A    between atoms: C4_4  and  C8_8 
REMARK    2  A    between atoms: C7_7  and  N10_10 
REMARK    3  A    between atoms: C8_8  and  N10_10 
ROOT
HETATM    1  C1  UNL     1     -34.630  13.780  -5.024  1.00 20.00     0.089 C 
HETATM    2  C7  UNL     1     -34.413  15.139  -5.520  1.00 20.00     0.394 C 
HETATM    3  N9  UNL     1     -34.805  12.702  -4.633  1.00 20.00    -0.195 NA
ENDROOT
BRANCH   2   4
HETATM    4  N10 UNL     1     -33.344  15.809  -4.762  1.00 20.00     0.097 N 
HETATM    5  C6  UNL     1     -33.404  17.259  -5.008  1.00 20.00     0.311 C 
BRANCH   4   6
HETATM    6  C8  UNL     1     -33.432  15.512  -3.358  1.00 20.00     0.278 C 
BRANCH   6   7
HETATM    7  C4  UNL     1     -34.100  16.616  -2.616  1.00 20.00     0.018 A 
HETATM    8  C2  UNL     1     -35.569  16.532  -2.294  1.00 20.00     0.011 A 
HETATM    9  C3  UNL     1     -34.549  16.406  -1.193  1.00 20.00    -0.012 A 
HETATM   10  C5  UNL     1     -34.392  17.496  -0.190  1.00 20.00     0.010 C 
ENDBRANCH   6   7
ENDBRANCH   4   6
ENDBRANCH   2   4
TORSDOF 3
ENDMDL
MODEL 4
REMARK VINA RESULT:      -4.1      1.704      2.294
REMARK  3 active torsions:
REMARK  status: ('A' for Active; 'I' for Inactive)
REMARK    1  A    between atoms: C4_4  and  C8_8 
REMARK    2  A    between atoms: C7_7  and  N10_10 
REMARK    3  A    between atoms: C8_8  and  N10_10 
ROOT
HETATM    1  C1  UNL     1     -36.927  14.735  -3.945  1.00 20.00     0.089 C 
HETATM    2  C7  UNL     1     -35.608  15.286  -4.253  1.00 20.00     0.394 C 
HETATM    3  N9  UNL     1     -37.974  14.300  -3.703  1.00 20.00    -0.195 NA
ENDROOT
BRANCH   2   4
HETATM    4  N10 UNL     1     -34.615  14.858  -3.255  1.00 20.00     0.097 N 
HETATM    5  C6  UNL     1     -33.932  13.644  -3.732  1.00 20.00     0.311 C 
BRANCH   4   6
HETATM    6  C8  UNL     1     -33.676  15.908  -2.967  1.00 20.00     0.278 C 
BRANCH   6   7
HETATM    7  C4  UNL     1     -34.293  16.964  -2.118  1.00 20.00     0.018 A 
HETATM    8  C2  UNL     1     -34.684  16.660  -0.696  1.00 20.00     0.011 A 
HETATM    9  C3  UNL     1     -33.515  17.567  -0.978  1.00 20.00    -0.012 A 
HETATM   10  C5  UNL     1     -33.614  19.027  -0.694  1.00 20.00     0.010 C 
ENDBRANCH   6   7
ENDBRANCH   4   6
ENDBRANCH   2   4
TORSDOF 3
ENDMDL
MODEL 5
REMARK VINA RESULT:      -4.0      1.462      1.927
REMARK  3 active torsions:
REMARK  status: ('A' for Active; 'I' for Inactive)
REMARK    1  A    between atoms: C4_4  and  C8_8 
REMARK    2  A    between atoms: C7_7  and  N10_10 
REMARK    3  A    between atoms: C8_8  and  N10_10 
ROOT
HETATM    1  C1  UNL     1     -34.840  14.100  -5.786  1.00 20.00     0.089 C 
HETATM    2  C7  UNL     1     -35.078  13.344  -4.557  1.00 20.00     0.394 C 
HETATM    3  N9  UNL     1     -34.653  14.696  -6.763  1.00 20.00    -0.195 NA
ENDROOT
BRANCH   2   4
HETATM    4  N10 UNL     1     -34.442  14.003  -3.405  1.00 20.00     0.097 N 
HETATM    5  C6  UNL     1     -32.993  14.109  -3.640  1.00 20.00     0.311 C 
BRANCH   4   6
HETATM    6  C8  UNL     1     -35.027  15.291  -3.151  1.00 20.00     0.278 C 
BRANCH   6   7
HETATM    7  C4  UNL     1     -34.332  15.986  -2.031  1.00 20.00     0.018 A 
HETATM    8  C2  UNL     1     -33.874  17.411  -2.194  1.00 20.00     0.011 A 
HETATM    9  C3  UNL     1     -35.028  17.092  -1.281  1.00 20.00    -0.012 A 
HETATM   10  C5  UNL     1     -34.870  17.208   0.196  1.00 20.00     0.010 C 
ENDBRANCH   6   7
ENDBRANCH   4   6
ENDBRANCH   2   4
TORSDOF 3
ENDMDL
MODEL 6
REMARK VINA RESULT:      -3.8      1.857      4.946
REMARK  3 active torsions:
REMARK  status: ('A' for Active; 'I' for Inactive)
REMARK    1  A    between atoms: C4_4  and  C8_8 
REMARK    2  A    between atoms: C7_7  and  N10_10 
REMARK    3  A    between atoms: C8_8  and  N10_10 
ROOT
HETATM    1  C1  UNL     1     -34.661  16.243  -1.545  1.00 20.00     0.089 C 
HETATM    2  C7  UNL     1     -34.830  15.568  -2.831  1.00 20.00     0.394 C 
HETATM    3  N9  UNL     1     -34.530  16.779  -0.525  1.00 20.00    -0.195 NA
ENDROOT
BRANCH   2   4
HETATM    4  N10 UNL     1     -33.525  15.265  -3.440  1.00 20.00     0.097 N 
HETATM    5  C6  UNL     1     -33.461  13.834  -3.776  1.00 20.00     0.311 C 
BRANCH   4   6
HETATM    6  C8  UNL     1     -33.284  16.085  -4.596  1.00 20.00     0.278 C 
BRANCH   6   7
HETATM    7  C4  UNL     1     -34.423  16.016  -5.552  1.00 20.00     0.018 A 
HETATM    8  C2  UNL     1     -34.483  16.954  -6.729  1.00 20.00     0.011 A 
HETATM    9  C3  UNL     1     -34.207  15.490  -6.948  1.00 20.00    -0.012 A 
HETATM   10  C5  UNL     1     -35.235  14.622  -7.587  1.00 20.00     0.010 C 
ENDBRANCH   6   7
ENDBRANCH   4   6
ENDBRANCH   2   4
TORSDOF 3
ENDMDL
MODEL 7
REMARK VINA RESULT:      -3.8      1.845      4.692
REMARK  3 active torsions:
REMARK  status: ('A' for Active; 'I' for Inactive)
REMARK    1  A    between atoms: C4_4  and  C8_8 
REMARK    2  A    between atoms: C7_7  and  N10_10 
REMARK    3  A    between atoms: C8_8  and  N10_10 
ROOT
HETATM    1  C1  UNL     1     -34.233  13.615  -4.077  1.00 20.00     0.089 C 
HETATM    2  C7  UNL     1     -33.367  14.731  -3.700  1.00 20.00     0.394 C 
HETATM    3  N9  UNL     1     -34.916  12.726  -4.376  1.00 20.00    -0.195 NA
ENDROOT
BRANCH   2   4
HETATM    4  N10 UNL     1     -34.057  16.017  -3.892  1.00 20.00     0.097 N 
HETATM    5  C6  UNL     1     -33.751  16.911  -2.764  1.00 20.00     0.311 C 
BRANCH   4   6
HETATM    6  C8  UNL     1     -33.701  16.619  -5.148  1.00 20.00     0.278 C 
BRANCH   6   7
HETATM    7  C4  UNL     1     -34.746  16.371  -6.179  1.00 20.00     0.018 A 
HETATM    8  C2  UNL     1     -34.575  16.907  -7.576  1.00 20.00     0.011 A 
HETATM    9  C3  UNL     1     -34.473  15.426  -7.321  1.00 20.00    -0.012 A 
HETATM   10  C5  UNL     1     -35.541  14.508  -7.804  1.00 20.00     0.010 C 
ENDBRANCH   6   7
ENDBRANCH   4   6
ENDBRANCH   2   4
TORSDOF 3
ENDMDL
MODEL 8
REMARK VINA RESULT:      -3.8      2.482      5.187
REMARK  3 active torsions:
REMARK  status: ('A' for Active; 'I' for Inactive)
REMARK    1  A    between atoms: C4_4  and  C8_8 
REMARK    2  A    between atoms: C7_7  and  N10_10 
REMARK    3  A    between atoms: C8_8  and  N10_10 
ROOT
HETATM    1  C1  UNL     1     -32.152  19.119   0.167  1.00 20.00     0.089 C 
HETATM    2  C7  UNL     1     -33.198  18.943  -0.840  1.00 20.00     0.394 C 
HETATM    3  N9  UNL     1     -31.322  19.263   0.964  1.00 20.00    -0.195 NA
ENDROOT
BRANCH   2   4
HETATM    4  N10 UNL     1     -33.581  17.527  -0.955  1.00 20.00     0.097 N 
HETATM    5  C6  UNL     1     -34.704  17.247  -0.046  1.00 20.00     0.311 C 
BRANCH   4   6
HETATM    6  C8  UNL     1     -33.908  17.182  -2.312  1.00 20.00     0.278 C 
BRANCH   6   7
HETATM    7  C4  UNL     1     -34.315  15.754  -2.421  1.00 20.00     0.018 A 
HETATM    8  C2  UNL     1     -35.574  15.380  -3.160  1.00 20.00     0.011 A 
HETATM    9  C3  UNL     1     -34.228  15.042  -3.746  1.00 20.00    -0.012 A 
HETATM   10  C5  UNL     1     -33.771  13.626  -3.806  1.00 20.00     0.010 C 
ENDBRANCH   6   7
ENDBRANCH   4   6
ENDBRANCH   2   4
TORSDOF 3
ENDMDL
MODEL 9
REMARK VINA RESULT:      -3.6     12.344     13.939
REMARK  3 active torsions:
REMARK  status: ('A' for Active; 'I' for Inactive)
REMARK    1  A    between atoms: C4_4  and  C8_8 
REMARK    2  A    between atoms: C7_7  and  N10_10 
REMARK    3  A    between atoms: C8_8  and  N10_10 
ROOT
HETATM    1  C1  UNL     1     -42.282   1.917  -4.553  1.00 20.00     0.089 C 
HETATM    2  C7  UNL     1     -41.496   2.239  -3.362  1.00 20.00     0.394 C 
HETATM    3  N9  UNL     1     -42.903   1.659  -5.498  1.00 20.00    -0.195 NA
ENDROOT
BRANCH   2   4
HETATM    4  N10 UNL     1     -42.011   3.452  -2.707  1.00 20.00     0.097 N 
HETATM    5  C6  UNL     1     -43.201   3.111  -1.910  1.00 20.00     0.311 C 
BRANCH   4   6
HETATM    6  C8  UNL     1     -41.002   4.079  -1.899  1.00 20.00     0.278 C 
BRANCH   6   7
HETATM    7  C4  UNL     1     -41.581   5.163  -1.059  1.00 20.00     0.018 A 
HETATM    8  C2  UNL     1     -40.731   5.861  -0.029  1.00 20.00     0.011 A 
HETATM    9  C3  UNL     1     -41.159   6.593  -1.274  1.00 20.00    -0.012 A 
HETATM   10  C5  UNL     1     -42.162   7.691  -1.189  1.00 20.00     0.010 C 
ENDBRANCH   6   7
ENDBRANCH   4   6
ENDBRANCH   2   4
TORSDOF 3
ENDMDL
