MODEL 1
REMARK VINA RESULT:      -4.3      0.000      0.000
REMARK  3 active torsions:
REMARK  status: ('A' for Active; 'I' for Inactive)
REMARK    1  A    between atoms: C1_1  and  C6_6 
REMARK    2  A    between atoms: C6_6  and  C7_7 
REMARK    3  A    between atoms: C7_7  and  C8_8 
ROOT
HETATM    1  C2  UNL     1     -34.688  16.358  -1.438  1.00 20.00     0.011 C 
HETATM    2  C7  UNL     1     -34.330  15.959  -2.882  1.00 20.00    -0.003 C 
ENDROOT
BRANCH   2   3
HETATM    3  C6  UNL     1     -35.280  14.824  -3.336  1.00 20.00     0.101 C 
BRANCH   3   4
HETATM    4  C1  UNL     1     -34.547  13.586  -3.837  1.00 20.00     0.219 C 
HETATM    5  O9  UNL     1     -35.118  12.651  -4.390  1.00 20.00    -0.280 OA
HETATM    6 CL10 UNL     1     -32.827  13.703  -3.579  1.00 20.00    -0.044 Cl
ENDBRANCH   3   4
ENDBRANCH   2   3
BRANCH   2   7
HETATM    7  C8  UNL     1     -34.309  17.178  -3.881  1.00 20.00    -0.048 C 
HETATM    8  C3  UNL     1     -33.856  18.466  -3.159  1.00 20.00     0.015 C 
HETATM    9  C4  UNL     1     -35.731  17.445  -4.425  1.00 20.00     0.015 C 
HETATM   10  C5  UNL     1     -33.370  16.941  -5.078  1.00 20.00     0.015 C 
ENDBRANCH   2   7
TORSDOF 3
ENDMDL
MODEL 2
REMARK VINA RESULT:      -4.0      1.582      2.542
REMARK  3 active torsions:
REMARK  status: ('A' for Active; 'I' for Inactive)
REMARK    1  A    between atoms: C1_1  and  C6_6 
REMARK    2  A    between atoms: C6_6  and  C7_7 
REMARK    3  A    between atoms: C7_7  and  C8_8 
ROOT
HETATM    1  C2  UNL     1     -33.350  16.672  -4.789  1.00 20.00     0.011 C 
HETATM    2  C7  UNL     1     -34.494  16.199  -3.872  1.00 20.00    -0.003 C 
ENDROOT
BRANCH   2   3
HETATM    3  C6  UNL     1     -34.232  14.730  -3.464  1.00 20.00     0.101 C 
BRANCH   3   4
HETATM    4  C1  UNL     1     -35.244  13.750  -4.043  1.00 20.00     0.219 C 
HETATM    5  O9  UNL     1     -34.935  12.635  -4.453  1.00 20.00    -0.280 OA
HETATM    6 CL10 UNL     1     -36.865  14.388  -3.990  1.00 20.00    -0.044 Cl
ENDBRANCH   3   4
ENDBRANCH   2   3
BRANCH   2   7
HETATM    7  C8  UNL     1     -34.737  17.146  -2.636  1.00 20.00    -0.048 C 
HETATM    8  C3  UNL     1     -36.137  17.793  -2.711  1.00 20.00     0.015 C 
HETATM    9  C4  UNL     1     -33.708  18.300  -2.640  1.00 20.00     0.015 C 
HETATM   10  C5  UNL     1     -34.621  16.400  -1.293  1.00 20.00     0.015 C 
ENDBRANCH   2   7
TORSDOF 3
ENDMDL
MODEL 3
REMARK VINA RESULT:      -4.0      2.481      3.175
REMARK  3 active torsions:
REMARK  status: ('A' for Active; 'I' for Inactive)
REMARK    1  A    between atoms: C1_1  and  C6_6 
REMARK    2  A    between atoms: C6_6  and  C7_7 
REMARK    3  A    between atoms: C7_7  and  C8_8 
ROOT
HETATM    1  C2  UNL     1     -34.773  13.243  -4.302  1.00 20.00     0.011 C 
HETATM    2  C7  UNL     1     -34.972  14.770  -4.261  1.00 20.00    -0.003 C 
ENDROOT
BRANCH   2   3
HETATM    3  C6  UNL     1     -36.244  15.085  -3.439  1.00 20.00     0.101 C 
BRANCH   3   4
HETATM    4  C1  UNL     1     -37.537  14.807  -4.195  1.00 20.00     0.219 C 
HETATM    5  O9  UNL     1     -38.508  14.261  -3.678  1.00 20.00    -0.280 OA
HETATM    6 CL10 UNL     1     -37.473  15.407  -5.829  1.00 20.00    -0.044 Cl
ENDBRANCH   3   4
ENDBRANCH   2   3
BRANCH   2   7
HETATM    7  C8  UNL     1     -33.702  15.552  -3.751  1.00 20.00    -0.048 C 
HETATM    8  C3  UNL     1     -33.990  16.237  -2.397  1.00 20.00     0.015 C 
HETATM    9  C4  UNL     1     -33.329  16.671  -4.750  1.00 20.00     0.015 C 
HETATM   10  C5  UNL     1     -32.478  14.633  -3.575  1.00 20.00     0.015 C 
ENDBRANCH   2   7
TORSDOF 3
ENDMDL
MODEL 4
REMARK VINA RESULT:      -4.0      1.539      2.440
REMARK  3 active torsions:
REMARK  status: ('A' for Active; 'I' for Inactive)
REMARK    1  A    between atoms: C1_1  and  C6_6 
REMARK    2  A    between atoms: C6_6  and  C7_7 
REMARK    3  A    between atoms: C7_7  and  C8_8 
ROOT
HETATM    1  C2  UNL     1     -36.511  14.902  -3.674  1.00 20.00     0.011 C 
HETATM    2  C7  UNL     1     -35.234  15.075  -2.830  1.00 20.00    -0.003 C 
ENDROOT
BRANCH   2   3
HETATM    3  C6  UNL     1     -34.041  14.456  -3.598  1.00 20.00     0.101 C 
BRANCH   3   4
HETATM    4  C1  UNL     1     -34.457  13.693  -4.850  1.00 20.00     0.219 C 
HETATM    5  O9  UNL     1     -34.808  12.518  -4.829  1.00 20.00    -0.280 OA
HETATM    6 CL10 UNL     1     -34.425  14.708  -6.266  1.00 20.00    -0.044 Cl
ENDBRANCH   3   4
ENDBRANCH   2   3
BRANCH   2   7
HETATM    7  C8  UNL     1     -34.973  16.566  -2.390  1.00 20.00    -0.048 C 
HETATM    8  C3  UNL     1     -33.791  17.169  -3.180  1.00 20.00     0.015 C 
HETATM    9  C4  UNL     1     -34.587  16.619  -0.894  1.00 20.00     0.015 C 
HETATM   10  C5  UNL     1     -36.205  17.465  -2.604  1.00 20.00     0.015 C 
ENDBRANCH   2   7
TORSDOF 3
ENDMDL
MODEL 5
REMARK VINA RESULT:      -4.0      1.539      2.123
REMARK  3 active torsions:
REMARK  status: ('A' for Active; 'I' for Inactive)
REMARK    1  A    between atoms: C1_1  and  C6_6 
REMARK    2  A    between atoms: C6_6  and  C7_7 
REMARK    3  A    between atoms: C7_7  and  C8_8 
ROOT
HETATM    1  C2  UNL     1     -36.514  14.941  -3.636  1.00 20.00     0.011 C 
HETATM    2  C7  UNL     1     -35.221  15.116  -2.817  1.00 20.00    -0.003 C 
ENDROOT
BRANCH   2   3
HETATM    3  C6  UNL     1     -34.041  14.507  -3.611  1.00 20.00     0.101 C 
BRANCH   3   4
HETATM    4  C1  UNL     1     -34.482  13.688  -4.818  1.00 20.00     0.219 C 
HETATM    5  O9  UNL     1     -34.852  12.521  -4.732  1.00 20.00    -0.280 OA
HETATM    6 CL10 UNL     1     -34.448  14.628  -6.285  1.00 20.00    -0.044 Cl
ENDBRANCH   3   4
ENDBRANCH   2   3
BRANCH   2   7
HETATM    7  C8  UNL     1     -34.959  16.606  -2.373  1.00 20.00    -0.048 C 
HETATM    8  C3  UNL     1     -34.569  16.669  -0.880  1.00 20.00     0.015 C 
HETATM    9  C4  UNL     1     -36.248  17.444  -2.537  1.00 20.00     0.015 C 
HETATM   10  C5  UNL     1     -33.839  17.275  -3.193  1.00 20.00     0.015 C 
ENDBRANCH   2   7
TORSDOF 3
ENDMDL
MODEL 6
REMARK VINA RESULT:      -4.0      2.545      3.390
REMARK  3 active torsions:
REMARK  status: ('A' for Active; 'I' for Inactive)
REMARK    1  A    between atoms: C1_1  and  C6_6 
REMARK    2  A    between atoms: C6_6  and  C7_7 
REMARK    3  A    between atoms: C7_7  and  C8_8 
ROOT
HETATM    1  C2  UNL     1     -34.604  16.011  -2.008  1.00 20.00     0.011 C 
HETATM    2  C7  UNL     1     -35.193  15.166  -3.154  1.00 20.00    -0.003 C 
ENDROOT
BRANCH   2   3
HETATM    3  C6  UNL     1     -36.386  15.930  -3.775  1.00 20.00     0.101 C 
BRANCH   3   4
HETATM    4  C1  UNL     1     -37.469  15.014  -4.331  1.00 20.00     0.219 C 
HETATM    5  O9  UNL     1     -38.104  14.230  -3.632  1.00 20.00    -0.280 OA
HETATM    6 CL10 UNL     1     -37.716  15.266  -6.038  1.00 20.00    -0.044 Cl
ENDBRANCH   3   4
ENDBRANCH   2   3
BRANCH   2   7
HETATM    7  C8  UNL     1     -34.120  14.728  -4.222  1.00 20.00    -0.048 C 
HETATM    8  C3  UNL     1     -34.409  13.299  -4.731  1.00 20.00     0.015 C 
HETATM    9  C4  UNL     1     -32.713  14.702  -3.583  1.00 20.00     0.015 C 
HETATM   10  C5  UNL     1     -34.082  15.674  -5.437  1.00 20.00     0.015 C 
ENDBRANCH   2   7
TORSDOF 3
ENDMDL
MODEL 7
REMARK VINA RESULT:      -3.9      2.873      4.025
REMARK  3 active torsions:
REMARK  status: ('A' for Active; 'I' for Inactive)
REMARK    1  A    between atoms: C1_1  and  C6_6 
REMARK    2  A    between atoms: C6_6  and  C7_7 
REMARK    3  A    between atoms: C7_7  and  C8_8 
ROOT
HETATM    1  C2  UNL     1     -32.622  14.706  -3.576  1.00 20.00     0.011 C 
HETATM    2  C7  UNL     1     -33.979  15.340  -3.219  1.00 20.00    -0.003 C 
ENDROOT
BRANCH   2   3
HETATM    3  C6  UNL     1     -33.838  16.880  -3.266  1.00 20.00     0.101 C 
BRANCH   3   4
HETATM    4  C1  UNL     1     -33.817  17.529  -1.888  1.00 20.00     0.219 C 
HETATM    5  O9  UNL     1     -33.319  18.631  -1.677  1.00 20.00    -0.280 OA
HETATM    6 CL10 UNL     1     -34.626  16.546  -0.698  1.00 20.00    -0.044 Cl
ENDBRANCH   3   4
ENDBRANCH   2   3
BRANCH   2   7
HETATM    7  C8  UNL     1     -35.171  14.804  -4.101  1.00 20.00    -0.048 C 
HETATM    8  C3  UNL     1     -35.048  13.279  -4.314  1.00 20.00     0.015 C 
HETATM    9  C4  UNL     1     -35.132  15.458  -5.501  1.00 20.00     0.015 C 
HETATM   10  C5  UNL     1     -36.545  15.094  -3.469  1.00 20.00     0.015 C 
ENDBRANCH   2   7
TORSDOF 3
ENDMDL
MODEL 8
REMARK VINA RESULT:      -3.9     11.239     12.507
REMARK  3 active torsions:
REMARK  status: ('A' for Active; 'I' for Inactive)
REMARK    1  A    between atoms: C1_1  and  C6_6 
REMARK    2  A    between atoms: C6_6  and  C7_7 
REMARK    3  A    between atoms: C7_7  and  C8_8 
ROOT
HETATM    1  C2  UNL     1     -33.709   6.484   5.802  1.00 20.00     0.011 C 
HETATM    2  C7  UNL     1     -33.843   6.465   4.267  1.00 20.00    -0.003 C 
ENDROOT
BRANCH   2   3
HETATM    3  C6  UNL     1     -32.439   6.269   3.647  1.00 20.00     0.101 C 
BRANCH   3   4
HETATM    4  C1  UNL     1     -31.693   7.577   3.411  1.00 20.00     0.219 C 
HETATM    5  O9  UNL     1     -30.908   8.053   4.225  1.00 20.00    -0.280 OA
HETATM    6 CL10 UNL     1     -32.054   8.255   1.847  1.00 20.00    -0.044 Cl
ENDBRANCH   3   4
ENDBRANCH   2   3
BRANCH   2   7
HETATM    7  C8  UNL     1     -34.897   5.416   3.745  1.00 20.00    -0.048 C 
HETATM    8  C3  UNL     1     -35.079   4.272   4.766  1.00 20.00     0.015 C 
HETATM    9  C4  UNL     1     -34.399   4.771   2.431  1.00 20.00     0.015 C 
HETATM   10  C5  UNL     1     -36.275   6.051   3.480  1.00 20.00     0.015 C 
ENDBRANCH   2   7
TORSDOF 3
ENDMDL
MODEL 9
REMARK VINA RESULT:      -3.9      2.868      3.908
REMARK  3 active torsions:
REMARK  status: ('A' for Active; 'I' for Inactive)
REMARK    1  A    between atoms: C1_1  and  C6_6 
REMARK    2  A    between atoms: C6_6  and  C7_7 
REMARK    3  A    between atoms: C7_7  and  C8_8 
ROOT
HETATM    1  C2  UNL     1     -32.622  14.665  -3.540  1.00 20.00     0.011 C 
HETATM    2  C7  UNL     1     -33.983  15.319  -3.233  1.00 20.00    -0.003 C 
ENDROOT
BRANCH   2   3
HETATM    3  C6  UNL     1     -33.823  16.857  -3.295  1.00 20.00     0.101 C 
BRANCH   3   4
HETATM    4  C1  UNL     1     -33.814  17.520  -1.923  1.00 20.00     0.219 C 
HETATM    5  O9  UNL     1     -33.325  18.627  -1.720  1.00 20.00    -0.280 OA
HETATM    6 CL10 UNL     1     -34.626  16.545  -0.728  1.00 20.00    -0.044 Cl
ENDBRANCH   3   4
ENDBRANCH   2   3
BRANCH   2   7
HETATM    7  C8  UNL     1     -35.153  14.787  -4.145  1.00 20.00    -0.048 C 
HETATM    8  C3  UNL     1     -36.523  15.045  -3.481  1.00 20.00     0.015 C 
HETATM    9  C4  UNL     1     -35.026  13.258  -4.334  1.00 20.00     0.015 C 
HETATM   10  C5  UNL     1     -35.159  15.447  -5.537  1.00 20.00     0.015 C 
ENDBRANCH   2   7
TORSDOF 3
ENDMDL
