MODEL 1
REMARK VINA RESULT:      -5.3      0.000      0.000
REMARK  2 active torsions:
REMARK  status: ('A' for Active; 'I' for Inactive)
REMARK    1  A    between atoms: C6_6  and  C8_8 
REMARK    2  A    between atoms: C8_8  and  N9_9 
ROOT
HETATM    1  C1  UNL     1     -32.207   7.542   2.578  1.00 20.00     0.332 C 
HETATM    2  N9  UNL     1     -32.453   6.744   3.408  1.00 20.00    -0.247 NA
HETATM    3  O10 UNL     1     -31.959   8.342   1.752  1.00 20.00    -0.260 OA
ENDROOT
BRANCH   2   4
HETATM    4  C8  UNL     1     -33.396   5.712   3.000  1.00 20.00     0.162 C 
BRANCH   4   5
HETATM    5  C6  UNL     1     -34.414   5.524   4.126  1.00 20.00    -0.026 C 
HETATM    6  C4  UNL     1     -34.004   6.285   5.394  1.00 20.00     0.011 C 
HETATM    7  C2  UNL     1     -34.727   5.575   6.535  1.00 20.00     0.001 C 
HETATM    8  C3  UNL     1     -35.005   4.153   6.044  1.00 20.00     0.001 C 
HETATM    9  C5  UNL     1     -34.438   4.073   4.628  1.00 20.00     0.011 C 
HETATM   10  C7  UNL     1     -35.801   5.967   3.633  1.00 20.00     0.017 C 
ENDBRANCH   4   5
ENDBRANCH   2   4
TORSDOF 2
ENDMDL
MODEL 2
REMARK VINA RESULT:      -4.5      1.079      1.945
REMARK  2 active torsions:
REMARK  status: ('A' for Active; 'I' for Inactive)
REMARK    1  A    between atoms: C6_6  and  C8_8 
REMARK    2  A    between atoms: C8_8  and  N9_9 
ROOT
HETATM    1  C1  UNL     1     -32.194   8.535   1.802  1.00 20.00     0.332 C 
HETATM    2  N9  UNL     1     -32.308   7.635   2.553  1.00 20.00    -0.247 NA
HETATM    3  O10 UNL     1     -32.076   9.432   1.051  1.00 20.00    -0.260 OA
ENDROOT
BRANCH   2   4
HETATM    4  C8  UNL     1     -33.595   7.566   3.230  1.00 20.00     0.162 C 
BRANCH   4   5
HETATM    5  C6  UNL     1     -33.684   6.219   3.951  1.00 20.00    -0.026 C 
HETATM    6  C4  UNL     1     -34.993   5.488   3.624  1.00 20.00     0.011 C 
HETATM    7  C2  UNL     1     -35.211   4.525   4.788  1.00 20.00     0.001 C 
HETATM    8  C3  UNL     1     -34.445   5.110   5.975  1.00 20.00     0.001 C 
HETATM    9  C5  UNL     1     -33.799   6.399   5.471  1.00 20.00     0.011 C 
HETATM   10  C7  UNL     1     -32.461   5.365   3.580  1.00 20.00     0.017 C 
ENDBRANCH   4   5
ENDBRANCH   2   4
TORSDOF 2
ENDMDL
MODEL 3
REMARK VINA RESULT:      -4.2     11.417     12.661
REMARK  2 active torsions:
REMARK  status: ('A' for Active; 'I' for Inactive)
REMARK    1  A    between atoms: C6_6  and  C8_8 
REMARK    2  A    between atoms: C8_8  and  N9_9 
ROOT
HETATM    1  C1  UNL     1     -34.684  13.631  -3.994  1.00 20.00     0.332 C 
HETATM    2  N9  UNL     1     -34.564  14.562  -3.283  1.00 20.00    -0.247 NA
HETATM    3  O10 UNL     1     -34.801  12.701  -4.703  1.00 20.00    -0.260 OA
ENDROOT
BRANCH   2   4
HETATM    4  C8  UNL     1     -35.743  15.409  -3.183  1.00 20.00     0.162 C 
BRANCH   4   5
HETATM    5  C6  UNL     1     -35.337  16.714  -2.495  1.00 20.00    -0.026 C 
HETATM    6  C4  UNL     1     -34.201  17.420  -3.246  1.00 20.00     0.011 C 
HETATM    7  C2  UNL     1     -33.533  18.316  -2.206  1.00 20.00     0.001 C 
HETATM    8  C3  UNL     1     -33.847  17.695  -0.844  1.00 20.00     0.001 C 
HETATM    9  C5  UNL     1     -34.691  16.454  -1.127  1.00 20.00     0.011 C 
HETATM   10  C7  UNL     1     -36.571  17.623  -2.367  1.00 20.00     0.017 C 
ENDBRANCH   4   5
ENDBRANCH   2   4
TORSDOF 2
ENDMDL
MODEL 4
REMARK VINA RESULT:      -4.2     11.672     12.336
REMARK  2 active torsions:
REMARK  status: ('A' for Active; 'I' for Inactive)
REMARK    1  A    between atoms: C6_6  and  C8_8 
REMARK    2  A    between atoms: C8_8  and  N9_9 
ROOT
HETATM    1  C1  UNL     1     -34.528  16.976  -0.477  1.00 20.00     0.332 C 
HETATM    2  N9  UNL     1     -34.679  16.243  -1.386  1.00 20.00    -0.247 NA
HETATM    3  O10 UNL     1     -34.380  17.707   0.433  1.00 20.00    -0.260 OA
ENDROOT
BRANCH   2   4
HETATM    4  C8  UNL     1     -33.727  16.418  -2.474  1.00 20.00     0.162 C 
BRANCH   4   5
HETATM    5  C6  UNL     1     -34.184  15.554  -3.651  1.00 20.00    -0.026 C 
HETATM    6  C4  UNL     1     -35.611  15.027  -3.447  1.00 20.00     0.011 C 
HETATM    7  C2  UNL     1     -35.706  13.786  -4.330  1.00 20.00     0.001 C 
HETATM    8  C3  UNL     1     -34.274  13.286  -4.518  1.00 20.00     0.001 C 
HETATM    9  C5  UNL     1     -33.380  14.250  -3.740  1.00 20.00     0.011 C 
HETATM   10  C7  UNL     1     -34.072  16.370  -4.950  1.00 20.00     0.017 C 
ENDBRANCH   4   5
ENDBRANCH   2   4
TORSDOF 2
ENDMDL
MODEL 5
REMARK VINA RESULT:      -4.1     11.667     12.872
REMARK  2 active torsions:
REMARK  status: ('A' for Active; 'I' for Inactive)
REMARK    1  A    between atoms: C6_6  and  C8_8 
REMARK    2  A    between atoms: C8_8  and  N9_9 
ROOT
HETATM    1  C1  UNL     1     -38.470  14.821  -3.635  1.00 20.00     0.332 C 
HETATM    2  N9  UNL     1     -37.425  14.360  -3.919  1.00 20.00    -0.247 NA
HETATM    3  O10 UNL     1     -39.514  15.280  -3.348  1.00 20.00    -0.260 OA
ENDROOT
BRANCH   2   4
HETATM    4  C8  UNL     1     -36.815  14.922  -5.115  1.00 20.00     0.162 C 
BRANCH   4   5
HETATM    5  C6  UNL     1     -35.304  14.700  -5.031  1.00 20.00    -0.026 C 
HETATM    6  C4  UNL     1     -34.963  13.395  -4.298  1.00 20.00     0.011 C 
HETATM    7  C2  UNL     1     -33.537  13.586  -3.788  1.00 20.00     0.001 C 
HETATM    8  C3  UNL     1     -33.322  15.096  -3.682  1.00 20.00     0.001 C 
HETATM    9  C5  UNL     1     -34.628  15.746  -4.134  1.00 20.00     0.011 C 
HETATM   10  C7  UNL     1     -34.711  14.714  -6.450  1.00 20.00     0.017 C 
ENDBRANCH   4   5
ENDBRANCH   2   4
TORSDOF 2
ENDMDL
MODEL 6
REMARK VINA RESULT:      -4.1      9.197     10.543
REMARK  2 active torsions:
REMARK  status: ('A' for Active; 'I' for Inactive)
REMARK    1  A    between atoms: C6_6  and  C8_8 
REMARK    2  A    between atoms: C8_8  and  N9_9 
ROOT
HETATM    1  C1  UNL     1     -41.527   2.245  -3.455  1.00 20.00     0.332 C 
HETATM    2  N9  UNL     1     -41.404   3.115  -2.671  1.00 20.00    -0.247 NA
HETATM    3  O10 UNL     1     -41.647   1.373  -4.236  1.00 20.00    -0.260 OA
ENDROOT
BRANCH   2   4
HETATM    4  C8  UNL     1     -42.355   4.207  -2.820  1.00 20.00     0.162 C 
BRANCH   4   5
HETATM    5  C6  UNL     1     -42.168   5.167  -1.644  1.00 20.00    -0.026 C 
HETATM    6  C4  UNL     1     -41.881   6.597  -2.120  1.00 20.00     0.011 C 
HETATM    7  C2  UNL     1     -41.168   7.270  -0.950  1.00 20.00     0.001 C 
HETATM    8  C3  UNL     1     -40.534   6.144  -0.133  1.00 20.00     0.001 C 
HETATM    9  C5  UNL     1     -40.896   4.844  -0.848  1.00 20.00     0.011 C 
HETATM   10  C7  UNL     1     -43.416   5.117  -0.747  1.00 20.00     0.017 C 
ENDBRANCH   4   5
ENDBRANCH   2   4
TORSDOF 2
ENDMDL
MODEL 7
REMARK VINA RESULT:      -4.0     11.580     12.859
REMARK  2 active torsions:
REMARK  status: ('A' for Active; 'I' for Inactive)
REMARK    1  A    between atoms: C6_6  and  C8_8 
REMARK    2  A    between atoms: C8_8  and  N9_9 
ROOT
HETATM    1  C1  UNL     1     -34.482  16.593  -1.045  1.00 20.00     0.332 C 
HETATM    2  N9  UNL     1     -34.175  16.216  -2.117  1.00 20.00    -0.247 NA
HETATM    3  O10 UNL     1     -34.785  16.972   0.027  1.00 20.00    -0.260 OA
ENDROOT
BRANCH   2   4
HETATM    4  C8  UNL     1     -35.207  15.463  -2.816  1.00 20.00     0.162 C 
BRANCH   4   5
HETATM    5  C6  UNL     1     -34.610  14.934  -4.121  1.00 20.00    -0.026 C 
HETATM    6  C4  UNL     1     -34.030  16.066  -4.979  1.00 20.00     0.011 C 
HETATM    7  C2  UNL     1     -34.021  15.521  -6.404  1.00 20.00     0.001 C 
HETATM    8  C3  UNL     1     -35.090  14.428  -6.450  1.00 20.00     0.001 C 
HETATM    9  C5  UNL     1     -35.694  14.366  -5.048  1.00 20.00     0.011 C 
HETATM   10  C7  UNL     1     -33.542  13.876  -3.797  1.00 20.00     0.017 C 
ENDBRANCH   4   5
ENDBRANCH   2   4
TORSDOF 2
ENDMDL
MODEL 8
REMARK VINA RESULT:      -4.0     11.793     12.929
REMARK  2 active torsions:
REMARK  status: ('A' for Active; 'I' for Inactive)
REMARK    1  A    between atoms: C6_6  and  C8_8 
REMARK    2  A    between atoms: C8_8  and  N9_9 
ROOT
HETATM    1  C1  UNL     1     -38.754  14.762  -3.811  1.00 20.00     0.332 C 
HETATM    2  N9  UNL     1     -37.648  14.359  -3.762  1.00 20.00    -0.247 NA
HETATM    3  O10 UNL     1     -39.859  15.162  -3.856  1.00 20.00    -0.260 OA
ENDROOT
BRANCH   2   4
HETATM    4  C8  UNL     1     -36.766  14.873  -4.799  1.00 20.00     0.162 C 
BRANCH   4   5
HETATM    5  C6  UNL     1     -35.329  14.807  -4.280  1.00 20.00    -0.026 C 
HETATM    6  C4  UNL     1     -35.180  15.527  -2.933  1.00 20.00     0.011 C 
HETATM    7  C2  UNL     1     -33.699  15.885  -2.835  1.00 20.00     0.001 C 
HETATM    8  C3  UNL     1     -33.178  15.940  -4.272  1.00 20.00     0.001 C 
HETATM    9  C5  UNL     1     -34.370  15.611  -5.169  1.00 20.00     0.011 C 
HETATM   10  C7  UNL     1     -34.895  13.336  -4.177  1.00 20.00     0.017 C 
ENDBRANCH   4   5
ENDBRANCH   2   4
TORSDOF 2
ENDMDL
MODEL 9
REMARK VINA RESULT:      -4.0     12.133     13.318
REMARK  2 active torsions:
REMARK  status: ('A' for Active; 'I' for Inactive)
REMARK    1  A    between atoms: C6_6  and  C8_8 
REMARK    2  A    between atoms: C8_8  and  N9_9 
ROOT
HETATM    1  C1  UNL     1     -33.635  18.100  -5.936  1.00 20.00     0.332 C 
HETATM    2  N9  UNL     1     -33.238  17.448  -5.039  1.00 20.00    -0.247 NA
HETATM    3  O10 UNL     1     -34.027  18.750  -6.834  1.00 20.00    -0.260 OA
ENDROOT
BRANCH   2   4
HETATM    4  C8  UNL     1     -34.093  17.451  -3.860  1.00 20.00     0.162 C 
BRANCH   4   5
HETATM    5  C6  UNL     1     -34.228  16.010  -3.365  1.00 20.00    -0.026 C 
HETATM    6  C4  UNL     1     -32.974  15.183  -3.680  1.00 20.00     0.011 C 
HETATM    7  C2  UNL     1     -33.446  13.731  -3.681  1.00 20.00     0.001 C 
HETATM    8  C3  UNL     1     -34.945  13.770  -3.978  1.00 20.00     0.001 C 
HETATM    9  C5  UNL     1     -35.309  15.245  -4.142  1.00 20.00     0.011 C 
HETATM   10  C7  UNL     1     -34.525  16.019  -1.856  1.00 20.00     0.017 C 
ENDBRANCH   4   5
ENDBRANCH   2   4
TORSDOF 2
ENDMDL
