MODEL 1
REMARK VINA RESULT:      -4.7      0.000      0.000
REMARK  3 active torsions:
REMARK  status: ('A' for Active; 'I' for Inactive)
REMARK    1  A    between atoms: C4_4  and  C8_8 
REMARK    2  A    between atoms: C8_8  and  N11_11 
REMARK    3  A    between atoms: C9_9  and  N11_11 
ROOT
HETATM    1  C1  UNL     1     -36.635  14.433  -4.004  1.00 20.00     0.095 C 
HETATM    2  C6  UNL     1     -34.701  13.249  -4.973  1.00 20.00     0.059 C 
HETATM    3  C9  UNL     1     -35.225  14.557  -4.394  1.00 20.00     0.324 C 
HETATM    4  N10 UNL     1     -37.751  14.336  -3.698  1.00 20.00    -0.195 NA
ENDROOT
BRANCH   3   5
HETATM    5  N11 UNL     1     -34.419  14.972  -3.235  1.00 20.00     0.102 N 
HETATM    6  C7  UNL     1     -32.999  15.025  -3.619  1.00 20.00     0.311 C 
BRANCH   5   7
HETATM    7  C8  UNL     1     -34.867  16.231  -2.708  1.00 20.00     0.278 C 
BRANCH   7   8
HETATM    8  C4  UNL     1     -34.100  16.607  -1.488  1.00 20.00     0.018 A 
HETATM    9  C2  UNL     1     -34.827  16.994  -0.227  1.00 20.00     0.011 A 
HETATM   10  C3  UNL     1     -34.084  18.039  -1.017  1.00 20.00    -0.012 A 
HETATM   11  C5  UNL     1     -32.830  18.634  -0.477  1.00 20.00     0.010 C 
ENDBRANCH   7   8
ENDBRANCH   5   7
ENDBRANCH   3   5
TORSDOF 3
ENDMDL
MODEL 2
REMARK VINA RESULT:      -4.7      1.471      2.256
REMARK  3 active torsions:
REMARK  status: ('A' for Active; 'I' for Inactive)
REMARK    1  A    between atoms: C4_4  and  C8_8 
REMARK    2  A    between atoms: C8_8  and  N11_11 
REMARK    3  A    between atoms: C9_9  and  N11_11 
ROOT
HETATM    1  C1  UNL     1     -34.472  13.693  -4.551  1.00 20.00     0.095 C 
HETATM    2  C6  UNL     1     -32.537  14.924  -3.642  1.00 20.00     0.059 C 
HETATM    3  C9  UNL     1     -33.798  14.997  -4.494  1.00 20.00     0.324 C 
HETATM    4  N10 UNL     1     -35.003  12.662  -4.598  1.00 20.00    -0.195 NA
ENDROOT
BRANCH   3   5
HETATM    5  N11 UNL     1     -34.721  16.016  -3.972  1.00 20.00     0.102 N 
HETATM    6  C7  UNL     1     -35.883  16.130  -4.867  1.00 20.00     0.311 C 
BRANCH   5   7
HETATM    7  C8  UNL     1     -35.124  15.719  -2.625  1.00 20.00     0.278 C 
BRANCH   7   8
HETATM    8  C4  UNL     1     -35.086  16.937  -1.770  1.00 20.00     0.018 A 
HETATM    9  C2  UNL     1     -33.765  17.534  -1.361  1.00 20.00     0.011 A 
HETATM   10  C3  UNL     1     -34.626  16.841  -0.338  1.00 20.00    -0.012 A 
HETATM   11  C5  UNL     1     -35.312  17.632   0.722  1.00 20.00     0.010 C 
ENDBRANCH   7   8
ENDBRANCH   5   7
ENDBRANCH   3   5
TORSDOF 3
ENDMDL
MODEL 3
REMARK VINA RESULT:      -4.6      1.573      1.799
REMARK  3 active torsions:
REMARK  status: ('A' for Active; 'I' for Inactive)
REMARK    1  A    between atoms: C4_4  and  C8_8 
REMARK    2  A    between atoms: C8_8  and  N11_11 
REMARK    3  A    between atoms: C9_9  and  N11_11 
ROOT
HETATM    1  C1  UNL     1     -34.835  13.780  -4.858  1.00 20.00     0.095 C 
HETATM    2  C6  UNL     1     -34.385  15.334  -6.719  1.00 20.00     0.059 C 
HETATM    3  C9  UNL     1     -34.859  15.186  -5.279  1.00 20.00     0.324 C 
HETATM    4  N10 UNL     1     -34.820  12.668  -4.526  1.00 20.00    -0.195 NA
ENDROOT
BRANCH   3   5
HETATM    5  N11 UNL     1     -34.029  15.995  -4.373  1.00 20.00     0.102 N 
HETATM    6  C7  UNL     1     -33.349  17.050  -5.142  1.00 20.00     0.311 C 
BRANCH   5   7
HETATM    7  C8  UNL     1     -34.808  16.548  -3.300  1.00 20.00     0.278 C 
BRANCH   7   8
HETATM    8  C4  UNL     1     -33.998  16.677  -2.057  1.00 20.00     0.018 A 
HETATM    9  C2  UNL     1     -34.662  16.587  -0.708  1.00 20.00     0.011 A 
HETATM   10  C3  UNL     1     -34.126  17.907  -1.196  1.00 20.00    -0.012 A 
HETATM   11  C5  UNL     1     -32.918  18.505  -0.562  1.00 20.00     0.010 C 
ENDBRANCH   7   8
ENDBRANCH   5   7
ENDBRANCH   3   5
TORSDOF 3
ENDMDL
MODEL 4
REMARK VINA RESULT:      -4.5      1.136      1.808
REMARK  3 active torsions:
REMARK  status: ('A' for Active; 'I' for Inactive)
REMARK    1  A    between atoms: C4_4  and  C8_8 
REMARK    2  A    between atoms: C8_8  and  N11_11 
REMARK    3  A    between atoms: C9_9  and  N11_11 
ROOT
HETATM    1  C1  UNL     1     -37.575  14.659  -4.126  1.00 20.00     0.095 C 
HETATM    2  C6  UNL     1     -35.979  15.068  -5.961  1.00 20.00     0.059 C 
HETATM    3  C9  UNL     1     -36.205  15.073  -4.455  1.00 20.00     0.324 C 
HETATM    4  N10 UNL     1     -38.659  14.336  -3.867  1.00 20.00    -0.195 NA
ENDROOT
BRANCH   3   5
HETATM    5  N11 UNL     1     -35.240  14.190  -3.781  1.00 20.00     0.102 N 
HETATM    6  C7  UNL     1     -34.673  13.247  -4.759  1.00 20.00     0.311 C 
BRANCH   5   7
HETATM    7  C8  UNL     1     -34.210  14.944  -3.122  1.00 20.00     0.278 C 
BRANCH   7   8
HETATM    8  C4  UNL     1     -34.774  16.135  -2.429  1.00 20.00     0.018 A 
HETATM    9  C2  UNL     1     -34.067  17.463  -2.509  1.00 20.00     0.011 A 
HETATM   10  C3  UNL     1     -34.085  16.698  -1.212  1.00 20.00    -0.012 A 
HETATM   11  C5  UNL     1     -34.890  17.195  -0.061  1.00 20.00     0.010 C 
ENDBRANCH   7   8
ENDBRANCH   5   7
ENDBRANCH   3   5
TORSDOF 3
ENDMDL
MODEL 5
REMARK VINA RESULT:      -4.2     11.431     12.083
REMARK  3 active torsions:
REMARK  status: ('A' for Active; 'I' for Inactive)
REMARK    1  A    between atoms: C4_4  and  C8_8 
REMARK    2  A    between atoms: C8_8  and  N11_11 
REMARK    3  A    between atoms: C9_9  and  N11_11 
ROOT
HETATM    1  C1  UNL     1     -34.007   6.517   6.407  1.00 20.00     0.095 C 
HETATM    2  C6  UNL     1     -34.614   4.153   6.056  1.00 20.00     0.059 C 
HETATM    3  C9  UNL     1     -34.687   5.573   5.511  1.00 20.00     0.324 C 
HETATM    4  N10 UNL     1     -33.473   7.264   7.117  1.00 20.00    -0.195 NA
ENDROOT
BRANCH   3   5
HETATM    5  N11 UNL     1     -34.096   5.645   4.165  1.00 20.00     0.102 N 
HETATM    6  C7  UNL     1     -35.003   5.009   3.197  1.00 20.00     0.311 C 
BRANCH   5   7
HETATM    7  C8  UNL     1     -33.799   7.001   3.794  1.00 20.00     0.278 C 
BRANCH   7   8
HETATM    8  C4  UNL     1     -32.631   7.064   2.873  1.00 20.00     0.018 A 
HETATM    9  C2  UNL     1     -31.330   7.662   3.340  1.00 20.00     0.011 A 
HETATM   10  C3  UNL     1     -32.171   8.390   2.325  1.00 20.00    -0.012 A 
HETATM   11  C5  UNL     1     -31.712   8.497   0.912  1.00 20.00     0.010 C 
ENDBRANCH   7   8
ENDBRANCH   5   7
ENDBRANCH   3   5
TORSDOF 3
ENDMDL
MODEL 6
REMARK VINA RESULT:      -4.1      1.923      2.854
REMARK  3 active torsions:
REMARK  status: ('A' for Active; 'I' for Inactive)
REMARK    1  A    between atoms: C4_4  and  C8_8 
REMARK    2  A    between atoms: C8_8  and  N11_11 
REMARK    3  A    between atoms: C9_9  and  N11_11 
ROOT
HETATM    1  C1  UNL     1     -33.611  17.053  -5.448  1.00 20.00     0.095 C 
HETATM    2  C6  UNL     1     -34.428  15.195  -6.850  1.00 20.00     0.059 C 
HETATM    3  C9  UNL     1     -33.766  15.595  -5.537  1.00 20.00     0.324 C 
HETATM    4  N10 UNL     1     -33.485  18.205  -5.378  1.00 20.00    -0.195 NA
ENDROOT
BRANCH   3   5
HETATM    5  N11 UNL     1     -34.545  15.102  -4.391  1.00 20.00     0.102 N 
HETATM    6  C7  UNL     1     -34.822  13.668  -4.567  1.00 20.00     0.311 C 
BRANCH   5   7
HETATM    7  C8  UNL     1     -33.869  15.357  -3.148  1.00 20.00     0.278 C 
BRANCH   7   8
HETATM    8  C4  UNL     1     -34.817  15.848  -2.110  1.00 20.00     0.018 A 
HETATM    9  C2  UNL     1     -35.602  17.113  -2.340  1.00 20.00     0.011 A 
HETATM   10  C3  UNL     1     -34.495  17.089  -1.320  1.00 20.00    -0.012 A 
HETATM   11  C5  UNL     1     -34.816  17.154   0.134  1.00 20.00     0.010 C 
ENDBRANCH   7   8
ENDBRANCH   5   7
ENDBRANCH   3   5
TORSDOF 3
ENDMDL
MODEL 7
REMARK VINA RESULT:      -4.0      2.165      4.766
REMARK  3 active torsions:
REMARK  status: ('A' for Active; 'I' for Inactive)
REMARK    1  A    between atoms: C4_4  and  C8_8 
REMARK    2  A    between atoms: C8_8  and  N11_11 
REMARK    3  A    between atoms: C9_9  and  N11_11 
ROOT
HETATM    1  C1  UNL     1     -34.015  14.433  -3.351  1.00 20.00     0.095 C 
HETATM    2  C6  UNL     1     -34.703  16.147  -1.716  1.00 20.00     0.059 C 
HETATM    3  C9  UNL     1     -33.857  15.835  -2.944  1.00 20.00     0.324 C 
HETATM    4  N10 UNL     1     -34.138  13.324  -3.671  1.00 20.00    -0.195 NA
ENDROOT
BRANCH   3   5
HETATM    5  N11 UNL     1     -34.212  16.725  -4.060  1.00 20.00     0.102 N 
HETATM    6  C7  UNL     1     -33.248  16.543  -5.157  1.00 20.00     0.311 C 
BRANCH   5   7
HETATM    7  C8  UNL     1     -35.560  16.498  -4.504  1.00 20.00     0.278 C 
BRANCH   7   8
HETATM    8  C4  UNL     1     -35.618  16.325  -5.981  1.00 20.00     0.018 A 
HETATM    9  C2  UNL     1     -36.945  16.344  -6.694  1.00 20.00     0.011 A 
HETATM   10  C3  UNL     1     -36.176  15.055  -6.571  1.00 20.00    -0.012 A 
HETATM   11  C5  UNL     1     -35.539  14.446  -7.773  1.00 20.00     0.010 C 
ENDBRANCH   7   8
ENDBRANCH   5   7
ENDBRANCH   3   5
TORSDOF 3
ENDMDL
MODEL 8
REMARK VINA RESULT:      -3.9      2.775      5.979
REMARK  3 active torsions:
REMARK  status: ('A' for Active; 'I' for Inactive)
REMARK    1  A    between atoms: C4_4  and  C8_8 
REMARK    2  A    between atoms: C8_8  and  N11_11 
REMARK    3  A    between atoms: C9_9  and  N11_11 
ROOT
HETATM    1  C1  UNL     1     -32.360  19.009   0.644  1.00 20.00     0.095 C 
HETATM    2  C6  UNL     1     -33.551  18.599   2.764  1.00 20.00     0.059 C 
HETATM    3  C9  UNL     1     -33.680  18.859   1.269  1.00 20.00     0.324 C 
HETATM    4  N10 UNL     1     -31.316  19.132   0.151  1.00 20.00    -0.195 NA
ENDROOT
BRANCH   3   5
HETATM    5  N11 UNL     1     -34.424  17.771   0.614  1.00 20.00     0.102 N 
HETATM    6  C7  UNL     1     -35.830  17.809   1.046  1.00 20.00     0.311 C 
BRANCH   5   7
HETATM    7  C8  UNL     1     -34.312  17.844  -0.816  1.00 20.00     0.278 C 
BRANCH   7   8
HETATM    8  C4  UNL     1     -34.530  16.511  -1.443  1.00 20.00     0.018 A 
HETATM    9  C2  UNL     1     -33.684  16.077  -2.611  1.00 20.00     0.011 A 
HETATM   10  C3  UNL     1     -35.137  16.413  -2.818  1.00 20.00    -0.012 A 
HETATM   11  C5  UNL     1     -36.118  15.335  -3.127  1.00 20.00     0.010 C 
ENDBRANCH   7   8
ENDBRANCH   5   7
ENDBRANCH   3   5
TORSDOF 3
ENDMDL
MODEL 9
REMARK VINA RESULT:      -3.9      2.105      4.921
REMARK  3 active torsions:
REMARK  status: ('A' for Active; 'I' for Inactive)
REMARK    1  A    between atoms: C4_4  and  C8_8 
REMARK    2  A    between atoms: C8_8  and  N11_11 
REMARK    3  A    between atoms: C9_9  and  N11_11 
ROOT
HETATM    1  C1  UNL     1     -35.494  17.659   0.347  1.00 20.00     0.095 C 
HETATM    2  C6  UNL     1     -33.341  18.066  -0.784  1.00 20.00     0.059 C 
HETATM    3  C9  UNL     1     -34.428  17.050  -0.459  1.00 20.00     0.324 C 
HETATM    4  N10 UNL     1     -36.335  18.139   0.987  1.00 20.00    -0.195 NA
ENDROOT
BRANCH   3   5
HETATM    5  N11 UNL     1     -34.994  16.482  -1.692  1.00 20.00     0.102 N 
HETATM    6  C7  UNL     1     -35.806  17.502  -2.374  1.00 20.00     0.311 C 
BRANCH   5   7
HETATM    7  C8  UNL     1     -33.966  15.967  -2.554  1.00 20.00     0.278 C 
BRANCH   7   8
HETATM    8  C4  UNL     1     -34.449  14.787  -3.323  1.00 20.00     0.018 A 
HETATM    9  C2  UNL     1     -33.474  13.737  -3.788  1.00 20.00     0.011 A 
HETATM   10  C3  UNL     1     -34.124  14.657  -4.789  1.00 20.00    -0.012 A 
HETATM   11  C5  UNL     1     -35.145  14.130  -5.737  1.00 20.00     0.010 C 
ENDBRANCH   7   8
ENDBRANCH   5   7
ENDBRANCH   3   5
TORSDOF 3
ENDMDL
