MODEL 1
REMARK VINA RESULT:      -4.2      0.000      0.000
REMARK  3 active torsions:
REMARK  status: ('A' for Active; 'I' for Inactive)
REMARK    1  A    between atoms: C5_5  and  C9_9 
REMARK    2  A    between atoms: C8_8  and  N10_10 
REMARK    3  A    between atoms: C9_9  and  N10_10 
ROOT
HETATM    1  C1  UNL     1     -34.407  15.331  -6.864  1.00 20.00     0.013 C 
HETATM    2  C2  UNL     1     -34.603  14.437  -6.087  1.00 20.00    -0.087 C 
HETATM    3  C8  UNL     1     -34.840  13.344  -5.142  1.00 20.00     0.364 C 
ENDROOT
BRANCH   3   4
HETATM    4  N10 UNL     1     -35.240  13.870  -3.827  1.00 20.00     0.095 N 
HETATM    5  C7  UNL     1     -36.529  14.571  -3.952  1.00 20.00     0.310 C 
BRANCH   4   6
HETATM    6  C9  UNL     1     -34.228  14.727  -3.275  1.00 20.00     0.278 C 
BRANCH   6   7
HETATM    7  C5  UNL     1     -34.834  15.895  -2.575  1.00 20.00     0.018 A 
HETATM    8  C3  UNL     1     -34.274  17.277  -2.786  1.00 20.00     0.011 A 
HETATM    9  C4  UNL     1     -34.086  16.582  -1.464  1.00 20.00    -0.012 A 
HETATM   10  C6  UNL     1     -34.815  17.060  -0.256  1.00 20.00     0.010 C 
ENDBRANCH   6   7
ENDBRANCH   4   6
ENDBRANCH   3   4
TORSDOF 3
ENDMDL
MODEL 2
REMARK VINA RESULT:      -4.1      1.588      1.836
REMARK  3 active torsions:
REMARK  status: ('A' for Active; 'I' for Inactive)
REMARK    1  A    between atoms: C5_5  and  C9_9 
REMARK    2  A    between atoms: C8_8  and  N10_10 
REMARK    3  A    between atoms: C9_9  and  N10_10 
ROOT
HETATM    1  C1  UNL     1     -33.213  13.592  -3.736  1.00 20.00     0.013 C 
HETATM    2  C2  UNL     1     -34.391  13.720  -3.937  1.00 20.00    -0.087 C 
HETATM    3  C8  UNL     1     -35.826  13.872  -4.184  1.00 20.00     0.364 C 
ENDROOT
BRANCH   3   4
HETATM    4  N10 UNL     1     -36.354  15.049  -3.475  1.00 20.00     0.095 N 
HETATM    5  C7  UNL     1     -37.817  15.097  -3.627  1.00 20.00     0.310 C 
BRANCH   4   6
HETATM    6  C9  UNL     1     -35.739  16.261  -3.941  1.00 20.00     0.278 C 
BRANCH   6   7
HETATM    7  C5  UNL     1     -35.282  17.106  -2.801  1.00 20.00     0.018 A 
HETATM    8  C3  UNL     1     -33.814  17.387  -2.608  1.00 20.00     0.011 A 
HETATM    9  C4  UNL     1     -34.541  16.482  -1.648  1.00 20.00    -0.012 A 
HETATM   10  C6  UNL     1     -34.812  16.934  -0.254  1.00 20.00     0.010 C 
ENDBRANCH   6   7
ENDBRANCH   4   6
ENDBRANCH   3   4
TORSDOF 3
ENDMDL
MODEL 3
REMARK VINA RESULT:      -4.1      1.406      4.787
REMARK  3 active torsions:
REMARK  status: ('A' for Active; 'I' for Inactive)
REMARK    1  A    between atoms: C5_5  and  C9_9 
REMARK    2  A    between atoms: C8_8  and  N10_10 
REMARK    3  A    between atoms: C9_9  and  N10_10 
ROOT
HETATM    1  C1  UNL     1     -34.754  17.404   0.245  1.00 20.00     0.013 C 
HETATM    2  C2  UNL     1     -34.759  16.761  -0.769  1.00 20.00    -0.087 C 
HETATM    3  C8  UNL     1     -34.770  15.976  -2.006  1.00 20.00     0.364 C 
ENDROOT
BRANCH   3   4
HETATM    4  N10 UNL     1     -33.578  16.269  -2.818  1.00 20.00     0.095 N 
HETATM    5  C7  UNL     1     -33.779  17.533  -3.545  1.00 20.00     0.310 C 
BRANCH   4   6
HETATM    6  C9  UNL     1     -33.279  15.189  -3.717  1.00 20.00     0.278 C 
BRANCH   6   7
HETATM    7  C5  UNL     1     -34.520  14.649  -4.342  1.00 20.00     0.018 A 
HETATM    8  C3  UNL     1     -34.557  13.231  -4.849  1.00 20.00     0.011 A 
HETATM    9  C4  UNL     1     -34.564  14.379  -5.823  1.00 20.00    -0.012 A 
HETATM   10  C6  UNL     1     -35.795  14.690  -6.602  1.00 20.00     0.010 C 
ENDBRANCH   6   7
ENDBRANCH   4   6
ENDBRANCH   3   4
TORSDOF 3
ENDMDL
MODEL 4
REMARK VINA RESULT:      -4.0      1.021      4.520
REMARK  3 active torsions:
REMARK  status: ('A' for Active; 'I' for Inactive)
REMARK    1  A    between atoms: C5_5  and  C9_9 
REMARK    2  A    between atoms: C8_8  and  N10_10 
REMARK    3  A    between atoms: C9_9  and  N10_10 
ROOT
HETATM    1  C1  UNL     1     -34.440  16.646  -1.031  1.00 20.00     0.013 C 
HETATM    2  C2  UNL     1     -34.765  16.045  -2.019  1.00 20.00    -0.087 C 
HETATM    3  C8  UNL     1     -35.165  15.316  -3.224  1.00 20.00     0.364 C 
ENDROOT
BRANCH   3   4
HETATM    4  N10 UNL     1     -34.121  14.358  -3.622  1.00 20.00     0.095 N 
HETATM    5  C7  UNL     1     -32.816  15.039  -3.652  1.00 20.00     0.310 C 
BRANCH   4   6
HETATM    6  C9  UNL     1     -34.423  13.750  -4.888  1.00 20.00     0.278 C 
BRANCH   6   7
HETATM    7  C5  UNL     1     -35.089  14.717  -5.806  1.00 20.00     0.018 A 
HETATM    8  C3  UNL     1     -35.383  14.329  -7.231  1.00 20.00     0.011 A 
HETATM    9  C4  UNL     1     -34.313  15.346  -6.933  1.00 20.00    -0.012 A 
HETATM   10  C6  UNL     1     -34.526  16.779  -7.278  1.00 20.00     0.010 C 
ENDBRANCH   6   7
ENDBRANCH   4   6
ENDBRANCH   3   4
TORSDOF 3
ENDMDL
MODEL 5
REMARK VINA RESULT:      -4.0      1.582      2.233
REMARK  3 active torsions:
REMARK  status: ('A' for Active; 'I' for Inactive)
REMARK    1  A    between atoms: C5_5  and  C9_9 
REMARK    2  A    between atoms: C8_8  and  N10_10 
REMARK    3  A    between atoms: C9_9  and  N10_10 
ROOT
HETATM    1  C1  UNL     1     -33.468  17.119  -5.466  1.00 20.00     0.013 C 
HETATM    2  C2  UNL     1     -33.341  16.291  -4.605  1.00 20.00    -0.087 C 
HETATM    3  C8  UNL     1     -33.182  15.283  -3.555  1.00 20.00     0.364 C 
ENDROOT
BRANCH   3   4
HETATM    4  N10 UNL     1     -34.480  14.965  -2.938  1.00 20.00     0.095 N 
HETATM    5  C7  UNL     1     -35.374  14.381  -3.952  1.00 20.00     0.310 C 
BRANCH   4   6
HETATM    6  C9  UNL     1     -35.068  16.124  -2.326  1.00 20.00     0.278 C 
BRANCH   6   7
HETATM    7  C5  UNL     1     -34.281  16.562  -1.138  1.00 20.00     0.018 A 
HETATM    8  C3  UNL     1     -34.977  17.199   0.037  1.00 20.00     0.011 A 
HETATM    9  C4  UNL     1     -34.093  18.030  -0.856  1.00 20.00    -0.012 A 
HETATM   10  C6  UNL     1     -32.783  18.531  -0.354  1.00 20.00     0.010 C 
ENDBRANCH   6   7
ENDBRANCH   4   6
ENDBRANCH   3   4
TORSDOF 3
ENDMDL
MODEL 6
REMARK VINA RESULT:      -4.0     11.138     12.186
REMARK  3 active torsions:
REMARK  status: ('A' for Active; 'I' for Inactive)
REMARK    1  A    between atoms: C5_5  and  C9_9 
REMARK    2  A    between atoms: C8_8  and  N10_10 
REMARK    3  A    between atoms: C9_9  and  N10_10 
ROOT
HETATM    1  C1  UNL     1     -34.411   4.962   6.640  1.00 20.00     0.013 C 
HETATM    2  C2  UNL     1     -34.892   4.964   5.539  1.00 20.00    -0.087 C 
HETATM    3  C8  UNL     1     -35.482   4.966   4.199  1.00 20.00     0.364 C 
ENDROOT
BRANCH   3   4
HETATM    4  N10 UNL     1     -34.672   5.776   3.275  1.00 20.00     0.095 N 
HETATM    5  C7  UNL     1     -34.111   4.909   2.226  1.00 20.00     0.310 C 
BRANCH   4   6
HETATM    6  C9  UNL     1     -33.640   6.491   3.972  1.00 20.00     0.278 C 
BRANCH   6   7
HETATM    7  C5  UNL     1     -32.493   6.797   3.070  1.00 20.00     0.018 A 
HETATM    8  C3  UNL     1     -31.328   7.607   3.575  1.00 20.00     0.011 A 
HETATM    9  C4  UNL     1     -32.279   8.201   2.569  1.00 20.00    -0.012 A 
HETATM   10  C6  UNL     1     -31.834   8.434   1.167  1.00 20.00     0.010 C 
ENDBRANCH   6   7
ENDBRANCH   4   6
ENDBRANCH   3   4
TORSDOF 3
ENDMDL
MODEL 7
REMARK VINA RESULT:      -3.9     11.020     11.914
REMARK  3 active torsions:
REMARK  status: ('A' for Active; 'I' for Inactive)
REMARK    1  A    between atoms: C5_5  and  C9_9 
REMARK    2  A    between atoms: C8_8  and  N10_10 
REMARK    3  A    between atoms: C9_9  and  N10_10 
ROOT
HETATM    1  C1  UNL     1     -32.160   8.753   0.826  1.00 20.00     0.013 C 
HETATM    2  C2  UNL     1     -31.909   8.437   1.957  1.00 20.00    -0.087 C 
HETATM    3  C8  UNL     1     -31.601   8.055   3.337  1.00 20.00     0.364 C 
ENDROOT
BRANCH   3   4
HETATM    4  N10 UNL     1     -32.227   6.766   3.672  1.00 20.00     0.095 N 
HETATM    5  C7  UNL     1     -31.823   5.754   2.683  1.00 20.00     0.310 C 
BRANCH   4   6
HETATM    6  C9  UNL     1     -33.657   6.883   3.750  1.00 20.00     0.278 C 
BRANCH   6   7
HETATM    7  C5  UNL     1     -34.296   5.550   3.942  1.00 20.00     0.018 A 
HETATM    8  C3  UNL     1     -35.797   5.424   3.944  1.00 20.00     0.011 A 
HETATM    9  C4  UNL     1     -35.023   5.238   5.223  1.00 20.00    -0.012 A 
HETATM   10  C6  UNL     1     -34.908   3.886   5.837  1.00 20.00     0.010 C 
ENDBRANCH   6   7
ENDBRANCH   4   6
ENDBRANCH   3   4
TORSDOF 3
ENDMDL
MODEL 8
REMARK VINA RESULT:      -3.8      1.808      2.886
REMARK  3 active torsions:
REMARK  status: ('A' for Active; 'I' for Inactive)
REMARK    1  A    between atoms: C5_5  and  C9_9 
REMARK    2  A    between atoms: C8_8  and  N10_10 
REMARK    3  A    between atoms: C9_9  and  N10_10 
ROOT
HETATM    1  C1  UNL     1     -35.048  13.274  -4.204  1.00 20.00     0.013 C 
HETATM    2  C2  UNL     1     -34.473  14.253  -3.812  1.00 20.00    -0.087 C 
HETATM    3  C8  UNL     1     -33.768  15.444  -3.334  1.00 20.00     0.364 C 
ENDROOT
BRANCH   3   4
HETATM    4  N10 UNL     1     -34.596  16.647  -3.514  1.00 20.00     0.095 N 
HETATM    5  C7  UNL     1     -33.758  17.748  -4.015  1.00 20.00     0.310 C 
BRANCH   4   6
HETATM    6  C9  UNL     1     -35.266  17.010  -2.297  1.00 20.00     0.278 C 
BRANCH   6   7
HETATM    7  C5  UNL     1     -34.325  17.002  -1.141  1.00 20.00     0.018 A 
HETATM    8  C3  UNL     1     -34.843  17.214   0.258  1.00 20.00     0.011 A 
HETATM    9  C4  UNL     1     -34.016  18.281  -0.409  1.00 20.00    -0.012 A 
HETATM   10  C6  UNL     1     -32.630  18.556   0.061  1.00 20.00     0.010 C 
ENDBRANCH   6   7
ENDBRANCH   4   6
ENDBRANCH   3   4
TORSDOF 3
ENDMDL
MODEL 9
REMARK VINA RESULT:      -3.7      1.892      2.868
REMARK  3 active torsions:
REMARK  status: ('A' for Active; 'I' for Inactive)
REMARK    1  A    between atoms: C5_5  and  C9_9 
REMARK    2  A    between atoms: C8_8  and  N10_10 
REMARK    3  A    between atoms: C9_9  and  N10_10 
ROOT
HETATM    1  C1  UNL     1     -35.340  14.416  -7.006  1.00 20.00     0.013 C 
HETATM    2  C2  UNL     1     -34.998  15.558  -6.859  1.00 20.00    -0.087 C 
HETATM    3  C8  UNL     1     -34.582  16.951  -6.684  1.00 20.00     0.364 C 
ENDROOT
BRANCH   3   4
HETATM    4  N10 UNL     1     -34.078  17.176  -5.320  1.00 20.00     0.095 N 
HETATM    5  C7  UNL     1     -33.527  18.537  -5.220  1.00 20.00     0.310 C 
BRANCH   4   6
HETATM    6  C9  UNL     1     -33.103  16.187  -4.951  1.00 20.00     0.278 C 
BRANCH   6   7
HETATM    7  C5  UNL     1     -33.297  15.738  -3.544  1.00 20.00     0.018 A 
HETATM    8  C3  UNL     1     -34.128  14.516  -3.247  1.00 20.00     0.011 A 
HETATM    9  C4  UNL     1     -34.642  15.884  -2.882  1.00 20.00    -0.012 A 
HETATM   10  C6  UNL     1     -34.731  16.293  -1.452  1.00 20.00     0.010 C 
ENDBRANCH   6   7
ENDBRANCH   4   6
ENDBRANCH   3   4
TORSDOF 3
ENDMDL
