MODEL 1
REMARK VINA RESULT:      -5.6      0.000      0.000
REMARK  4 active torsions:
REMARK  status: ('A' for Active; 'I' for Inactive)
REMARK    1  A    between atoms: C6_6  and  C10_10 
REMARK    2  A    between atoms: C8_8  and  C9_9 
REMARK    3  A    between atoms: C9_9  and  C10_10 
REMARK    4  A    between atoms: C10_10  and  O11_11 
ROOT
HETATM    1  C1  UNL     1     -35.183   4.672   5.495  1.00 20.00    -0.031 C 
HETATM    2  C2  UNL     1     -35.173   4.781   4.160  1.00 20.00    -0.030 C 
HETATM    3  C3  UNL     1     -34.320   5.508   6.392  1.00 20.00     0.027 C 
HETATM    4  C4  UNL     1     -34.274   5.727   3.421  1.00 20.00     0.034 C 
HETATM    5  C5  UNL     1     -33.671   6.694   5.673  1.00 20.00     0.011 C 
HETATM    6  C6  UNL     1     -33.137   6.286   4.295  1.00 20.00     0.018 C 
ENDROOT
BRANCH   6   7
HETATM    7  C10 UNL     1     -32.450   7.460   3.602  1.00 20.00     0.122 C 
BRANCH   7   8
HETATM    8  C9  UNL     1     -32.352   7.236   2.090  1.00 20.00     0.032 C 
BRANCH   8   9
HETATM    9  C8  UNL     1     -31.790   8.460   1.365  1.00 20.00    -0.002 C 
HETATM   10  C7  UNL     1     -32.608   9.707   1.662  1.00 20.00     0.005 C 
ENDBRANCH   8   9
ENDBRANCH   7   8
BRANCH   7  11
HETATM   11  O11 UNL     1     -31.151   7.621   4.161  1.00 20.00    -0.395 OA
HETATM   12  H29 UNL     1     -30.596   6.924   3.777  1.00 20.00     0.210 HD
ENDBRANCH   7  11
ENDBRANCH   6   7
TORSDOF 4
ENDMDL
MODEL 2
REMARK VINA RESULT:      -5.0      0.975      1.773
REMARK  4 active torsions:
REMARK  status: ('A' for Active; 'I' for Inactive)
REMARK    1  A    between atoms: C6_6  and  C10_10 
REMARK    2  A    between atoms: C8_8  and  C9_9 
REMARK    3  A    between atoms: C9_9  and  C10_10 
REMARK    4  A    between atoms: C10_10  and  O11_11 
ROOT
HETATM    1  C1  UNL     1     -35.286   4.816   6.137  1.00 20.00    -0.031 C 
HETATM    2  C2  UNL     1     -34.491   5.772   6.635  1.00 20.00    -0.030 C 
HETATM    3  C3  UNL     1     -35.255   4.390   4.700  1.00 20.00     0.027 C 
HETATM    4  C4  UNL     1     -33.508   6.538   5.800  1.00 20.00     0.034 C 
HETATM    5  C5  UNL     1     -34.034   4.914   3.939  1.00 20.00     0.011 C 
HETATM    6  C6  UNL     1     -33.749   6.380   4.288  1.00 20.00     0.018 C 
ENDROOT
BRANCH   6   7
HETATM    7  C10 UNL     1     -32.558   6.913   3.493  1.00 20.00     0.122 C 
BRANCH   7   8
HETATM    8  C9  UNL     1     -33.003   7.927   2.436  1.00 20.00     0.032 C 
BRANCH   8   9
HETATM    9  C8  UNL     1     -31.829   8.417   1.584  1.00 20.00    -0.002 C 
HETATM   10  C7  UNL     1     -32.238   9.577   0.690  1.00 20.00     0.005 C 
ENDBRANCH   8   9
ENDBRANCH   7   8
BRANCH   7  11
HETATM   11  O11 UNL     1     -31.897   5.814   2.875  1.00 20.00    -0.395 OA
HETATM   12  H29 UNL     1     -32.151   5.022   3.373  1.00 20.00     0.210 HD
ENDBRANCH   7  11
ENDBRANCH   6   7
TORSDOF 4
ENDMDL
MODEL 3
REMARK VINA RESULT:      -4.8      1.310      1.436
REMARK  4 active torsions:
REMARK  status: ('A' for Active; 'I' for Inactive)
REMARK    1  A    between atoms: C6_6  and  C10_10 
REMARK    2  A    between atoms: C8_8  and  C9_9 
REMARK    3  A    between atoms: C9_9  and  C10_10 
REMARK    4  A    between atoms: C10_10  and  O11_11 
ROOT
HETATM    1  C1  UNL     1     -35.000   5.247   6.467  1.00 20.00    -0.031 C 
HETATM    2  C2  UNL     1     -35.212   4.554   5.341  1.00 20.00    -0.030 C 
HETATM    3  C3  UNL     1     -34.024   6.381   6.561  1.00 20.00     0.027 C 
HETATM    4  C4  UNL     1     -34.473   4.821   4.063  1.00 20.00     0.034 C 
HETATM    5  C5  UNL     1     -33.534   6.872   5.195  1.00 20.00     0.011 C 
HETATM    6  C6  UNL     1     -33.223   5.698   4.260  1.00 20.00     0.018 C 
ENDROOT
BRANCH   6   7
HETATM    7  C10 UNL     1     -32.692   6.190   2.916  1.00 20.00     0.122 C 
BRANCH   7   8
HETATM    8  C9  UNL     1     -32.147   7.617   3.022  1.00 20.00     0.032 C 
BRANCH   8   9
HETATM    9  C8  UNL     1     -31.897   8.237   1.645  1.00 20.00    -0.002 C 
HETATM   10  C7  UNL     1     -32.472   9.643   1.555  1.00 20.00     0.005 C 
ENDBRANCH   8   9
ENDBRANCH   7   8
BRANCH   7  11
HETATM   11  O11 UNL     1     -33.747   6.135   1.963  1.00 20.00    -0.395 OA
HETATM   12  H29 UNL     1     -33.364   5.782   1.144  1.00 20.00     0.210 HD
ENDBRANCH   7  11
ENDBRANCH   6   7
TORSDOF 4
ENDMDL
MODEL 4
REMARK VINA RESULT:      -4.8     10.976     12.113
REMARK  4 active torsions:
REMARK  status: ('A' for Active; 'I' for Inactive)
REMARK    1  A    between atoms: C6_6  and  C10_10 
REMARK    2  A    between atoms: C8_8  and  C9_9 
REMARK    3  A    between atoms: C9_9  and  C10_10 
REMARK    4  A    between atoms: C10_10  and  O11_11 
ROOT
HETATM    1  C1  UNL     1     -34.273  18.127  -0.561  1.00 20.00    -0.031 C 
HETATM    2  C2  UNL     1     -34.756  16.878  -0.551  1.00 20.00    -0.030 C 
HETATM    3  C3  UNL     1     -33.563  18.723  -1.739  1.00 20.00     0.027 C 
HETATM    4  C4  UNL     1     -34.611  15.935  -1.708  1.00 20.00     0.034 C 
HETATM    5  C5  UNL     1     -33.720  17.899  -3.021  1.00 20.00     0.011 C 
HETATM    6  C6  UNL     1     -33.567  16.399  -2.739  1.00 20.00     0.018 C 
ENDROOT
BRANCH   6   7
HETATM    7  C10 UNL     1     -33.678  15.584  -4.026  1.00 20.00     0.122 C 
BRANCH   7   8
HETATM    8  C9  UNL     1     -33.645  14.081  -3.738  1.00 20.00     0.032 C 
BRANCH   8   9
HETATM    9  C8  UNL     1     -34.816  13.347  -4.394  1.00 20.00    -0.002 C 
HETATM   10  C7  UNL     1     -35.912  14.313  -4.816  1.00 20.00     0.005 C 
ENDBRANCH   8   9
ENDBRANCH   7   8
BRANCH   7  11
HETATM   11  O11 UNL     1     -32.603  15.945  -4.886  1.00 20.00    -0.395 OA
HETATM   12  H29 UNL     1     -31.815  15.489  -4.552  1.00 20.00     0.210 HD
ENDBRANCH   7  11
ENDBRANCH   6   7
TORSDOF 4
ENDMDL
MODEL 5
REMARK VINA RESULT:      -4.7     11.148     12.119
REMARK  4 active torsions:
REMARK  status: ('A' for Active; 'I' for Inactive)
REMARK    1  A    between atoms: C6_6  and  C10_10 
REMARK    2  A    between atoms: C8_8  and  C9_9 
REMARK    3  A    between atoms: C9_9  and  C10_10 
REMARK    4  A    between atoms: C10_10  and  O11_11 
ROOT
HETATM    1  C1  UNL     1     -35.275  17.200  -1.904  1.00 20.00    -0.031 C 
HETATM    2  C2  UNL     1     -36.290  16.781  -2.671  1.00 20.00    -0.030 C 
HETATM    3  C3  UNL     1     -33.911  16.580  -1.937  1.00 20.00     0.027 C 
HETATM    4  C4  UNL     1     -36.176  15.626  -3.621  1.00 20.00     0.034 C 
HETATM    5  C5  UNL     1     -33.699  15.649  -3.135  1.00 20.00     0.011 C 
HETATM    6  C6  UNL     1     -34.926  14.762  -3.374  1.00 20.00     0.018 C 
ENDROOT
BRANCH   6   7
HETATM    7  C10 UNL     1     -34.693  13.803  -4.539  1.00 20.00     0.122 C 
BRANCH   7   8
HETATM    8  C9  UNL     1     -35.403  14.284  -5.807  1.00 20.00     0.032 C 
BRANCH   8   9
HETATM    9  C8  UNL     1     -34.417  14.843  -6.837  1.00 20.00    -0.002 C 
HETATM   10  C7  UNL     1     -34.420  16.364  -6.840  1.00 20.00     0.005 C 
ENDBRANCH   8   9
ENDBRANCH   7   8
BRANCH   7  11
HETATM   11  O11 UNL     1     -35.168  12.513  -4.168  1.00 20.00    -0.395 OA
HETATM   12  H29 UNL     1     -34.832  11.892  -4.833  1.00 20.00     0.210 HD
ENDBRANCH   7  11
ENDBRANCH   6   7
TORSDOF 4
ENDMDL
MODEL 6
REMARK VINA RESULT:      -4.7     11.228     12.831
REMARK  4 active torsions:
REMARK  status: ('A' for Active; 'I' for Inactive)
REMARK    1  A    between atoms: C6_6  and  C10_10 
REMARK    2  A    between atoms: C8_8  and  C9_9 
REMARK    3  A    between atoms: C9_9  and  C10_10 
REMARK    4  A    between atoms: C10_10  and  O11_11 
ROOT
HETATM    1  C1  UNL     1     -35.048  15.421  -7.582  1.00 20.00    -0.031 C 
HETATM    2  C2  UNL     1     -35.168  14.253  -6.937  1.00 20.00    -0.030 C 
HETATM    3  C3  UNL     1     -34.396  16.628  -6.978  1.00 20.00     0.027 C 
HETATM    4  C4  UNL     1     -34.689  14.040  -5.532  1.00 20.00     0.034 C 
HETATM    5  C5  UNL     1     -33.610  16.316  -5.701  1.00 20.00     0.011 C 
HETATM    6  C6  UNL     1     -34.385  15.355  -4.792  1.00 20.00     0.018 C 
ENDROOT
BRANCH   6   7
HETATM    7  C10 UNL     1     -33.619  15.083  -3.499  1.00 20.00     0.122 C 
BRANCH   7   8
HETATM    8  C9  UNL     1     -33.648  16.297  -2.567  1.00 20.00     0.032 C 
BRANCH   8   9
HETATM    9  C8  UNL     1     -34.798  16.217  -1.560  1.00 20.00    -0.002 C 
HETATM   10  C7  UNL     1     -34.539  17.099  -0.349  1.00 20.00     0.005 C 
ENDBRANCH   8   9
ENDBRANCH   7   8
BRANCH   7  11
HETATM   11  O11 UNL     1     -32.275  14.748  -3.830  1.00 20.00    -0.395 OA
HETATM   12  H29 UNL     1     -32.239  13.780  -3.896  1.00 20.00     0.210 HD
ENDBRANCH   7  11
ENDBRANCH   6   7
TORSDOF 4
ENDMDL
MODEL 7
REMARK VINA RESULT:      -4.6     10.187     11.662
REMARK  4 active torsions:
REMARK  status: ('A' for Active; 'I' for Inactive)
REMARK    1  A    between atoms: C6_6  and  C10_10 
REMARK    2  A    between atoms: C8_8  and  C9_9 
REMARK    3  A    between atoms: C9_9  and  C10_10 
REMARK    4  A    between atoms: C10_10  and  O11_11 
ROOT
HETATM    1  C1  UNL     1     -41.115   7.096  -0.974  1.00 20.00    -0.031 C 
HETATM    2  C2  UNL     1     -41.912   7.166  -2.048  1.00 20.00    -0.030 C 
HETATM    3  C3  UNL     1     -40.684   5.800  -0.355  1.00 20.00     0.027 C 
HETATM    4  C4  UNL     1     -42.481   5.955  -2.726  1.00 20.00     0.034 C 
HETATM    5  C5  UNL     1     -40.972   4.583  -1.239  1.00 20.00     0.011 C 
HETATM    6  C6  UNL     1     -42.363   4.676  -1.878  1.00 20.00     0.018 C 
ENDROOT
BRANCH   6   7
HETATM    7  C10 UNL     1     -42.666   3.439  -2.720  1.00 20.00     0.122 C 
BRANCH   7   8
HETATM    8  C9  UNL     1     -41.381   2.710  -3.120  1.00 20.00     0.032 C 
BRANCH   8   9
HETATM    9  C8  UNL     1     -41.648   1.596  -4.136  1.00 20.00    -0.002 C 
HETATM   10  C7  UNL     1     -42.363   0.417  -3.493  1.00 20.00     0.005 C 
ENDBRANCH   8   9
ENDBRANCH   7   8
BRANCH   7  11
HETATM   11  O11 UNL     1     -43.384   3.844  -3.880  1.00 20.00    -0.395 OA
HETATM   12  H29 UNL     1     -44.325   3.819  -3.646  1.00 20.00     0.210 HD
ENDBRANCH   7  11
ENDBRANCH   6   7
TORSDOF 4
ENDMDL
MODEL 8
REMARK VINA RESULT:      -4.5     11.040     12.980
REMARK  4 active torsions:
REMARK  status: ('A' for Active; 'I' for Inactive)
REMARK    1  A    between atoms: C6_6  and  C10_10 
REMARK    2  A    between atoms: C8_8  and  C9_9 
REMARK    3  A    between atoms: C9_9  and  C10_10 
REMARK    4  A    between atoms: C10_10  and  O11_11 
ROOT
HETATM    1  C1  UNL     1     -36.062  16.096  -7.815  1.00 20.00    -0.031 C 
HETATM    2  C2  UNL     1     -34.867  15.509  -7.666  1.00 20.00    -0.030 C 
HETATM    3  C3  UNL     1     -37.111  16.104  -6.744  1.00 20.00     0.027 C 
HETATM    4  C4  UNL     1     -34.466  14.770  -6.424  1.00 20.00     0.034 C 
HETATM    5  C5  UNL     1     -36.582  15.663  -5.376  1.00 20.00     0.011 C 
HETATM    6  C6  UNL     1     -35.657  14.447  -5.503  1.00 20.00     0.018 C 
ENDROOT
BRANCH   6   7
HETATM    7  C10 UNL     1     -35.169  13.982  -4.133  1.00 20.00     0.122 C 
BRANCH   7   8
HETATM    8  C9  UNL     1     -33.701  14.354  -3.908  1.00 20.00     0.032 C 
BRANCH   8   9
HETATM    9  C8  UNL     1     -33.555  15.628  -3.073  1.00 20.00    -0.002 C 
HETATM   10  C7  UNL     1     -34.752  15.833  -2.157  1.00 20.00     0.005 C 
ENDBRANCH   8   9
ENDBRANCH   7   8
BRANCH   7  11
HETATM   11  O11 UNL     1     -35.339  12.571  -4.045  1.00 20.00    -0.395 OA
HETATM   12  H29 UNL     1     -36.293  12.410  -3.985  1.00 20.00     0.210 HD
ENDBRANCH   7  11
ENDBRANCH   6   7
TORSDOF 4
ENDMDL
MODEL 9
REMARK VINA RESULT:      -4.5     11.113     11.792
REMARK  4 active torsions:
REMARK  status: ('A' for Active; 'I' for Inactive)
REMARK    1  A    between atoms: C6_6  and  C10_10 
REMARK    2  A    between atoms: C8_8  and  C9_9 
REMARK    3  A    between atoms: C9_9  and  C10_10 
REMARK    4  A    between atoms: C10_10  and  O11_11 
ROOT
HETATM    1  C1  UNL     1     -34.088  13.573  -4.365  1.00 20.00    -0.031 C 
HETATM    2  C2  UNL     1     -33.135  14.387  -3.893  1.00 20.00    -0.030 C 
HETATM    3  C3  UNL     1     -35.549  13.777  -4.096  1.00 20.00     0.027 C 
HETATM    4  C4  UNL     1     -33.428  15.570  -3.018  1.00 20.00     0.034 C 
HETATM    5  C5  UNL     1     -35.869  15.154  -3.508  1.00 20.00     0.011 C 
HETATM    6  C6  UNL     1     -34.851  15.550  -2.432  1.00 20.00     0.018 C 
ENDROOT
BRANCH   6   7
HETATM    7  C10 UNL     1     -35.200  16.903  -1.815  1.00 20.00     0.122 C 
BRANCH   7   8
HETATM    8  C9  UNL     1     -34.694  17.006  -0.374  1.00 20.00     0.032 C 
BRANCH   8   9
HETATM    9  C8  UNL     1     -34.224  18.422  -0.033  1.00 20.00    -0.002 C 
HETATM   10  C7  UNL     1     -32.715  18.553  -0.163  1.00 20.00     0.005 C 
ENDBRANCH   8   9
ENDBRANCH   7   8
BRANCH   7  11
HETATM   11  O11 UNL     1     -36.613  17.068  -1.854  1.00 20.00    -0.395 OA
HETATM   12  H29 UNL     1     -36.887  16.897  -2.769  1.00 20.00     0.210 HD
ENDBRANCH   7  11
ENDBRANCH   6   7
TORSDOF 4
ENDMDL
