MODEL 1
REMARK VINA RESULT:      -5.1      0.000      0.000
REMARK  2 active torsions:
REMARK  status: ('A' for Active; 'I' for Inactive)
REMARK    1  A    between atoms: C6_6  and  C8_8 
REMARK    2  A    between atoms: C8_8  and  N9_9 
ROOT
HETATM    1  C1  UNL     1     -32.258   7.602   2.543  1.00 20.00     0.157 C 
HETATM    2  N9  UNL     1     -32.463   6.794   3.376  1.00 20.00    -0.275 NA
HETATM    3  S10 UNL     1     -31.969   8.703   1.428  1.00 20.00    -0.055 SA
ENDROOT
BRANCH   2   4
HETATM    4  C8  UNL     1     -33.351   5.709   2.984  1.00 20.00     0.159 C 
BRANCH   4   5
HETATM    5  C6  UNL     1     -34.386   5.514   4.094  1.00 20.00    -0.026 C 
HETATM    6  C4  UNL     1     -33.991   6.264   5.373  1.00 20.00     0.011 C 
HETATM    7  C2  UNL     1     -34.732   5.546   6.499  1.00 20.00     0.001 C 
HETATM    8  C3  UNL     1     -35.006   4.131   5.994  1.00 20.00     0.001 C 
HETATM    9  C5  UNL     1     -34.421   4.059   4.586  1.00 20.00     0.011 C 
HETATM   10  C7  UNL     1     -35.765   5.964   3.586  1.00 20.00     0.017 C 
ENDBRANCH   4   5
ENDBRANCH   2   4
TORSDOF 2
ENDMDL
MODEL 2
REMARK VINA RESULT:      -4.2     11.645     12.328
REMARK  2 active torsions:
REMARK  status: ('A' for Active; 'I' for Inactive)
REMARK    1  A    between atoms: C6_6  and  C8_8 
REMARK    2  A    between atoms: C8_8  and  N9_9 
ROOT
HETATM    1  C1  UNL     1     -34.666  16.999  -0.396  1.00 20.00     0.157 C 
HETATM    2  N9  UNL     1     -34.673  16.227  -1.285  1.00 20.00    -0.275 NA
HETATM    3  S10 UNL     1     -34.668  18.034   0.816  1.00 20.00    -0.055 SA
ENDROOT
BRANCH   2   4
HETATM    4  C8  UNL     1     -33.782  16.544  -2.391  1.00 20.00     0.159 C 
BRANCH   4   5
HETATM    5  C6  UNL     1     -34.158  15.655  -3.579  1.00 20.00    -0.026 C 
HETATM    6  C4  UNL     1     -35.564  15.062  -3.416  1.00 20.00     0.011 C 
HETATM    7  C2  UNL     1     -35.572  13.814  -4.296  1.00 20.00     0.001 C 
HETATM    8  C3  UNL     1     -34.113  13.382  -4.436  1.00 20.00     0.001 C 
HETATM    9  C5  UNL     1     -33.292  14.389  -3.636  1.00 20.00     0.011 C 
HETATM   10  C7  UNL     1     -34.042  16.469  -4.878  1.00 20.00     0.017 C 
ENDBRANCH   4   5
ENDBRANCH   2   4
TORSDOF 2
ENDMDL
MODEL 3
REMARK VINA RESULT:      -4.1      9.265     10.606
REMARK  2 active torsions:
REMARK  status: ('A' for Active; 'I' for Inactive)
REMARK    1  A    between atoms: C6_6  and  C8_8 
REMARK    2  A    between atoms: C8_8  and  N9_9 
ROOT
HETATM    1  C1  UNL     1     -41.635   2.198  -3.334  1.00 20.00     0.157 C 
HETATM    2  N9  UNL     1     -41.397   3.171  -2.713  1.00 20.00    -0.275 NA
HETATM    3  S10 UNL     1     -41.943   0.876  -4.167  1.00 20.00    -0.055 SA
ENDROOT
BRANCH   2   4
HETATM    4  C8  UNL     1     -42.400   4.222  -2.794  1.00 20.00     0.159 C 
BRANCH   4   5
HETATM    5  C6  UNL     1     -42.186   5.179  -1.620  1.00 20.00    -0.026 C 
HETATM    6  C4  UNL     1     -41.901   6.608  -2.101  1.00 20.00     0.011 C 
HETATM    7  C2  UNL     1     -41.161   7.277  -0.944  1.00 20.00     0.001 C 
HETATM    8  C3  UNL     1     -40.518   6.147  -0.141  1.00 20.00     0.001 C 
HETATM    9  C5  UNL     1     -40.900   4.850  -0.848  1.00 20.00     0.011 C 
HETATM   10  C7  UNL     1     -43.416   5.135  -0.699  1.00 20.00     0.017 C 
ENDBRANCH   4   5
ENDBRANCH   2   4
TORSDOF 2
ENDMDL
MODEL 4
REMARK VINA RESULT:      -4.1      1.010      1.857
REMARK  2 active torsions:
REMARK  status: ('A' for Active; 'I' for Inactive)
REMARK    1  A    between atoms: C6_6  and  C8_8 
REMARK    2  A    between atoms: C8_8  and  N9_9 
ROOT
HETATM    1  C1  UNL     1     -32.254   8.392   1.883  1.00 20.00     0.157 C 
HETATM    2  N9  UNL     1     -32.339   7.585   2.738  1.00 20.00    -0.275 NA
HETATM    3  S10 UNL     1     -32.122   9.478   0.725  1.00 20.00    -0.055 SA
ENDROOT
BRANCH   2   4
HETATM    4  C8  UNL     1     -33.640   7.501   3.386  1.00 20.00     0.159 C 
BRANCH   4   5
HETATM    5  C6  UNL     1     -33.741   6.141   4.080  1.00 20.00    -0.026 C 
HETATM    6  C4  UNL     1     -35.053   5.425   3.731  1.00 20.00     0.011 C 
HETATM    7  C2  UNL     1     -35.284   4.440   4.875  1.00 20.00     0.001 C 
HETATM    8  C3  UNL     1     -34.522   4.997   6.076  1.00 20.00     0.001 C 
HETATM    9  C5  UNL     1     -33.865   6.290   5.603  1.00 20.00     0.011 C 
HETATM   10  C7  UNL     1     -32.521   5.287   3.701  1.00 20.00     0.017 C 
ENDBRANCH   4   5
ENDBRANCH   2   4
TORSDOF 2
ENDMDL
MODEL 5
REMARK VINA RESULT:      -4.1     11.580     12.493
REMARK  2 active torsions:
REMARK  status: ('A' for Active; 'I' for Inactive)
REMARK    1  A    between atoms: C6_6  and  C8_8 
REMARK    2  A    between atoms: C8_8  and  N9_9 
ROOT
HETATM    1  C1  UNL     1     -34.785  16.754  -0.755  1.00 20.00     0.157 C 
HETATM    2  N9  UNL     1     -34.804  16.083  -1.723  1.00 20.00    -0.275 NA
HETATM    3  S10 UNL     1     -34.773  17.652   0.561  1.00 20.00    -0.055 SA
ENDROOT
BRANCH   2   4
HETATM    4  C8  UNL     1     -33.843  16.449  -2.753  1.00 20.00     0.159 C 
BRANCH   4   5
HETATM    5  C6  UNL     1     -33.734  15.287  -3.742  1.00 20.00    -0.026 C 
HETATM    6  C4  UNL     1     -34.065  15.731  -5.173  1.00 20.00     0.011 C 
HETATM    7  C2  UNL     1     -34.483  14.453  -5.899  1.00 20.00     0.001 C 
HETATM    8  C3  UNL     1     -34.965  13.488  -4.817  1.00 20.00     0.001 C 
HETATM    9  C5  UNL     1     -34.815  14.226  -3.489  1.00 20.00     0.011 C 
HETATM   10  C7  UNL     1     -32.325  14.679  -3.656  1.00 20.00     0.017 C 
ENDBRANCH   4   5
ENDBRANCH   2   4
TORSDOF 2
ENDMDL
MODEL 6
REMARK VINA RESULT:      -4.0     12.109     13.317
REMARK  2 active torsions:
REMARK  status: ('A' for Active; 'I' for Inactive)
REMARK    1  A    between atoms: C6_6  and  C8_8 
REMARK    2  A    between atoms: C8_8  and  N9_9 
ROOT
HETATM    1  C1  UNL     1     -33.601  18.154  -5.968  1.00 20.00     0.157 C 
HETATM    2  N9  UNL     1     -33.246  17.408  -5.128  1.00 20.00    -0.275 NA
HETATM    3  S10 UNL     1     -34.068  19.156  -7.116  1.00 20.00    -0.055 SA
ENDROOT
BRANCH   2   4
HETATM    4  C8  UNL     1     -34.012  17.456  -3.891  1.00 20.00     0.159 C 
BRANCH   4   5
HETATM    5  C6  UNL     1     -34.186  16.024  -3.381  1.00 20.00    -0.026 C 
HETATM    6  C4  UNL     1     -32.962  15.157  -3.702  1.00 20.00     0.011 C 
HETATM    7  C2  UNL     1     -33.477  13.720  -3.686  1.00 20.00     0.001 C 
HETATM    8  C3  UNL     1     -34.977  13.802  -3.968  1.00 20.00     0.001 C 
HETATM    9  C5  UNL     1     -35.298  15.284  -4.140  1.00 20.00     0.011 C 
HETATM   10  C7  UNL     1     -34.468  16.055  -1.870  1.00 20.00     0.017 C 
ENDBRANCH   4   5
ENDBRANCH   2   4
TORSDOF 2
ENDMDL
MODEL 7
REMARK VINA RESULT:      -4.0     11.743     12.787
REMARK  2 active torsions:
REMARK  status: ('A' for Active; 'I' for Inactive)
REMARK    1  A    between atoms: C6_6  and  C8_8 
REMARK    2  A    between atoms: C8_8  and  N9_9 
ROOT
HETATM    1  C1  UNL     1     -38.222  14.732  -3.964  1.00 20.00     0.157 C 
HETATM    2  N9  UNL     1     -37.174  14.753  -3.426  1.00 20.00    -0.275 NA
HETATM    3  S10 UNL     1     -39.646  14.713  -4.678  1.00 20.00    -0.055 SA
ENDROOT
BRANCH   2   4
HETATM    4  C8  UNL     1     -36.086  14.121  -4.159  1.00 20.00     0.159 C 
BRANCH   4   5
HETATM    5  C6  UNL     1     -34.781  14.824  -3.778  1.00 20.00    -0.026 C 
HETATM    6  C4  UNL     1     -34.896  15.532  -2.422  1.00 20.00     0.011 C 
HETATM    7  C2  UNL     1     -33.819  16.614  -2.446  1.00 20.00     0.001 C 
HETATM    8  C3  UNL     1     -33.551  16.915  -3.920  1.00 20.00     0.001 C 
HETATM    9  C5  UNL     1     -34.477  16.000  -4.717  1.00 20.00     0.011 C 
HETATM   10  C7  UNL     1     -33.635  13.800  -3.779  1.00 20.00     0.017 C 
ENDBRANCH   4   5
ENDBRANCH   2   4
TORSDOF 2
ENDMDL
MODEL 8
REMARK VINA RESULT:      -3.8     11.927     13.493
REMARK  2 active torsions:
REMARK  status: ('A' for Active; 'I' for Inactive)
REMARK    1  A    between atoms: C6_6  and  C8_8 
REMARK    2  A    between atoms: C8_8  and  N9_9 
ROOT
HETATM    1  C1  UNL     1     -34.547  15.896  -2.204  1.00 20.00     0.157 C 
HETATM    2  N9  UNL     1     -34.533  15.169  -3.131  1.00 20.00    -0.275 NA
HETATM    3  S10 UNL     1     -34.568  16.865  -0.939  1.00 20.00    -0.055 SA
ENDROOT
BRANCH   2   4
HETATM    4  C8  UNL     1     -34.244  15.799  -4.411  1.00 20.00     0.159 C 
BRANCH   4   5
HETATM    5  C6  UNL     1     -34.876  14.950  -5.516  1.00 20.00    -0.026 C 
HETATM    6  C4  UNL     1     -34.197  15.190  -6.871  1.00 20.00     0.011 C 
HETATM    7  C2  UNL     1     -35.235  14.779  -7.913  1.00 20.00     0.001 C 
HETATM    8  C3  UNL     1     -36.597  14.907  -7.232  1.00 20.00     0.001 C 
HETATM    9  C5  UNL     1     -36.319  15.388  -5.810  1.00 20.00     0.011 C 
HETATM   10  C7  UNL     1     -34.814  13.468  -5.114  1.00 20.00     0.017 C 
ENDBRANCH   4   5
ENDBRANCH   2   4
TORSDOF 2
ENDMDL
MODEL 9
REMARK VINA RESULT:      -3.8      9.216     10.478
REMARK  2 active torsions:
REMARK  status: ('A' for Active; 'I' for Inactive)
REMARK    1  A    between atoms: C6_6  and  C8_8 
REMARK    2  A    between atoms: C8_8  and  N9_9 
ROOT
HETATM    1  C1  UNL     1     -42.302   8.465  -4.277  1.00 20.00     0.157 C 
HETATM    2  N9  UNL     1     -42.294   7.537  -3.550  1.00 20.00    -0.275 NA
HETATM    3  S10 UNL     1     -42.306   9.708  -5.273  1.00 20.00    -0.055 SA
ENDROOT
BRANCH   2   4
HETATM    4  C8  UNL     1     -42.967   7.741  -2.276  1.00 20.00     0.159 C 
BRANCH   4   5
HETATM    5  C6  UNL     1     -42.434   6.706  -1.283  1.00 20.00    -0.026 C 
HETATM    6  C4  UNL     1     -41.025   7.067  -0.793  1.00 20.00     0.011 C 
HETATM    7  C2  UNL     1     -40.418   5.747  -0.322  1.00 20.00     0.001 C 
HETATM    8  C3  UNL     1     -41.165   4.644  -1.071  1.00 20.00     0.001 C 
HETATM    9  C5  UNL     1     -42.189   5.348  -1.957  1.00 20.00     0.011 C 
HETATM   10  C7  UNL     1     -43.417   6.577  -0.108  1.00 20.00     0.017 C 
ENDBRANCH   4   5
ENDBRANCH   2   4
TORSDOF 2
ENDMDL
