MODEL 1
REMARK VINA RESULT:      -4.2      0.000      0.000
REMARK  4 active torsions:
REMARK  status: ('A' for Active; 'I' for Inactive)
REMARK    1  A    between atoms: C4_4  and  C8_8 
REMARK    2  A    between atoms: C5_5  and  C9_9 
REMARK    3  A    between atoms: C8_8  and  N10_10 
REMARK    4  A    between atoms: C9_9  and  N10_10 
ROOT
HETATM    1  C7  UNL     1     -35.252  17.108  -4.218  1.00 20.00     0.310 C 
HETATM    2  N10 UNL     1     -35.505  16.257  -3.044  1.00 20.00     0.087 N 
ENDROOT
BRANCH   2   3
HETATM    3  C8  UNL     1     -34.347  16.180  -2.196  1.00 20.00     0.277 C 
BRANCH   3   4
HETATM    4  C4  UNL     1     -34.679  16.565  -0.795  1.00 20.00     0.018 A 
HETATM    5  C1  UNL     1     -35.480  17.811  -0.518  1.00 20.00     0.011 A 
HETATM    6  C3  UNL     1     -34.034  17.744  -0.103  1.00 20.00    -0.012 A 
HETATM    7  C6  UNL     1     -33.019  18.605  -0.771  1.00 20.00     0.010 C 
ENDBRANCH   3   4
ENDBRANCH   2   3
BRANCH   2   8
HETATM    8  C9  UNL     1     -35.933  14.922  -3.489  1.00 20.00     0.305 C 
BRANCH   8   9
HETATM    9  C5  UNL     1     -34.764  14.092  -3.900  1.00 20.00     0.173 A 
HETATM   10  C2  UNL     1     -34.651  13.545  -5.296  1.00 20.00     0.201 A 
HETATM   11  O11 UNL     1     -35.080  12.727  -4.196  1.00 20.00    -0.379 OA
ENDBRANCH   8   9
ENDBRANCH   2   8
TORSDOF 4
ENDMDL
MODEL 2
REMARK VINA RESULT:      -4.1     10.872     11.819
REMARK  4 active torsions:
REMARK  status: ('A' for Active; 'I' for Inactive)
REMARK    1  A    between atoms: C4_4  and  C8_8 
REMARK    2  A    between atoms: C5_5  and  C9_9 
REMARK    3  A    between atoms: C8_8  and  N10_10 
REMARK    4  A    between atoms: C9_9  and  N10_10 
ROOT
HETATM    1  C7  UNL     1     -32.161   5.546   2.572  1.00 20.00     0.310 C 
HETATM    2  N10 UNL     1     -32.239   6.523   3.668  1.00 20.00     0.087 N 
ENDROOT
BRANCH   2   3
HETATM    3  C8  UNL     1     -33.575   6.620   4.188  1.00 20.00     0.277 C 
BRANCH   3   4
HETATM    4  C4  UNL     1     -34.418   5.484   3.722  1.00 20.00     0.018 A 
HETATM    5  C1  UNL     1     -35.914   5.524   3.898  1.00 20.00     0.011 A 
HETATM    6  C3  UNL     1     -35.095   4.530   4.678  1.00 20.00    -0.012 A 
HETATM    7  C6  UNL     1     -34.966   4.655   6.157  1.00 20.00     0.010 C 
ENDBRANCH   3   4
ENDBRANCH   2   3
BRANCH   2   8
HETATM    8  C9  UNL     1     -31.751   7.829   3.197  1.00 20.00     0.305 C 
BRANCH   8   9
HETATM    9  C5  UNL     1     -32.473   8.261   1.967  1.00 20.00     0.173 A 
HETATM   10  C2  UNL     1     -31.738   8.878   0.809  1.00 20.00     0.201 A 
HETATM   11  O11 UNL     1     -32.479   9.676   1.746  1.00 20.00    -0.379 OA
ENDBRANCH   8   9
ENDBRANCH   2   8
TORSDOF 4
ENDMDL
MODEL 3
REMARK VINA RESULT:      -3.9      1.802      2.366
REMARK  4 active torsions:
REMARK  status: ('A' for Active; 'I' for Inactive)
REMARK    1  A    between atoms: C4_4  and  C8_8 
REMARK    2  A    between atoms: C5_5  and  C9_9 
REMARK    3  A    between atoms: C8_8  and  N10_10 
REMARK    4  A    between atoms: C9_9  and  N10_10 
ROOT
HETATM    1  C7  UNL     1     -33.968  13.785  -3.834  1.00 20.00     0.310 C 
HETATM    2  N10 UNL     1     -33.446  15.078  -4.301  1.00 20.00     0.087 N 
ENDROOT
BRANCH   2   3
HETATM    3  C8  UNL     1     -33.422  16.047  -3.240  1.00 20.00     0.277 C 
BRANCH   3   4
HETATM    4  C4  UNL     1     -34.567  15.851  -2.307  1.00 20.00     0.018 A 
HETATM    5  C1  UNL     1     -35.628  16.912  -2.170  1.00 20.00     0.011 A 
HETATM    6  C3  UNL     1     -34.704  16.626  -1.017  1.00 20.00    -0.012 A 
HETATM    7  C6  UNL     1     -33.703  17.641  -0.584  1.00 20.00     0.010 C 
ENDBRANCH   3   4
ENDBRANCH   2   3
BRANCH   2   8
HETATM    8  C9  UNL     1     -34.250  15.549  -5.439  1.00 20.00     0.305 C 
BRANCH   8   9
HETATM    9  C5  UNL     1     -35.018  14.429  -6.055  1.00 20.00     0.173 A 
HETATM   10  C2  UNL     1     -35.371  14.440  -7.517  1.00 20.00     0.201 A 
HETATM   11  O11 UNL     1     -36.330  14.785  -6.505  1.00 20.00    -0.379 OA
ENDBRANCH   8   9
ENDBRANCH   2   8
TORSDOF 4
ENDMDL
MODEL 4
REMARK VINA RESULT:      -3.8      2.272      4.871
REMARK  4 active torsions:
REMARK  status: ('A' for Active; 'I' for Inactive)
REMARK    1  A    between atoms: C4_4  and  C8_8 
REMARK    2  A    between atoms: C5_5  and  C9_9 
REMARK    3  A    between atoms: C8_8  and  N10_10 
REMARK    4  A    between atoms: C9_9  and  N10_10 
ROOT
HETATM    1  C7  UNL     1     -33.743  17.607  -4.042  1.00 20.00     0.310 C 
HETATM    2  N10 UNL     1     -33.640  16.509  -3.069  1.00 20.00     0.087 N 
ENDROOT
BRANCH   2   3
HETATM    3  C8  UNL     1     -33.344  15.261  -3.718  1.00 20.00     0.277 C 
BRANCH   3   4
HETATM    4  C4  UNL     1     -34.591  14.512  -4.038  1.00 20.00     0.018 A 
HETATM    5  C1  UNL     1     -34.520  13.179  -4.739  1.00 20.00     0.011 A 
HETATM    6  C3  UNL     1     -35.111  14.368  -5.450  1.00 20.00    -0.012 A 
HETATM    7  C6  UNL     1     -34.415  14.966  -6.623  1.00 20.00     0.010 C 
ENDBRANCH   3   4
ENDBRANCH   2   3
BRANCH   2   8
HETATM    8  C9  UNL     1     -34.885  16.426  -2.290  1.00 20.00     0.305 C 
BRANCH   8   9
HETATM    9  C5  UNL     1     -34.612  16.530  -0.828  1.00 20.00     0.173 A 
HETATM   10  C2  UNL     1     -35.148  17.677  -0.016  1.00 20.00     0.201 A 
HETATM   11  O11 UNL     1     -33.781  17.635  -0.455  1.00 20.00    -0.379 OA
ENDBRANCH   8   9
ENDBRANCH   2   8
TORSDOF 4
ENDMDL
MODEL 5
REMARK VINA RESULT:      -3.7      1.219      1.826
REMARK  4 active torsions:
REMARK  status: ('A' for Active; 'I' for Inactive)
REMARK    1  A    between atoms: C4_4  and  C8_8 
REMARK    2  A    between atoms: C5_5  and  C9_9 
REMARK    3  A    between atoms: C8_8  and  N10_10 
REMARK    4  A    between atoms: C9_9  and  N10_10 
ROOT
HETATM    1  C7  UNL     1     -35.697  17.289  -5.332  1.00 20.00     0.310 C 
HETATM    2  N10 UNL     1     -36.256  16.155  -4.581  1.00 20.00     0.087 N 
ENDROOT
BRANCH   2   3
HETATM    3  C8  UNL     1     -35.918  16.234  -3.186  1.00 20.00     0.277 C 
BRANCH   3   4
HETATM    4  C4  UNL     1     -34.778  17.165  -2.960  1.00 20.00     0.018 A 
HETATM    5  C1  UNL     1     -33.435  16.635  -2.528  1.00 20.00     0.011 A 
HETATM    6  C3  UNL     1     -34.247  17.478  -1.581  1.00 20.00    -0.012 A 
HETATM    7  C6  UNL     1     -34.826  16.879  -0.346  1.00 20.00     0.010 C 
ENDBRANCH   3   4
ENDBRANCH   2   3
BRANCH   2   8
HETATM    8  C9  UNL     1     -35.787  14.894  -5.176  1.00 20.00     0.305 C 
BRANCH   8   9
HETATM    9  C5  UNL     1     -35.327  13.941  -4.124  1.00 20.00     0.173 A 
HETATM   10  C2  UNL     1     -33.915  13.425  -4.107  1.00 20.00     0.201 A 
HETATM   11  O11 UNL     1     -35.004  12.633  -4.608  1.00 20.00    -0.379 OA
ENDBRANCH   8   9
ENDBRANCH   2   8
TORSDOF 4
ENDMDL
MODEL 6
REMARK VINA RESULT:      -3.7     12.650     13.986
REMARK  4 active torsions:
REMARK  status: ('A' for Active; 'I' for Inactive)
REMARK    1  A    between atoms: C4_4  and  C8_8 
REMARK    2  A    between atoms: C5_5  and  C9_9 
REMARK    3  A    between atoms: C8_8  and  N10_10 
REMARK    4  A    between atoms: C9_9  and  N10_10 
ROOT
HETATM    1  C7  UNL     1     -43.324   4.939  -3.062  1.00 20.00     0.310 C 
HETATM    2  N10 UNL     1     -42.694   4.045  -2.077  1.00 20.00     0.087 N 
ENDROOT
BRANCH   2   3
HETATM    3  C8  UNL     1     -41.288   4.313  -1.952  1.00 20.00     0.277 C 
BRANCH   3   4
HETATM    4  C4  UNL     1     -40.932   4.677  -0.552  1.00 20.00     0.018 A 
HETATM    5  C1  UNL     1     -41.982   5.217   0.385  1.00 20.00     0.011 A 
HETATM    6  C3  UNL     1     -40.862   6.111  -0.079  1.00 20.00    -0.012 A 
HETATM    7  C6  UNL     1     -41.144   7.264  -0.980  1.00 20.00     0.010 C 
ENDBRANCH   3   4
ENDBRANCH   2   3
BRANCH   2   8
HETATM    8  C9  UNL     1     -42.942   2.646  -2.457  1.00 20.00     0.305 C 
BRANCH   8   9
HETATM    9  C5  UNL     1     -41.840   2.117  -3.311  1.00 20.00     0.173 A 
HETATM   10  C2  UNL     1     -42.125   1.490  -4.648  1.00 20.00     0.201 A 
HETATM   11  O11 UNL     1     -41.850   0.695  -3.483  1.00 20.00    -0.379 OA
ENDBRANCH   8   9
ENDBRANCH   2   8
TORSDOF 4
ENDMDL
MODEL 7
REMARK VINA RESULT:      -3.6      2.393      5.249
REMARK  4 active torsions:
REMARK  status: ('A' for Active; 'I' for Inactive)
REMARK    1  A    between atoms: C4_4  and  C8_8 
REMARK    2  A    between atoms: C5_5  and  C9_9 
REMARK    3  A    between atoms: C8_8  and  N10_10 
REMARK    4  A    between atoms: C9_9  and  N10_10 
ROOT
HETATM    1  C7  UNL     1     -33.556  13.629  -3.780  1.00 20.00     0.310 C 
HETATM    2  N10 UNL     1     -34.603  14.632  -3.531  1.00 20.00     0.087 N 
ENDROOT
BRANCH   2   3
HETATM    3  C8  UNL     1     -35.214  15.065  -4.757  1.00 20.00     0.277 C 
BRANCH   3   4
HETATM    4  C4  UNL     1     -34.187  15.402  -5.782  1.00 20.00     0.018 A 
HETATM    5  C1  UNL     1     -34.430  16.516  -6.767  1.00 20.00     0.011 A 
HETATM    6  C3  UNL     1     -34.371  15.091  -7.249  1.00 20.00    -0.012 A 
HETATM    7  C6  UNL     1     -35.594  14.424  -7.777  1.00 20.00     0.010 C 
ENDBRANCH   3   4
ENDBRANCH   2   3
BRANCH   2   8
HETATM    8  C9  UNL     1     -34.030  15.764  -2.788  1.00 20.00     0.305 C 
BRANCH   8   9
HETATM    9  C5  UNL     1     -35.047  16.392  -1.896  1.00 20.00     0.173 A 
HETATM   10  C2  UNL     1     -34.802  17.732  -1.258  1.00 20.00     0.201 A 
HETATM   11  O11 UNL     1     -34.648  16.505  -0.526  1.00 20.00    -0.379 OA
ENDBRANCH   8   9
ENDBRANCH   2   8
TORSDOF 4
ENDMDL
MODEL 8
REMARK VINA RESULT:      -3.6      2.613      3.875
REMARK  4 active torsions:
REMARK  status: ('A' for Active; 'I' for Inactive)
REMARK    1  A    between atoms: C4_4  and  C8_8 
REMARK    2  A    between atoms: C5_5  and  C9_9 
REMARK    3  A    between atoms: C8_8  and  N10_10 
REMARK    4  A    between atoms: C9_9  and  N10_10 
ROOT
HETATM    1  C7  UNL     1     -36.635  18.019  -5.035  1.00 20.00     0.310 C 
HETATM    2  N10 UNL     1     -36.062  17.150  -3.995  1.00 20.00     0.087 N 
ENDROOT
BRANCH   2   3
HETATM    3  C8  UNL     1     -35.051  16.284  -4.536  1.00 20.00     0.277 C 
BRANCH   3   4
HETATM    4  C4  UNL     1     -34.372  15.510  -3.460  1.00 20.00     0.018 A 
HETATM    5  C1  UNL     1     -32.986  14.960  -3.676  1.00 20.00     0.011 A 
HETATM    6  C3  UNL     1     -34.153  14.017  -3.549  1.00 20.00    -0.012 A 
HETATM    7  C6  UNL     1     -34.601  13.212  -4.719  1.00 20.00     0.010 C 
ENDBRANCH   3   4
ENDBRANCH   2   3
BRANCH   2   8
HETATM    8  C9  UNL     1     -37.137  16.382  -3.350  1.00 20.00     0.305 C 
BRANCH   8   9
HETATM    9  C5  UNL     1     -37.754  15.415  -4.303  1.00 20.00     0.173 A 
HETATM   10  C2  UNL     1     -39.135  14.866  -4.069  1.00 20.00     0.201 A 
HETATM   11  O11 UNL     1     -37.955  14.101  -3.770  1.00 20.00    -0.379 OA
ENDBRANCH   8   9
ENDBRANCH   2   8
TORSDOF 4
ENDMDL
MODEL 9
REMARK VINA RESULT:      -3.6      2.384      5.039
REMARK  4 active torsions:
REMARK  status: ('A' for Active; 'I' for Inactive)
REMARK    1  A    between atoms: C4_4  and  C8_8 
REMARK    2  A    between atoms: C5_5  and  C9_9 
REMARK    3  A    between atoms: C8_8  and  N10_10 
REMARK    4  A    between atoms: C9_9  and  N10_10 
ROOT
HETATM    1  C7  UNL     1     -33.919  17.526  -3.104  1.00 20.00     0.310 C 
HETATM    2  N10 UNL     1     -34.220  16.236  -2.464  1.00 20.00     0.087 N 
ENDROOT
BRANCH   2   3
HETATM    3  C8  UNL     1     -35.232  15.517  -3.187  1.00 20.00     0.277 C 
BRANCH   3   4
HETATM    4  C4  UNL     1     -34.809  14.114  -3.456  1.00 20.00     0.018 A 
HETATM    5  C1  UNL     1     -33.386  13.811  -3.850  1.00 20.00     0.011 A 
HETATM    6  C3  UNL     1     -34.496  13.614  -4.848  1.00 20.00    -0.012 A 
HETATM    7  C6  UNL     1     -34.591  14.487  -6.051  1.00 20.00     0.010 C 
ENDBRANCH   3   4
ENDBRANCH   2   3
BRANCH   2   8
HETATM    8  C9  UNL     1     -34.619  16.464  -1.067  1.00 20.00     0.305 C 
BRANCH   8   9
HETATM    9  C5  UNL     1     -35.072  17.870  -0.859  1.00 20.00     0.173 A 
HETATM   10  C2  UNL     1     -34.718  18.625   0.392  1.00 20.00     0.201 A 
HETATM   11  O11 UNL     1     -36.017  18.039   0.204  1.00 20.00    -0.379 OA
ENDBRANCH   8   9
ENDBRANCH   2   8
TORSDOF 4
ENDMDL
