MODEL 1
REMARK VINA RESULT:      -4.3      0.000      0.000
REMARK  3 active torsions:
REMARK  status: ('A' for Active; 'I' for Inactive)
REMARK    1  A    between atoms: C4_4  and  C8_8 
REMARK    2  A    between atoms: C7_7  and  N10_10 
REMARK    3  A    between atoms: C8_8  and  N10_10 
ROOT
HETATM    1  C1  UNL     1     -34.433  13.668  -4.012  1.00 20.00     0.089 C 
HETATM    2  C7  UNL     1     -33.917  14.850  -3.323  1.00 20.00     0.394 C 
HETATM    3  N9  UNL     1     -34.841  12.728  -4.557  1.00 20.00    -0.195 NA
ENDROOT
BRANCH   2   4
HETATM    4  N10 UNL     1     -34.412  16.083  -3.956  1.00 20.00     0.097 N 
HETATM    5  C6  UNL     1     -33.358  16.653  -4.810  1.00 20.00     0.311 C 
BRANCH   4   6
HETATM    6  C8  UNL     1     -34.860  17.032  -2.973  1.00 20.00     0.278 C 
BRANCH   6   7
HETATM    7  C4  UNL     1     -34.030  16.961  -1.738  1.00 20.00     0.018 A 
HETATM    8  C2  UNL     1     -34.690  16.899  -0.385  1.00 20.00     0.011 A 
HETATM    9  C3  UNL     1     -33.956  18.144  -0.808  1.00 20.00    -0.012 A 
HETATM   10  C5  UNL     1     -32.663  18.506  -0.162  1.00 20.00     0.010 C 
ENDBRANCH   6   7
ENDBRANCH   4   6
ENDBRANCH   2   4
TORSDOF 3
ENDMDL
MODEL 2
REMARK VINA RESULT:      -4.2      1.070      1.509
REMARK  3 active torsions:
REMARK  status: ('A' for Active; 'I' for Inactive)
REMARK    1  A    between atoms: C4_4  and  C8_8 
REMARK    2  A    between atoms: C7_7  and  N10_10 
REMARK    3  A    between atoms: C8_8  and  N10_10 
ROOT
HETATM    1  C1  UNL     1     -35.230  13.867  -4.425  1.00 20.00     0.089 C 
HETATM    2  C7  UNL     1     -35.592  15.280  -4.535  1.00 20.00     0.394 C 
HETATM    3  N9  UNL     1     -34.947  12.746  -4.339  1.00 20.00    -0.195 NA
ENDROOT
BRANCH   2   4
HETATM    4  N10 UNL     1     -34.606  16.128  -3.848  1.00 20.00     0.097 N 
HETATM    5  C6  UNL     1     -33.289  15.960  -4.482  1.00 20.00     0.311 C 
BRANCH   4   6
HETATM    6  C8  UNL     1     -34.551  15.833  -2.442  1.00 20.00     0.278 C 
BRANCH   6   7
HETATM    7  C4  UNL     1     -34.730  17.066  -1.625  1.00 20.00     0.018 A 
HETATM    8  C2  UNL     1     -33.565  17.650  -0.869  1.00 20.00     0.011 A 
HETATM    9  C3  UNL     1     -34.693  16.989  -0.121  1.00 20.00    -0.012 A 
HETATM   10  C5  UNL     1     -35.633  17.810   0.693  1.00 20.00     0.010 C 
ENDBRANCH   6   7
ENDBRANCH   4   6
ENDBRANCH   2   4
TORSDOF 3
ENDMDL
MODEL 3
REMARK VINA RESULT:      -4.1      1.501      1.969
REMARK  3 active torsions:
REMARK  status: ('A' for Active; 'I' for Inactive)
REMARK    1  A    between atoms: C4_4  and  C8_8 
REMARK    2  A    between atoms: C7_7  and  N10_10 
REMARK    3  A    between atoms: C8_8  and  N10_10 
ROOT
HETATM    1  C1  UNL     1     -34.856  13.733  -5.055  1.00 20.00     0.089 C 
HETATM    2  C7  UNL     1     -35.047  15.142  -5.399  1.00 20.00     0.394 C 
HETATM    3  N9  UNL     1     -34.702  12.616  -4.784  1.00 20.00    -0.195 NA
ENDROOT
BRANCH   2   4
HETATM    4  N10 UNL     1     -36.129  15.735  -4.597  1.00 20.00     0.097 N 
HETATM    5  C6  UNL     1     -36.191  17.183  -4.852  1.00 20.00     0.311 C 
BRANCH   4   6
HETATM    6  C8  UNL     1     -35.955  15.456  -3.197  1.00 20.00     0.278 C 
BRANCH   6   7
HETATM    7  C4  UNL     1     -35.231  16.564  -2.514  1.00 20.00     0.018 A 
HETATM    8  C2  UNL     1     -33.736  16.494  -2.334  1.00 20.00     0.011 A 
HETATM    9  C3  UNL     1     -34.645  16.352  -1.141  1.00 20.00    -0.012 A 
HETATM   10  C5  UNL     1     -34.718  17.436  -0.123  1.00 20.00     0.010 C 
ENDBRANCH   6   7
ENDBRANCH   4   6
ENDBRANCH   2   4
TORSDOF 3
ENDMDL
MODEL 4
REMARK VINA RESULT:      -4.1      1.570      2.601
REMARK  3 active torsions:
REMARK  status: ('A' for Active; 'I' for Inactive)
REMARK    1  A    between atoms: C4_4  and  C8_8 
REMARK    2  A    between atoms: C7_7  and  N10_10 
REMARK    3  A    between atoms: C8_8  and  N10_10 
ROOT
HETATM    1  C1  UNL     1     -34.587  14.396  -6.068  1.00 20.00     0.089 C 
HETATM    2  C7  UNL     1     -34.809  13.314  -5.109  1.00 20.00     0.394 C 
HETATM    3  N9  UNL     1     -34.410  15.252  -6.831  1.00 20.00    -0.195 NA
ENDROOT
BRANCH   2   4
HETATM    4  N10 UNL     1     -35.210  13.851  -3.799  1.00 20.00     0.097 N 
HETATM    5  C6  UNL     1     -36.489  14.564  -3.932  1.00 20.00     0.311 C 
BRANCH   4   6
HETATM    6  C8  UNL     1     -34.190  14.702  -3.247  1.00 20.00     0.278 C 
BRANCH   6   7
HETATM    7  C4  UNL     1     -34.786  15.897  -2.588  1.00 20.00     0.018 A 
HETATM    8  C2  UNL     1     -34.164  17.256  -2.779  1.00 20.00     0.011 A 
HETATM    9  C3  UNL     1     -34.069  16.566  -1.443  1.00 20.00    -0.012 A 
HETATM   10  C5  UNL     1     -34.841  17.082  -0.278  1.00 20.00     0.010 C 
ENDBRANCH   6   7
ENDBRANCH   4   6
ENDBRANCH   2   4
TORSDOF 3
ENDMDL
MODEL 5
REMARK VINA RESULT:      -4.0      1.579      1.954
REMARK  3 active torsions:
REMARK  status: ('A' for Active; 'I' for Inactive)
REMARK    1  A    between atoms: C4_4  and  C8_8 
REMARK    2  A    between atoms: C7_7  and  N10_10 
REMARK    3  A    between atoms: C8_8  and  N10_10 
ROOT
HETATM    1  C1  UNL     1     -36.702  14.415  -4.106  1.00 20.00     0.089 C 
HETATM    2  C7  UNL     1     -35.316  14.531  -4.559  1.00 20.00     0.394 C 
HETATM    3  N9  UNL     1     -37.802  14.320  -3.749  1.00 20.00    -0.195 NA
ENDROOT
BRANCH   2   4
HETATM    4  N10 UNL     1     -34.670  15.713  -3.968  1.00 20.00     0.097 N 
HETATM    5  C6  UNL     1     -33.398  15.975  -4.660  1.00 20.00     0.311 C 
BRANCH   4   6
HETATM    6  C8  UNL     1     -34.472  15.550  -2.553  1.00 20.00     0.278 C 
BRANCH   6   7
HETATM    7  C4  UNL     1     -34.895  16.767  -1.806  1.00 20.00     0.018 A 
HETATM    8  C2  UNL     1     -33.909  17.877  -1.547  1.00 20.00     0.011 A 
HETATM    9  C3  UNL     1     -34.385  17.013  -0.409  1.00 20.00    -0.012 A 
HETATM   10  C5  UNL     1     -35.292  17.575   0.629  1.00 20.00     0.010 C 
ENDBRANCH   6   7
ENDBRANCH   4   6
ENDBRANCH   2   4
TORSDOF 3
ENDMDL
MODEL 6
REMARK VINA RESULT:      -4.0      1.239      2.144
REMARK  3 active torsions:
REMARK  status: ('A' for Active; 'I' for Inactive)
REMARK    1  A    between atoms: C4_4  and  C8_8 
REMARK    2  A    between atoms: C7_7  and  N10_10 
REMARK    3  A    between atoms: C8_8  and  N10_10 
ROOT
HETATM    1  C1  UNL     1     -33.350  16.368  -4.573  1.00 20.00     0.089 C 
HETATM    2  C7  UNL     1     -33.208  15.365  -3.518  1.00 20.00     0.394 C 
HETATM    3  N9  UNL     1     -33.459  17.164  -5.410  1.00 20.00    -0.195 NA
ENDROOT
BRANCH   2   4
HETATM    4  N10 UNL     1     -34.513  15.056  -2.911  1.00 20.00     0.097 N 
HETATM    5  C6  UNL     1     -35.414  14.509  -3.938  1.00 20.00     0.311 C 
BRANCH   4   6
HETATM    6  C8  UNL     1     -35.083  16.214  -2.277  1.00 20.00     0.278 C 
BRANCH   6   7
HETATM    7  C4  UNL     1     -34.304  16.604  -1.069  1.00 20.00     0.018 A 
HETATM    8  C2  UNL     1     -34.998  17.249   0.104  1.00 20.00     0.011 A 
HETATM    9  C3  UNL     1     -34.066  18.060  -0.759  1.00 20.00    -0.012 A 
HETATM   10  C5  UNL     1     -32.749  18.504  -0.225  1.00 20.00     0.010 C 
ENDBRANCH   6   7
ENDBRANCH   4   6
ENDBRANCH   2   4
TORSDOF 3
ENDMDL
MODEL 7
REMARK VINA RESULT:      -3.8      2.024      4.801
REMARK  3 active torsions:
REMARK  status: ('A' for Active; 'I' for Inactive)
REMARK    1  A    between atoms: C4_4  and  C8_8 
REMARK    2  A    between atoms: C7_7  and  N10_10 
REMARK    3  A    between atoms: C8_8  and  N10_10 
ROOT
HETATM    1  C1  UNL     1     -34.712  16.726  -0.743  1.00 20.00     0.089 C 
HETATM    2  C7  UNL     1     -34.745  15.979  -2.000  1.00 20.00     0.394 C 
HETATM    3  N9  UNL     1     -34.689  17.317   0.255  1.00 20.00    -0.195 NA
ENDROOT
BRANCH   2   4
HETATM    4  N10 UNL     1     -33.572  16.298  -2.829  1.00 20.00     0.097 N 
HETATM    5  C6  UNL     1     -33.801  17.568  -3.536  1.00 20.00     0.311 C 
BRANCH   4   6
HETATM    6  C8  UNL     1     -33.276  15.233  -3.748  1.00 20.00     0.278 C 
BRANCH   6   7
HETATM    7  C4  UNL     1     -34.521  14.687  -4.358  1.00 20.00     0.018 A 
HETATM    8  C2  UNL     1     -34.575  13.250  -4.810  1.00 20.00     0.011 A 
HETATM    9  C3  UNL     1     -34.562  14.360  -5.829  1.00 20.00    -0.012 A 
HETATM   10  C5  UNL     1     -35.784  14.659  -6.626  1.00 20.00     0.010 C 
ENDBRANCH   6   7
ENDBRANCH   4   6
ENDBRANCH   2   4
TORSDOF 3
ENDMDL
MODEL 8
REMARK VINA RESULT:      -3.8     10.706     11.935
REMARK  3 active torsions:
REMARK  status: ('A' for Active; 'I' for Inactive)
REMARK    1  A    between atoms: C4_4  and  C8_8 
REMARK    2  A    between atoms: C7_7  and  N10_10 
REMARK    3  A    between atoms: C8_8  and  N10_10 
ROOT
HETATM    1  C1  UNL     1     -32.298   9.096   1.673  1.00 20.00     0.089 C 
HETATM    2  C7  UNL     1     -32.103   7.674   1.953  1.00 20.00     0.394 C 
HETATM    3  N9  UNL     1     -32.451  10.223   1.447  1.00 20.00    -0.195 NA
ENDROOT
BRANCH   2   4
HETATM    4  N10 UNL     1     -32.364   7.379   3.371  1.00 20.00     0.097 N 
HETATM    5  C6  UNL     1     -31.166   7.691   4.166  1.00 20.00     0.311 C 
BRANCH   4   6
HETATM    6  C8  UNL     1     -32.773   6.013   3.555  1.00 20.00     0.278 C 
BRANCH   6   7
HETATM    7  C4  UNL     1     -33.994   5.926   4.403  1.00 20.00     0.018 A 
HETATM    8  C2  UNL     1     -33.981   6.475   5.807  1.00 20.00     0.011 A 
HETATM    9  C3  UNL     1     -34.032   4.986   5.581  1.00 20.00    -0.012 A 
HETATM   10  C5  UNL     1     -35.273   4.224   5.889  1.00 20.00     0.010 C 
ENDBRANCH   6   7
ENDBRANCH   4   6
ENDBRANCH   2   4
TORSDOF 3
ENDMDL
MODEL 9
REMARK VINA RESULT:      -3.7      1.477      1.889
REMARK  3 active torsions:
REMARK  status: ('A' for Active; 'I' for Inactive)
REMARK    1  A    between atoms: C4_4  and  C8_8 
REMARK    2  A    between atoms: C7_7  and  N10_10 
REMARK    3  A    between atoms: C8_8  and  N10_10 
ROOT
HETATM    1  C1  UNL     1     -34.978  14.335  -6.183  1.00 20.00     0.089 C 
HETATM    2  C7  UNL     1     -34.283  14.331  -4.896  1.00 20.00     0.394 C 
HETATM    3  N9  UNL     1     -35.528  14.335  -7.204  1.00 20.00    -0.195 NA
ENDROOT
BRANCH   2   4
HETATM    4  N10 UNL     1     -34.168  15.696  -4.358  1.00 20.00     0.097 N 
HETATM    5  C6  UNL     1     -33.350  16.514  -5.267  1.00 20.00     0.311 C 
BRANCH   4   6
HETATM    6  C8  UNL     1     -33.625  15.690  -3.027  1.00 20.00     0.278 C 
BRANCH   6   7
HETATM    7  C4  UNL     1     -34.661  16.059  -2.022  1.00 20.00     0.018 A 
HETATM    8  C2  UNL     1     -35.509  17.289  -2.225  1.00 20.00     0.011 A 
HETATM    9  C3  UNL     1     -34.464  17.266  -1.140  1.00 20.00    -0.012 A 
HETATM   10  C5  UNL     1     -34.872  17.220   0.291  1.00 20.00     0.010 C 
ENDBRANCH   6   7
ENDBRANCH   4   6
ENDBRANCH   2   4
TORSDOF 3
ENDMDL
