MODEL 1
REMARK VINA RESULT:      -5.1      0.000      0.000
REMARK  4 active torsions:
REMARK  status: ('A' for Active; 'I' for Inactive)
REMARK    1  A    between atoms: C2_2  and  C5_5 
REMARK    2  A    between atoms: C5_5  and  C6_6 
REMARK    3  A    between atoms: C6_6  and  C8_8 
REMARK    4  A    between atoms: C7_7  and  C8_8 
ROOT
HETATM    1  C1  UNL     1     -32.261   8.424   1.807  1.00 20.00    -0.111 C 
HETATM    2  C2  UNL     1     -32.338   7.510   2.580  1.00 20.00    -0.107 C 
HETATM    3  C3  UNL     1     -32.165   9.538   0.865  1.00 20.00     0.112 C 
ENDROOT
BRANCH   2   4
HETATM    4  C5  UNL     1     -32.435   6.392   3.530  1.00 20.00     0.094 C 
BRANCH   4   5
HETATM    5  C6  UNL     1     -33.778   6.367   4.265  1.00 20.00     0.017 C 
BRANCH   5   6
HETATM    6  C8  UNL     1     -33.714   5.959   5.754  1.00 20.00    -0.004 C 
HETATM    7  C4  UNL     1     -33.665   7.217   6.632  1.00 20.00     0.011 C 
BRANCH   6   8
HETATM    8  C7  UNL     1     -34.836   5.008   6.201  1.00 20.00     0.119 C 
HETATM    9 CL9  UNL     1     -35.222   3.747   5.006  1.00 20.00    -0.130 Cl
ENDBRANCH   6   8
ENDBRANCH   5   6
ENDBRANCH   4   5
ENDBRANCH   2   4
TORSDOF 4
ENDMDL
MODEL 2
REMARK VINA RESULT:      -5.0      1.652      2.091
REMARK  4 active torsions:
REMARK  status: ('A' for Active; 'I' for Inactive)
REMARK    1  A    between atoms: C2_2  and  C5_5 
REMARK    2  A    between atoms: C5_5  and  C6_6 
REMARK    3  A    between atoms: C6_6  and  C8_8 
REMARK    4  A    between atoms: C7_7  and  C8_8 
ROOT
HETATM    1  C1  UNL     1     -32.200   8.027   2.043  1.00 20.00    -0.111 C 
HETATM    2  C2  UNL     1     -32.498   7.165   2.823  1.00 20.00    -0.107 C 
HETATM    3  C3  UNL     1     -31.839   9.077   1.093  1.00 20.00     0.112 C 
ENDROOT
BRANCH   2   4
HETATM    4  C5  UNL     1     -32.865   6.109   3.777  1.00 20.00     0.094 C 
BRANCH   4   5
HETATM    5  C6  UNL     1     -34.382   5.936   3.900  1.00 20.00     0.017 C 
BRANCH   5   6
HETATM    6  C8  UNL     1     -34.876   5.330   5.233  1.00 20.00    -0.004 C 
HETATM    7  C4  UNL     1     -35.098   3.821   5.063  1.00 20.00     0.011 C 
BRANCH   6   8
HETATM    8  C7  UNL     1     -33.973   5.629   6.441  1.00 20.00     0.119 C 
HETATM    9 CL9  UNL     1     -33.822   7.364   6.807  1.00 20.00    -0.130 Cl
ENDBRANCH   6   8
ENDBRANCH   5   6
ENDBRANCH   4   5
ENDBRANCH   2   4
TORSDOF 4
ENDMDL
MODEL 3
REMARK VINA RESULT:      -5.0      1.039      1.695
REMARK  4 active torsions:
REMARK  status: ('A' for Active; 'I' for Inactive)
REMARK    1  A    between atoms: C2_2  and  C5_5 
REMARK    2  A    between atoms: C5_5  and  C6_6 
REMARK    3  A    between atoms: C6_6  and  C8_8 
REMARK    4  A    between atoms: C7_7  and  C8_8 
ROOT
HETATM    1  C1  UNL     1     -32.171   8.763   1.641  1.00 20.00    -0.111 C 
HETATM    2  C2  UNL     1     -32.059   7.847   2.408  1.00 20.00    -0.107 C 
HETATM    3  C3  UNL     1     -32.309   9.877   0.704  1.00 20.00     0.112 C 
ENDROOT
BRANCH   2   4
HETATM    4  C5  UNL     1     -31.917   6.725   3.347  1.00 20.00     0.094 C 
BRANCH   4   5
HETATM    5  C6  UNL     1     -33.121   5.779   3.311  1.00 20.00     0.017 C 
BRANCH   5   6
HETATM    6  C8  UNL     1     -34.336   6.215   4.161  1.00 20.00    -0.004 C 
HETATM    7  C4  UNL     1     -35.581   5.433   3.720  1.00 20.00     0.011 C 
BRANCH   6   8
HETATM    8  C7  UNL     1     -34.119   6.112   5.679  1.00 20.00     0.119 C 
HETATM    9 CL9  UNL     1     -34.816   4.643   6.401  1.00 20.00    -0.130 Cl
ENDBRANCH   6   8
ENDBRANCH   5   6
ENDBRANCH   4   5
ENDBRANCH   2   4
TORSDOF 4
ENDMDL
MODEL 4
REMARK VINA RESULT:      -4.5      2.870      5.175
REMARK  4 active torsions:
REMARK  status: ('A' for Active; 'I' for Inactive)
REMARK    1  A    between atoms: C2_2  and  C5_5 
REMARK    2  A    between atoms: C5_5  and  C6_6 
REMARK    3  A    between atoms: C6_6  and  C8_8 
REMARK    4  A    between atoms: C7_7  and  C8_8 
ROOT
HETATM    1  C1  UNL     1     -34.828   4.950   5.253  1.00 20.00    -0.111 C 
HETATM    2  C2  UNL     1     -34.525   5.271   4.137  1.00 20.00    -0.107 C 
HETATM    3  C3  UNL     1     -35.197   4.562   6.613  1.00 20.00     0.112 C 
ENDROOT
BRANCH   2   4
HETATM    4  C5  UNL     1     -34.151   5.661   2.770  1.00 20.00     0.094 C 
BRANCH   4   5
HETATM    5  C6  UNL     1     -32.671   6.037   2.655  1.00 20.00     0.017 C 
BRANCH   5   6
HETATM    6  C8  UNL     1     -32.343   7.529   2.888  1.00 20.00    -0.004 C 
HETATM    7  C4  UNL     1     -31.273   7.657   3.981  1.00 20.00     0.011 C 
BRANCH   6   8
HETATM    8  C7  UNL     1     -31.941   8.296   1.619  1.00 20.00     0.119 C 
HETATM    9 CL9  UNL     1     -32.556   9.965   1.569  1.00 20.00    -0.130 Cl
ENDBRANCH   6   8
ENDBRANCH   5   6
ENDBRANCH   4   5
ENDBRANCH   2   4
TORSDOF 4
ENDMDL
MODEL 5
REMARK VINA RESULT:      -4.1     11.602     12.415
REMARK  4 active torsions:
REMARK  status: ('A' for Active; 'I' for Inactive)
REMARK    1  A    between atoms: C2_2  and  C5_5 
REMARK    2  A    between atoms: C5_5  and  C6_6 
REMARK    3  A    between atoms: C6_6  and  C8_8 
REMARK    4  A    between atoms: C7_7  and  C8_8 
ROOT
HETATM    1  C1  UNL     1     -34.766  17.102  -0.102  1.00 20.00    -0.111 C 
HETATM    2  C2  UNL     1     -34.337  16.745  -1.165  1.00 20.00    -0.107 C 
HETATM    3  C3  UNL     1     -35.286  17.537   1.193  1.00 20.00     0.112 C 
ENDROOT
BRANCH   2   4
HETATM    4  C5  UNL     1     -33.815  16.305  -2.466  1.00 20.00     0.094 C 
BRANCH   4   5
HETATM    5  C6  UNL     1     -34.499  15.029  -2.967  1.00 20.00     0.017 C 
BRANCH   5   6
HETATM    6  C8  UNL     1     -34.019  14.513  -4.343  1.00 20.00    -0.004 C 
HETATM    7  C4  UNL     1     -34.815  13.259  -4.729  1.00 20.00     0.011 C 
BRANCH   6   8
HETATM    8  C7  UNL     1     -34.055  15.565  -5.463  1.00 20.00     0.119 C 
HETATM    9 CL9  UNL     1     -34.396  14.884  -7.071  1.00 20.00    -0.130 Cl
ENDBRANCH   6   8
ENDBRANCH   5   6
ENDBRANCH   4   5
ENDBRANCH   2   4
TORSDOF 4
ENDMDL
MODEL 6
REMARK VINA RESULT:      -4.0     11.297     12.179
REMARK  4 active torsions:
REMARK  status: ('A' for Active; 'I' for Inactive)
REMARK    1  A    between atoms: C2_2  and  C5_5 
REMARK    2  A    between atoms: C5_5  and  C6_6 
REMARK    3  A    between atoms: C6_6  and  C8_8 
REMARK    4  A    between atoms: C7_7  and  C8_8 
ROOT
HETATM    1  C1  UNL     1     -34.463  16.610  -1.139  1.00 20.00    -0.111 C 
HETATM    2  C2  UNL     1     -34.116  16.071  -2.153  1.00 20.00    -0.107 C 
HETATM    3  C3  UNL     1     -34.885  17.268   0.097  1.00 20.00     0.112 C 
ENDROOT
BRANCH   2   4
HETATM    4  C5  UNL     1     -33.690  15.408  -3.393  1.00 20.00     0.094 C 
BRANCH   4   5
HETATM    5  C6  UNL     1     -34.185  13.961  -3.480  1.00 20.00     0.017 C 
BRANCH   5   6
HETATM    6  C8  UNL     1     -35.278  13.694  -4.538  1.00 20.00    -0.004 C 
HETATM    7  C4  UNL     1     -36.599  14.334  -4.088  1.00 20.00     0.011 C 
BRANCH   6   8
HETATM    8  C7  UNL     1     -34.903  14.130  -5.964  1.00 20.00     0.119 C 
HETATM    9 CL9  UNL     1     -36.248  14.874  -6.860  1.00 20.00    -0.130 Cl
ENDBRANCH   6   8
ENDBRANCH   5   6
ENDBRANCH   4   5
ENDBRANCH   2   4
TORSDOF 4
ENDMDL
MODEL 7
REMARK VINA RESULT:      -4.0     11.413     12.314
REMARK  4 active torsions:
REMARK  status: ('A' for Active; 'I' for Inactive)
REMARK    1  A    between atoms: C2_2  and  C5_5 
REMARK    2  A    between atoms: C5_5  and  C6_6 
REMARK    3  A    between atoms: C6_6  and  C8_8 
REMARK    4  A    between atoms: C7_7  and  C8_8 
ROOT
HETATM    1  C1  UNL     1     -34.232  16.451  -1.677  1.00 20.00    -0.111 C 
HETATM    2  C2  UNL     1     -33.722  15.967  -2.650  1.00 20.00    -0.107 C 
HETATM    3  C3  UNL     1     -34.853  17.042  -0.493  1.00 20.00     0.112 C 
ENDROOT
BRANCH   2   4
HETATM    4  C5  UNL     1     -33.095  15.374  -3.839  1.00 20.00     0.094 C 
BRANCH   4   5
HETATM    5  C6  UNL     1     -33.875  15.677  -5.122  1.00 20.00     0.017 C 
BRANCH   5   6
HETATM    6  C8  UNL     1     -34.883  14.590  -5.559  1.00 20.00    -0.004 C 
HETATM    7  C4  UNL     1     -34.562  13.271  -4.844  1.00 20.00     0.011 C 
BRANCH   6   8
HETATM    8  C7  UNL     1     -36.358  14.981  -5.376  1.00 20.00     0.119 C 
HETATM    9 CL9  UNL     1     -36.974  14.691  -3.732  1.00 20.00    -0.130 Cl
ENDBRANCH   6   8
ENDBRANCH   5   6
ENDBRANCH   4   5
ENDBRANCH   2   4
TORSDOF 4
ENDMDL
MODEL 8
REMARK VINA RESULT:      -3.9     11.393     12.469
REMARK  4 active torsions:
REMARK  status: ('A' for Active; 'I' for Inactive)
REMARK    1  A    between atoms: C2_2  and  C5_5 
REMARK    2  A    between atoms: C5_5  and  C6_6 
REMARK    3  A    between atoms: C6_6  and  C8_8 
REMARK    4  A    between atoms: C7_7  and  C8_8 
ROOT
HETATM    1  C1  UNL     1     -34.791  17.026  -0.202  1.00 20.00    -0.111 C 
HETATM    2  C2  UNL     1     -34.382  16.592  -1.243  1.00 20.00    -0.107 C 
HETATM    3  C3  UNL     1     -35.287  17.555   1.068  1.00 20.00     0.112 C 
ENDROOT
BRANCH   2   4
HETATM    4  C5  UNL     1     -33.883  16.058  -2.518  1.00 20.00     0.094 C 
BRANCH   4   5
HETATM    5  C6  UNL     1     -35.011  15.777  -3.514  1.00 20.00     0.017 C 
BRANCH   5   6
HETATM    6  C8  UNL     1     -34.621  15.874  -5.006  1.00 20.00    -0.004 C 
HETATM    7  C4  UNL     1     -33.266  16.582  -5.140  1.00 20.00     0.011 C 
BRANCH   6   8
HETATM    8  C7  UNL     1     -34.625  14.530  -5.752  1.00 20.00     0.119 C 
HETATM    9 CL9  UNL     1     -34.569  13.115  -4.674  1.00 20.00    -0.130 Cl
ENDBRANCH   6   8
ENDBRANCH   5   6
ENDBRANCH   4   5
ENDBRANCH   2   4
TORSDOF 4
ENDMDL
MODEL 9
REMARK VINA RESULT:      -3.9     11.917     13.248
REMARK  4 active torsions:
REMARK  status: ('A' for Active; 'I' for Inactive)
REMARK    1  A    between atoms: C2_2  and  C5_5 
REMARK    2  A    between atoms: C5_5  and  C6_6 
REMARK    3  A    between atoms: C6_6  and  C8_8 
REMARK    4  A    between atoms: C7_7  and  C8_8 
ROOT
HETATM    1  C1  UNL     1     -34.666  16.656  -0.854  1.00 20.00    -0.111 C 
HETATM    2  C2  UNL     1     -34.544  16.009  -1.857  1.00 20.00    -0.107 C 
HETATM    3  C3  UNL     1     -34.815  17.446   0.367  1.00 20.00     0.112 C 
ENDROOT
BRANCH   2   4
HETATM    4  C5  UNL     1     -34.392  15.214  -3.084  1.00 20.00     0.094 C 
BRANCH   4   5
HETATM    5  C6  UNL     1     -33.083  15.521  -3.818  1.00 20.00     0.017 C 
BRANCH   5   6
HETATM    6  C8  UNL     1     -33.222  16.373  -5.100  1.00 20.00    -0.004 C 
HETATM    7  C4  UNL     1     -34.220  15.705  -6.056  1.00 20.00     0.011 C 
BRANCH   6   8
HETATM    8  C7  UNL     1     -33.588  17.844  -4.847  1.00 20.00     0.119 C 
HETATM    9 CL9  UNL     1     -35.325  18.188  -5.022  1.00 20.00    -0.130 Cl
ENDBRANCH   6   8
ENDBRANCH   5   6
ENDBRANCH   4   5
ENDBRANCH   2   4
TORSDOF 4
ENDMDL
