MODEL 1
REMARK VINA RESULT:      -4.9      0.000      0.000
REMARK  0 active torsions:
REMARK  status: ('A' for Active; 'I' for Inactive)
ROOT
HETATM    1  C1  UNL     1     -33.555  17.438  -4.232  1.00 20.00    -0.088 C 
HETATM    2  C2  UNL     1     -33.708  18.348  -5.205  1.00 20.00     0.014 C 
HETATM    3  C3  UNL     1     -33.837  17.765  -2.787  1.00 20.00     0.037 C 
HETATM    4  C4  UNL     1     -33.130  16.022  -4.509  1.00 20.00     0.042 C 
HETATM    5  C5  UNL     1     -34.853  15.452  -2.676  1.00 20.00     0.013 C 
HETATM    6  C6  UNL     1     -34.020  16.501  -1.924  1.00 20.00    -0.014 C 
HETATM    7  C7  UNL     1     -34.180  14.996  -4.007  1.00 20.00    -0.044 C 
HETATM    8  C8  UNL     1     -34.661  16.855  -0.583  1.00 20.00     0.010 C 
HETATM    9  C9  UNL     1     -33.474  13.645  -3.791  1.00 20.00     0.015 C 
HETATM   10  C10 UNL     1     -35.276  14.798  -5.074  1.00 20.00     0.015 C 
ENDROOT
TORSDOF 0
ENDMDL
MODEL 2
REMARK VINA RESULT:      -4.6      1.003      1.063
REMARK  0 active torsions:
REMARK  status: ('A' for Active; 'I' for Inactive)
ROOT
HETATM    1  C1  UNL     1     -33.746  16.841  -4.931  1.00 20.00    -0.088 C 
HETATM    2  C2  UNL     1     -33.690  17.777  -5.891  1.00 20.00     0.014 C 
HETATM    3  C3  UNL     1     -33.710  17.201  -3.468  1.00 20.00     0.037 C 
HETATM    4  C4  UNL     1     -33.888  15.375  -5.239  1.00 20.00     0.042 C 
HETATM    5  C5  UNL     1     -35.454  15.391  -3.191  1.00 20.00     0.013 C 
HETATM    6  C6  UNL     1     -34.216  16.056  -2.568  1.00 20.00    -0.014 C 
HETATM    7  C7  UNL     1     -35.160  14.770  -4.590  1.00 20.00    -0.044 C 
HETATM    8  C8  UNL     1     -34.516  16.570  -1.161  1.00 20.00     0.010 C 
HETATM    9  C9  UNL     1     -34.955  13.250  -4.447  1.00 20.00     0.015 C 
HETATM   10  C10 UNL     1     -36.381  15.004  -5.502  1.00 20.00     0.015 C 
ENDROOT
TORSDOF 0
ENDMDL
MODEL 3
REMARK VINA RESULT:      -4.5      0.666      3.000
REMARK  0 active torsions:
REMARK  status: ('A' for Active; 'I' for Inactive)
ROOT
HETATM    1  C1  UNL     1     -34.706  16.465  -2.384  1.00 20.00    -0.088 C 
HETATM    2  C2  UNL     1     -34.582  16.469  -1.049  1.00 20.00     0.014 C 
HETATM    3  C3  UNL     1     -34.420  17.692  -3.212  1.00 20.00     0.037 C 
HETATM    4  C4  UNL     1     -35.101  15.234  -3.156  1.00 20.00     0.042 C 
HETATM    5  C5  UNL     1     -33.351  16.086  -4.848  1.00 20.00     0.013 C 
HETATM    6  C6  UNL     1     -34.201  17.357  -4.702  1.00 20.00    -0.014 C 
HETATM    7  C7  UNL     1     -34.023  14.838  -4.199  1.00 20.00    -0.044 C 
HETATM    8  C8  UNL     1     -33.558  18.537  -5.428  1.00 20.00     0.010 C 
HETATM    9  C9  UNL     1     -34.697  13.988  -5.293  1.00 20.00     0.015 C 
HETATM   10  C10 UNL     1     -32.932  13.978  -3.530  1.00 20.00     0.015 C 
ENDROOT
TORSDOF 0
ENDMDL
MODEL 4
REMARK VINA RESULT:      -4.3      1.666      3.389
REMARK  0 active torsions:
REMARK  status: ('A' for Active; 'I' for Inactive)
ROOT
HETATM    1  C1  UNL     1     -35.026  15.298  -6.212  1.00 20.00    -0.088 C 
HETATM    2  C2  UNL     1     -34.484  14.888  -7.368  1.00 20.00     0.014 C 
HETATM    3  C3  UNL     1     -36.507  15.189  -5.946  1.00 20.00     0.037 C 
HETATM    4  C4  UNL     1     -34.201  15.858  -5.085  1.00 20.00     0.042 C 
HETATM    5  C5  UNL     1     -35.828  14.509  -3.607  1.00 20.00     0.013 C 
HETATM    6  C6  UNL     1     -36.844  15.299  -4.446  1.00 20.00    -0.014 C 
HETATM    7  C7  UNL     1     -34.371  15.034  -3.781  1.00 20.00    -0.044 C 
HETATM    8  C8  UNL     1     -38.270  14.820  -4.179  1.00 20.00     0.010 C 
HETATM    9  C9  UNL     1     -34.000  15.934  -2.588  1.00 20.00     0.015 C 
HETATM   10  C10 UNL     1     -33.408  13.830  -3.789  1.00 20.00     0.015 C 
ENDROOT
TORSDOF 0
ENDMDL
MODEL 5
REMARK VINA RESULT:      -4.3      1.164      3.574
REMARK  0 active torsions:
REMARK  status: ('A' for Active; 'I' for Inactive)
ROOT
HETATM    1  C1  UNL     1     -34.241  16.138  -2.504  1.00 20.00    -0.088 C 
HETATM    2  C2  UNL     1     -34.625  16.431  -1.253  1.00 20.00     0.014 C 
HETATM    3  C3  UNL     1     -34.342  14.740  -3.059  1.00 20.00     0.037 C 
HETATM    4  C4  UNL     1     -33.719  17.181  -3.454  1.00 20.00     0.042 C 
HETATM    5  C5  UNL     1     -35.089  15.865  -5.197  1.00 20.00     0.013 C 
HETATM    6  C6  UNL     1     -34.267  14.713  -4.599  1.00 20.00    -0.014 C 
HETATM    7  C7  UNL     1     -34.575  17.265  -4.745  1.00 20.00    -0.044 C 
HETATM    8  C8  UNL     1     -34.739  13.363  -5.135  1.00 20.00     0.010 C 
HETATM    9  C9  UNL     1     -33.711  17.882  -5.861  1.00 20.00     0.015 C 
HETATM   10  C10 UNL     1     -35.788  18.188  -4.515  1.00 20.00     0.015 C 
ENDROOT
TORSDOF 0
ENDMDL
MODEL 6
REMARK VINA RESULT:      -4.3      1.592      4.000
REMARK  0 active torsions:
REMARK  status: ('A' for Active; 'I' for Inactive)
ROOT
HETATM    1  C1  UNL     1     -36.455  14.645  -4.520  1.00 20.00    -0.088 C 
HETATM    2  C2  UNL     1     -37.659  14.704  -3.931  1.00 20.00     0.014 C 
HETATM    3  C3  UNL     1     -36.210  15.228  -5.889  1.00 20.00     0.037 C 
HETATM    4  C4  UNL     1     -35.255  14.033  -3.848  1.00 20.00     0.042 C 
HETATM    5  C5  UNL     1     -33.999  16.003  -4.938  1.00 20.00     0.013 C 
HETATM    6  C6  UNL     1     -34.711  15.440  -6.178  1.00 20.00    -0.014 C 
HETATM    7  C7  UNL     1     -34.091  15.049  -3.710  1.00 20.00    -0.044 C 
HETATM    8  C8  UNL     1     -34.521  16.356  -7.385  1.00 20.00     0.010 C 
HETATM    9  C9  UNL     1     -32.775  14.261  -3.569  1.00 20.00     0.015 C 
HETATM   10  C10 UNL     1     -34.279  15.896  -2.435  1.00 20.00     0.015 C 
ENDROOT
TORSDOF 0
ENDMDL
MODEL 7
REMARK VINA RESULT:      -4.2      1.944      3.439
REMARK  0 active torsions:
REMARK  status: ('A' for Active; 'I' for Inactive)
ROOT
HETATM    1  C1  UNL     1     -35.130  14.962  -6.985  1.00 20.00    -0.088 C 
HETATM    2  C2  UNL     1     -36.047  14.668  -7.918  1.00 20.00     0.014 C 
HETATM    3  C3  UNL     1     -34.453  16.308  -6.934  1.00 20.00     0.037 C 
HETATM    4  C4  UNL     1     -34.737  13.993  -5.903  1.00 20.00     0.042 C 
HETATM    5  C5  UNL     1     -34.696  16.105  -4.425  1.00 20.00     0.013 C 
HETATM    6  C6  UNL     1     -33.788  16.580  -5.570  1.00 20.00    -0.014 C 
HETATM    7  C7  UNL     1     -34.989  14.576  -4.488  1.00 20.00    -0.044 C 
HETATM    8  C8  UNL     1     -33.447  18.062  -5.424  1.00 20.00     0.010 C 
HETATM    9  C9  UNL     1     -34.079  13.835  -3.490  1.00 20.00     0.015 C 
HETATM   10  C10 UNL     1     -36.453  14.333  -4.070  1.00 20.00     0.015 C 
ENDROOT
TORSDOF 0
ENDMDL
MODEL 8
REMARK VINA RESULT:      -4.2      1.412      3.441
REMARK  0 active torsions:
REMARK  status: ('A' for Active; 'I' for Inactive)
ROOT
HETATM    1  C1  UNL     1     -35.939  16.695  -4.165  1.00 20.00    -0.088 C 
HETATM    2  C2  UNL     1     -36.401  17.537  -5.101  1.00 20.00     0.014 C 
HETATM    3  C3  UNL     1     -35.351  15.354  -4.524  1.00 20.00     0.037 C 
HETATM    4  C4  UNL     1     -35.936  17.037  -2.700  1.00 20.00     0.042 C 
HETATM    5  C5  UNL     1     -33.648  15.849  -2.721  1.00 20.00     0.013 C 
HETATM    6  C6  UNL     1     -34.506  14.758  -3.380  1.00 20.00    -0.014 C 
HETATM    7  C7  UNL     1     -34.506  16.992  -2.100  1.00 20.00    -0.044 C 
HETATM    8  C8  UNL     1     -33.638  13.611  -3.895  1.00 20.00     0.010 C 
HETATM    9  C9  UNL     1     -34.625  16.778  -0.579  1.00 20.00     0.015 C 
HETATM   10  C10 UNL     1     -33.791  18.336  -2.339  1.00 20.00     0.015 C 
ENDROOT
TORSDOF 0
ENDMDL
MODEL 9
REMARK VINA RESULT:      -4.2     12.461     14.268
REMARK  0 active torsions:
REMARK  status: ('A' for Active; 'I' for Inactive)
ROOT
HETATM    1  C1  UNL     1     -43.177   5.939  -2.727  1.00 20.00    -0.088 C 
HETATM    2  C2  UNL     1     -43.395   7.060  -3.429  1.00 20.00     0.014 C 
HETATM    3  C3  UNL     1     -42.870   4.626  -3.401  1.00 20.00     0.037 C 
HETATM    4  C4  UNL     1     -43.183   5.913  -1.222  1.00 20.00     0.042 C 
HETATM    5  C5  UNL     1     -41.204   4.288  -1.529  1.00 20.00     0.013 C 
HETATM    6  C6  UNL     1     -42.238   3.603  -2.437  1.00 20.00    -0.014 C 
HETATM    7  C7  UNL     1     -41.831   5.411  -0.649  1.00 20.00    -0.044 C 
HETATM    8  C8  UNL     1     -41.608   2.449  -3.214  1.00 20.00     0.010 C 
HETATM    9  C9  UNL     1     -42.079   4.873   0.774  1.00 20.00     0.015 C 
HETATM   10  C10 UNL     1     -40.832   6.581  -0.550  1.00 20.00     0.015 C 
ENDROOT
TORSDOF 0
ENDMDL
