MODEL 1
REMARK VINA RESULT:      -3.9      0.000      0.000
REMARK  2 active torsions:
REMARK  status: ('A' for Active; 'I' for Inactive)
REMARK    1  A    between atoms: C7_7  and  C8_8 
REMARK    2  A    between atoms: C7_7  and  N9_9 
ROOT
HETATM    1  C1  UNL     1     -33.698  16.798  -3.494  1.00 20.00     0.038 C 
HETATM    2  C2  UNL     1     -33.042  15.435  -3.656  1.00 20.00     0.235 C 
HETATM    3  C3  UNL     1     -35.446  15.217  -3.265  1.00 20.00     0.243 C 
HETATM    4  C4  UNL     1     -34.963  16.540  -2.671  1.00 20.00    -0.022 C 
HETATM    5  C5  UNL     1     -34.640  16.405  -1.174  1.00 20.00     0.016 C 
HETATM    6  C6  UNL     1     -35.999  17.650  -2.864  1.00 20.00     0.016 C 
HETATM    7  N9  UNL     1     -34.169  14.434  -3.493  1.00 20.00    -0.069 N 
HETATM    8  H27 UNL     1     -33.981  13.909  -2.628  1.00 20.00     0.280 HD
ENDROOT
BRANCH   7   9
HETATM    9  C7  UNL     1     -34.267  13.430  -4.597  1.00 20.00     0.250 C 
BRANCH   9  10
HETATM   10  C8  UNL     1     -35.211  13.931  -5.674  1.00 20.00     0.142 C 
HETATM   11 CL10 UNL     1     -34.347  14.875  -6.912  1.00 20.00    -0.129 Cl
ENDBRANCH   9  10
ENDBRANCH   7   9
TORSDOF 2
ENDMDL
MODEL 2
REMARK VINA RESULT:      -3.8      2.744      4.372
REMARK  2 active torsions:
REMARK  status: ('A' for Active; 'I' for Inactive)
REMARK    1  A    between atoms: C7_7  and  C8_8 
REMARK    2  A    between atoms: C7_7  and  N9_9 
ROOT
HETATM    1  C1  UNL     1     -35.950  15.370  -4.649  1.00 20.00     0.038 C 
HETATM    2  C2  UNL     1     -35.810  15.488  -3.139  1.00 20.00     0.235 C 
HETATM    3  C3  UNL     1     -33.620  15.425  -4.226  1.00 20.00     0.243 C 
HETATM    4  C4  UNL     1     -34.643  14.729  -5.125  1.00 20.00    -0.022 C 
HETATM    5  C5  UNL     1     -34.650  13.208  -4.902  1.00 20.00     0.016 C 
HETATM    6  C6  UNL     1     -34.376  15.020  -6.603  1.00 20.00     0.016 C 
HETATM    7  N9  UNL     1     -34.315  15.509  -2.882  1.00 20.00    -0.069 N 
HETATM    8  H27 UNL     1     -34.087  14.645  -2.373  1.00 20.00     0.280 HD
ENDROOT
BRANCH   7   9
HETATM    9  C7  UNL     1     -33.850  16.649  -2.034  1.00 20.00     0.250 C 
BRANCH   9  10
HETATM   10  C8  UNL     1     -34.632  16.683  -0.734  1.00 20.00     0.142 C 
HETATM   11 CL10 UNL     1     -34.032  17.956   0.356  1.00 20.00    -0.129 Cl
ENDBRANCH   9  10
ENDBRANCH   7   9
TORSDOF 2
ENDMDL
MODEL 3
REMARK VINA RESULT:      -3.8      2.244      3.918
REMARK  2 active torsions:
REMARK  status: ('A' for Active; 'I' for Inactive)
REMARK    1  A    between atoms: C7_7  and  C8_8 
REMARK    2  A    between atoms: C7_7  and  N9_9 
ROOT
HETATM    1  C1  UNL     1     -35.663  13.628  -4.850  1.00 20.00     0.038 C 
HETATM    2  C2  UNL     1     -34.192  13.531  -4.477  1.00 20.00     0.235 C 
HETATM    3  C3  UNL     1     -34.760  15.781  -5.249  1.00 20.00     0.243 C 
HETATM    4  C4  UNL     1     -35.748  14.783  -5.853  1.00 20.00    -0.022 C 
HETATM    5  C5  UNL     1     -35.314  14.337  -7.259  1.00 20.00     0.016 C 
HETATM    6  C6  UNL     1     -37.160  15.368  -5.923  1.00 20.00     0.016 C 
HETATM    7  N9  UNL     1     -33.624  14.911  -4.750  1.00 20.00    -0.069 N 
HETATM    8  H27 UNL     1     -32.958  14.812  -5.528  1.00 20.00     0.280 HD
ENDROOT
BRANCH   7   9
HETATM    9  C7  UNL     1     -32.869  15.505  -3.604  1.00 20.00     0.250 C 
BRANCH   9  10
HETATM   10  C8  UNL     1     -33.664  16.641  -2.989  1.00 20.00     0.142 C 
HETATM   11 CL10 UNL     1     -34.644  16.082  -1.612  1.00 20.00    -0.129 Cl
ENDBRANCH   9  10
ENDBRANCH   7   9
TORSDOF 2
ENDMDL
MODEL 4
REMARK VINA RESULT:      -3.7      1.054      1.379
REMARK  2 active torsions:
REMARK  status: ('A' for Active; 'I' for Inactive)
REMARK    1  A    between atoms: C7_7  and  C8_8 
REMARK    2  A    between atoms: C7_7  and  N9_9 
ROOT
HETATM    1  C1  UNL     1     -33.298  15.758  -3.053  1.00 20.00     0.038 C 
HETATM    2  C2  UNL     1     -34.136  14.545  -3.428  1.00 20.00     0.235 C 
HETATM    3  C3  UNL     1     -35.477  16.590  -3.470  1.00 20.00     0.243 C 
HETATM    4  C4  UNL     1     -34.298  16.786  -2.516  1.00 20.00    -0.022 C 
HETATM    5  C5  UNL     1     -34.690  16.479  -1.061  1.00 20.00     0.016 C 
HETATM    6  C6  UNL     1     -33.744  18.210  -2.598  1.00 20.00     0.016 C 
HETATM    7  N9  UNL     1     -35.529  15.090  -3.678  1.00 20.00    -0.069 N 
HETATM    8  H27 UNL     1     -36.138  14.707  -2.943  1.00 20.00     0.280 HD
ENDROOT
BRANCH   7   9
HETATM    9  C7  UNL     1     -36.124  14.685  -4.989  1.00 20.00     0.250 C 
BRANCH   9  10
HETATM   10  C8  UNL     1     -35.082  13.983  -5.839  1.00 20.00     0.142 C 
HETATM   11 CL10 UNL     1     -34.326  15.099  -7.001  1.00 20.00    -0.129 Cl
ENDBRANCH   9  10
ENDBRANCH   7   9
TORSDOF 2
ENDMDL
MODEL 5
REMARK VINA RESULT:      -3.7      2.394      4.131
REMARK  2 active torsions:
REMARK  status: ('A' for Active; 'I' for Inactive)
REMARK    1  A    between atoms: C7_7  and  C8_8 
REMARK    2  A    between atoms: C7_7  and  N9_9 
ROOT
HETATM    1  C1  UNL     1     -33.187  15.515  -4.268  1.00 20.00     0.038 C 
HETATM    2  C2  UNL     1     -33.591  16.975  -4.140  1.00 20.00     0.235 C 
HETATM    3  C3  UNL     1     -35.555  15.520  -4.233  1.00 20.00     0.243 C 
HETATM    4  C4  UNL     1     -34.384  14.822  -4.925  1.00 20.00    -0.022 C 
HETATM    5  C5  UNL     1     -34.403  15.056  -6.445  1.00 20.00     0.016 C 
HETATM    6  C6  UNL     1     -34.389  13.318  -4.647  1.00 20.00     0.016 C 
HETATM    7  N9  UNL     1     -35.108  16.965  -4.133  1.00 20.00    -0.069 N 
HETATM    8  H27 UNL     1     -35.415  17.434  -4.996  1.00 20.00     0.280 HD
ENDROOT
BRANCH   7   9
HETATM    9  C7  UNL     1     -35.725  17.709  -2.992  1.00 20.00     0.250 C 
BRANCH   9  10
HETATM   10  C8  UNL     1     -34.701  17.916  -1.892  1.00 20.00     0.142 C 
HETATM   11 CL10 UNL     1     -34.650  16.531  -0.776  1.00 20.00    -0.129 Cl
ENDBRANCH   9  10
ENDBRANCH   7   9
TORSDOF 2
ENDMDL
MODEL 6
REMARK VINA RESULT:      -3.6      1.818      2.808
REMARK  2 active torsions:
REMARK  status: ('A' for Active; 'I' for Inactive)
REMARK    1  A    between atoms: C7_7  and  C8_8 
REMARK    2  A    between atoms: C7_7  and  N9_9 
ROOT
HETATM    1  C1  UNL     1     -34.949  13.971  -3.779  1.00 20.00     0.038 C 
HETATM    2  C2  UNL     1     -36.375  14.334  -4.164  1.00 20.00     0.235 C 
HETATM    3  C3  UNL     1     -34.835  16.170  -4.650  1.00 20.00     0.243 C 
HETATM    4  C4  UNL     1     -34.246  15.308  -3.533  1.00 20.00    -0.022 C 
HETATM    5  C5  UNL     1     -34.586  15.873  -2.143  1.00 20.00     0.016 C 
HETATM    6  C6  UNL     1     -32.727  15.182  -3.667  1.00 20.00     0.016 C 
HETATM    7  N9  UNL     1     -36.289  15.748  -4.706  1.00 20.00    -0.069 N 
HETATM    8  H27 UNL     1     -36.802  16.353  -4.050  1.00 20.00     0.280 HD
ENDROOT
BRANCH   7   9
HETATM    9  C7  UNL     1     -36.918  15.933  -6.050  1.00 20.00     0.250 C 
BRANCH   9  10
HETATM   10  C8  UNL     1     -35.849  15.969  -7.126  1.00 20.00     0.142 C 
HETATM   11 CL10 UNL     1     -35.476  14.337  -7.731  1.00 20.00    -0.129 Cl
ENDBRANCH   9  10
ENDBRANCH   7   9
TORSDOF 2
ENDMDL
MODEL 7
REMARK VINA RESULT:      -3.6      1.984      3.248
REMARK  2 active torsions:
REMARK  status: ('A' for Active; 'I' for Inactive)
REMARK    1  A    between atoms: C7_7  and  C8_8 
REMARK    2  A    between atoms: C7_7  and  N9_9 
ROOT
HETATM    1  C1  UNL     1     -34.655  15.451  -2.827  1.00 20.00     0.038 C 
HETATM    2  C2  UNL     1     -33.743  16.654  -3.015  1.00 20.00     0.235 C 
HETATM    3  C3  UNL     1     -34.045  15.438  -5.116  1.00 20.00     0.243 C 
HETATM    4  C4  UNL     1     -34.273  14.479  -3.947  1.00 20.00    -0.022 C 
HETATM    5  C5  UNL     1     -32.997  13.695  -3.598  1.00 20.00     0.016 C 
HETATM    6  C6  UNL     1     -35.403  13.492  -4.247  1.00 20.00     0.016 C 
HETATM    7  N9  UNL     1     -33.350  16.625  -4.480  1.00 20.00    -0.069 N 
HETATM    8  H27 UNL     1     -32.339  16.435  -4.515  1.00 20.00     0.280 HD
ENDROOT
BRANCH   7   9
HETATM    9  C7  UNL     1     -33.575  17.913  -5.205  1.00 20.00     0.250 C 
BRANCH   9  10
HETATM   10  C8  UNL     1     -34.808  17.809  -6.083  1.00 20.00     0.142 C 
HETATM   11 CL10 UNL     1     -34.389  17.887  -7.811  1.00 20.00    -0.129 Cl
ENDBRANCH   9  10
ENDBRANCH   7   9
TORSDOF 2
ENDMDL
MODEL 8
REMARK VINA RESULT:      -3.6     12.874     13.675
REMARK  2 active torsions:
REMARK  status: ('A' for Active; 'I' for Inactive)
REMARK    1  A    between atoms: C7_7  and  C8_8 
REMARK    2  A    between atoms: C7_7  and  N9_9 
ROOT
HETATM    1  C1  UNL     1     -41.095   6.033  -0.623  1.00 20.00     0.038 C 
HETATM    2  C2  UNL     1     -40.648   4.613  -0.934  1.00 20.00     0.235 C 
HETATM    3  C3  UNL     1     -43.008   4.937  -1.491  1.00 20.00     0.243 C 
HETATM    4  C4  UNL     1     -42.609   5.939  -0.408  1.00 20.00    -0.022 C 
HETATM    5  C5  UNL     1     -42.943   5.417   1.000  1.00 20.00     0.016 C 
HETATM    6  C6  UNL     1     -43.294   7.291  -0.618  1.00 20.00     0.016 C 
HETATM    7  N9  UNL     1     -41.884   3.920  -1.475  1.00 20.00    -0.069 N 
HETATM    8  H27 UNL     1     -42.145   3.196  -0.792  1.00 20.00     0.280 HD
ENDROOT
BRANCH   7   9
HETATM    9  C7  UNL     1     -41.680   3.228  -2.785  1.00 20.00     0.250 C 
BRANCH   9  10
HETATM   10  C8  UNL     1     -42.572   2.004  -2.872  1.00 20.00     0.142 C 
HETATM   11 CL10 UNL     1     -41.802   0.699  -3.805  1.00 20.00    -0.129 Cl
ENDBRANCH   9  10
ENDBRANCH   7   9
TORSDOF 2
ENDMDL
MODEL 9
REMARK VINA RESULT:      -3.5      2.572      4.103
REMARK  2 active torsions:
REMARK  status: ('A' for Active; 'I' for Inactive)
REMARK    1  A    between atoms: C7_7  and  C8_8 
REMARK    2  A    between atoms: C7_7  and  N9_9 
ROOT
HETATM    1  C1  UNL     1     -36.088  15.333  -5.672  1.00 20.00     0.038 C 
HETATM    2  C2  UNL     1     -35.254  14.430  -4.777  1.00 20.00     0.235 C 
HETATM    3  C3  UNL     1     -33.852  16.072  -5.925  1.00 20.00     0.243 C 
HETATM    4  C4  UNL     1     -35.120  15.838  -6.746  1.00 20.00    -0.022 C 
HETATM    5  C5  UNL     1     -34.898  14.783  -7.843  1.00 20.00     0.016 C 
HETATM    6  C6  UNL     1     -35.616  17.135  -7.388  1.00 20.00     0.016 C 
HETATM    7  N9  UNL     1     -33.825  14.905  -4.959  1.00 20.00    -0.069 N 
HETATM    8  H27 UNL     1     -33.312  14.143  -5.424  1.00 20.00     0.280 HD
ENDROOT
BRANCH   7   9
HETATM    9  C7  UNL     1     -33.104  15.197  -3.682  1.00 20.00     0.250 C 
BRANCH   9  10
HETATM   10  C8  UNL     1     -33.668  16.451  -3.040  1.00 20.00     0.142 C 
HETATM   11 CL10 UNL     1     -34.662  16.065  -1.615  1.00 20.00    -0.129 Cl
ENDBRANCH   9  10
ENDBRANCH   7   9
TORSDOF 2
ENDMDL
