MODEL 1
REMARK VINA RESULT:      -5.4      0.000      0.000
REMARK  4 active torsions:
REMARK  status: ('A' for Active; 'I' for Inactive)
REMARK    1  A    between atoms: C4_4  and  C5_5 
REMARK    2  A    between atoms: C5_5  and  C6_6 
REMARK    3  A    between atoms: C6_6  and  C8_8 
REMARK    4  A    between atoms: C7_7  and  C8_8 
ROOT
HETATM    1  C1  UNL     1     -32.120   8.939   1.466  1.00 20.00     0.012 C 
HETATM    2  C2  UNL     1     -32.096   8.050   2.272  1.00 20.00    -0.117 C 
HETATM    3  C4  UNL     1     -32.067   6.963   3.262  1.00 20.00     0.093 C 
ENDROOT
BRANCH   3   4
HETATM    4  C5  UNL     1     -33.145   5.909   2.997  1.00 20.00     0.012 C 
BRANCH   4   5
HETATM    5  C6  UNL     1     -34.345   6.038   3.944  1.00 20.00     0.006 C 
BRANCH   5   6
HETATM    6  C8  UNL     1     -34.211   5.186   5.225  1.00 20.00    -0.005 C 
HETATM    7  C3  UNL     1     -35.120   3.955   5.125  1.00 20.00     0.011 C 
BRANCH   6   8
HETATM    8  C7  UNL     1     -34.457   5.955   6.534  1.00 20.00     0.119 C 
HETATM    9 CL9  UNL     1     -33.347   7.326   6.773  1.00 20.00    -0.130 Cl
ENDBRANCH   6   8
ENDBRANCH   5   6
ENDBRANCH   4   5
ENDBRANCH   3   4
TORSDOF 4
ENDMDL
MODEL 2
REMARK VINA RESULT:      -4.9      1.582      2.075
REMARK  4 active torsions:
REMARK  status: ('A' for Active; 'I' for Inactive)
REMARK    1  A    between atoms: C4_4  and  C5_5 
REMARK    2  A    between atoms: C5_5  and  C6_6 
REMARK    3  A    between atoms: C6_6  and  C8_8 
REMARK    4  A    between atoms: C7_7  and  C8_8 
ROOT
HETATM    1  C1  UNL     1     -32.371   9.483   0.514  1.00 20.00     0.012 C 
HETATM    2  C2  UNL     1     -32.113   8.769   1.443  1.00 20.00    -0.117 C 
HETATM    3  C4  UNL     1     -31.797   7.895   2.583  1.00 20.00     0.093 C 
ENDROOT
BRANCH   3   4
HETATM    4  C5  UNL     1     -32.785   6.733   2.715  1.00 20.00     0.012 C 
BRANCH   4   5
HETATM    5  C6  UNL     1     -32.810   6.136   4.128  1.00 20.00     0.006 C 
BRANCH   5   6
HETATM    6  C8  UNL     1     -34.189   6.240   4.815  1.00 20.00    -0.005 C 
HETATM    7  C3  UNL     1     -34.002   6.494   6.316  1.00 20.00     0.011 C 
BRANCH   6   8
HETATM    8  C7  UNL     1     -35.122   5.044   4.564  1.00 20.00     0.119 C 
HETATM    9 CL9  UNL     1     -35.100   3.837   5.872  1.00 20.00    -0.130 Cl
ENDBRANCH   6   8
ENDBRANCH   5   6
ENDBRANCH   4   5
ENDBRANCH   3   4
TORSDOF 4
ENDMDL
MODEL 3
REMARK VINA RESULT:      -4.6      2.401      4.955
REMARK  4 active torsions:
REMARK  status: ('A' for Active; 'I' for Inactive)
REMARK    1  A    between atoms: C4_4  and  C5_5 
REMARK    2  A    between atoms: C5_5  and  C6_6 
REMARK    3  A    between atoms: C6_6  and  C8_8 
REMARK    4  A    between atoms: C7_7  and  C8_8 
ROOT
HETATM    1  C1  UNL     1     -35.134   4.247   6.151  1.00 20.00     0.012 C 
HETATM    2  C2  UNL     1     -35.059   4.754   5.065  1.00 20.00    -0.117 C 
HETATM    3  C4  UNL     1     -34.970   5.374   3.735  1.00 20.00     0.093 C 
ENDROOT
BRANCH   3   4
HETATM    4  C5  UNL     1     -33.998   6.557   3.711  1.00 20.00     0.012 C 
BRANCH   4   5
HETATM    5  C6  UNL     1     -32.664   6.213   3.035  1.00 20.00     0.006 C 
BRANCH   5   6
HETATM    6  C8  UNL     1     -31.739   7.434   2.843  1.00 20.00    -0.005 C 
HETATM    7  C3  UNL     1     -31.145   7.851   4.194  1.00 20.00     0.011 C 
BRANCH   6   8
HETATM    8  C7  UNL     1     -32.394   8.628   2.130  1.00 20.00     0.119 C 
HETATM    9 CL9  UNL     1     -31.966   8.752   0.407  1.00 20.00    -0.130 Cl
ENDBRANCH   6   8
ENDBRANCH   5   6
ENDBRANCH   4   5
ENDBRANCH   3   4
TORSDOF 4
ENDMDL
MODEL 4
REMARK VINA RESULT:      -4.5      2.184      4.593
REMARK  4 active torsions:
REMARK  status: ('A' for Active; 'I' for Inactive)
REMARK    1  A    between atoms: C4_4  and  C5_5 
REMARK    2  A    between atoms: C5_5  and  C6_6 
REMARK    3  A    between atoms: C6_6  and  C8_8 
REMARK    4  A    between atoms: C7_7  and  C8_8 
ROOT
HETATM    1  C1  UNL     1     -35.164   3.887   5.583  1.00 20.00     0.012 C 
HETATM    2  C2  UNL     1     -34.738   4.941   5.969  1.00 20.00    -0.117 C 
HETATM    3  C4  UNL     1     -34.216   6.230   6.446  1.00 20.00     0.093 C 
ENDROOT
BRANCH   3   4
HETATM    4  C5  UNL     1     -33.345   6.926   5.397  1.00 20.00     0.012 C 
BRANCH   4   5
HETATM    5  C6  UNL     1     -33.946   6.856   3.987  1.00 20.00     0.006 C 
BRANCH   5   6
HETATM    6  C8  UNL     1     -32.887   6.725   2.872  1.00 20.00    -0.005 C 
HETATM    7  C3  UNL     1     -32.097   5.424   3.059  1.00 20.00     0.011 C 
BRANCH   6   8
HETATM    8  C7  UNL     1     -31.946   7.933   2.737  1.00 20.00     0.119 C 
HETATM    9 CL9  UNL     1     -32.087   8.774   1.174  1.00 20.00    -0.130 Cl
ENDBRANCH   6   8
ENDBRANCH   5   6
ENDBRANCH   4   5
ENDBRANCH   3   4
TORSDOF 4
ENDMDL
MODEL 5
REMARK VINA RESULT:      -4.5      2.191      4.233
REMARK  4 active torsions:
REMARK  status: ('A' for Active; 'I' for Inactive)
REMARK    1  A    between atoms: C4_4  and  C5_5 
REMARK    2  A    between atoms: C5_5  and  C6_6 
REMARK    3  A    between atoms: C6_6  and  C8_8 
REMARK    4  A    between atoms: C7_7  and  C8_8 
ROOT
HETATM    1  C1  UNL     1     -33.484   7.288   6.871  1.00 20.00     0.012 C 
HETATM    2  C2  UNL     1     -34.060   6.377   6.341  1.00 20.00    -0.117 C 
HETATM    3  C4  UNL     1     -34.767   5.262   5.695  1.00 20.00     0.093 C 
ENDROOT
BRANCH   3   4
HETATM    4  C5  UNL     1     -34.611   5.282   4.172  1.00 20.00     0.012 C 
BRANCH   4   5
HETATM    5  C6  UNL     1     -34.190   6.658   3.638  1.00 20.00     0.006 C 
BRANCH   5   6
HETATM    6  C8  UNL     1     -32.909   6.618   2.778  1.00 20.00    -0.005 C 
HETATM    7  C3  UNL     1     -32.034   5.434   3.207  1.00 20.00     0.011 C 
BRANCH   6   8
HETATM    8  C7  UNL     1     -32.105   7.928   2.765  1.00 20.00     0.119 C 
HETATM    9 CL9  UNL     1     -32.057   8.718   1.170  1.00 20.00    -0.130 Cl
ENDBRANCH   6   8
ENDBRANCH   5   6
ENDBRANCH   4   5
ENDBRANCH   3   4
TORSDOF 4
ENDMDL
MODEL 6
REMARK VINA RESULT:      -4.4      1.878      2.078
REMARK  4 active torsions:
REMARK  status: ('A' for Active; 'I' for Inactive)
REMARK    1  A    between atoms: C4_4  and  C5_5 
REMARK    2  A    between atoms: C5_5  and  C6_6 
REMARK    3  A    between atoms: C6_6  and  C8_8 
REMARK    4  A    between atoms: C7_7  and  C8_8 
ROOT
HETATM    1  C1  UNL     1     -32.233   9.097   1.118  1.00 20.00     0.012 C 
HETATM    2  C2  UNL     1     -32.033   8.325   2.015  1.00 20.00    -0.117 C 
HETATM    3  C4  UNL     1     -31.786   7.381   3.116  1.00 20.00     0.093 C 
ENDROOT
BRANCH   3   4
HETATM    4  C5  UNL     1     -33.016   6.525   3.431  1.00 20.00     0.012 C 
BRANCH   4   5
HETATM    5  C6  UNL     1     -33.351   6.500   4.928  1.00 20.00     0.006 C 
BRANCH   5   6
HETATM    6  C8  UNL     1     -34.637   5.711   5.258  1.00 20.00    -0.005 C 
HETATM    7  C3  UNL     1     -34.368   4.746   6.418  1.00 20.00     0.011 C 
BRANCH   6   8
HETATM    8  C7  UNL     1     -35.265   4.982   4.059  1.00 20.00     0.119 C 
HETATM    9 CL9  UNL     1     -36.464   5.960   3.179  1.00 20.00    -0.130 Cl
ENDBRANCH   6   8
ENDBRANCH   5   6
ENDBRANCH   4   5
ENDBRANCH   3   4
TORSDOF 4
ENDMDL
MODEL 7
REMARK VINA RESULT:      -4.1     11.494     12.582
REMARK  4 active torsions:
REMARK  status: ('A' for Active; 'I' for Inactive)
REMARK    1  A    between atoms: C4_4  and  C5_5 
REMARK    2  A    between atoms: C5_5  and  C6_6 
REMARK    3  A    between atoms: C6_6  and  C8_8 
REMARK    4  A    between atoms: C7_7  and  C8_8 
ROOT
HETATM    1  C1  UNL     1     -34.810  14.809  -6.970  1.00 20.00     0.012 C 
HETATM    2  C2  UNL     1     -34.778  14.096  -6.005  1.00 20.00    -0.117 C 
HETATM    3  C4  UNL     1     -34.738  13.221  -4.824  1.00 20.00     0.093 C 
ENDROOT
BRANCH   3   4
HETATM    4  C5  UNL     1     -34.116  13.915  -3.609  1.00 20.00     0.012 C 
BRANCH   4   5
HETATM    5  C6  UNL     1     -34.945  15.111  -3.122  1.00 20.00     0.006 C 
BRANCH   5   6
HETATM    6  C8  UNL     1     -34.092  16.238  -2.500  1.00 20.00    -0.005 C 
HETATM    7  C3  UNL     1     -34.571  16.521  -1.072  1.00 20.00     0.011 C 
BRANCH   6   8
HETATM    8  C7  UNL     1     -34.030  17.528  -3.333  1.00 20.00     0.119 C 
HETATM    9 CL9  UNL     1     -33.305  17.302  -4.944  1.00 20.00    -0.130 Cl
ENDBRANCH   6   8
ENDBRANCH   5   6
ENDBRANCH   4   5
ENDBRANCH   3   4
TORSDOF 4
ENDMDL
MODEL 8
REMARK VINA RESULT:      -4.0     11.373     12.196
REMARK  4 active torsions:
REMARK  status: ('A' for Active; 'I' for Inactive)
REMARK    1  A    between atoms: C4_4  and  C5_5 
REMARK    2  A    between atoms: C5_5  and  C6_6 
REMARK    3  A    between atoms: C6_6  and  C8_8 
REMARK    4  A    between atoms: C7_7  and  C8_8 
ROOT
HETATM    1  C1  UNL     1     -32.964  18.406  -0.275  1.00 20.00     0.012 C 
HETATM    2  C2  UNL     1     -33.723  17.582  -0.705  1.00 20.00    -0.117 C 
HETATM    3  C4  UNL     1     -34.656  16.575  -1.230  1.00 20.00     0.093 C 
ENDROOT
BRANCH   3   4
HETATM    4  C5  UNL     1     -34.192  15.999  -2.571  1.00 20.00     0.012 C 
BRANCH   4   5
HETATM    5  C6  UNL     1     -35.218  15.039  -3.189  1.00 20.00     0.006 C 
BRANCH   5   6
HETATM    6  C8  UNL     1     -34.585  13.763  -3.785  1.00 20.00    -0.005 C 
HETATM    7  C3  UNL     1     -33.063  13.809  -3.608  1.00 20.00     0.011 C 
BRANCH   6   8
HETATM    8  C7  UNL     1     -34.968  13.480  -5.246  1.00 20.00     0.119 C 
HETATM    9 CL9  UNL     1     -34.390  14.719  -6.387  1.00 20.00    -0.130 Cl
ENDBRANCH   6   8
ENDBRANCH   5   6
ENDBRANCH   4   5
ENDBRANCH   3   4
TORSDOF 4
ENDMDL
MODEL 9
REMARK VINA RESULT:      -4.0      2.296      3.931
REMARK  4 active torsions:
REMARK  status: ('A' for Active; 'I' for Inactive)
REMARK    1  A    between atoms: C4_4  and  C5_5 
REMARK    2  A    between atoms: C5_5  and  C6_6 
REMARK    3  A    between atoms: C6_6  and  C8_8 
REMARK    4  A    between atoms: C7_7  and  C8_8 
ROOT
HETATM    1  C1  UNL     1     -33.303   7.365   6.634  1.00 20.00     0.012 C 
HETATM    2  C2  UNL     1     -34.065   6.439   6.680  1.00 20.00    -0.117 C 
HETATM    3  C4  UNL     1     -35.000   5.305   6.737  1.00 20.00     0.093 C 
ENDROOT
BRANCH   3   4
HETATM    4  C5  UNL     1     -34.513   4.111   5.912  1.00 20.00     0.012 C 
BRANCH   4   5
HETATM    5  C6  UNL     1     -35.013   4.151   4.462  1.00 20.00     0.006 C 
BRANCH   5   6
HETATM    6  C8  UNL     1     -34.798   5.517   3.775  1.00 20.00    -0.005 C 
HETATM    7  C3  UNL     1     -36.120   6.005   3.169  1.00 20.00     0.011 C 
BRANCH   6   8
HETATM    8  C7  UNL     1     -33.666   5.540   2.735  1.00 20.00     0.119 C 
HETATM    9 CL9  UNL     1     -32.296   6.578   3.197  1.00 20.00    -0.130 Cl
ENDBRANCH   6   8
ENDBRANCH   5   6
ENDBRANCH   4   5
ENDBRANCH   3   4
TORSDOF 4
ENDMDL
