MODEL 1
REMARK VINA RESULT:      -4.7      0.000      0.000
REMARK  1 active torsions:
REMARK  status: ('A' for Active; 'I' for Inactive)
REMARK    1  A    between atoms: C2_2  and  C6_6 
ROOT
HETATM    1  C1  UNL     1     -34.869   6.238   3.870  1.00 20.00     0.015 A 
HETATM    2  C2  UNL     1     -33.459   5.713   3.875  1.00 20.00     0.008 A 
HETATM    3  C3  UNL     1     -34.324   5.577   5.118  1.00 20.00    -0.043 A 
HETATM    4  C4  UNL     1     -34.822   4.198   5.460  1.00 20.00     0.015 C 
HETATM    5  C5  UNL     1     -34.059   6.447   6.319  1.00 20.00     0.015 C 
ENDROOT
BRANCH   2   6
HETATM    6  C6  UNL     1     -32.306   6.653   3.795  1.00 20.00     0.120 C 
HETATM    7 CL7  UNL     1     -32.413   7.684   2.341  1.00 20.00    -0.130 Cl
ENDBRANCH   2   6
TORSDOF 1
ENDMDL
MODEL 2
REMARK VINA RESULT:      -3.9      1.986      3.013
REMARK  1 active torsions:
REMARK  status: ('A' for Active; 'I' for Inactive)
REMARK    1  A    between atoms: C2_2  and  C6_6 
ROOT
HETATM    1  C1  UNL     1     -34.935   3.984   4.712  1.00 20.00     0.015 A 
HETATM    2  C2  UNL     1     -35.005   5.199   5.598  1.00 20.00     0.008 A 
HETATM    3  C3  UNL     1     -34.858   5.365   4.094  1.00 20.00    -0.043 A 
HETATM    4  C4  UNL     1     -36.060   5.866   3.338  1.00 20.00     0.015 C 
HETATM    5  C5  UNL     1     -33.542   5.803   3.508  1.00 20.00     0.015 C 
ENDROOT
BRANCH   2   6
HETATM    6  C6  UNL     1     -33.900   5.498   6.552  1.00 20.00     0.120 C 
HETATM    7 CL7  UNL     1     -33.727   7.256   6.809  1.00 20.00    -0.130 Cl
ENDBRANCH   2   6
TORSDOF 1
ENDMDL
MODEL 3
REMARK VINA RESULT:      -3.8      2.187      3.672
REMARK  1 active torsions:
REMARK  status: ('A' for Active; 'I' for Inactive)
REMARK    1  A    between atoms: C2_2  and  C6_6 
ROOT
HETATM    1  C1  UNL     1     -32.213   5.786   2.945  1.00 20.00     0.015 A 
HETATM    2  C2  UNL     1     -33.414   6.511   3.488  1.00 20.00     0.008 A 
HETATM    3  C3  UNL     1     -32.144   7.283   3.167  1.00 20.00    -0.043 A 
HETATM    4  C4  UNL     1     -32.172   8.177   1.956  1.00 20.00     0.015 C 
HETATM    5  C5  UNL     1     -31.268   7.791   4.282  1.00 20.00     0.015 C 
ENDROOT
BRANCH   2   6
HETATM    6  C6  UNL     1     -33.874   6.263   4.884  1.00 20.00     0.120 C 
HETATM    7 CL7  UNL     1     -35.134   4.999   4.933  1.00 20.00    -0.130 Cl
ENDBRANCH   2   6
TORSDOF 1
ENDMDL
MODEL 4
REMARK VINA RESULT:      -3.5     11.808     12.461
REMARK  1 active torsions:
REMARK  status: ('A' for Active; 'I' for Inactive)
REMARK    1  A    between atoms: C2_2  and  C6_6 
ROOT
HETATM    1  C1  UNL     1     -32.757  14.626  -3.639  1.00 20.00     0.015 A 
HETATM    2  C2  UNL     1     -34.063  15.030  -3.010  1.00 20.00     0.008 A 
HETATM    3  C3  UNL     1     -34.022  14.612  -4.471  1.00 20.00    -0.043 A 
HETATM    4  C4  UNL     1     -34.621  13.275  -4.819  1.00 20.00     0.015 C 
HETATM    5  C5  UNL     1     -34.165  15.646  -5.556  1.00 20.00     0.015 C 
ENDROOT
BRANCH   2   6
HETATM    6  C6  UNL     1     -34.287  16.440  -2.583  1.00 20.00     0.120 C 
HETATM    7 CL7  UNL     1     -34.628  16.538  -0.833  1.00 20.00    -0.130 Cl
ENDBRANCH   2   6
TORSDOF 1
ENDMDL
MODEL 5
REMARK VINA RESULT:      -3.4      1.506      2.599
REMARK  1 active torsions:
REMARK  status: ('A' for Active; 'I' for Inactive)
REMARK    1  A    between atoms: C2_2  and  C6_6 
ROOT
HETATM    1  C1  UNL     1     -31.860   5.912   3.417  1.00 20.00     0.015 A 
HETATM    2  C2  UNL     1     -32.327   7.323   3.180  1.00 20.00     0.008 A 
HETATM    3  C3  UNL     1     -33.324   6.254   3.601  1.00 20.00    -0.043 A 
HETATM    4  C4  UNL     1     -33.858   6.329   5.007  1.00 20.00     0.015 C 
HETATM    5  C5  UNL     1     -34.308   5.705   2.602  1.00 20.00     0.015 C 
ENDROOT
BRANCH   2   6
HETATM    6  C6  UNL     1     -32.301   7.903   1.808  1.00 20.00     0.120 C 
HETATM    7 CL7  UNL     1     -32.587   9.665   1.847  1.00 20.00    -0.130 Cl
ENDBRANCH   2   6
TORSDOF 1
ENDMDL
MODEL 6
REMARK VINA RESULT:      -3.4      1.474      2.429
REMARK  1 active torsions:
REMARK  status: ('A' for Active; 'I' for Inactive)
REMARK    1  A    between atoms: C2_2  and  C6_6 
ROOT
HETATM    1  C1  UNL     1     -33.034   6.088   4.451  1.00 20.00     0.015 A 
HETATM    2  C2  UNL     1     -34.476   6.457   4.232  1.00 20.00     0.008 A 
HETATM    3  C3  UNL     1     -34.026   5.924   5.583  1.00 20.00    -0.043 A 
HETATM    4  C4  UNL     1     -33.964   6.906   6.722  1.00 20.00     0.015 C 
HETATM    5  C5  UNL     1     -34.393   4.525   6.002  1.00 20.00     0.015 C 
ENDROOT
BRANCH   2   6
HETATM    6  C6  UNL     1     -35.321   5.665   3.295  1.00 20.00     0.120 C 
HETATM    7 CL7  UNL     1     -34.330   4.897   2.024  1.00 20.00    -0.130 Cl
ENDBRANCH   2   6
TORSDOF 1
ENDMDL
MODEL 7
REMARK VINA RESULT:      -3.4      2.283      3.456
REMARK  1 active torsions:
REMARK  status: ('A' for Active; 'I' for Inactive)
REMARK    1  A    between atoms: C2_2  and  C6_6 
ROOT
HETATM    1  C1  UNL     1     -34.432   5.719   2.894  1.00 20.00     0.015 A 
HETATM    2  C2  UNL     1     -34.208   6.404   4.215  1.00 20.00     0.008 A 
HETATM    3  C3  UNL     1     -33.087   6.349   3.190  1.00 20.00    -0.043 A 
HETATM    4  C4  UNL     1     -32.740   7.632   2.483  1.00 20.00     0.015 C 
HETATM    5  C5  UNL     1     -31.911   5.433   3.406  1.00 20.00     0.015 C 
ENDROOT
BRANCH   2   6
HETATM    6  C6  UNL     1     -34.184   5.612   5.478  1.00 20.00     0.120 C 
HETATM    7 CL7  UNL     1     -35.026   4.051   5.278  1.00 20.00    -0.130 Cl
ENDBRANCH   2   6
TORSDOF 1
ENDMDL
MODEL 8
REMARK VINA RESULT:      -3.4      2.382      3.435
REMARK  1 active torsions:
REMARK  status: ('A' for Active; 'I' for Inactive)
REMARK    1  A    between atoms: C2_2  and  C6_6 
ROOT
HETATM    1  C1  UNL     1     -34.077   7.355   4.218  1.00 20.00     0.015 A 
HETATM    2  C2  UNL     1     -33.774   6.177   5.104  1.00 20.00     0.008 A 
HETATM    3  C3  UNL     1     -33.528   6.083   3.607  1.00 20.00    -0.043 A 
HETATM    4  C4  UNL     1     -32.095   6.085   3.145  1.00 20.00     0.015 C 
HETATM    5  C5  UNL     1     -34.448   5.261   2.742  1.00 20.00     0.015 C 
ENDROOT
BRANCH   2   6
HETATM    6  C6  UNL     1     -34.878   5.445   5.787  1.00 20.00     0.120 C 
HETATM    7 CL7  UNL     1     -34.539   3.694   5.868  1.00 20.00    -0.130 Cl
ENDBRANCH   2   6
TORSDOF 1
ENDMDL
MODEL 9
REMARK VINA RESULT:      -3.3     11.524     12.242
REMARK  1 active torsions:
REMARK  status: ('A' for Active; 'I' for Inactive)
REMARK    1  A    between atoms: C2_2  and  C6_6 
ROOT
HETATM    1  C1  UNL     1     -35.753  15.437  -3.227  1.00 20.00     0.015 A 
HETATM    2  C2  UNL     1     -34.529  14.611  -2.935  1.00 20.00     0.008 A 
HETATM    3  C3  UNL     1     -34.535  16.097  -2.614  1.00 20.00    -0.043 A 
HETATM    4  C4  UNL     1     -34.601  16.484  -1.161  1.00 20.00     0.015 C 
HETATM    5  C5  UNL     1     -33.748  17.057  -3.467  1.00 20.00     0.015 C 
ENDROOT
BRANCH   2   6
HETATM    6  C6  UNL     1     -33.729  14.032  -4.051  1.00 20.00     0.120 C 
HETATM    7 CL7  UNL     1     -34.783  13.270  -5.274  1.00 20.00    -0.130 Cl
ENDBRANCH   2   6
TORSDOF 1
ENDMDL
