MODEL 1
REMARK VINA RESULT:      -3.8      0.000      0.000
REMARK  4 active torsions:
REMARK  status: ('A' for Active; 'I' for Inactive)
REMARK    1  A    between atoms: C1_1  and  C6_6 
REMARK    2  A    between atoms: C2_2  and  C7_7 
REMARK    3  A    between atoms: C6_6  and  S9_9 
REMARK    4  A    between atoms: C8_8  and  S9_9 
ROOT
HETATM    1  C6  UNL     1     -33.320  15.410  -3.508  1.00 20.00     0.101 C 
ENDROOT
BRANCH   1   2
HETATM    2  C1  UNL     1     -33.672  16.419  -2.460  1.00 20.00    -0.020 C 
HETATM    3  C2  UNL     1     -34.605  16.218  -1.518  1.00 20.00    -0.015 C 
BRANCH   3   4
HETATM    4  C7  UNL     1     -34.952  17.222  -0.470  1.00 20.00     0.141 C 
HETATM    5 CL10 UNL     1     -33.501  18.133   0.000  1.00 20.00    -0.126 Cl
ENDBRANCH   3   4
ENDBRANCH   1   2
BRANCH   1   6
HETATM    6  S9  UNL     1     -33.918  15.953  -5.122  1.00 20.00    -0.156 SA
BRANCH   6   7
HETATM    7  C8  UNL     1     -35.095  14.581  -5.425  1.00 20.00    -0.003 C 
HETATM    8  C3  UNL     1     -34.542  13.307  -4.780  1.00 20.00     0.026 C 
HETATM    9  C4  UNL     1     -36.441  14.952  -4.796  1.00 20.00     0.026 C 
HETATM   10  C5  UNL     1     -35.251  14.391  -6.937  1.00 20.00     0.026 C 
ENDBRANCH   6   7
ENDBRANCH   1   6
TORSDOF 4
ENDMDL
MODEL 2
REMARK VINA RESULT:      -3.8      0.867      1.637
REMARK  4 active torsions:
REMARK  status: ('A' for Active; 'I' for Inactive)
REMARK    1  A    between atoms: C1_1  and  C6_6 
REMARK    2  A    between atoms: C2_2  and  C7_7 
REMARK    3  A    between atoms: C6_6  and  S9_9 
REMARK    4  A    between atoms: C8_8  and  S9_9 
ROOT
HETATM    1  C6  UNL     1     -34.513  15.583  -2.647  1.00 20.00     0.101 C 
ENDROOT
BRANCH   1   2
HETATM    2  C1  UNL     1     -34.076  16.670  -1.717  1.00 20.00    -0.020 C 
HETATM    3  C2  UNL     1     -34.637  16.894  -0.519  1.00 20.00    -0.015 C 
BRANCH   3   4
HETATM    4  C7  UNL     1     -34.198  17.975   0.411  1.00 20.00     0.141 C 
HETATM    5 CL10 UNL     1     -32.590  18.565  -0.061  1.00 20.00    -0.126 Cl
ENDBRANCH   3   4
ENDBRANCH   1   2
BRANCH   1   6
HETATM    6  S9  UNL     1     -33.600  15.686  -4.200  1.00 20.00    -0.156 SA
BRANCH   6   7
HETATM    7  C8  UNL     1     -34.761  14.716  -5.235  1.00 20.00    -0.003 C 
HETATM    8  C3  UNL     1     -34.416  14.946  -6.709  1.00 20.00     0.026 C 
HETATM    9  C4  UNL     1     -34.604  13.235  -4.879  1.00 20.00     0.026 C 
HETATM   10  C5  UNL     1     -36.190  15.182  -4.941  1.00 20.00     0.026 C 
ENDBRANCH   6   7
ENDBRANCH   1   6
TORSDOF 4
ENDMDL
MODEL 3
REMARK VINA RESULT:      -3.8      0.509      1.510
REMARK  4 active torsions:
REMARK  status: ('A' for Active; 'I' for Inactive)
REMARK    1  A    between atoms: C1_1  and  C6_6 
REMARK    2  A    between atoms: C2_2  and  C7_7 
REMARK    3  A    between atoms: C6_6  and  S9_9 
REMARK    4  A    between atoms: C8_8  and  S9_9 
ROOT
HETATM    1  C6  UNL     1     -33.278  15.549  -3.438  1.00 20.00     0.101 C 
ENDROOT
BRANCH   1   2
HETATM    2  C1  UNL     1     -33.659  16.519  -2.364  1.00 20.00    -0.020 C 
HETATM    3  C2  UNL     1     -34.614  16.280  -1.452  1.00 20.00    -0.015 C 
BRANCH   3   4
HETATM    4  C7  UNL     1     -34.990  17.244  -0.376  1.00 20.00     0.141 C 
HETATM    5 CL10 UNL     1     -33.546  18.106   0.198  1.00 20.00    -0.126 Cl
ENDBRANCH   3   4
ENDBRANCH   1   2
BRANCH   1   6
HETATM    6  S9  UNL     1     -33.549  16.284  -5.064  1.00 20.00    -0.156 SA
BRANCH   6   7
HETATM    7  C8  UNL     1     -34.729  15.034  -5.706  1.00 20.00    -0.003 C 
HETATM    8  C3  UNL     1     -36.154  15.492  -5.382  1.00 20.00     0.026 C 
HETATM    9  C4  UNL     1     -34.538  14.924  -7.222  1.00 20.00     0.026 C 
HETATM   10  C5  UNL     1     -34.433  13.690  -5.036  1.00 20.00     0.026 C 
ENDBRANCH   6   7
ENDBRANCH   1   6
TORSDOF 4
ENDMDL
MODEL 4
REMARK VINA RESULT:      -3.5     11.067     11.831
REMARK  4 active torsions:
REMARK  status: ('A' for Active; 'I' for Inactive)
REMARK    1  A    between atoms: C1_1  and  C6_6 
REMARK    2  A    between atoms: C2_2  and  C7_7 
REMARK    3  A    between atoms: C6_6  and  S9_9 
REMARK    4  A    between atoms: C8_8  and  S9_9 
ROOT
HETATM    1  C6  UNL     1     -32.444   6.886   3.713  1.00 20.00     0.101 C 
ENDROOT
BRANCH   1   2
HETATM    2  C1  UNL     1     -32.086   7.634   2.467  1.00 20.00    -0.020 C 
HETATM    3  C2  UNL     1     -32.508   8.879   2.201  1.00 20.00    -0.015 C 
BRANCH   3   4
HETATM    4  C7  UNL     1     -32.147   9.627   0.961  1.00 20.00     0.141 C 
HETATM    5 CL10 UNL     1     -32.780   8.777  -0.465  1.00 20.00    -0.126 Cl
ENDBRANCH   3   4
ENDBRANCH   1   2
BRANCH   1   6
HETATM    6  S9  UNL     1     -33.205   5.304   3.294  1.00 20.00    -0.156 SA
BRANCH   6   7
HETATM    7  C8  UNL     1     -34.546   5.336   4.546  1.00 20.00    -0.003 C 
HETATM    8  C3  UNL     1     -34.165   6.328   5.648  1.00 20.00     0.026 C 
HETATM    9  C4  UNL     1     -35.839   5.780   3.856  1.00 20.00     0.026 C 
HETATM   10  C5  UNL     1     -34.710   3.929   5.126  1.00 20.00     0.026 C 
ENDBRANCH   6   7
ENDBRANCH   1   6
TORSDOF 4
ENDMDL
MODEL 5
REMARK VINA RESULT:      -3.5     11.093     11.830
REMARK  4 active torsions:
REMARK  status: ('A' for Active; 'I' for Inactive)
REMARK    1  A    between atoms: C1_1  and  C6_6 
REMARK    2  A    between atoms: C2_2  and  C7_7 
REMARK    3  A    between atoms: C6_6  and  S9_9 
REMARK    4  A    between atoms: C8_8  and  S9_9 
ROOT
HETATM    1  C6  UNL     1     -32.490   6.892   3.732  1.00 20.00     0.101 C 
ENDROOT
BRANCH   1   2
HETATM    2  C1  UNL     1     -32.129   7.624   2.477  1.00 20.00    -0.020 C 
HETATM    3  C2  UNL     1     -32.508   8.885   2.218  1.00 20.00    -0.015 C 
BRANCH   3   4
HETATM    4  C7  UNL     1     -32.144   9.617   0.969  1.00 20.00     0.141 C 
HETATM    5 CL10 UNL     1     -32.731   8.725  -0.451  1.00 20.00    -0.126 Cl
ENDBRANCH   3   4
ENDBRANCH   1   2
BRANCH   1   6
HETATM    6  S9  UNL     1     -33.218   5.290   3.330  1.00 20.00    -0.156 SA
BRANCH   6   7
HETATM    7  C8  UNL     1     -34.567   5.313   4.572  1.00 20.00    -0.003 C 
HETATM    8  C3  UNL     1     -34.731   3.903   5.146  1.00 20.00     0.026 C 
HETATM    9  C4  UNL     1     -34.185   6.297   5.682  1.00 20.00     0.026 C 
HETATM   10  C5  UNL     1     -35.859   5.764   3.886  1.00 20.00     0.026 C 
ENDBRANCH   6   7
ENDBRANCH   1   6
TORSDOF 4
ENDMDL
MODEL 6
REMARK VINA RESULT:      -3.5     11.076     11.872
REMARK  4 active torsions:
REMARK  status: ('A' for Active; 'I' for Inactive)
REMARK    1  A    between atoms: C1_1  and  C6_6 
REMARK    2  A    between atoms: C2_2  and  C7_7 
REMARK    3  A    between atoms: C6_6  and  S9_9 
REMARK    4  A    between atoms: C8_8  and  S9_9 
ROOT
HETATM    1  C6  UNL     1     -32.440   6.865   3.708  1.00 20.00     0.101 C 
ENDROOT
BRANCH   1   2
HETATM    2  C1  UNL     1     -32.109   7.628   2.464  1.00 20.00    -0.020 C 
HETATM    3  C2  UNL     1     -32.502   8.891   2.240  1.00 20.00    -0.015 C 
BRANCH   3   4
HETATM    4  C7  UNL     1     -32.167   9.655   1.002  1.00 20.00     0.141 C 
HETATM    5 CL10 UNL     1     -32.687   8.743  -0.432  1.00 20.00    -0.126 Cl
ENDBRANCH   3   4
ENDBRANCH   1   2
BRANCH   1   6
HETATM    6  S9  UNL     1     -33.213   5.290   3.285  1.00 20.00    -0.156 SA
BRANCH   6   7
HETATM    7  C8  UNL     1     -34.550   5.326   4.541  1.00 20.00    -0.003 C 
HETATM    8  C3  UNL     1     -35.848   5.773   3.864  1.00 20.00     0.026 C 
HETATM    9  C4  UNL     1     -34.709   3.916   5.117  1.00 20.00     0.026 C 
HETATM   10  C5  UNL     1     -34.158   6.309   5.648  1.00 20.00     0.026 C 
ENDBRANCH   6   7
ENDBRANCH   1   6
TORSDOF 4
ENDMDL
MODEL 7
REMARK VINA RESULT:      -3.4     13.532     14.937
REMARK  4 active torsions:
REMARK  status: ('A' for Active; 'I' for Inactive)
REMARK    1  A    between atoms: C1_1  and  C6_6 
REMARK    2  A    between atoms: C2_2  and  C7_7 
REMARK    3  A    between atoms: C6_6  and  S9_9 
REMARK    4  A    between atoms: C8_8  and  S9_9 
ROOT
HETATM    1  C6  UNL     1     -41.528   3.859  -2.261  1.00 20.00     0.101 C 
ENDROOT
BRANCH   1   2
HETATM    2  C1  UNL     1     -42.155   2.710  -2.986  1.00 20.00    -0.020 C 
HETATM    3  C2  UNL     1     -41.468   1.850  -3.753  1.00 20.00    -0.015 C 
BRANCH   3   4
HETATM    4  C7  UNL     1     -42.093   0.700  -4.471  1.00 20.00     0.141 C 
HETATM    5 CL10 UNL     1     -41.223  -0.801  -4.085  1.00 20.00    -0.126 Cl
ENDBRANCH   3   4
ENDBRANCH   1   2
BRANCH   1   6
HETATM    6  S9  UNL     1     -42.603   5.306  -2.338  1.00 20.00    -0.156 SA
BRANCH   6   7
HETATM    7  C8  UNL     1     -41.994   6.147  -0.827  1.00 20.00    -0.003 C 
HETATM    8  C3  UNL     1     -41.905   7.651  -1.104  1.00 20.00     0.026 C 
HETATM    9  C4  UNL     1     -42.983   5.875   0.310  1.00 20.00     0.026 C 
HETATM   10  C5  UNL     1     -40.613   5.586  -0.475  1.00 20.00     0.026 C 
ENDBRANCH   6   7
ENDBRANCH   1   6
TORSDOF 4
ENDMDL
MODEL 8
REMARK VINA RESULT:      -3.3      1.533      2.204
REMARK  4 active torsions:
REMARK  status: ('A' for Active; 'I' for Inactive)
REMARK    1  A    between atoms: C1_1  and  C6_6 
REMARK    2  A    between atoms: C2_2  and  C7_7 
REMARK    3  A    between atoms: C6_6  and  S9_9 
REMARK    4  A    between atoms: C8_8  and  S9_9 
ROOT
HETATM    1  C6  UNL     1     -36.006  15.116  -3.549  1.00 20.00     0.101 C 
ENDROOT
BRANCH   1   2
HETATM    2  C1  UNL     1     -35.575  16.191  -2.602  1.00 20.00    -0.020 C 
HETATM    3  C2  UNL     1     -34.420  16.163  -1.921  1.00 20.00    -0.015 C 
BRANCH   3   4
HETATM    4  C7  UNL     1     -33.987  17.238  -0.980  1.00 20.00     0.141 C 
HETATM    5 CL10 UNL     1     -35.004  17.214   0.477  1.00 20.00    -0.126 Cl
ENDBRANCH   3   4
ENDBRANCH   1   2
BRANCH   1   6
HETATM    6  S9  UNL     1     -34.615  14.596  -4.576  1.00 20.00    -0.156 SA
BRANCH   6   7
HETATM    7  C8  UNL     1     -35.023  15.587  -6.064  1.00 20.00    -0.003 C 
HETATM    8  C3  UNL     1     -34.306  16.937  -5.968  1.00 20.00     0.026 C 
HETATM    9  C4  UNL     1     -34.547  14.820  -7.301  1.00 20.00     0.026 C 
HETATM   10  C5  UNL     1     -36.540  15.791  -6.119  1.00 20.00     0.026 C 
ENDBRANCH   6   7
ENDBRANCH   1   6
TORSDOF 4
ENDMDL
MODEL 9
REMARK VINA RESULT:      -3.3     10.910     12.260
REMARK  4 active torsions:
REMARK  status: ('A' for Active; 'I' for Inactive)
REMARK    1  A    between atoms: C1_1  and  C6_6 
REMARK    2  A    between atoms: C2_2  and  C7_7 
REMARK    3  A    between atoms: C6_6  and  S9_9 
REMARK    4  A    between atoms: C8_8  and  S9_9 
ROOT
HETATM    1  C6  UNL     1     -42.551   7.727  -2.818  1.00 20.00     0.101 C 
ENDROOT
BRANCH   1   2
HETATM    2  C1  UNL     1     -42.877   8.156  -4.213  1.00 20.00    -0.020 C 
HETATM    3  C2  UNL     1     -42.026   8.830  -5.002  1.00 20.00    -0.015 C 
BRANCH   3   4
HETATM    4  C7  UNL     1     -42.349   9.253  -6.396  1.00 20.00     0.141 C 
HETATM    5 CL10 UNL     1     -40.871   9.269  -7.383  1.00 20.00    -0.126 Cl
ENDBRANCH   3   4
ENDBRANCH   1   2
BRANCH   1   6
HETATM    6  S9  UNL     1     -42.652   5.931  -2.678  1.00 20.00    -0.156 SA
BRANCH   6   7
HETATM    7  C8  UNL     1     -41.763   5.756  -1.084  1.00 20.00    -0.003 C 
HETATM    8  C3  UNL     1     -42.790   5.536   0.030  1.00 20.00     0.026 C 
HETATM    9  C4  UNL     1     -40.823   4.551  -1.185  1.00 20.00     0.026 C 
HETATM   10  C5  UNL     1     -40.960   7.034  -0.826  1.00 20.00     0.026 C 
ENDBRANCH   6   7
ENDBRANCH   1   6
TORSDOF 4
ENDMDL
