MODEL 1
REMARK VINA RESULT:      -4.2      0.000      0.000
REMARK  1 active torsions:
REMARK  status: ('A' for Active; 'I' for Inactive)
REMARK    1  A    between atoms: C6_6  and  C9_9 
ROOT
HETATM    1  C1  UNL     1     -34.389  14.188  -4.734  1.00 20.00    -0.085 C 
HETATM    2  C2  UNL     1     -35.324  13.318  -4.333  1.00 20.00     0.014 C 
HETATM    3  C3  UNL     1     -34.345  14.772  -6.118  1.00 20.00     0.059 C 
HETATM    4  C4  UNL     1     -33.296  14.697  -3.834  1.00 20.00     0.065 C 
HETATM    5  C5  UNL     1     -34.283  16.294  -6.027  1.00 20.00     0.172 C 
HETATM    6  C6  UNL     1     -33.246  16.230  -3.855  1.00 20.00     0.128 C 
HETATM    7  O10 UNL     1     -33.195  16.724  -5.203  1.00 20.00    -0.385 OA
ENDROOT
BRANCH   6   8
HETATM    8  C9  UNL     1     -34.373  16.885  -3.058  1.00 20.00     0.007 C 
HETATM    9  C7  UNL     1     -34.504  16.244  -1.677  1.00 20.00     0.012 C 
HETATM   10  C8  UNL     1     -34.141  18.390  -2.927  1.00 20.00     0.012 C 
ENDBRANCH   6   8
TORSDOF 1
ENDMDL
MODEL 2
REMARK VINA RESULT:      -4.1      2.019      3.866
REMARK  1 active torsions:
REMARK  status: ('A' for Active; 'I' for Inactive)
REMARK    1  A    between atoms: C6_6  and  C9_9 
ROOT
HETATM    1  C1  UNL     1     -33.971  14.868  -3.309  1.00 20.00    -0.085 C 
HETATM    2  C2  UNL     1     -32.702  15.061  -3.690  1.00 20.00     0.014 C 
HETATM    3  C3  UNL     1     -34.673  15.743  -2.309  1.00 20.00     0.059 C 
HETATM    4  C4  UNL     1     -34.840  13.770  -3.861  1.00 20.00     0.065 C 
HETATM    5  C5  UNL     1     -35.988  16.240  -2.901  1.00 20.00     0.172 C 
HETATM    6  C6  UNL     1     -36.173  14.337  -4.365  1.00 20.00     0.128 C 
HETATM    7  O10 UNL     1     -36.798  15.153  -3.362  1.00 20.00    -0.385 OA
ENDROOT
BRANCH   6   8
HETATM    8  C9  UNL     1     -36.053  15.076  -5.697  1.00 20.00     0.007 C 
HETATM    9  C7  UNL     1     -35.228  14.264  -6.695  1.00 20.00     0.012 C 
HETATM   10  C8  UNL     1     -37.435  15.383  -6.273  1.00 20.00     0.012 C 
ENDBRANCH   6   8
TORSDOF 1
ENDMDL
MODEL 3
REMARK VINA RESULT:      -4.1     12.136     13.527
REMARK  1 active torsions:
REMARK  status: ('A' for Active; 'I' for Inactive)
REMARK    1  A    between atoms: C6_6  and  C9_9 
ROOT
HETATM    1  C1  UNL     1     -34.868   4.665   5.120  1.00 20.00    -0.085 C 
HETATM    2  C2  UNL     1     -34.745   3.337   5.002  1.00 20.00     0.014 C 
HETATM    3  C3  UNL     1     -34.826   5.382   6.440  1.00 20.00     0.059 C 
HETATM    4  C4  UNL     1     -35.036   5.586   3.942  1.00 20.00     0.065 C 
HETATM    5  C5  UNL     1     -33.787   6.498   6.380  1.00 20.00     0.172 C 
HETATM    6  C6  UNL     1     -34.009   6.723   3.993  1.00 20.00     0.128 C 
HETATM    7  O10 UNL     1     -34.024   7.373   5.273  1.00 20.00    -0.385 OA
ENDROOT
BRANCH   6   8
HETATM    8  C9  UNL     1     -32.598   6.284   3.603  1.00 20.00     0.007 C 
HETATM    9  C7  UNL     1     -32.630   5.408   2.351  1.00 20.00     0.012 C 
HETATM   10  C8  UNL     1     -31.695   7.497   3.381  1.00 20.00     0.012 C 
ENDBRANCH   6   8
TORSDOF 1
ENDMDL
MODEL 4
REMARK VINA RESULT:      -3.9      1.301      3.274
REMARK  1 active torsions:
REMARK  status: ('A' for Active; 'I' for Inactive)
REMARK    1  A    between atoms: C6_6  and  C9_9 
ROOT
HETATM    1  C1  UNL     1     -34.105  14.735  -3.693  1.00 20.00    -0.085 C 
HETATM    2  C2  UNL     1     -33.332  13.642  -3.720  1.00 20.00     0.014 C 
HETATM    3  C3  UNL     1     -33.805  15.935  -2.840  1.00 20.00     0.059 C 
HETATM    4  C4  UNL     1     -35.343  14.890  -4.533  1.00 20.00     0.065 C 
HETATM    5  C5  UNL     1     -33.805  17.190  -3.708  1.00 20.00     0.172 C 
HETATM    6  C6  UNL     1     -35.305  16.209  -5.316  1.00 20.00     0.128 C 
HETATM    7  O10 UNL     1     -35.025  17.315  -4.445  1.00 20.00    -0.385 OA
ENDROOT
BRANCH   6   8
HETATM    8  C9  UNL     1     -34.351  16.178  -6.510  1.00 20.00     0.007 C 
HETATM    9  C7  UNL     1     -34.575  14.920  -7.349  1.00 20.00     0.012 C 
HETATM   10  C8  UNL     1     -34.520  17.430  -7.370  1.00 20.00     0.012 C 
ENDBRANCH   6   8
TORSDOF 1
ENDMDL
MODEL 5
REMARK VINA RESULT:      -3.9      1.588      2.628
REMARK  1 active torsions:
REMARK  status: ('A' for Active; 'I' for Inactive)
REMARK    1  A    between atoms: C6_6  and  C9_9 
ROOT
HETATM    1  C1  UNL     1     -34.900  14.862  -5.946  1.00 20.00    -0.085 C 
HETATM    2  C2  UNL     1     -34.218  15.114  -7.070  1.00 20.00     0.014 C 
HETATM    3  C3  UNL     1     -34.929  13.512  -5.285  1.00 20.00     0.059 C 
HETATM    4  C4  UNL     1     -35.690  15.908  -5.208  1.00 20.00     0.065 C 
HETATM    5  C5  UNL     1     -34.538  13.656  -3.818  1.00 20.00     0.172 C 
HETATM    6  C6  UNL     1     -35.297  15.939  -3.726  1.00 20.00     0.128 C 
HETATM    7  O10 UNL     1     -35.354  14.624  -3.152  1.00 20.00    -0.385 OA
ENDROOT
BRANCH   6   8
HETATM    8  C9  UNL     1     -33.946  16.606  -3.471  1.00 20.00     0.007 C 
HETATM    9  C7  UNL     1     -33.837  17.921  -4.243  1.00 20.00     0.012 C 
HETATM   10  C8  UNL     1     -33.734  16.846  -1.977  1.00 20.00     0.012 C 
ENDBRANCH   6   8
TORSDOF 1
ENDMDL
MODEL 6
REMARK VINA RESULT:      -3.9      1.761      3.422
REMARK  1 active torsions:
REMARK  status: ('A' for Active; 'I' for Inactive)
REMARK    1  A    between atoms: C6_6  and  C9_9 
ROOT
HETATM    1  C1  UNL     1     -34.128  15.290  -3.375  1.00 20.00    -0.085 C 
HETATM    2  C2  UNL     1     -34.481  15.898  -2.236  1.00 20.00     0.014 C 
HETATM    3  C3  UNL     1     -34.008  13.798  -3.510  1.00 20.00     0.059 C 
HETATM    4  C4  UNL     1     -33.839  16.033  -4.651  1.00 20.00     0.065 C 
HETATM    5  C5  UNL     1     -34.841  13.325  -4.697  1.00 20.00     0.172 C 
HETATM    6  C6  UNL     1     -34.654  15.451  -5.813  1.00 20.00     0.128 C 
HETATM    7  O10 UNL     1     -34.489  14.026  -5.894  1.00 20.00    -0.385 OA
ENDROOT
BRANCH   6   8
HETATM    8  C9  UNL     1     -36.130  15.845  -5.776  1.00 20.00     0.007 C 
HETATM    9  C7  UNL     1     -36.283  17.357  -5.617  1.00 20.00     0.012 C 
HETATM   10  C8  UNL     1     -36.851  15.365  -7.035  1.00 20.00     0.012 C 
ENDBRANCH   6   8
TORSDOF 1
ENDMDL
MODEL 7
REMARK VINA RESULT:      -3.8      1.985      2.873
REMARK  1 active torsions:
REMARK  status: ('A' for Active; 'I' for Inactive)
REMARK    1  A    between atoms: C6_6  and  C9_9 
ROOT
HETATM    1  C1  UNL     1     -36.726  15.484  -5.239  1.00 20.00    -0.085 C 
HETATM    2  C2  UNL     1     -37.270  16.703  -5.139  1.00 20.00     0.014 C 
HETATM    3  C3  UNL     1     -36.290  14.880  -6.544  1.00 20.00     0.059 C 
HETATM    4  C4  UNL     1     -36.467  14.596  -4.051  1.00 20.00     0.065 C 
HETATM    5  C5  UNL     1     -34.842  14.412  -6.431  1.00 20.00     0.172 C 
HETATM    6  C6  UNL     1     -35.015  14.104  -4.049  1.00 20.00     0.128 C 
HETATM    7  O10 UNL     1     -34.664  13.531  -5.318  1.00 20.00    -0.385 OA
ENDROOT
BRANCH   6   8
HETATM    8  C9  UNL     1     -34.012  15.175  -3.619  1.00 20.00     0.007 C 
HETATM    9  C7  UNL     1     -34.430  15.807  -2.292  1.00 20.00     0.012 C 
HETATM   10  C8  UNL     1     -32.606  14.588  -3.510  1.00 20.00     0.012 C 
ENDBRANCH   6   8
TORSDOF 1
ENDMDL
MODEL 8
REMARK VINA RESULT:      -3.8      1.710      3.641
REMARK  1 active torsions:
REMARK  status: ('A' for Active; 'I' for Inactive)
REMARK    1  A    between atoms: C6_6  and  C9_9 
ROOT
HETATM    1  C1  UNL     1     -35.387  16.384  -2.608  1.00 20.00    -0.085 C 
HETATM    2  C2  UNL     1     -34.514  16.220  -1.606  1.00 20.00     0.014 C 
HETATM    3  C3  UNL     1     -35.692  17.720  -3.225  1.00 20.00     0.059 C 
HETATM    4  C4  UNL     1     -36.138  15.244  -3.241  1.00 20.00     0.065 C 
HETATM    5  C5  UNL     1     -35.515  17.634  -4.737  1.00 20.00     0.172 C 
HETATM    6  C6  UNL     1     -35.976  15.271  -4.766  1.00 20.00     0.128 C 
HETATM    7  O10 UNL     1     -36.291  16.568  -5.295  1.00 20.00    -0.385 OA
ENDROOT
BRANCH   6   8
HETATM    8  C9  UNL     1     -34.605  14.789  -5.239  1.00 20.00     0.007 C 
HETATM    9  C7  UNL     1     -34.288  13.410  -4.662  1.00 20.00     0.012 C 
HETATM   10  C8  UNL     1     -34.539  14.756  -6.765  1.00 20.00     0.012 C 
ENDBRANCH   6   8
TORSDOF 1
ENDMDL
MODEL 9
REMARK VINA RESULT:      -3.8      1.357      2.319
REMARK  1 active torsions:
REMARK  status: ('A' for Active; 'I' for Inactive)
REMARK    1  A    between atoms: C6_6  and  C9_9 
ROOT
HETATM    1  C1  UNL     1     -34.289  16.131  -6.323  1.00 20.00    -0.085 C 
HETATM    2  C2  UNL     1     -34.464  14.991  -7.004  1.00 20.00     0.014 C 
HETATM    3  C3  UNL     1     -35.151  17.346  -6.518  1.00 20.00     0.059 C 
HETATM    4  C4  UNL     1     -33.228  16.309  -5.272  1.00 20.00     0.065 C 
HETATM    5  C5  UNL     1     -35.695  17.806  -5.168  1.00 20.00     0.172 C 
HETATM    6  C6  UNL     1     -33.839  16.846  -3.971  1.00 20.00     0.128 C 
HETATM    7  O10 UNL     1     -34.641  18.011  -4.223  1.00 20.00    -0.385 OA
ENDROOT
BRANCH   6   8
HETATM    8  C9  UNL     1     -34.613  15.790  -3.184  1.00 20.00     0.007 C 
HETATM    9  C7  UNL     1     -33.941  14.423  -3.305  1.00 20.00     0.012 C 
HETATM   10  C8  UNL     1     -34.738  16.194  -1.715  1.00 20.00     0.012 C 
ENDBRANCH   6   8
TORSDOF 1
ENDMDL
