MODEL 1
REMARK VINA RESULT:      -4.7      0.000      0.000
REMARK  1 active torsions:
REMARK  status: ('A' for Active; 'I' for Inactive)
REMARK    1  A    between atoms: C6_6  and  N8_8 
ROOT
HETATM    1  C1  UNL     1     -32.942   6.342   2.855  1.00 20.00     0.158 C 
HETATM    2  N8  UNL     1     -33.582   5.369   2.987  1.00 20.00    -0.265 NA
HETATM    3  S9  UNL     1     -32.055   7.649   2.645  1.00 20.00    -0.055 SA
ENDROOT
BRANCH   2   4
HETATM    4  C6  UNL     1     -34.519   5.404   4.111  1.00 20.00     0.051 C 
HETATM    5  C4  UNL     1     -33.942   6.228   5.261  1.00 20.00     0.033 C 
HETATM    6  C2  UNL     1     -34.639   5.695   6.509  1.00 20.00     0.002 C 
HETATM    7  C3  UNL     1     -35.098   4.276   6.171  1.00 20.00     0.002 C 
HETATM    8  C5  UNL     1     -34.655   4.016   4.733  1.00 20.00     0.033 C 
HETATM    9  C7  UNL     1     -35.853   5.954   3.607  1.00 20.00     0.041 C 
ENDBRANCH   2   4
TORSDOF 1
ENDMDL
MODEL 2
REMARK VINA RESULT:      -4.1     12.103     12.843
REMARK  1 active torsions:
REMARK  status: ('A' for Active; 'I' for Inactive)
REMARK    1  A    between atoms: C6_6  and  N8_8 
ROOT
HETATM    1  C1  UNL     1     -38.150  14.911  -3.770  1.00 20.00     0.158 C 
HETATM    2  N8  UNL     1     -37.358  14.056  -3.891  1.00 20.00    -0.265 NA
HETATM    3  S9  UNL     1     -39.254  16.048  -3.600  1.00 20.00    -0.055 SA
ENDROOT
BRANCH   2   4
HETATM    4  C6  UNL     1     -36.000  14.520  -4.184  1.00 20.00     0.051 C 
HETATM    5  C4  UNL     1     -35.023  13.346  -4.173  1.00 20.00     0.033 C 
HETATM    6  C2  UNL     1     -33.668  13.971  -3.858  1.00 20.00     0.002 C 
HETATM    7  C3  UNL     1     -33.960  15.287  -3.136  1.00 20.00     0.002 C 
HETATM    8  C5  UNL     1     -35.480  15.395  -3.045  1.00 20.00     0.033 C 
HETATM    9  C7  UNL     1     -36.022  15.253  -5.524  1.00 20.00     0.041 C 
ENDBRANCH   2   4
TORSDOF 1
ENDMDL
MODEL 3
REMARK VINA RESULT:      -4.0     11.976     12.950
REMARK  1 active torsions:
REMARK  status: ('A' for Active; 'I' for Inactive)
REMARK    1  A    between atoms: C6_6  and  N8_8 
ROOT
HETATM    1  C1  UNL     1     -34.299  17.021  -2.266  1.00 20.00     0.158 C 
HETATM    2  N8  UNL     1     -34.103  17.105  -3.419  1.00 20.00    -0.265 NA
HETATM    3  S9  UNL     1     -34.563  16.944  -0.697  1.00 20.00    -0.055 SA
ENDROOT
BRANCH   2   4
HETATM    4  C6  UNL     1     -34.065  15.823  -4.126  1.00 20.00     0.051 C 
HETATM    5  C4  UNL     1     -35.330  15.018  -3.837  1.00 20.00     0.033 C 
HETATM    6  C2  UNL     1     -34.925  13.564  -4.063  1.00 20.00     0.002 C 
HETATM    7  C3  UNL     1     -33.408  13.508  -3.883  1.00 20.00     0.002 C 
HETATM    8  C5  UNL     1     -32.965  14.932  -3.553  1.00 20.00     0.033 C 
HETATM    9  C7  UNL     1     -33.876  16.104  -5.616  1.00 20.00     0.041 C 
ENDBRANCH   2   4
TORSDOF 1
ENDMDL
MODEL 4
REMARK VINA RESULT:      -3.8     12.356     13.449
REMARK  1 active torsions:
REMARK  status: ('A' for Active; 'I' for Inactive)
REMARK    1  A    between atoms: C6_6  and  N8_8 
ROOT
HETATM    1  C1  UNL     1     -33.409  17.506  -4.873  1.00 20.00     0.158 C 
HETATM    2  N8  UNL     1     -33.064  16.402  -4.689  1.00 20.00    -0.265 NA
HETATM    3  S9  UNL     1     -33.844  19.016  -5.138  1.00 20.00    -0.055 SA
ENDROOT
BRANCH   2   4
HETATM    4  C6  UNL     1     -34.050  15.561  -4.007  1.00 20.00     0.051 C 
HETATM    5  C4  UNL     1     -33.698  14.084  -4.174  1.00 20.00     0.033 C 
HETATM    6  C2  UNL     1     -35.024  13.347  -4.011  1.00 20.00     0.002 C 
HETATM    7  C3  UNL     1     -36.121  14.358  -4.348  1.00 20.00     0.002 C 
HETATM    8  C5  UNL     1     -35.406  15.660  -4.703  1.00 20.00     0.033 C 
HETATM    9  C7  UNL     1     -34.111  15.987  -2.540  1.00 20.00     0.041 C 
ENDBRANCH   2   4
TORSDOF 1
ENDMDL
MODEL 5
REMARK VINA RESULT:      -3.8     12.227     12.974
REMARK  1 active torsions:
REMARK  status: ('A' for Active; 'I' for Inactive)
REMARK    1  A    between atoms: C6_6  and  N8_8 
ROOT
HETATM    1  C1  UNL     1     -34.128  16.833  -2.247  1.00 20.00     0.158 C 
HETATM    2  N8  UNL     1     -33.827  16.764  -3.377  1.00 20.00    -0.265 NA
HETATM    3  S9  UNL     1     -34.531  16.963  -0.711  1.00 20.00    -0.055 SA
ENDROOT
BRANCH   2   4
HETATM    4  C6  UNL     1     -33.844  15.409  -3.932  1.00 20.00     0.051 C 
HETATM    5  C4  UNL     1     -34.138  15.450  -5.430  1.00 20.00     0.033 C 
HETATM    6  C2  UNL     1     -34.737  14.083  -5.746  1.00 20.00     0.002 C 
HETATM    7  C3  UNL     1     -35.309  13.551  -4.431  1.00 20.00     0.002 C 
HETATM    8  C5  UNL     1     -35.032  14.624  -3.381  1.00 20.00     0.033 C 
HETATM    9  C7  UNL     1     -32.505  14.745  -3.615  1.00 20.00     0.041 C 
ENDBRANCH   2   4
TORSDOF 1
ENDMDL
MODEL 6
REMARK VINA RESULT:      -3.8     12.450     13.712
REMARK  1 active torsions:
REMARK  status: ('A' for Active; 'I' for Inactive)
REMARK    1  A    between atoms: C6_6  and  N8_8 
ROOT
HETATM    1  C1  UNL     1     -33.454  17.375  -5.265  1.00 20.00     0.158 C 
HETATM    2  N8  UNL     1     -33.189  16.307  -4.865  1.00 20.00    -0.265 NA
HETATM    3  S9  UNL     1     -33.783  18.841  -5.797  1.00 20.00    -0.055 SA
ENDROOT
BRANCH   2   4
HETATM    4  C6  UNL     1     -34.219  15.293  -5.099  1.00 20.00     0.051 C 
HETATM    5  C4  UNL     1     -35.531  15.703  -4.432  1.00 20.00     0.033 C 
HETATM    6  C2  UNL     1     -36.272  14.391  -4.194  1.00 20.00     0.002 C 
HETATM    7  C3  UNL     1     -35.206  13.296  -4.157  1.00 20.00     0.002 C 
HETATM    8  C5  UNL     1     -33.867  13.998  -4.371  1.00 20.00     0.033 C 
HETATM    9  C7  UNL     1     -34.365  15.098  -6.608  1.00 20.00     0.041 C 
ENDBRANCH   2   4
TORSDOF 1
ENDMDL
MODEL 7
REMARK VINA RESULT:      -3.8     12.726     13.533
REMARK  1 active torsions:
REMARK  status: ('A' for Active; 'I' for Inactive)
REMARK    1  A    between atoms: C6_6  and  N8_8 
ROOT
HETATM    1  C1  UNL     1     -33.327  17.357  -5.268  1.00 20.00     0.158 C 
HETATM    2  N8  UNL     1     -32.937  16.293  -4.966  1.00 20.00    -0.265 NA
HETATM    3  S9  UNL     1     -33.828  18.805  -5.703  1.00 20.00    -0.055 SA
ENDROOT
BRANCH   2   4
HETATM    4  C6  UNL     1     -33.709  15.639  -3.907  1.00 20.00     0.051 C 
HETATM    5  C4  UNL     1     -35.199  15.666  -4.240  1.00 20.00     0.033 C 
HETATM    6  C2  UNL     1     -35.901  15.565  -2.888  1.00 20.00     0.002 C 
HETATM    7  C3  UNL     1     -34.901  16.069  -1.847  1.00 20.00     0.002 C 
HETATM    8  C5  UNL     1     -33.641  16.456  -2.618  1.00 20.00     0.033 C 
HETATM    9  C7  UNL     1     -33.173  14.219  -3.731  1.00 20.00     0.041 C 
ENDBRANCH   2   4
TORSDOF 1
ENDMDL
MODEL 8
REMARK VINA RESULT:      -3.8     11.957     12.941
REMARK  1 active torsions:
REMARK  status: ('A' for Active; 'I' for Inactive)
REMARK    1  A    between atoms: C6_6  and  N8_8 
ROOT
HETATM    1  C1  UNL     1     -36.764  14.461  -3.995  1.00 20.00     0.158 C 
HETATM    2  N8  UNL     1     -35.749  13.888  -4.120  1.00 20.00    -0.265 NA
HETATM    3  S9  UNL     1     -38.161  15.210  -3.835  1.00 20.00    -0.055 SA
ENDROOT
BRANCH   2   4
HETATM    4  C6  UNL     1     -34.558  14.680  -3.807  1.00 20.00     0.051 C 
HETATM    5  C4  UNL     1     -34.754  15.441  -2.497  1.00 20.00     0.033 C 
HETATM    6  C2  UNL     1     -33.811  16.637  -2.598  1.00 20.00     0.002 C 
HETATM    7  C3  UNL     1     -33.573  16.870  -4.091  1.00 20.00     0.002 C 
HETATM    8  C5  UNL     1     -34.386  15.806  -4.824  1.00 20.00     0.033 C 
HETATM    9  C7  UNL     1     -33.355  13.739  -3.763  1.00 20.00     0.041 C 
ENDBRANCH   2   4
TORSDOF 1
ENDMDL
MODEL 9
REMARK VINA RESULT:      -3.8      9.249     10.362
REMARK  1 active torsions:
REMARK  status: ('A' for Active; 'I' for Inactive)
REMARK    1  A    between atoms: C6_6  and  N8_8 
ROOT
HETATM    1  C1  UNL     1     -41.670   3.303  -2.550  1.00 20.00     0.158 C 
HETATM    2  N8  UNL     1     -41.057   4.019  -1.854  1.00 20.00    -0.265 NA
HETATM    3  S9  UNL     1     -42.475   2.306  -3.498  1.00 20.00    -0.055 SA
ENDROOT
BRANCH   2   4
HETATM    4  C6  UNL     1     -41.777   5.222  -1.430  1.00 20.00     0.051 C 
HETATM    5  C4  UNL     1     -42.241   6.021  -2.646  1.00 20.00     0.033 C 
HETATM    6  C2  UNL     1     -42.381   7.454  -2.139  1.00 20.00     0.002 C 
HETATM    7  C3  UNL     1     -41.474   7.565  -0.912  1.00 20.00     0.002 C 
HETATM    8  C5  UNL     1     -40.825   6.194  -0.737  1.00 20.00     0.033 C 
HETATM    9  C7  UNL     1     -42.937   4.794  -0.532  1.00 20.00     0.041 C 
ENDBRANCH   2   4
TORSDOF 1
ENDMDL
