MODEL 1
REMARK VINA RESULT:      -4.5      0.000      0.000
REMARK  3 active torsions:
REMARK  status: ('A' for Active; 'I' for Inactive)
REMARK    1  A    between atoms: C3_3  and  C5_5 
REMARK    2  A    between atoms: C5_5  and  C7_7 
REMARK    3  A    between atoms: C6_6  and  C7_7 
ROOT
HETATM    1  C5  UNL     1     -33.781   6.279   4.997  1.00 20.00     0.010 C 
ENDROOT
BRANCH   1   2
HETATM    2  C3  UNL     1     -34.904   5.292   5.130  1.00 20.00    -0.014 A 
HETATM    3  C1  UNL     1     -34.613   3.849   5.436  1.00 20.00     0.005 A 
HETATM    4  C2  UNL     1     -35.255   4.723   6.477  1.00 20.00     0.005 A 
ENDBRANCH   1   2
BRANCH   1   5
HETATM    5  C7  UNL     1     -32.906   6.033   3.752  1.00 20.00    -0.004 C 
HETATM    6  C4  UNL     1     -33.752   5.765   2.502  1.00 20.00     0.011 C 
BRANCH   5   7
HETATM    7  C6  UNL     1     -31.912   7.184   3.521  1.00 20.00     0.119 C 
HETATM    8 CL8  UNL     1     -32.210   8.094   2.019  1.00 20.00    -0.130 Cl
ENDBRANCH   5   7
ENDBRANCH   1   5
TORSDOF 3
ENDMDL
MODEL 2
REMARK VINA RESULT:      -4.4      2.309      4.270
REMARK  3 active torsions:
REMARK  status: ('A' for Active; 'I' for Inactive)
REMARK    1  A    between atoms: C3_3  and  C5_5 
REMARK    2  A    between atoms: C5_5  and  C7_7 
REMARK    3  A    between atoms: C6_6  and  C7_7 
ROOT
HETATM    1  C5  UNL     1     -33.896   6.501   4.261  1.00 20.00     0.010 C 
ENDROOT
BRANCH   1   2
HETATM    2  C3  UNL     1     -32.600   6.440   3.508  1.00 20.00    -0.014 A 
HETATM    3  C1  UNL     1     -32.311   7.432   2.416  1.00 20.00     0.005 A 
HETATM    4  C2  UNL     1     -31.555   7.501   3.713  1.00 20.00     0.005 A 
ENDBRANCH   1   2
BRANCH   1   5
HETATM    5  C7  UNL     1     -33.771   6.017   5.720  1.00 20.00    -0.004 C 
HETATM    6  C4  UNL     1     -33.722   7.188   6.707  1.00 20.00     0.011 C 
BRANCH   5   7
HETATM    7  C6  UNL     1     -34.886   5.021   6.084  1.00 20.00     0.119 C 
HETATM    8 CL8  UNL     1     -35.175   3.785   4.835  1.00 20.00    -0.130 Cl
ENDBRANCH   5   7
ENDBRANCH   1   5
TORSDOF 3
ENDMDL
MODEL 3
REMARK VINA RESULT:      -4.4      2.303      4.058
REMARK  3 active torsions:
REMARK  status: ('A' for Active; 'I' for Inactive)
REMARK    1  A    between atoms: C3_3  and  C5_5 
REMARK    2  A    between atoms: C5_5  and  C7_7 
REMARK    3  A    between atoms: C6_6  and  C7_7 
ROOT
HETATM    1  C5  UNL     1     -33.673   6.634   4.240  1.00 20.00     0.010 C 
ENDROOT
BRANCH   1   2
HETATM    2  C3  UNL     1     -32.445   6.652   3.378  1.00 20.00    -0.014 A 
HETATM    3  C1  UNL     1     -32.180   7.814   2.461  1.00 20.00     0.005 A 
HETATM    4  C2  UNL     1     -31.323   7.607   3.679  1.00 20.00     0.005 A 
ENDBRANCH   1   2
BRANCH   1   5
HETATM    5  C7  UNL     1     -34.753   5.658   3.733  1.00 20.00    -0.004 C 
HETATM    6  C4  UNL     1     -34.328   4.958   2.438  1.00 20.00     0.011 C 
BRANCH   5   7
HETATM    7  C6  UNL     1     -35.153   4.641   4.816  1.00 20.00     0.119 C 
HETATM    8 CL8  UNL     1     -34.727   5.154   6.468  1.00 20.00    -0.130 Cl
ENDBRANCH   5   7
ENDBRANCH   1   5
TORSDOF 3
ENDMDL
MODEL 4
REMARK VINA RESULT:      -4.4      2.057      3.749
REMARK  3 active torsions:
REMARK  status: ('A' for Active; 'I' for Inactive)
REMARK    1  A    between atoms: C3_3  and  C5_5 
REMARK    2  A    between atoms: C5_5  and  C7_7 
REMARK    3  A    between atoms: C6_6  and  C7_7 
ROOT
HETATM    1  C5  UNL     1     -34.484   6.123   3.996  1.00 20.00     0.010 C 
ENDROOT
BRANCH   1   2
HETATM    2  C3  UNL     1     -32.994   6.283   3.908  1.00 20.00    -0.014 A 
HETATM    3  C1  UNL     1     -32.249   5.795   2.697  1.00 20.00     0.005 A 
HETATM    4  C2  UNL     1     -32.394   7.270   2.946  1.00 20.00     0.005 A 
ENDBRANCH   1   2
BRANCH   1   5
HETATM    5  C7  UNL     1     -34.938   5.370   5.262  1.00 20.00    -0.004 C 
HETATM    6  C4  UNL     1     -35.086   3.866   5.009  1.00 20.00     0.011 C 
BRANCH   5   7
HETATM    7  C6  UNL     1     -34.006   5.650   6.454  1.00 20.00     0.119 C 
HETATM    8 CL8  UNL     1     -33.890   7.377   6.878  1.00 20.00    -0.130 Cl
ENDBRANCH   5   7
ENDBRANCH   1   5
TORSDOF 3
ENDMDL
MODEL 5
REMARK VINA RESULT:      -4.2      1.236      2.102
REMARK  3 active torsions:
REMARK  status: ('A' for Active; 'I' for Inactive)
REMARK    1  A    between atoms: C3_3  and  C5_5 
REMARK    2  A    between atoms: C5_5  and  C7_7 
REMARK    3  A    between atoms: C6_6  and  C7_7 
ROOT
HETATM    1  C5  UNL     1     -32.980   6.236   3.288  1.00 20.00     0.010 C 
ENDROOT
BRANCH   1   2
HETATM    2  C3  UNL     1     -34.255   6.239   4.080  1.00 20.00    -0.014 A 
HETATM    3  C1  UNL     1     -35.078   4.986   4.195  1.00 20.00     0.005 A 
HETATM    4  C2  UNL     1     -34.333   5.507   5.392  1.00 20.00     0.005 A 
ENDBRANCH   1   2
BRANCH   1   5
HETATM    5  C7  UNL     1     -32.331   7.631   3.183  1.00 20.00    -0.004 C 
HETATM    6  C4  UNL     1     -31.096   7.755   4.082  1.00 20.00     0.011 C 
BRANCH   5   7
HETATM    7  C6  UNL     1     -32.003   7.996   1.725  1.00 20.00     0.119 C 
HETATM    8 CL8  UNL     1     -32.376   9.687   1.312  1.00 20.00    -0.130 Cl
ENDBRANCH   5   7
ENDBRANCH   1   5
TORSDOF 3
ENDMDL
MODEL 6
REMARK VINA RESULT:      -4.0      2.328      4.631
REMARK  3 active torsions:
REMARK  status: ('A' for Active; 'I' for Inactive)
REMARK    1  A    between atoms: C3_3  and  C5_5 
REMARK    2  A    between atoms: C5_5  and  C7_7 
REMARK    3  A    between atoms: C6_6  and  C7_7 
ROOT
HETATM    1  C5  UNL     1     -31.933   7.397   3.285  1.00 20.00     0.010 C 
ENDROOT
BRANCH   1   2
HETATM    2  C3  UNL     1     -32.564   8.024   2.076  1.00 20.00    -0.014 A 
HETATM    3  C1  UNL     1     -32.501   9.513   1.875  1.00 20.00     0.005 A 
HETATM    4  C2  UNL     1     -31.703   8.600   0.987  1.00 20.00     0.005 A 
ENDBRANCH   1   2
BRANCH   1   5
HETATM    5  C7  UNL     1     -32.791   6.274   3.901  1.00 20.00    -0.004 C 
HETATM    6  C4  UNL     1     -33.445   6.710   5.216  1.00 20.00     0.011 C 
BRANCH   5   7
HETATM    7  C6  UNL     1     -33.836   5.746   2.902  1.00 20.00     0.119 C 
HETATM    8 CL8  UNL     1     -35.427   5.427   3.636  1.00 20.00    -0.130 Cl
ENDBRANCH   5   7
ENDBRANCH   1   5
TORSDOF 3
ENDMDL
MODEL 7
REMARK VINA RESULT:      -3.7     11.895     12.760
REMARK  3 active torsions:
REMARK  status: ('A' for Active; 'I' for Inactive)
REMARK    1  A    between atoms: C3_3  and  C5_5 
REMARK    2  A    between atoms: C5_5  and  C7_7 
REMARK    3  A    between atoms: C6_6  and  C7_7 
ROOT
HETATM    1  C5  UNL     1     -34.770  15.884  -2.750  1.00 20.00     0.010 C 
ENDROOT
BRANCH   1   2
HETATM    2  C3  UNL     1     -34.564  16.300  -1.323  1.00 20.00    -0.014 A 
HETATM    3  C1  UNL     1     -33.697  17.484  -0.997  1.00 20.00     0.005 A 
HETATM    4  C2  UNL     1     -35.185  17.569  -0.807  1.00 20.00     0.005 A 
ENDBRANCH   1   2
BRANCH   1   5
HETATM    5  C7  UNL     1     -33.468  15.436  -3.443  1.00 20.00    -0.004 C 
HETATM    6  C4  UNL     1     -33.444  13.924  -3.692  1.00 20.00     0.011 C 
BRANCH   5   7
HETATM    7  C6  UNL     1     -33.217  16.223  -4.741  1.00 20.00     0.119 C 
HETATM    8 CL8  UNL     1     -33.538  17.969  -4.592  1.00 20.00    -0.130 Cl
ENDBRANCH   5   7
ENDBRANCH   1   5
TORSDOF 3
ENDMDL
MODEL 8
REMARK VINA RESULT:      -3.7     11.529     13.103
REMARK  3 active torsions:
REMARK  status: ('A' for Active; 'I' for Inactive)
REMARK    1  A    between atoms: C3_3  and  C5_5 
REMARK    2  A    between atoms: C5_5  and  C7_7 
REMARK    3  A    between atoms: C6_6  and  C7_7 
ROOT
HETATM    1  C5  UNL     1     -34.853  13.417  -5.227  1.00 20.00     0.010 C 
ENDROOT
BRANCH   1   2
HETATM    2  C3  UNL     1     -35.285  14.580  -6.072  1.00 20.00    -0.014 A 
HETATM    3  C1  UNL     1     -34.299  15.266  -6.977  1.00 20.00     0.005 A 
HETATM    4  C2  UNL     1     -35.402  14.429  -7.564  1.00 20.00     0.005 A 
ENDBRANCH   1   2
BRANCH   1   5
HETATM    5  C7  UNL     1     -34.512  13.817  -3.778  1.00 20.00    -0.004 C 
HETATM    6  C4  UNL     1     -33.007  14.030  -3.583  1.00 20.00     0.011 C 
BRANCH   5   7
HETATM    7  C6  UNL     1     -35.316  15.048  -3.325  1.00 20.00     0.119 C 
HETATM    8 CL8  UNL     1     -34.562  15.936  -1.977  1.00 20.00    -0.130 Cl
ENDBRANCH   5   7
ENDBRANCH   1   5
TORSDOF 3
ENDMDL
MODEL 9
REMARK VINA RESULT:      -3.7     11.695     12.603
REMARK  3 active torsions:
REMARK  status: ('A' for Active; 'I' for Inactive)
REMARK    1  A    between atoms: C3_3  and  C5_5 
REMARK    2  A    between atoms: C5_5  and  C7_7 
REMARK    3  A    between atoms: C6_6  and  C7_7 
ROOT
HETATM    1  C5  UNL     1     -33.646  15.089  -3.227  1.00 20.00     0.010 C 
ENDROOT
BRANCH   1   2
HETATM    2  C3  UNL     1     -34.380  13.816  -3.530  1.00 20.00    -0.014 A 
HETATM    3  C1  UNL     1     -35.705  13.856  -4.240  1.00 20.00     0.005 A 
HETATM    4  C2  UNL     1     -34.489  13.324  -4.946  1.00 20.00     0.005 A 
ENDBRANCH   1   2
BRANCH   1   5
HETATM    5  C7  UNL     1     -34.579  16.235  -2.786  1.00 20.00    -0.004 C 
HETATM    6  C4  UNL     1     -34.533  16.459  -1.271  1.00 20.00     0.011 C 
BRANCH   5   7
HETATM    7  C6  UNL     1     -34.284  17.534  -3.556  1.00 20.00     0.119 C 
HETATM    8 CL8  UNL     1     -33.366  17.280  -5.061  1.00 20.00    -0.130 Cl
ENDBRANCH   5   7
ENDBRANCH   1   5
TORSDOF 3
ENDMDL
