MODEL 1
REMARK VINA RESULT:      -3.9      0.000      0.000
REMARK  3 active torsions:
REMARK  status: ('A' for Active; 'I' for Inactive)
REMARK    1  A    between atoms: C1_1  and  C5_5 
REMARK    2  A    between atoms: C1_1  and  C7_7 
REMARK    3  A    between atoms: C6_6  and  C7_7 
ROOT
HETATM    1  C3  UNL     1     -32.715  14.034  -3.477  1.00 20.00     0.023 C 
HETATM    2  C4  UNL     1     -33.427  15.984  -4.842  1.00 20.00     0.023 C 
HETATM    3  C7  UNL     1     -33.939  14.744  -4.086  1.00 20.00     0.014 C 
ENDROOT
BRANCH   3   4
HETATM    4  C1  UNL     1     -34.648  13.793  -5.080  1.00 20.00     0.148 C 
HETATM    5  O8  UNL     1     -34.851  12.611  -4.790  1.00 20.00    -0.296 OA
BRANCH   4   6
HETATM    6  C5  UNL     1     -35.074  14.365  -6.421  1.00 20.00     0.193 C 
HETATM    7 CL9  UNL     1     -36.683  15.100  -6.295  1.00 20.00    -0.123 Cl
ENDBRANCH   4   6
ENDBRANCH   3   4
BRANCH   3   8
HETATM    8  C6  UNL     1     -34.917  15.196  -2.974  1.00 20.00     0.012 C 
HETATM    9  C2  UNL     1     -34.346  16.205  -1.983  1.00 20.00     0.006 C 
ENDBRANCH   3   8
TORSDOF 3
ENDMDL
MODEL 2
REMARK VINA RESULT:      -3.8      1.982      2.500
REMARK  3 active torsions:
REMARK  status: ('A' for Active; 'I' for Inactive)
REMARK    1  A    between atoms: C1_1  and  C5_5 
REMARK    2  A    between atoms: C1_1  and  C7_7 
REMARK    3  A    between atoms: C6_6  and  C7_7 
ROOT
HETATM    1  C3  UNL     1     -35.916  15.331  -3.467  1.00 20.00     0.023 C 
HETATM    2  C4  UNL     1     -33.882  13.912  -3.621  1.00 20.00     0.023 C 
HETATM    3  C7  UNL     1     -34.383  15.369  -3.613  1.00 20.00     0.014 C 
ENDROOT
BRANCH   3   4
HETATM    4  C1  UNL     1     -34.006  16.049  -4.951  1.00 20.00     0.148 C 
HETATM    5  O8  UNL     1     -32.928  16.635  -5.081  1.00 20.00    -0.296 OA
BRANCH   4   6
HETATM    6  C5  UNL     1     -35.010  15.975  -6.087  1.00 20.00     0.193 C 
HETATM    7 CL9  UNL     1     -34.458  14.833  -7.326  1.00 20.00    -0.123 Cl
ENDBRANCH   4   6
ENDBRANCH   3   4
BRANCH   3   8
HETATM    8  C6  UNL     1     -33.740  16.118  -2.420  1.00 20.00     0.012 C 
HETATM    9  C2  UNL     1     -34.685  16.421  -1.262  1.00 20.00     0.006 C 
ENDBRANCH   3   8
TORSDOF 3
ENDMDL
MODEL 3
REMARK VINA RESULT:      -3.8     11.644     12.483
REMARK  3 active torsions:
REMARK  status: ('A' for Active; 'I' for Inactive)
REMARK    1  A    between atoms: C1_1  and  C5_5 
REMARK    2  A    between atoms: C1_1  and  C7_7 
REMARK    3  A    between atoms: C6_6  and  C7_7 
ROOT
HETATM    1  C3  UNL     1     -36.031   5.937   3.623  1.00 20.00     0.023 C 
HETATM    2  C4  UNL     1     -34.802   4.064   4.697  1.00 20.00     0.023 C 
HETATM    3  C7  UNL     1     -34.655   5.500   4.162  1.00 20.00     0.014 C 
ENDROOT
BRANCH   3   4
HETATM    4  C1  UNL     1     -33.619   5.516   3.012  1.00 20.00     0.148 C 
HETATM    5  O8  UNL     1     -33.871   4.987   1.927  1.00 20.00    -0.296 OA
BRANCH   4   6
HETATM    6  C5  UNL     1     -32.287   6.196   3.273  1.00 20.00     0.193 C 
HETATM    7 CL9  UNL     1     -32.211   7.752   2.426  1.00 20.00    -0.123 Cl
ENDBRANCH   4   6
ENDBRANCH   3   4
BRANCH   3   8
HETATM    8  C6  UNL     1     -34.202   6.427   5.316  1.00 20.00     0.012 C 
HETATM    9  C2  UNL     1     -34.408   5.863   6.717  1.00 20.00     0.006 C 
ENDBRANCH   3   8
TORSDOF 3
ENDMDL
MODEL 4
REMARK VINA RESULT:      -3.8      0.519      1.744
REMARK  3 active torsions:
REMARK  status: ('A' for Active; 'I' for Inactive)
REMARK    1  A    between atoms: C1_1  and  C5_5 
REMARK    2  A    between atoms: C1_1  and  C7_7 
REMARK    3  A    between atoms: C6_6  and  C7_7 
ROOT
HETATM    1  C3  UNL     1     -34.753  15.356  -2.943  1.00 20.00     0.023 C 
HETATM    2  C4  UNL     1     -32.675  14.100  -3.470  1.00 20.00     0.023 C 
HETATM    3  C7  UNL     1     -33.884  14.819  -4.097  1.00 20.00     0.014 C 
ENDROOT
BRANCH   3   4
HETATM    4  C1  UNL     1     -34.703  13.809  -4.935  1.00 20.00     0.148 C 
HETATM    5  O8  UNL     1     -34.954  12.682  -4.501  1.00 20.00    -0.296 OA
BRANCH   4   6
HETATM    6  C5  UNL     1     -35.176  14.252  -6.308  1.00 20.00     0.193 C 
HETATM    7 CL9  UNL     1     -36.702  15.145  -6.177  1.00 20.00    -0.123 Cl
ENDBRANCH   4   6
ENDBRANCH   3   4
BRANCH   3   8
HETATM    8  C6  UNL     1     -33.378  15.981  -4.985  1.00 20.00     0.012 C 
HETATM    9  C2  UNL     1     -33.717  17.378  -4.477  1.00 20.00     0.006 C 
ENDBRANCH   3   8
TORSDOF 3
ENDMDL
MODEL 5
REMARK VINA RESULT:      -3.7      2.230      3.486
REMARK  3 active torsions:
REMARK  status: ('A' for Active; 'I' for Inactive)
REMARK    1  A    between atoms: C1_1  and  C5_5 
REMARK    2  A    between atoms: C1_1  and  C7_7 
REMARK    3  A    between atoms: C6_6  and  C7_7 
ROOT
HETATM    1  C3  UNL     1     -33.341  16.029  -4.591  1.00 20.00     0.023 C 
HETATM    2  C4  UNL     1     -33.484  13.700  -3.738  1.00 20.00     0.023 C 
HETATM    3  C7  UNL     1     -34.280  14.817  -4.439  1.00 20.00     0.014 C 
ENDROOT
BRANCH   3   4
HETATM    4  C1  UNL     1     -35.494  15.208  -3.564  1.00 20.00     0.148 C 
HETATM    5  O8  UNL     1     -36.486  14.478  -3.496  1.00 20.00    -0.296 OA
BRANCH   4   6
HETATM    6  C5  UNL     1     -35.423  16.520  -2.804  1.00 20.00     0.193 C 
HETATM    7 CL9  UNL     1     -34.650  16.279  -1.227  1.00 20.00    -0.123 Cl
ENDBRANCH   4   6
ENDBRANCH   3   4
BRANCH   3   8
HETATM    8  C6  UNL     1     -34.747  14.312  -5.826  1.00 20.00     0.012 C 
HETATM    9  C2  UNL     1     -34.350  15.196  -7.003  1.00 20.00     0.006 C 
ENDBRANCH   3   8
TORSDOF 3
ENDMDL
MODEL 6
REMARK VINA RESULT:      -3.7      2.277      3.545
REMARK  3 active torsions:
REMARK  status: ('A' for Active; 'I' for Inactive)
REMARK    1  A    between atoms: C1_1  and  C5_5 
REMARK    2  A    between atoms: C1_1  and  C7_7 
REMARK    3  A    between atoms: C6_6  and  C7_7 
ROOT
HETATM    1  C3  UNL     1     -36.796  14.565  -4.146  1.00 20.00     0.023 C 
HETATM    2  C4  UNL     1     -35.384  16.431  -4.980  1.00 20.00     0.023 C 
HETATM    3  C7  UNL     1     -35.401  14.918  -4.698  1.00 20.00     0.014 C 
ENDROOT
BRANCH   3   4
HETATM    4  C1  UNL     1     -34.324  14.581  -3.639  1.00 20.00     0.148 C 
HETATM    5  O8  UNL     1     -34.021  13.410  -3.396  1.00 20.00    -0.296 OA
BRANCH   4   6
HETATM    6  C5  UNL     1     -33.665  15.738  -2.910  1.00 20.00     0.193 C 
HETATM    7 CL9  UNL     1     -34.609  16.182  -1.476  1.00 20.00    -0.123 Cl
ENDBRANCH   4   6
ENDBRANCH   3   4
BRANCH   3   8
HETATM    8  C6  UNL     1     -35.127  14.154  -6.016  1.00 20.00     0.012 C 
HETATM    9  C2  UNL     1     -34.439  14.969  -7.105  1.00 20.00     0.006 C 
ENDBRANCH   3   8
TORSDOF 3
ENDMDL
MODEL 7
REMARK VINA RESULT:      -3.7      1.630      1.869
REMARK  3 active torsions:
REMARK  status: ('A' for Active; 'I' for Inactive)
REMARK    1  A    between atoms: C1_1  and  C5_5 
REMARK    2  A    between atoms: C1_1  and  C7_7 
REMARK    3  A    between atoms: C6_6  and  C7_7 
ROOT
HETATM    1  C3  UNL     1     -33.109  15.181  -3.562  1.00 20.00     0.023 C 
HETATM    2  C4  UNL     1     -34.742  16.951  -4.172  1.00 20.00     0.023 C 
HETATM    3  C7  UNL     1     -34.538  15.696  -3.303  1.00 20.00     0.014 C 
ENDROOT
BRANCH   3   4
HETATM    4  C1  UNL     1     -35.563  14.613  -3.716  1.00 20.00     0.148 C 
HETATM    5  O8  UNL     1     -36.732  14.668  -3.328  1.00 20.00    -0.296 OA
BRANCH   4   6
HETATM    6  C5  UNL     1     -35.075  13.484  -4.606  1.00 20.00     0.193 C 
HETATM    7 CL9  UNL     1     -35.108  13.980  -6.308  1.00 20.00    -0.123 Cl
ENDBRANCH   4   6
ENDBRANCH   3   4
BRANCH   3   8
HETATM    8  C6  UNL     1     -34.719  16.077  -1.813  1.00 20.00     0.012 C 
HETATM    9  C2  UNL     1     -33.791  17.178  -1.311  1.00 20.00     0.006 C 
ENDBRANCH   3   8
TORSDOF 3
ENDMDL
MODEL 8
REMARK VINA RESULT:      -3.6      1.922      2.861
REMARK  3 active torsions:
REMARK  status: ('A' for Active; 'I' for Inactive)
REMARK    1  A    between atoms: C1_1  and  C5_5 
REMARK    2  A    between atoms: C1_1  and  C7_7 
REMARK    3  A    between atoms: C6_6  and  C7_7 
ROOT
HETATM    1  C3  UNL     1     -34.094  16.091  -2.247  1.00 20.00     0.023 C 
HETATM    2  C4  UNL     1     -36.107  15.494  -3.575  1.00 20.00     0.023 C 
HETATM    3  C7  UNL     1     -34.570  15.410  -3.545  1.00 20.00     0.014 C 
ENDROOT
BRANCH   3   4
HETATM    4  C1  UNL     1     -33.990  16.161  -4.767  1.00 20.00     0.148 C 
HETATM    5  O8  UNL     1     -32.778  16.362  -4.869  1.00 20.00    -0.296 OA
BRANCH   4   6
HETATM    6  C5  UNL     1     -34.966  16.646  -5.824  1.00 20.00     0.193 C 
HETATM    7 CL9  UNL     1     -34.643  15.848  -7.374  1.00 20.00    -0.123 Cl
ENDBRANCH   4   6
ENDBRANCH   3   4
BRANCH   3   8
HETATM    8  C6  UNL     1     -34.144  13.922  -3.567  1.00 20.00     0.012 C 
HETATM    9  C2  UNL     1     -34.625  13.130  -4.779  1.00 20.00     0.006 C 
ENDBRANCH   3   8
TORSDOF 3
ENDMDL
MODEL 9
REMARK VINA RESULT:      -3.6      2.186      2.973
REMARK  3 active torsions:
REMARK  status: ('A' for Active; 'I' for Inactive)
REMARK    1  A    between atoms: C1_1  and  C5_5 
REMARK    2  A    between atoms: C1_1  and  C7_7 
REMARK    3  A    between atoms: C6_6  and  C7_7 
ROOT
HETATM    1  C3  UNL     1     -32.922  15.004  -3.515  1.00 20.00     0.023 C 
HETATM    2  C4  UNL     1     -34.460  16.121  -1.915  1.00 20.00     0.023 C 
HETATM    3  C7  UNL     1     -34.337  15.592  -3.356  1.00 20.00     0.014 C 
ENDROOT
BRANCH   3   4
HETATM    4  C1  UNL     1     -34.526  16.763  -4.350  1.00 20.00     0.148 C 
HETATM    5  O8  UNL     1     -35.443  17.575  -4.204  1.00 20.00    -0.296 OA
BRANCH   4   6
HETATM    6  C5  UNL     1     -33.552  16.868  -5.510  1.00 20.00     0.193 C 
HETATM    7 CL9  UNL     1     -34.120  15.902  -6.883  1.00 20.00    -0.123 Cl
ENDBRANCH   4   6
ENDBRANCH   3   4
BRANCH   3   8
HETATM    8  C6  UNL     1     -35.411  14.501  -3.588  1.00 20.00     0.012 C 
HETATM    9  C2  UNL     1     -34.955  13.315  -4.431  1.00 20.00     0.006 C 
ENDBRANCH   3   8
TORSDOF 3
ENDMDL
