MODEL 1
REMARK VINA RESULT:      -5.0      0.000      0.000
REMARK  4 active torsions:
REMARK  status: ('A' for Active; 'I' for Inactive)
REMARK    1  A    between atoms: C1_1  and  C12_12 
REMARK    2  A    between atoms: C6_6  and  C10_10 
REMARK    3  A    between atoms: C7_7  and  C11_11 
REMARK    4  A    between atoms: C11_11  and  C12_12 
ROOT
HETATM    1  C2  UNL     1     -35.074  18.516  -3.041  1.00 20.00     0.001 C 
HETATM    2  C3  UNL     1     -34.557  19.053  -1.709  1.00 20.00     0.005 C 
HETATM    3  C4  UNL     1     -35.849  17.212  -2.861  1.00 20.00     0.005 C 
HETATM    4  C5  UNL     1     -34.504  16.703  -0.781  1.00 20.00     0.009 C 
HETATM    5  C6  UNL     1     -33.719  18.011  -0.959  1.00 20.00    -0.014 C 
HETATM    6  C7  UNL     1     -35.054  16.141  -2.102  1.00 20.00    -0.013 C 
ENDROOT
BRANCH   6   7
HETATM    7  C11 UNL     1     -33.944  15.539  -2.967  1.00 20.00     0.015 C 
BRANCH   7   8
HETATM    8  C12 UNL     1     -34.473  14.994  -4.298  1.00 20.00     0.043 C 
HETATM    9  C9  UNL     1     -33.847  15.746  -5.470  1.00 20.00     0.017 C 
BRANCH   8  10
HETATM   10  C1  UNL     1     -34.184  13.514  -4.490  1.00 20.00     0.235 C 
HETATM   11  O13 UNL     1     -35.029  12.625  -4.473  1.00 20.00    -0.306 OA
ENDBRANCH   8  10
ENDBRANCH   7   8
ENDBRANCH   6   7
BRANCH   5  12
HETATM   12  C10 UNL     1     -33.271  18.557   0.397  1.00 20.00     0.000 C 
HETATM   13  C8  UNL     1     -31.840  18.979   0.375  1.00 20.00     0.005 C 
ENDBRANCH   5  12
TORSDOF 4
ENDMDL
MODEL 2
REMARK VINA RESULT:      -4.7      2.681      5.403
REMARK  4 active torsions:
REMARK  status: ('A' for Active; 'I' for Inactive)
REMARK    1  A    between atoms: C1_1  and  C12_12 
REMARK    2  A    between atoms: C6_6  and  C10_10 
REMARK    3  A    between atoms: C7_7  and  C11_11 
REMARK    4  A    between atoms: C11_11  and  C12_12 
ROOT
HETATM    1  C2  UNL     1     -36.306  16.762  -2.833  1.00 20.00     0.001 C 
HETATM    2  C3  UNL     1     -35.804  15.519  -3.563  1.00 20.00     0.005 C 
HETATM    3  C4  UNL     1     -35.254  17.869  -2.817  1.00 20.00     0.005 C 
HETATM    4  C5  UNL     1     -33.425  16.130  -2.970  1.00 20.00     0.009 C 
HETATM    5  C6  UNL     1     -34.478  15.012  -2.983  1.00 20.00    -0.014 C 
HETATM    6  C7  UNL     1     -33.903  17.405  -2.256  1.00 20.00    -0.013 C 
ENDROOT
BRANCH   6   7
HETATM    7  C11 UNL     1     -33.952  17.219  -0.737  1.00 20.00     0.015 C 
BRANCH   7   8
HETATM    8  C12 UNL     1     -33.850  18.549   0.016  1.00 20.00     0.043 C 
HETATM    9  C9  UNL     1     -34.811  18.566   1.203  1.00 20.00     0.017 C 
BRANCH   8  10
HETATM   10  C1  UNL     1     -32.454  18.826   0.547  1.00 20.00     0.235 C 
HETATM   11  O13 UNL     1     -31.522  19.263  -0.120  1.00 20.00    -0.306 OA
ENDBRANCH   8  10
ENDBRANCH   7   8
ENDBRANCH   6   7
BRANCH   5  12
HETATM   12  C10 UNL     1     -33.972  13.807  -3.776  1.00 20.00     0.000 C 
HETATM   13  C8  UNL     1     -35.043  13.226  -4.639  1.00 20.00     0.005 C 
ENDBRANCH   5  12
TORSDOF 4
ENDMDL
MODEL 3
REMARK VINA RESULT:      -4.7      1.006      1.429
REMARK  4 active torsions:
REMARK  status: ('A' for Active; 'I' for Inactive)
REMARK    1  A    between atoms: C1_1  and  C12_12 
REMARK    2  A    between atoms: C6_6  and  C10_10 
REMARK    3  A    between atoms: C7_7  and  C11_11 
REMARK    4  A    between atoms: C11_11  and  C12_12 
ROOT
HETATM    1  C2  UNL     1     -35.852  18.537  -2.868  1.00 20.00     0.001 C 
HETATM    2  C3  UNL     1     -35.410  18.836  -1.438  1.00 20.00     0.005 C 
HETATM    3  C4  UNL     1     -36.248  17.073  -3.041  1.00 20.00     0.005 C 
HETATM    4  C5  UNL     1     -34.690  16.429  -1.156  1.00 20.00     0.009 C 
HETATM    5  C6  UNL     1     -34.285  17.901  -0.979  1.00 20.00    -0.014 C 
HETATM    6  C7  UNL     1     -35.156  16.096  -2.582  1.00 20.00    -0.013 C 
ENDROOT
BRANCH   6   7
HETATM    7  C11 UNL     1     -33.984  16.054  -3.566  1.00 20.00     0.015 C 
BRANCH   7   8
HETATM    8  C12 UNL     1     -33.812  14.674  -4.209  1.00 20.00     0.043 C 
HETATM    9  C9  UNL     1     -32.748  13.868  -3.469  1.00 20.00     0.017 C 
BRANCH   8  10
HETATM   10  C1  UNL     1     -35.093  13.856  -4.212  1.00 20.00     0.235 C 
HETATM   11  O13 UNL     1     -35.147  12.636  -4.327  1.00 20.00    -0.306 OA
ENDBRANCH   8  10
ENDBRANCH   7   8
ENDBRANCH   6   7
BRANCH   5  12
HETATM   12  C10 UNL     1     -33.911  18.184   0.476  1.00 20.00     0.000 C 
HETATM   13  C8  UNL     1     -34.999  17.774   1.412  1.00 20.00     0.005 C 
ENDBRANCH   5  12
TORSDOF 4
ENDMDL
MODEL 4
REMARK VINA RESULT:      -4.6      2.538      5.516
REMARK  4 active torsions:
REMARK  status: ('A' for Active; 'I' for Inactive)
REMARK    1  A    between atoms: C1_1  and  C12_12 
REMARK    2  A    between atoms: C6_6  and  C10_10 
REMARK    3  A    between atoms: C7_7  and  C11_11 
REMARK    4  A    between atoms: C11_11  and  C12_12 
ROOT
HETATM    1  C2  UNL     1     -33.134  16.300  -4.809  1.00 20.00     0.001 C 
HETATM    2  C3  UNL     1     -34.059  15.769  -5.901  1.00 20.00     0.005 C 
HETATM    3  C4  UNL     1     -33.139  15.397  -3.578  1.00 20.00     0.005 C 
HETATM    4  C5  UNL     1     -35.483  14.637  -4.147  1.00 20.00     0.009 C 
HETATM    5  C6  UNL     1     -35.485  15.547  -5.385  1.00 20.00    -0.014 C 
HETATM    6  C7  UNL     1     -34.549  15.134  -3.031  1.00 20.00    -0.013 C 
ENDROOT
BRANCH   6   7
HETATM    7  C11 UNL     1     -35.120  16.363  -2.320  1.00 20.00     0.015 C 
BRANCH   7   8
HETATM    8  C12 UNL     1     -34.167  16.916  -1.256  1.00 20.00     0.043 C 
HETATM    9  C9  UNL     1     -33.617  18.275  -1.684  1.00 20.00     0.017 C 
BRANCH   8  10
HETATM   10  C1  UNL     1     -34.829  17.093   0.101  1.00 20.00     0.235 C 
HETATM   11  O13 UNL     1     -34.474  17.896   0.957  1.00 20.00    -0.306 OA
ENDBRANCH   8  10
ENDBRANCH   7   8
ENDBRANCH   6   7
BRANCH   5  12
HETATM   12  C10 UNL     1     -36.368  14.955  -6.484  1.00 20.00     0.000 C 
HETATM   13  C8  UNL     1     -35.555  14.456  -7.633  1.00 20.00     0.005 C 
ENDBRANCH   5  12
TORSDOF 4
ENDMDL
MODEL 5
REMARK VINA RESULT:      -4.6      1.428      2.166
REMARK  4 active torsions:
REMARK  status: ('A' for Active; 'I' for Inactive)
REMARK    1  A    between atoms: C1_1  and  C12_12 
REMARK    2  A    between atoms: C6_6  and  C10_10 
REMARK    3  A    between atoms: C7_7  and  C11_11 
REMARK    4  A    between atoms: C11_11  and  C12_12 
ROOT
HETATM    1  C2  UNL     1     -33.591  18.541  -3.990  1.00 20.00     0.001 C 
HETATM    2  C3  UNL     1     -33.844  18.230  -2.518  1.00 20.00     0.005 C 
HETATM    3  C4  UNL     1     -34.819  18.246  -4.848  1.00 20.00     0.005 C 
HETATM    4  C5  UNL     1     -35.563  16.499  -3.178  1.00 20.00     0.009 C 
HETATM    5  C6  UNL     1     -34.327  16.789  -2.312  1.00 20.00    -0.014 C 
HETATM    6  C7  UNL     1     -35.349  16.816  -4.667  1.00 20.00    -0.013 C 
ENDROOT
BRANCH   6   7
HETATM    7  C11 UNL     1     -34.441  15.785  -5.341  1.00 20.00     0.015 C 
BRANCH   7   8
HETATM    8  C12 UNL     1     -35.215  14.556  -5.828  1.00 20.00     0.043 C 
HETATM    9  C9  UNL     1     -35.172  14.467  -7.352  1.00 20.00     0.017 C 
BRANCH   8  10
HETATM   10  C1  UNL     1     -34.669  13.251  -5.273  1.00 20.00     0.235 C 
HETATM   11  O13 UNL     1     -35.010  12.742  -4.211  1.00 20.00    -0.306 OA
ENDBRANCH   8  10
ENDBRANCH   7   8
ENDBRANCH   6   7
BRANCH   5  12
HETATM   12  C10 UNL     1     -34.632  16.531  -0.837  1.00 20.00     0.000 C 
HETATM   13  C8  UNL     1     -34.304  17.716   0.009  1.00 20.00     0.005 C 
ENDBRANCH   5  12
TORSDOF 4
ENDMDL
MODEL 6
REMARK VINA RESULT:      -4.6      2.537      5.254
REMARK  4 active torsions:
REMARK  status: ('A' for Active; 'I' for Inactive)
REMARK    1  A    between atoms: C1_1  and  C12_12 
REMARK    2  A    between atoms: C6_6  and  C10_10 
REMARK    3  A    between atoms: C7_7  and  C11_11 
REMARK    4  A    between atoms: C11_11  and  C12_12 
ROOT
HETATM    1  C2  UNL     1     -36.307  16.663  -3.355  1.00 20.00     0.001 C 
HETATM    2  C3  UNL     1     -35.634  15.483  -4.051  1.00 20.00     0.005 C 
HETATM    3  C4  UNL     1     -35.289  17.712  -2.913  1.00 20.00     0.005 C 
HETATM    4  C5  UNL     1     -33.516  15.917  -2.742  1.00 20.00     0.009 C 
HETATM    5  C6  UNL     1     -34.537  14.856  -3.182  1.00 20.00    -0.014 C 
HETATM    6  C7  UNL     1     -34.161  17.129  -2.051  1.00 20.00    -0.013 C 
ENDROOT
BRANCH   6   7
HETATM    7  C11 UNL     1     -34.646  16.785  -0.640  1.00 20.00     0.015 C 
BRANCH   7   8
HETATM    8  C12 UNL     1     -34.254  17.851   0.388  1.00 20.00     0.043 C 
HETATM    9  C9  UNL     1     -33.014  18.612  -0.077  1.00 20.00     0.017 C 
BRANCH   8  10
HETATM   10  C1  UNL     1     -35.354  18.869   0.638  1.00 20.00     0.235 C 
HETATM   11  O13 UNL     1     -36.540  18.597   0.798  1.00 20.00    -0.306 OA
ENDBRANCH   8  10
ENDBRANCH   7   8
ENDBRANCH   6   7
BRANCH   5  12
HETATM   12  C10 UNL     1     -33.842  13.721  -3.933  1.00 20.00     0.000 C 
HETATM   13  C8  UNL     1     -34.696  13.184  -5.033  1.00 20.00     0.005 C 
ENDBRANCH   5  12
TORSDOF 4
ENDMDL
MODEL 7
REMARK VINA RESULT:      -4.5      1.665      2.482
REMARK  4 active torsions:
REMARK  status: ('A' for Active; 'I' for Inactive)
REMARK    1  A    between atoms: C1_1  and  C12_12 
REMARK    2  A    between atoms: C6_6  and  C10_10 
REMARK    3  A    between atoms: C7_7  and  C11_11 
REMARK    4  A    between atoms: C11_11  and  C12_12 
ROOT
HETATM    1  C2  UNL     1     -32.673  18.597  -0.334  1.00 20.00     0.001 C 
HETATM    2  C3  UNL     1     -33.580  18.632   0.894  1.00 20.00     0.005 C 
HETATM    3  C4  UNL     1     -33.472  18.720  -1.629  1.00 20.00     0.005 C 
HETATM    4  C5  UNL     1     -35.481  17.696  -0.484  1.00 20.00     0.009 C 
HETATM    5  C6  UNL     1     -34.681  17.567   0.821  1.00 20.00    -0.014 C 
HETATM    6  C7  UNL     1     -34.597  17.682  -1.741  1.00 20.00    -0.013 C 
ENDROOT
BRANCH   6   7
HETATM    7  C11 UNL     1     -34.050  16.282  -2.033  1.00 20.00     0.015 C 
BRANCH   7   8
HETATM    8  C12 UNL     1     -34.966  15.479  -2.961  1.00 20.00     0.043 C 
HETATM    9  C9  UNL     1     -35.638  16.400  -3.977  1.00 20.00     0.017 C 
BRANCH   8  10
HETATM   10  C1  UNL     1     -34.230  14.397  -3.733  1.00 20.00     0.235 C 
HETATM   11  O13 UNL     1     -34.142  13.223  -3.388  1.00 20.00    -0.306 OA
ENDBRANCH   8  10
ENDBRANCH   7   8
ENDBRANCH   6   7
BRANCH   5  12
HETATM   12  C10 UNL     1     -35.608  17.671   2.032  1.00 20.00     0.000 C 
HETATM   13  C8  UNL     1     -34.853  18.001   3.277  1.00 20.00     0.005 C 
ENDBRANCH   5  12
TORSDOF 4
ENDMDL
MODEL 8
REMARK VINA RESULT:      -4.5      2.338      5.163
REMARK  4 active torsions:
REMARK  status: ('A' for Active; 'I' for Inactive)
REMARK    1  A    between atoms: C1_1  and  C12_12 
REMARK    2  A    between atoms: C6_6  and  C10_10 
REMARK    3  A    between atoms: C7_7  and  C11_11 
REMARK    4  A    between atoms: C11_11  and  C12_12 
ROOT
HETATM    1  C2  UNL     1     -34.403  13.595  -4.938  1.00 20.00     0.001 C 
HETATM    2  C3  UNL     1     -34.478  14.545  -6.131  1.00 20.00     0.005 C 
HETATM    3  C4  UNL     1     -35.540  13.842  -3.949  1.00 20.00     0.005 C 
HETATM    4  C5  UNL     1     -35.665  16.254  -4.697  1.00 20.00     0.009 C 
HETATM    5  C6  UNL     1     -34.519  16.013  -5.691  1.00 20.00    -0.014 C 
HETATM    6  C7  UNL     1     -35.630  15.304  -3.489  1.00 20.00    -0.013 C 
ENDROOT
BRANCH   6   7
HETATM    7  C11 UNL     1     -34.504  15.663  -2.517  1.00 20.00     0.015 C 
BRANCH   7   8
HETATM    8  C12 UNL     1     -34.717  17.028  -1.856  1.00 20.00     0.043 C 
HETATM    9  C9  UNL     1     -34.734  16.888  -0.336  1.00 20.00     0.017 C 
BRANCH   8  10
HETATM   10  C1  UNL     1     -33.640  18.038  -2.215  1.00 20.00     0.235 C 
HETATM   11  O13 UNL     1     -33.666  18.774  -3.197  1.00 20.00    -0.306 OA
ENDBRANCH   8  10
ENDBRANCH   7   8
ENDBRANCH   6   7
BRANCH   5  12
HETATM   12  C10 UNL     1     -34.658  16.933  -6.904  1.00 20.00     0.000 C 
HETATM   13  C8  UNL     1     -34.100  18.290  -6.633  1.00 20.00     0.005 C 
ENDBRANCH   5  12
TORSDOF 4
ENDMDL
MODEL 9
REMARK VINA RESULT:      -4.4      2.479      4.330
REMARK  4 active torsions:
REMARK  status: ('A' for Active; 'I' for Inactive)
REMARK    1  A    between atoms: C1_1  and  C12_12 
REMARK    2  A    between atoms: C6_6  and  C10_10 
REMARK    3  A    between atoms: C7_7  and  C11_11 
REMARK    4  A    between atoms: C11_11  and  C12_12 
ROOT
HETATM    1  C2  UNL     1     -34.493  13.448  -4.856  1.00 20.00     0.001 C 
HETATM    2  C3  UNL     1     -34.197  14.110  -3.513  1.00 20.00     0.005 C 
HETATM    3  C4  UNL     1     -34.515  14.466  -5.994  1.00 20.00     0.005 C 
HETATM    4  C5  UNL     1     -35.192  16.274  -4.360  1.00 20.00     0.009 C 
HETATM    5  C6  UNL     1     -35.174  15.253  -3.212  1.00 20.00    -0.014 C 
HETATM    6  C7  UNL     1     -35.471  15.638  -5.731  1.00 20.00    -0.013 C 
ENDROOT
BRANCH   6   7
HETATM    7  C11 UNL     1     -36.936  15.219  -5.874  1.00 20.00     0.015 C 
BRANCH   7   8
HETATM    8  C12 UNL     1     -37.883  16.128  -5.085  1.00 20.00     0.043 C 
HETATM    9  C9  UNL     1     -38.770  16.930  -6.035  1.00 20.00     0.017 C 
BRANCH   8  10
HETATM   10  C1  UNL     1     -38.793  15.362  -4.139  1.00 20.00     0.235 C 
HETATM   11  O13 UNL     1     -38.535  14.267  -3.648  1.00 20.00    -0.306 OA
ENDBRANCH   8  10
ENDBRANCH   7   8
ENDBRANCH   6   7
BRANCH   5  12
HETATM   12  C10 UNL     1     -34.812  15.935  -1.892  1.00 20.00     0.000 C 
HETATM   13  C8  UNL     1     -33.730  16.947  -2.076  1.00 20.00     0.005 C 
ENDBRANCH   5  12
TORSDOF 4
ENDMDL
