MODEL 1
REMARK VINA RESULT:      -4.9      0.000      0.000
REMARK  5 active torsions:
REMARK  status: ('A' for Active; 'I' for Inactive)
REMARK    1  A    between atoms: C4_4  and  C5_5 
REMARK    2  A    between atoms: C4_4  and  C6_6 
REMARK    3  A    between atoms: C5_5  and  C8_8 
REMARK    4  A    between atoms: C6_6  and  C9_9 
REMARK    5  A    between atoms: C7_7  and  C9_9 
ROOT
HETATM    1  C4  UNL     1     -33.787   5.489   2.789  1.00 20.00     0.001 C 
ENDROOT
BRANCH   1   2
HETATM    2  C5  UNL     1     -32.341   5.976   2.938  1.00 20.00     0.004 C 
BRANCH   2   3
HETATM    3  C8  UNL     1     -32.222   7.502   3.101  1.00 20.00    -0.023 C 
HETATM    4  C1  UNL     1     -31.994   8.217   1.768  1.00 20.00     0.009 C 
HETATM    5  C2  UNL     1     -31.081   7.834   4.066  1.00 20.00     0.009 C 
ENDBRANCH   2   3
ENDBRANCH   1   2
BRANCH   1   6
HETATM    6  C6  UNL     1     -34.635   5.902   3.997  1.00 20.00     0.005 C 
BRANCH   6   7
HETATM    7  C9  UNL     1     -34.289   5.131   5.287  1.00 20.00    -0.005 C 
HETATM    8  C3  UNL     1     -35.072   3.815   5.329  1.00 20.00     0.011 C 
BRANCH   7   9
HETATM    9  C7  UNL     1     -34.480   5.940   6.580  1.00 20.00     0.119 C 
HETATM   10 CL10 UNL     1     -33.374   7.327   6.724  1.00 20.00    -0.130 Cl
ENDBRANCH   7   9
ENDBRANCH   6   7
ENDBRANCH   1   6
TORSDOF 5
ENDMDL
MODEL 2
REMARK VINA RESULT:      -4.8      2.206      4.698
REMARK  5 active torsions:
REMARK  status: ('A' for Active; 'I' for Inactive)
REMARK    1  A    between atoms: C4_4  and  C5_5 
REMARK    2  A    between atoms: C4_4  and  C6_6 
REMARK    3  A    between atoms: C5_5  and  C8_8 
REMARK    4  A    between atoms: C6_6  and  C9_9 
REMARK    5  A    between atoms: C7_7  and  C9_9 
ROOT
HETATM    1  C4  UNL     1     -34.131   6.564   3.628  1.00 20.00     0.001 C 
ENDROOT
BRANCH   1   2
HETATM    2  C5  UNL     1     -34.949   5.337   4.045  1.00 20.00     0.004 C 
BRANCH   2   3
HETATM    3  C8  UNL     1     -35.033   5.146   5.571  1.00 20.00    -0.023 C 
HETATM    4  C1  UNL     1     -34.219   6.191   6.336  1.00 20.00     0.009 C 
HETATM    5  C2  UNL     1     -34.551   3.742   5.946  1.00 20.00     0.009 C 
ENDBRANCH   2   3
ENDBRANCH   1   2
BRANCH   1   6
HETATM    6  C6  UNL     1     -32.783   6.150   3.026  1.00 20.00     0.005 C 
BRANCH   6   7
HETATM    7  C9  UNL     1     -31.791   7.321   2.868  1.00 20.00    -0.005 C 
HETATM    8  C3  UNL     1     -31.294   7.768   4.247  1.00 20.00     0.011 C 
BRANCH   7   9
HETATM    9  C7  UNL     1     -32.334   8.507   2.055  1.00 20.00     0.119 C 
HETATM   10 CL10 UNL     1     -31.604   8.658   0.439  1.00 20.00    -0.130 Cl
ENDBRANCH   7   9
ENDBRANCH   6   7
ENDBRANCH   1   6
TORSDOF 5
ENDMDL
MODEL 3
REMARK VINA RESULT:      -4.8      2.083      4.517
REMARK  5 active torsions:
REMARK  status: ('A' for Active; 'I' for Inactive)
REMARK    1  A    between atoms: C4_4  and  C5_5 
REMARK    2  A    between atoms: C4_4  and  C6_6 
REMARK    3  A    between atoms: C5_5  and  C8_8 
REMARK    4  A    between atoms: C6_6  and  C9_9 
REMARK    5  A    between atoms: C7_7  and  C9_9 
ROOT
HETATM    1  C4  UNL     1     -33.758   5.788   2.810  1.00 20.00     0.001 C 
ENDROOT
BRANCH   1   2
HETATM    2  C5  UNL     1     -34.739   5.873   3.984  1.00 20.00     0.004 C 
BRANCH   2   3
HETATM    3  C8  UNL     1     -34.171   5.311   5.301  1.00 20.00    -0.023 C 
HETATM    4  C1  UNL     1     -34.979   4.123   5.826  1.00 20.00     0.009 C 
HETATM    5  C2  UNL     1     -34.129   6.414   6.361  1.00 20.00     0.009 C 
ENDBRANCH   2   3
ENDBRANCH   1   2
BRANCH   1   6
HETATM    6  C6  UNL     1     -32.308   5.893   3.296  1.00 20.00     0.005 C 
BRANCH   6   7
HETATM    7  C9  UNL     1     -31.661   7.266   3.016  1.00 20.00    -0.005 C 
HETATM    8  C3  UNL     1     -31.260   7.928   4.339  1.00 20.00     0.011 C 
BRANCH   7   9
HETATM    9  C7  UNL     1     -32.517   8.206   2.153  1.00 20.00     0.119 C 
HETATM   10 CL10 UNL     1     -31.691   8.773   0.682  1.00 20.00    -0.130 Cl
ENDBRANCH   7   9
ENDBRANCH   6   7
ENDBRANCH   1   6
TORSDOF 5
ENDMDL
MODEL 4
REMARK VINA RESULT:      -4.8      0.961      1.584
REMARK  5 active torsions:
REMARK  status: ('A' for Active; 'I' for Inactive)
REMARK    1  A    between atoms: C4_4  and  C5_5 
REMARK    2  A    between atoms: C4_4  and  C6_6 
REMARK    3  A    between atoms: C5_5  and  C8_8 
REMARK    4  A    between atoms: C6_6  and  C9_9 
REMARK    5  A    between atoms: C7_7  and  C9_9 
ROOT
HETATM    1  C4  UNL     1     -32.421   6.418   3.253  1.00 20.00     0.001 C 
ENDROOT
BRANCH   1   2
HETATM    2  C5  UNL     1     -31.815   7.802   2.993  1.00 20.00     0.004 C 
BRANCH   2   3
HETATM    3  C8  UNL     1     -32.426   8.520   1.775  1.00 20.00    -0.023 C 
HETATM    4  C1  UNL     1     -31.508   8.481   0.552  1.00 20.00     0.009 C 
HETATM    5  C2  UNL     1     -32.743   9.974   2.135  1.00 20.00     0.009 C 
ENDBRANCH   2   3
ENDBRANCH   1   2
BRANCH   1   6
HETATM    6  C6  UNL     1     -33.824   6.537   3.859  1.00 20.00     0.005 C 
BRANCH   6   7
HETATM    7  C9  UNL     1     -34.126   5.469   4.931  1.00 20.00    -0.005 C 
HETATM    8  C3  UNL     1     -35.286   4.583   4.466  1.00 20.00     0.011 C 
BRANCH   7   9
HETATM    9  C7  UNL     1     -34.380   6.035   6.337  1.00 20.00     0.119 C 
HETATM   10 CL10 UNL     1     -33.262   7.342   6.792  1.00 20.00    -0.130 Cl
ENDBRANCH   7   9
ENDBRANCH   6   7
ENDBRANCH   1   6
TORSDOF 5
ENDMDL
MODEL 5
REMARK VINA RESULT:      -4.6      1.588      2.425
REMARK  5 active torsions:
REMARK  status: ('A' for Active; 'I' for Inactive)
REMARK    1  A    between atoms: C4_4  and  C5_5 
REMARK    2  A    between atoms: C4_4  and  C6_6 
REMARK    3  A    between atoms: C5_5  and  C8_8 
REMARK    4  A    between atoms: C6_6  and  C9_9 
REMARK    5  A    between atoms: C7_7  and  C9_9 
ROOT
HETATM    1  C4  UNL     1     -32.057   6.462   3.359  1.00 20.00     0.001 C 
ENDROOT
BRANCH   1   2
HETATM    2  C5  UNL     1     -31.684   7.917   3.057  1.00 20.00     0.004 C 
BRANCH   2   3
HETATM    3  C8  UNL     1     -32.391   8.485   1.811  1.00 20.00    -0.023 C 
HETATM    4  C1  UNL     1     -31.539   8.361   0.548  1.00 20.00     0.009 C 
HETATM    5  C2  UNL     1     -32.755   9.954   2.046  1.00 20.00     0.009 C 
ENDBRANCH   2   3
ENDBRANCH   1   2
BRANCH   1   6
HETATM    6  C6  UNL     1     -33.516   6.178   2.985  1.00 20.00     0.005 C 
BRANCH   6   7
HETATM    7  C9  UNL     1     -34.469   6.137   4.197  1.00 20.00    -0.005 C 
HETATM    8  C3  UNL     1     -33.695   6.478   5.475  1.00 20.00     0.011 C 
BRANCH   7   9
HETATM    9  C7  UNL     1     -35.249   4.822   4.348  1.00 20.00     0.119 C 
HETATM   10 CL10 UNL     1     -35.065   4.062   5.946  1.00 20.00    -0.130 Cl
ENDBRANCH   7   9
ENDBRANCH   6   7
ENDBRANCH   1   6
TORSDOF 5
ENDMDL
MODEL 6
REMARK VINA RESULT:      -4.0      2.490      5.075
REMARK  5 active torsions:
REMARK  status: ('A' for Active; 'I' for Inactive)
REMARK    1  A    between atoms: C4_4  and  C5_5 
REMARK    2  A    between atoms: C4_4  and  C6_6 
REMARK    3  A    between atoms: C5_5  and  C8_8 
REMARK    4  A    between atoms: C6_6  and  C9_9 
REMARK    5  A    between atoms: C7_7  and  C9_9 
ROOT
HETATM    1  C4  UNL     1     -32.780   6.472   2.940  1.00 20.00     0.001 C 
ENDROOT
BRANCH   1   2
HETATM    2  C5  UNL     1     -34.071   6.460   3.766  1.00 20.00     0.004 C 
BRANCH   2   3
HETATM    3  C8  UNL     1     -33.994   5.554   5.010  1.00 20.00    -0.023 C 
HETATM    4  C1  UNL     1     -35.106   4.504   5.038  1.00 20.00     0.009 C 
HETATM    5  C2  UNL     1     -34.059   6.408   6.279  1.00 20.00     0.009 C 
ENDBRANCH   2   3
ENDBRANCH   1   2
BRANCH   1   6
HETATM    6  C6  UNL     1     -31.922   7.697   3.276  1.00 20.00     0.005 C 
BRANCH   6   7
HETATM    7  C9  UNL     1     -31.772   8.686   2.102  1.00 20.00    -0.005 C 
HETATM    8  C3  UNL     1     -32.813   9.803   2.230  1.00 20.00     0.011 C 
BRANCH   7   9
HETATM    9  C7  UNL     1     -31.816   8.033   0.711  1.00 20.00     0.119 C 
HETATM   10 CL10 UNL     1     -32.832   8.911  -0.457  1.00 20.00    -0.130 Cl
ENDBRANCH   7   9
ENDBRANCH   6   7
ENDBRANCH   1   6
TORSDOF 5
ENDMDL
MODEL 7
REMARK VINA RESULT:      -3.9     11.639     13.085
REMARK  5 active torsions:
REMARK  status: ('A' for Active; 'I' for Inactive)
REMARK    1  A    between atoms: C4_4  and  C5_5 
REMARK    2  A    between atoms: C4_4  and  C6_6 
REMARK    3  A    between atoms: C5_5  and  C8_8 
REMARK    4  A    between atoms: C6_6  and  C9_9 
REMARK    5  A    between atoms: C7_7  and  C9_9 
ROOT
HETATM    1  C4  UNL     1     -34.115  13.851  -3.627  1.00 20.00     0.001 C 
ENDROOT
BRANCH   1   2
HETATM    2  C5  UNL     1     -34.783  13.478  -4.955  1.00 20.00     0.004 C 
BRANCH   2   3
HETATM    3  C8  UNL     1     -35.339  14.691  -5.723  1.00 20.00    -0.023 C 
HETATM    4  C1  UNL     1     -36.746  15.077  -5.266  1.00 20.00     0.009 C 
HETATM    5  C2  UNL     1     -35.349  14.394  -7.225  1.00 20.00     0.009 C 
ENDBRANCH   2   3
ENDBRANCH   1   2
BRANCH   1   6
HETATM    6  C6  UNL     1     -33.215  15.081  -3.789  1.00 20.00     0.005 C 
BRANCH   6   7
HETATM    7  C9  UNL     1     -33.633  16.273  -2.903  1.00 20.00    -0.005 C 
HETATM    8  C3  UNL     1     -34.831  15.877  -2.034  1.00 20.00     0.011 C 
BRANCH   7   9
HETATM    9  C7  UNL     1     -33.905  17.574  -3.675  1.00 20.00     0.119 C 
HETATM   10 CL10 UNL     1     -33.350  17.529  -5.366  1.00 20.00    -0.130 Cl
ENDBRANCH   7   9
ENDBRANCH   6   7
ENDBRANCH   1   6
TORSDOF 5
ENDMDL
MODEL 8
REMARK VINA RESULT:      -3.9     11.450     12.463
REMARK  5 active torsions:
REMARK  status: ('A' for Active; 'I' for Inactive)
REMARK    1  A    between atoms: C4_4  and  C5_5 
REMARK    2  A    between atoms: C4_4  and  C6_6 
REMARK    3  A    between atoms: C5_5  and  C8_8 
REMARK    4  A    between atoms: C6_6  and  C9_9 
REMARK    5  A    between atoms: C7_7  and  C9_9 
ROOT
HETATM    1  C4  UNL     1     -34.148  15.937  -2.582  1.00 20.00     0.001 C 
ENDROOT
BRANCH   1   2
HETATM    2  C5  UNL     1     -34.658  16.489  -1.247  1.00 20.00     0.004 C 
BRANCH   2   3
HETATM    3  C8  UNL     1     -33.726  17.545  -0.624  1.00 20.00    -0.023 C 
HETATM    4  C1  UNL     1     -34.257  18.083   0.706  1.00 20.00     0.009 C 
HETATM    5  C2  UNL     1     -33.524  18.703  -1.605  1.00 20.00     0.009 C 
ENDBRANCH   2   3
ENDBRANCH   1   2
BRANCH   1   6
HETATM    6  C6  UNL     1     -35.187  15.016  -3.231  1.00 20.00     0.005 C 
BRANCH   6   7
HETATM    7  C9  UNL     1     -34.580  13.739  -3.850  1.00 20.00    -0.005 C 
HETATM    8  C3  UNL     1     -33.064  13.724  -3.624  1.00 20.00     0.011 C 
BRANCH   7   9
HETATM    9  C7  UNL     1     -34.929  13.525  -5.331  1.00 20.00     0.119 C 
HETATM   10 CL10 UNL     1     -34.369  14.838  -6.393  1.00 20.00    -0.130 Cl
ENDBRANCH   7   9
ENDBRANCH   6   7
ENDBRANCH   1   6
TORSDOF 5
ENDMDL
MODEL 9
REMARK VINA RESULT:      -3.9     11.317     12.538
REMARK  5 active torsions:
REMARK  status: ('A' for Active; 'I' for Inactive)
REMARK    1  A    between atoms: C4_4  and  C5_5 
REMARK    2  A    between atoms: C4_4  and  C6_6 
REMARK    3  A    between atoms: C5_5  and  C8_8 
REMARK    4  A    between atoms: C6_6  and  C9_9 
REMARK    5  A    between atoms: C7_7  and  C9_9 
ROOT
HETATM    1  C4  UNL     1     -34.704  16.283  -1.384  1.00 20.00     0.001 C 
ENDROOT
BRANCH   1   2
HETATM    2  C5  UNL     1     -33.626  17.364  -1.251  1.00 20.00     0.004 C 
BRANCH   2   3
HETATM    3  C8  UNL     1     -33.883  18.347  -0.093  1.00 20.00    -0.023 C 
HETATM    4  C1  UNL     1     -32.593  18.771   0.610  1.00 20.00     0.009 C 
HETATM    5  C2  UNL     1     -34.840  17.715   0.921  1.00 20.00     0.009 C 
ENDBRANCH   2   3
ENDBRANCH   1   2
BRANCH   1   6
HETATM    6  C6  UNL     1     -34.823  15.799  -2.833  1.00 20.00     0.005 C 
BRANCH   6   7
HETATM    7  C9  UNL     1     -33.474  15.391  -3.461  1.00 20.00    -0.005 C 
HETATM    8  C3  UNL     1     -33.239  16.188  -4.748  1.00 20.00     0.011 C 
BRANCH   7   9
HETATM    9  C7  UNL     1     -33.316  13.880  -3.700  1.00 20.00     0.119 C 
HETATM   10 CL10 UNL     1     -34.562  13.193  -4.769  1.00 20.00    -0.130 Cl
ENDBRANCH   7   9
ENDBRANCH   6   7
ENDBRANCH   1   6
TORSDOF 5
ENDMDL
