MODEL 1
REMARK VINA RESULT:      -3.8      0.000      0.000
REMARK  2 active torsions:
REMARK  status: ('A' for Active; 'I' for Inactive)
REMARK    1  A    between atoms: C1_1  and  C5_5 
REMARK    2  A    between atoms: C1_1  and  C6_6 
ROOT
HETATM    1  C2  UNL     1     -33.656  15.392  -3.552  1.00 20.00     0.023 C 
HETATM    2  C3  UNL     1     -33.737  16.345  -2.372  1.00 20.00     0.075 C 
HETATM    3  C4  UNL     1     -36.087  15.561  -3.412  1.00 20.00     0.086 C 
HETATM    4  C5  UNL     1     -34.938  14.570  -3.533  1.00 20.00     0.066 C 
HETATM    5  S8  UNL     1     -35.473  16.866  -2.310  1.00 20.00    -0.168 SA
ENDROOT
BRANCH   4   6
HETATM    6  C1  UNL     1     -35.056  13.761  -4.786  1.00 20.00     0.145 C 
HETATM    7  O7  UNL     1     -34.722  12.577  -4.801  1.00 20.00    -0.296 OA
BRANCH   6   8
HETATM    8  C6  UNL     1     -35.600  14.493  -5.991  1.00 20.00     0.193 C 
HETATM    9 CL9  UNL     1     -34.293  14.920  -7.106  1.00 20.00    -0.123 Cl
ENDBRANCH   6   8
ENDBRANCH   4   6
TORSDOF 2
ENDMDL
MODEL 2
REMARK VINA RESULT:      -3.8     11.490     11.993
REMARK  2 active torsions:
REMARK  status: ('A' for Active; 'I' for Inactive)
REMARK    1  A    between atoms: C1_1  and  C5_5 
REMARK    2  A    between atoms: C1_1  and  C6_6 
ROOT
HETATM    1  C2  UNL     1     -34.453   5.240   3.449  1.00 20.00     0.023 C 
HETATM    2  C3  UNL     1     -35.508   4.894   4.485  1.00 20.00     0.075 C 
HETATM    3  C4  UNL     1     -33.416   6.325   5.374  1.00 20.00     0.086 C 
HETATM    4  C5  UNL     1     -33.797   6.534   3.916  1.00 20.00     0.066 C 
HETATM    5  S8  UNL     1     -34.762   5.332   6.078  1.00 20.00    -0.168 SA
ENDROOT
BRANCH   4   6
HETATM    6  C1  UNL     1     -32.590   6.836   3.084  1.00 20.00     0.145 C 
HETATM    7  O7  UNL     1     -31.820   5.936   2.749  1.00 20.00    -0.296 OA
BRANCH   6   8
HETATM    8  C6  UNL     1     -32.401   8.286   2.702  1.00 20.00     0.193 C 
HETATM    9 CL9  UNL     1     -31.723   8.421   1.073  1.00 20.00    -0.123 Cl
ENDBRANCH   6   8
ENDBRANCH   4   6
TORSDOF 2
ENDMDL
MODEL 3
REMARK VINA RESULT:      -3.7      0.968      1.046
REMARK  2 active torsions:
REMARK  status: ('A' for Active; 'I' for Inactive)
REMARK    1  A    between atoms: C1_1  and  C5_5 
REMARK    2  A    between atoms: C1_1  and  C6_6 
ROOT
HETATM    1  C2  UNL     1     -33.542  16.071  -3.198  1.00 20.00     0.023 C 
HETATM    2  C3  UNL     1     -34.131  17.205  -2.377  1.00 20.00     0.075 C 
HETATM    3  C4  UNL     1     -35.888  15.404  -3.319  1.00 20.00     0.086 C 
HETATM    4  C5  UNL     1     -34.485  14.885  -3.035  1.00 20.00     0.066 C 
HETATM    5  S8  UNL     1     -35.923  17.079  -2.622  1.00 20.00    -0.168 SA
ENDROOT
BRANCH   4   6
HETATM    6  C1  UNL     1     -34.115  13.791  -3.987  1.00 20.00     0.145 C 
HETATM    7  O7  UNL     1     -33.152  13.060  -3.756  1.00 20.00    -0.296 OA
BRANCH   6   8
HETATM    8  C6  UNL     1     -34.988  13.664  -5.213  1.00 20.00     0.193 C 
HETATM    9 CL9  UNL     1     -34.396  14.708  -6.514  1.00 20.00    -0.123 Cl
ENDBRANCH   6   8
ENDBRANCH   4   6
TORSDOF 2
ENDMDL
MODEL 4
REMARK VINA RESULT:      -3.6      2.605      3.578
REMARK  2 active torsions:
REMARK  status: ('A' for Active; 'I' for Inactive)
REMARK    1  A    between atoms: C1_1  and  C5_5 
REMARK    2  A    between atoms: C1_1  and  C6_6 
ROOT
HETATM    1  C2  UNL     1     -36.375  15.046  -5.749  1.00 20.00     0.023 C 
HETATM    2  C3  UNL     1     -36.635  15.929  -6.958  1.00 20.00     0.075 C 
HETATM    3  C4  UNL     1     -34.055  15.557  -6.309  1.00 20.00     0.086 C 
HETATM    4  C5  UNL     1     -35.003  14.419  -5.959  1.00 20.00     0.066 C 
HETATM    5  S8  UNL     1     -35.033  16.691  -7.333  1.00 20.00    -0.168 SA
ENDROOT
BRANCH   4   6
HETATM    6  C1  UNL     1     -34.558  13.712  -4.717  1.00 20.00     0.145 C 
HETATM    7  O7  UNL     1     -34.993  12.594  -4.444  1.00 20.00    -0.296 OA
BRANCH   6   8
HETATM    8  C6  UNL     1     -33.566  14.459  -3.856  1.00 20.00     0.193 C 
HETATM    9 CL9  UNL     1     -34.404  15.435  -2.640  1.00 20.00    -0.123 Cl
ENDBRANCH   6   8
ENDBRANCH   4   6
TORSDOF 2
ENDMDL
MODEL 5
REMARK VINA RESULT:      -3.6     11.437     11.878
REMARK  2 active torsions:
REMARK  status: ('A' for Active; 'I' for Inactive)
REMARK    1  A    between atoms: C1_1  and  C5_5 
REMARK    2  A    between atoms: C1_1  and  C6_6 
ROOT
HETATM    1  C2  UNL     1     -33.498   6.645   5.372  1.00 20.00     0.023 C 
HETATM    2  C3  UNL     1     -34.492   5.570   5.776  1.00 20.00     0.075 C 
HETATM    3  C4  UNL     1     -33.988   5.775   3.145  1.00 20.00     0.086 C 
HETATM    4  C5  UNL     1     -32.852   6.172   4.076  1.00 20.00     0.066 C 
HETATM    5  S8  UNL     1     -35.237   5.014   4.219  1.00 20.00    -0.168 SA
ENDROOT
BRANCH   4   6
HETATM    6  C1  UNL     1     -32.024   7.265   3.477  1.00 20.00     0.145 C 
HETATM    7  O7  UNL     1     -31.172   7.845   4.149  1.00 20.00    -0.296 OA
BRANCH   6   8
HETATM    8  C6  UNL     1     -32.313   7.589   2.029  1.00 20.00     0.193 C 
HETATM    9 CL9  UNL     1     -32.388   9.341   1.783  1.00 20.00    -0.123 Cl
ENDBRANCH   6   8
ENDBRANCH   4   6
TORSDOF 2
ENDMDL
MODEL 6
REMARK VINA RESULT:      -3.4      2.562      2.861
REMARK  2 active torsions:
REMARK  status: ('A' for Active; 'I' for Inactive)
REMARK    1  A    between atoms: C1_1  and  C5_5 
REMARK    2  A    between atoms: C1_1  and  C6_6 
ROOT
HETATM    1  C2  UNL     1     -34.998  13.512  -4.349  1.00 20.00     0.023 C 
HETATM    2  C3  UNL     1     -33.562  13.676  -3.883  1.00 20.00     0.075 C 
HETATM    3  C4  UNL     1     -35.035  15.921  -3.959  1.00 20.00     0.086 C 
HETATM    4  C5  UNL     1     -35.796  14.631  -3.692  1.00 20.00     0.066 C 
HETATM    5  S8  UNL     1     -33.281  15.467  -3.855  1.00 20.00    -0.168 SA
ENDROOT
BRANCH   4   6
HETATM    6  C1  UNL     1     -37.176  14.693  -4.267  1.00 20.00     0.145 C 
HETATM    7  O7  UNL     1     -38.135  14.238  -3.644  1.00 20.00    -0.296 OA
BRANCH   6   8
HETATM    8  C6  UNL     1     -37.292  15.337  -5.629  1.00 20.00     0.193 C 
HETATM    9 CL9  UNL     1     -38.245  16.826  -5.539  1.00 20.00    -0.123 Cl
ENDBRANCH   6   8
ENDBRANCH   4   6
TORSDOF 2
ENDMDL
MODEL 7
REMARK VINA RESULT:      -3.4      2.284      2.592
REMARK  2 active torsions:
REMARK  status: ('A' for Active; 'I' for Inactive)
REMARK    1  A    between atoms: C1_1  and  C5_5 
REMARK    2  A    between atoms: C1_1  and  C6_6 
ROOT
HETATM    1  C2  UNL     1     -33.934  16.721  -1.555  1.00 20.00     0.023 C 
HETATM    2  C3  UNL     1     -35.016  17.386  -0.722  1.00 20.00     0.075 C 
HETATM    3  C4  UNL     1     -35.685  16.793  -3.255  1.00 20.00     0.086 C 
HETATM    4  C5  UNL     1     -34.652  15.882  -2.606  1.00 20.00     0.066 C 
HETATM    5  S8  UNL     1     -36.310  17.836  -1.909  1.00 20.00    -0.168 SA
ENDROOT
BRANCH   4   6
HETATM    6  C1  UNL     1     -33.677  15.369  -3.618  1.00 20.00     0.145 C 
HETATM    7  O7  UNL     1     -32.997  16.149  -4.283  1.00 20.00    -0.296 OA
BRANCH   6   8
HETATM    8  C6  UNL     1     -33.600  13.865  -3.751  1.00 20.00     0.193 C 
HETATM    9 CL9  UNL     1     -35.157  13.203  -4.270  1.00 20.00    -0.123 Cl
ENDBRANCH   6   8
ENDBRANCH   4   6
TORSDOF 2
ENDMDL
MODEL 8
REMARK VINA RESULT:      -3.4     12.309     12.886
REMARK  2 active torsions:
REMARK  status: ('A' for Active; 'I' for Inactive)
REMARK    1  A    between atoms: C1_1  and  C5_5 
REMARK    2  A    between atoms: C1_1  and  C6_6 
ROOT
HETATM    1  C2  UNL     1     -40.940   4.654  -1.255  1.00 20.00     0.023 C 
HETATM    2  C3  UNL     1     -40.757   5.837  -0.320  1.00 20.00     0.075 C 
HETATM    3  C4  UNL     1     -42.383   6.243  -2.419  1.00 20.00     0.086 C 
HETATM    4  C5  UNL     1     -42.315   4.817  -1.892  1.00 20.00     0.066 C 
HETATM    5  S8  UNL     1     -41.495   7.244  -1.193  1.00 20.00    -0.168 SA
ENDROOT
BRANCH   4   6
HETATM    6  C1  UNL     1     -42.496   3.827  -2.999  1.00 20.00     0.145 C 
HETATM    7  O7  UNL     1     -43.417   3.951  -3.805  1.00 20.00    -0.296 OA
BRANCH   6   8
HETATM    8  C6  UNL     1     -41.490   2.700  -3.044  1.00 20.00     0.193 C 
HETATM    9 CL9  UNL     1     -42.136   1.319  -3.943  1.00 20.00    -0.123 Cl
ENDBRANCH   6   8
ENDBRANCH   4   6
TORSDOF 2
ENDMDL
MODEL 9
REMARK VINA RESULT:      -3.3     11.721     12.281
REMARK  2 active torsions:
REMARK  status: ('A' for Active; 'I' for Inactive)
REMARK    1  A    between atoms: C1_1  and  C5_5 
REMARK    2  A    between atoms: C1_1  and  C6_6 
ROOT
HETATM    1  C2  UNL     1     -41.235   6.516  -1.130  1.00 20.00     0.023 C 
HETATM    2  C3  UNL     1     -41.957   7.853  -1.129  1.00 20.00     0.075 C 
HETATM    3  C4  UNL     1     -42.733   6.102  -3.013  1.00 20.00     0.086 C 
HETATM    4  C5  UNL     1     -42.208   5.501  -1.717  1.00 20.00     0.066 C 
HETATM    5  S8  UNL     1     -42.898   7.878  -2.679  1.00 20.00    -0.168 SA
ENDROOT
BRANCH   4   6
HETATM    6  C1  UNL     1     -41.512   4.201  -1.972  1.00 20.00     0.145 C 
HETATM    7  O7  UNL     1     -40.357   4.023  -1.587  1.00 20.00    -0.296 OA
BRANCH   6   8
HETATM    8  C6  UNL     1     -42.316   3.161  -2.717  1.00 20.00     0.193 C 
HETATM    9 CL9  UNL     1     -41.250   2.080  -3.628  1.00 20.00    -0.123 Cl
ENDBRANCH   6   8
ENDBRANCH   4   6
TORSDOF 2
ENDMDL
