MODEL 1
REMARK VINA RESULT:      -4.0      0.000      0.000
REMARK  2 active torsions:
REMARK  status: ('A' for Active; 'I' for Inactive)
REMARK    1  A    between atoms: C5_5  and  C7_7 
REMARK    2  A    between atoms: C6_6  and  C7_7 
ROOT
HETATM    1  C3  UNL     1     -33.664   4.864   2.828  1.00 20.00     0.016 C 
HETATM    2  C4  UNL     1     -35.852   5.787   3.584  1.00 20.00     0.016 C 
HETATM    3  C7  UNL     1     -34.334   5.767   3.888  1.00 20.00    -0.032 C 
ENDROOT
BRANCH   3   4
HETATM    4  C5  UNL     1     -33.766   7.200   3.678  1.00 20.00     0.123 C 
HETATM    5 CL8  UNL     1     -32.124   7.240   2.982  1.00 20.00    -0.130 Cl
ENDBRANCH   3   4
BRANCH   3   6
HETATM    6  C6  UNL     1     -34.084   5.232   5.349  1.00 20.00    -0.014 C 
HETATM    7  C1  UNL     1     -35.055   4.122   5.779  1.00 20.00     0.010 C 
HETATM    8  C2  UNL     1     -34.100   6.327   6.426  1.00 20.00     0.010 C 
ENDBRANCH   3   6
TORSDOF 2
ENDMDL
MODEL 2
REMARK VINA RESULT:      -3.7      0.538      1.345
REMARK  2 active torsions:
REMARK  status: ('A' for Active; 'I' for Inactive)
REMARK    1  A    between atoms: C5_5  and  C7_7 
REMARK    2  A    between atoms: C6_6  and  C7_7 
ROOT
HETATM    1  C3  UNL     1     -34.065   4.607   3.132  1.00 20.00     0.016 C 
HETATM    2  C4  UNL     1     -36.060   6.094   3.282  1.00 20.00     0.016 C 
HETATM    3  C7  UNL     1     -34.715   5.738   3.962  1.00 20.00    -0.032 C 
ENDROOT
BRANCH   3   4
HETATM    4  C5  UNL     1     -33.766   6.967   3.862  1.00 20.00     0.123 C 
HETATM    5 CL8  UNL     1     -32.169   6.601   3.157  1.00 20.00    -0.130 Cl
ENDBRANCH   3   4
BRANCH   3   6
HETATM    6  C6  UNL     1     -34.965   5.295   5.453  1.00 20.00    -0.014 C 
HETATM    7  C1  UNL     1     -34.187   6.123   6.486  1.00 20.00     0.010 C 
HETATM    8  C2  UNL     1     -34.682   3.808   5.718  1.00 20.00     0.010 C 
ENDBRANCH   3   6
TORSDOF 2
ENDMDL
MODEL 3
REMARK VINA RESULT:      -3.6     11.829     13.183
REMARK  2 active torsions:
REMARK  status: ('A' for Active; 'I' for Inactive)
REMARK    1  A    between atoms: C5_5  and  C7_7 
REMARK    2  A    between atoms: C6_6  and  C7_7 
ROOT
HETATM    1  C3  UNL     1     -34.736  13.340  -4.547  1.00 20.00     0.016 C 
HETATM    2  C4  UNL     1     -32.931  14.790  -3.625  1.00 20.00     0.016 C 
HETATM    3  C7  UNL     1     -34.379  14.797  -4.173  1.00 20.00    -0.032 C 
ENDROOT
BRANCH   3   4
HETATM    4  C5  UNL     1     -35.344  15.211  -3.024  1.00 20.00     0.123 C 
HETATM    5 CL8  UNL     1     -34.564  16.135  -1.713  1.00 20.00    -0.130 Cl
ENDBRANCH   3   4
BRANCH   3   6
HETATM    6  C6  UNL     1     -34.481  15.758  -5.416  1.00 20.00    -0.014 C 
HETATM    7  C1  UNL     1     -34.391  15.035  -6.769  1.00 20.00     0.010 C 
HETATM    8  C2  UNL     1     -33.450  16.897  -5.411  1.00 20.00     0.010 C 
ENDBRANCH   3   6
TORSDOF 2
ENDMDL
MODEL 4
REMARK VINA RESULT:      -3.6     11.536     12.632
REMARK  2 active torsions:
REMARK  status: ('A' for Active; 'I' for Inactive)
REMARK    1  A    between atoms: C5_5  and  C7_7 
REMARK    2  A    between atoms: C6_6  and  C7_7 
ROOT
HETATM    1  C3  UNL     1     -33.354  16.416  -4.647  1.00 20.00     0.016 C 
HETATM    2  C4  UNL     1     -35.664  16.772  -3.782  1.00 20.00     0.016 C 
HETATM    3  C7  UNL     1     -34.317  16.067  -3.489  1.00 20.00    -0.032 C 
ENDROOT
BRANCH   3   4
HETATM    4  C5  UNL     1     -33.703  16.681  -2.198  1.00 20.00     0.123 C 
HETATM    5 CL8  UNL     1     -34.726  16.503  -0.748  1.00 20.00    -0.130 Cl
ENDBRANCH   3   4
BRANCH   3   6
HETATM    6  C6  UNL     1     -34.538  14.512  -3.366  1.00 20.00    -0.014 C 
HETATM    7  C1  UNL     1     -33.298  13.678  -3.723  1.00 20.00     0.010 C 
HETATM    8  C2  UNL     1     -35.724  13.983  -4.186  1.00 20.00     0.010 C 
ENDBRANCH   3   6
TORSDOF 2
ENDMDL
MODEL 5
REMARK VINA RESULT:      -3.6     12.148     12.641
REMARK  2 active torsions:
REMARK  status: ('A' for Active; 'I' for Inactive)
REMARK    1  A    between atoms: C5_5  and  C7_7 
REMARK    2  A    between atoms: C6_6  and  C7_7 
ROOT
HETATM    1  C3  UNL     1     -32.573  14.757  -3.654  1.00 20.00     0.016 C 
HETATM    2  C4  UNL     1     -34.319  13.304  -4.678  1.00 20.00     0.016 C 
HETATM    3  C7  UNL     1     -34.042  14.726  -4.131  1.00 20.00    -0.032 C 
ENDROOT
BRANCH   3   4
HETATM    4  C5  UNL     1     -34.152  15.741  -5.306  1.00 20.00     0.123 C 
HETATM    5 CL8  UNL     1     -34.351  14.984  -6.909  1.00 20.00    -0.130 Cl
ENDBRANCH   3   4
BRANCH   3   6
HETATM    6  C6  UNL     1     -35.041  15.057  -2.959  1.00 20.00    -0.014 C 
HETATM    7  C1  UNL     1     -36.436  15.490  -3.435  1.00 20.00     0.010 C 
HETATM    8  C2  UNL     1     -34.520  16.115  -1.974  1.00 20.00     0.010 C 
ENDBRANCH   3   6
TORSDOF 2
ENDMDL
MODEL 6
REMARK VINA RESULT:      -3.6     12.165     12.824
REMARK  2 active torsions:
REMARK  status: ('A' for Active; 'I' for Inactive)
REMARK    1  A    between atoms: C5_5  and  C7_7 
REMARK    2  A    between atoms: C6_6  and  C7_7 
ROOT
HETATM    1  C3  UNL     1     -34.620  15.988  -2.021  1.00 20.00     0.016 C 
HETATM    2  C4  UNL     1     -32.894  15.134  -3.603  1.00 20.00     0.016 C 
HETATM    3  C7  UNL     1     -34.400  15.464  -3.458  1.00 20.00    -0.032 C 
ENDROOT
BRANCH   3   4
HETATM    4  C5  UNL     1     -34.747  16.637  -4.420  1.00 20.00     0.123 C 
HETATM    5 CL8  UNL     1     -33.434  17.072  -5.546  1.00 20.00    -0.130 Cl
ENDBRANCH   3   4
BRANCH   3   6
HETATM    6  C6  UNL     1     -35.264  14.179  -3.746  1.00 20.00    -0.014 C 
HETATM    7  C1  UNL     1     -34.701  13.290  -4.867  1.00 20.00     0.010 C 
HETATM    8  C2  UNL     1     -36.738  14.475  -4.064  1.00 20.00     0.010 C 
ENDBRANCH   3   6
TORSDOF 2
ENDMDL
MODEL 7
REMARK VINA RESULT:      -3.6     11.820     12.666
REMARK  2 active torsions:
REMARK  status: ('A' for Active; 'I' for Inactive)
REMARK    1  A    between atoms: C5_5  and  C7_7 
REMARK    2  A    between atoms: C6_6  and  C7_7 
ROOT
HETATM    1  C3  UNL     1     -36.028  16.040  -3.946  1.00 20.00     0.016 C 
HETATM    2  C4  UNL     1     -34.737  16.138  -1.817  1.00 20.00     0.016 C 
HETATM    3  C7  UNL     1     -34.677  15.671  -3.292  1.00 20.00    -0.032 C 
ENDROOT
BRANCH   3   4
HETATM    4  C5  UNL     1     -33.583  16.496  -4.030  1.00 20.00     0.123 C 
HETATM    5 CL8  UNL     1     -33.743  16.495  -5.807  1.00 20.00    -0.130 Cl
ENDBRANCH   3   4
BRANCH   3   6
HETATM    6  C6  UNL     1     -34.404  14.122  -3.357  1.00 20.00    -0.014 C 
HETATM    7  C1  UNL     1     -32.926  13.760  -3.570  1.00 20.00     0.010 C 
HETATM    8  C2  UNL     1     -35.236  13.384  -4.418  1.00 20.00     0.010 C 
ENDBRANCH   3   6
TORSDOF 2
ENDMDL
MODEL 8
REMARK VINA RESULT:      -3.5     11.992     13.299
REMARK  2 active torsions:
REMARK  status: ('A' for Active; 'I' for Inactive)
REMARK    1  A    between atoms: C5_5  and  C7_7 
REMARK    2  A    between atoms: C6_6  and  C7_7 
ROOT
HETATM    1  C3  UNL     1     -32.937  15.067  -3.638  1.00 20.00     0.016 C 
HETATM    2  C4  UNL     1     -33.412  16.814  -5.350  1.00 20.00     0.016 C 
HETATM    3  C7  UNL     1     -34.069  15.747  -4.441  1.00 20.00    -0.032 C 
ENDROOT
BRANCH   3   4
HETATM    4  C5  UNL     1     -34.979  16.469  -3.405  1.00 20.00     0.123 C 
HETATM    5 CL8  UNL     1     -34.604  16.078  -1.706  1.00 20.00    -0.130 Cl
ENDBRANCH   3   4
BRANCH   3   6
HETATM    6  C6  UNL     1     -34.865  14.708  -5.316  1.00 20.00    -0.014 C 
HETATM    7  C1  UNL     1     -34.681  13.249  -4.871  1.00 20.00     0.010 C 
HETATM    8  C2  UNL     1     -34.558  14.793  -6.820  1.00 20.00     0.010 C 
ENDBRANCH   3   6
TORSDOF 2
ENDMDL
MODEL 9
REMARK VINA RESULT:      -3.5     11.592     13.265
REMARK  2 active torsions:
REMARK  status: ('A' for Active; 'I' for Inactive)
REMARK    1  A    between atoms: C5_5  and  C7_7 
REMARK    2  A    between atoms: C6_6  and  C7_7 
ROOT
HETATM    1  C3  UNL     1     -35.684  14.862  -3.666  1.00 20.00     0.016 C 
HETATM    2  C4  UNL     1     -33.466  13.733  -3.781  1.00 20.00     0.016 C 
HETATM    3  C7  UNL     1     -34.184  15.092  -3.961  1.00 20.00    -0.032 C 
ENDROOT
BRANCH   3   4
HETATM    4  C5  UNL     1     -33.662  16.078  -2.877  1.00 20.00     0.123 C 
HETATM    5 CL8  UNL     1     -34.703  16.196  -1.433  1.00 20.00    -0.130 Cl
ENDBRANCH   3   4
BRANCH   3   6
HETATM    6  C6  UNL     1     -33.956  15.634  -5.422  1.00 20.00    -0.014 C 
HETATM    7  C1  UNL     1     -34.422  17.083  -5.627  1.00 20.00     0.010 C 
HETATM    8  C2  UNL     1     -34.595  14.765  -6.517  1.00 20.00     0.010 C 
ENDBRANCH   3   6
TORSDOF 2
ENDMDL
