MODEL 1
REMARK VINA RESULT:      -4.7      0.000      0.000
REMARK  0 active torsions:
REMARK  status: ('A' for Active; 'I' for Inactive)
ROOT
HETATM    1  C1  UNL     1     -33.734   6.202   4.292  1.00 20.00    -0.066 C 
HETATM    2  C2  UNL     1     -32.699   6.590   3.534  1.00 20.00     0.016 C 
HETATM    3  C3  UNL     1     -34.850   5.341   3.767  1.00 20.00     0.037 C 
HETATM    4  C4  UNL     1     -33.859   6.565   5.745  1.00 20.00     0.201 C 
HETATM    5  C5  UNL     1     -35.091   4.170   4.718  1.00 20.00     0.030 C 
HETATM    6  C6  UNL     1     -35.205   4.651   6.162  1.00 20.00     0.168 C 
HETATM    7  O7  UNL     1     -34.036   5.386   6.536  1.00 20.00    -0.387 OA
ENDROOT
TORSDOF 0
ENDMDL
MODEL 2
REMARK VINA RESULT:      -4.2      1.443      2.431
REMARK  0 active torsions:
REMARK  status: ('A' for Active; 'I' for Inactive)
ROOT
HETATM    1  C1  UNL     1     -33.793   6.307   5.819  1.00 20.00    -0.066 C 
HETATM    2  C2  UNL     1     -33.749   7.169   6.845  1.00 20.00     0.016 C 
HETATM    3  C3  UNL     1     -34.566   5.018   5.871  1.00 20.00     0.037 C 
HETATM    4  C4  UNL     1     -33.099   6.565   4.510  1.00 20.00     0.201 C 
HETATM    5  C5  UNL     1     -35.444   4.890   4.627  1.00 20.00     0.030 C 
HETATM    6  C6  UNL     1     -34.640   5.168   3.359  1.00 20.00     0.168 C 
HETATM    7  O7  UNL     1     -34.031   6.460   3.429  1.00 20.00    -0.387 OA
ENDROOT
TORSDOF 0
ENDMDL
MODEL 3
REMARK VINA RESULT:      -4.2      1.577      3.252
REMARK  0 active torsions:
REMARK  status: ('A' for Active; 'I' for Inactive)
ROOT
HETATM    1  C1  UNL     1     -34.761   5.246   5.182  1.00 20.00    -0.066 C 
HETATM    2  C2  UNL     1     -35.056   4.295   6.079  1.00 20.00     0.016 C 
HETATM    3  C3  UNL     1     -33.841   6.397   5.489  1.00 20.00     0.037 C 
HETATM    4  C4  UNL     1     -35.296   5.235   3.778  1.00 20.00     0.201 C 
HETATM    5  C5  UNL     1     -32.793   6.529   4.387  1.00 20.00     0.030 C 
HETATM    6  C6  UNL     1     -33.444   6.509   3.006  1.00 20.00     0.168 C 
HETATM    7  O7  UNL     1     -34.220   5.320   2.838  1.00 20.00    -0.387 OA
ENDROOT
TORSDOF 0
ENDMDL
MODEL 4
REMARK VINA RESULT:      -3.8     12.179     12.677
REMARK  0 active torsions:
REMARK  status: ('A' for Active; 'I' for Inactive)
ROOT
HETATM    1  C1  UNL     1     -34.630  15.618  -2.765  1.00 20.00    -0.066 C 
HETATM    2  C2  UNL     1     -34.670  16.240  -1.578  1.00 20.00     0.016 C 
HETATM    3  C3  UNL     1     -33.345  15.173  -3.407  1.00 20.00     0.037 C 
HETATM    4  C4  UNL     1     -35.867  15.280  -3.548  1.00 20.00     0.201 C 
HETATM    5  C5  UNL     1     -33.464  13.716  -3.848  1.00 20.00     0.030 C 
HETATM    6  C6  UNL     1     -34.751  13.486  -4.636  1.00 20.00     0.168 C 
HETATM    7  O7  UNL     1     -35.887  13.884  -3.863  1.00 20.00    -0.387 OA
ENDROOT
TORSDOF 0
ENDMDL
MODEL 5
REMARK VINA RESULT:      -3.7      1.089      1.989
REMARK  0 active torsions:
REMARK  status: ('A' for Active; 'I' for Inactive)
ROOT
HETATM    1  C1  UNL     1     -34.144   6.365   5.905  1.00 20.00    -0.066 C 
HETATM    2  C2  UNL     1     -33.284   7.113   6.610  1.00 20.00     0.016 C 
HETATM    3  C3  UNL     1     -34.394   6.578   4.437  1.00 20.00     0.037 C 
HETATM    4  C4  UNL     1     -34.916   5.225   6.509  1.00 20.00     0.201 C 
HETATM    5  C5  UNL     1     -34.286   5.247   3.695  1.00 20.00     0.030 C 
HETATM    6  C6  UNL     1     -35.108   4.165   4.390  1.00 20.00     0.168 C 
HETATM    7  O7  UNL     1     -34.700   4.028   5.754  1.00 20.00    -0.387 OA
ENDROOT
TORSDOF 0
ENDMDL
MODEL 6
REMARK VINA RESULT:      -3.6      1.032      2.199
REMARK  0 active torsions:
REMARK  status: ('A' for Active; 'I' for Inactive)
ROOT
HETATM    1  C1  UNL     1     -34.741   5.439   4.003  1.00 20.00    -0.066 C 
HETATM    2  C2  UNL     1     -35.375   5.827   2.888  1.00 20.00     0.016 C 
HETATM    3  C3  UNL     1     -33.730   6.303   4.707  1.00 20.00     0.037 C 
HETATM    4  C4  UNL     1     -35.002   4.118   4.670  1.00 20.00     0.201 C 
HETATM    5  C5  UNL     1     -34.059   6.374   6.197  1.00 20.00     0.030 C 
HETATM    6  C6  UNL     1     -34.302   4.981   6.771  1.00 20.00     0.168 C 
HETATM    7  O7  UNL     1     -35.342   4.318   6.046  1.00 20.00    -0.387 OA
ENDROOT
TORSDOF 0
ENDMDL
MODEL 7
REMARK VINA RESULT:      -3.6      9.088     10.149
REMARK  0 active torsions:
REMARK  status: ('A' for Active; 'I' for Inactive)
ROOT
HETATM    1  C1  UNL     1     -41.822   4.562  -1.887  1.00 20.00    -0.066 C 
HETATM    2  C2  UNL     1     -41.660   3.396  -2.529  1.00 20.00     0.016 C 
HETATM    3  C3  UNL     1     -41.565   4.722  -0.414  1.00 20.00     0.037 C 
HETATM    4  C4  UNL     1     -42.247   5.823  -2.586  1.00 20.00     0.201 C 
HETATM    5  C5  UNL     1     -40.671   5.937  -0.174  1.00 20.00     0.030 C 
HETATM    6  C6  UNL     1     -41.194   7.159  -0.925  1.00 20.00     0.168 C 
HETATM    7  O7  UNL     1     -41.310   6.873  -2.321  1.00 20.00    -0.387 OA
ENDROOT
TORSDOF 0
ENDMDL
MODEL 8
REMARK VINA RESULT:      -3.5      1.224      2.000
REMARK  0 active torsions:
REMARK  status: ('A' for Active; 'I' for Inactive)
ROOT
HETATM    1  C1  UNL     1     -33.590   6.232   3.979  1.00 20.00    -0.066 C 
HETATM    2  C2  UNL     1     -33.248   7.181   3.095  1.00 20.00     0.016 C 
HETATM    3  C3  UNL     1     -33.194   6.291   5.429  1.00 20.00     0.037 C 
HETATM    4  C4  UNL     1     -34.426   5.040   3.610  1.00 20.00     0.201 C 
HETATM    5  C5  UNL     1     -34.418   6.050   6.310  1.00 20.00     0.030 C 
HETATM    6  C6  UNL     1     -35.190   4.817   5.849  1.00 20.00     0.168 C 
HETATM    7  O7  UNL     1     -35.563   4.946   4.475  1.00 20.00    -0.387 OA
ENDROOT
TORSDOF 0
ENDMDL
MODEL 9
REMARK VINA RESULT:      -3.5     12.801     14.033
REMARK  0 active torsions:
REMARK  status: ('A' for Active; 'I' for Inactive)
ROOT
HETATM    1  C1  UNL     1     -34.405  15.084  -6.045  1.00 20.00    -0.066 C 
HETATM    2  C2  UNL     1     -34.562  14.846  -7.355  1.00 20.00     0.016 C 
HETATM    3  C3  UNL     1     -34.763  14.077  -4.986  1.00 20.00     0.037 C 
HETATM    4  C4  UNL     1     -33.829  16.367  -5.515  1.00 20.00     0.201 C 
HETATM    5  C5  UNL     1     -33.601  13.919  -4.009  1.00 20.00     0.030 C 
HETATM    6  C6  UNL     1     -33.096  15.279  -3.532  1.00 20.00     0.168 C 
HETATM    7  O7  UNL     1     -32.723  16.091  -4.649  1.00 20.00    -0.387 OA
ENDROOT
TORSDOF 0
ENDMDL
