MODEL 1
REMARK VINA RESULT:      -5.1      0.000      0.000
REMARK  1 active torsions:
REMARK  status: ('A' for Active; 'I' for Inactive)
REMARK    1  A    between atoms: C7_7  and  C8_8 
ROOT
HETATM    1  C1  UNL     1     -35.447  14.521  -7.046  1.00 20.00     0.064 C 
HETATM    2  C2  UNL     1     -34.132  16.018  -5.507  1.00 20.00     0.020 C 
HETATM    3  C3  UNL     1     -34.961  13.776  -4.690  1.00 20.00     0.020 C 
HETATM    4  C4  UNL     1     -33.162  16.094  -4.325  1.00 20.00     0.015 C 
HETATM    5  C5  UNL     1     -33.993  13.846  -3.508  1.00 20.00     0.015 C 
HETATM    6  C6  UNL     1     -34.441  14.567  -5.897  1.00 20.00     0.093 C 
HETATM    7  C7  UNL     1     -33.632  15.283  -3.112  1.00 20.00     0.093 C 
HETATM    8  N9  UNL     1     -36.211  14.486  -7.918  1.00 20.00    -0.197 NA
ENDROOT
BRANCH   7   9
HETATM    9  C8  UNL     1     -34.764  15.946  -2.439  1.00 20.00     0.391 C 
HETATM   10  F10 UNL     1     -34.576  15.943  -1.111  1.00 20.00    -0.171 F 
HETATM   11  F11 UNL     1     -34.869  17.215  -2.860  1.00 20.00    -0.171 F 
HETATM   12  F12 UNL     1     -35.907  15.300  -2.717  1.00 20.00    -0.171 F 
ENDBRANCH   7   9
TORSDOF 1
ENDMDL
MODEL 2
REMARK VINA RESULT:      -5.0      3.162      4.311
REMARK  1 active torsions:
REMARK  status: ('A' for Active; 'I' for Inactive)
REMARK    1  A    between atoms: C7_7  and  C8_8 
ROOT
HETATM    1  C1  UNL     1     -34.762  16.844  -1.032  1.00 20.00     0.064 C 
HETATM    2  C2  UNL     1     -33.327  15.986  -2.914  1.00 20.00     0.020 C 
HETATM    3  C3  UNL     1     -35.841  15.778  -3.042  1.00 20.00     0.020 C 
HETATM    4  C4  UNL     1     -33.226  15.716  -4.418  1.00 20.00     0.015 C 
HETATM    5  C5  UNL     1     -35.746  15.509  -4.544  1.00 20.00     0.015 C 
HETATM    6  C6  UNL     1     -34.668  16.630  -2.542  1.00 20.00     0.093 C 
HETATM    7  C7  UNL     1     -34.403  14.897  -4.960  1.00 20.00     0.093 C 
HETATM    8  N9  UNL     1     -34.833  17.006   0.115  1.00 20.00    -0.197 NA
ENDROOT
BRANCH   7   9
HETATM    9  C8  UNL     1     -34.308  13.488  -4.533  1.00 20.00     0.391 C 
HETATM   10  F10 UNL     1     -35.200  13.241  -3.563  1.00 20.00    -0.171 F 
HETATM   11  F11 UNL     1     -34.557  12.676  -5.571  1.00 20.00    -0.171 F 
HETATM   12  F12 UNL     1     -33.076  13.232  -4.066  1.00 20.00    -0.171 F 
ENDBRANCH   7   9
TORSDOF 1
ENDMDL
MODEL 3
REMARK VINA RESULT:      -4.9      3.175      4.295
REMARK  1 active torsions:
REMARK  status: ('A' for Active; 'I' for Inactive)
REMARK    1  A    between atoms: C7_7  and  C8_8 
ROOT
HETATM    1  C1  UNL     1     -33.981  16.751  -1.925  1.00 20.00     0.064 C 
HETATM    2  C2  UNL     1     -35.808  15.666  -3.275  1.00 20.00     0.020 C 
HETATM    3  C3  UNL     1     -33.412  14.919  -3.557  1.00 20.00     0.020 C 
HETATM    4  C4  UNL     1     -36.290  14.394  -3.976  1.00 20.00     0.015 C 
HETATM    5  C5  UNL     1     -33.888  13.645  -4.256  1.00 20.00     0.015 C 
HETATM    6  C6  UNL     1     -34.461  15.454  -2.574  1.00 20.00     0.093 C 
HETATM    7  C7  UNL     1     -35.251  13.809  -4.939  1.00 20.00     0.093 C 
HETATM    8  N9  UNL     1     -33.616  17.736  -1.433  1.00 20.00    -0.197 NA
ENDROOT
BRANCH   7   9
HETATM    9  C8  UNL     1     -35.137  14.634  -6.157  1.00 20.00     0.391 C 
HETATM   10  F10 UNL     1     -36.022  15.640  -6.116  1.00 20.00    -0.171 F 
HETATM   11  F11 UNL     1     -33.901  15.146  -6.250  1.00 20.00    -0.171 F 
HETATM   12  F12 UNL     1     -35.380  13.886  -7.244  1.00 20.00    -0.171 F 
ENDBRANCH   7   9
TORSDOF 1
ENDMDL
MODEL 4
REMARK VINA RESULT:      -4.9      1.994      2.961
REMARK  1 active torsions:
REMARK  status: ('A' for Active; 'I' for Inactive)
REMARK    1  A    between atoms: C7_7  and  C8_8 
ROOT
HETATM    1  C1  UNL     1     -34.900  13.799  -4.365  1.00 20.00     0.064 C 
HETATM    2  C2  UNL     1     -36.077  15.586  -3.038  1.00 20.00     0.020 C 
HETATM    3  C3  UNL     1     -33.647  15.868  -3.667  1.00 20.00     0.020 C 
HETATM    4  C4  UNL     1     -36.169  17.079  -2.715  1.00 20.00     0.015 C 
HETATM    5  C5  UNL     1     -33.733  17.361  -3.346  1.00 20.00     0.015 C 
HETATM    6  C6  UNL     1     -35.004  15.299  -4.096  1.00 20.00     0.093 C 
HETATM    7  C7  UNL     1     -34.821  17.691  -2.317  1.00 20.00     0.093 C 
HETATM    8  N9  UNL     1     -34.821  12.659  -4.568  1.00 20.00    -0.197 NA
ENDROOT
BRANCH   7   9
HETATM    9  C8  UNL     1     -34.421  17.254  -0.966  1.00 20.00     0.391 C 
HETATM   10  F10 UNL     1     -34.712  15.956  -0.797  1.00 20.00    -0.171 F 
HETATM   11  F11 UNL     1     -33.102  17.429  -0.799  1.00 20.00    -0.171 F 
HETATM   12  F12 UNL     1     -35.075  17.970  -0.039  1.00 20.00    -0.171 F 
ENDBRANCH   7   9
TORSDOF 1
ENDMDL
MODEL 5
REMARK VINA RESULT:      -4.8      2.466      2.978
REMARK  1 active torsions:
REMARK  status: ('A' for Active; 'I' for Inactive)
REMARK    1  A    between atoms: C7_7  and  C8_8 
ROOT
HETATM    1  C1  UNL     1     -37.297  14.925  -3.791  1.00 20.00     0.064 C 
HETATM    2  C2  UNL     1     -36.305  17.180  -3.273  1.00 20.00     0.020 C 
HETATM    3  C3  UNL     1     -34.920  15.088  -2.976  1.00 20.00     0.020 C 
HETATM    4  C4  UNL     1     -35.034  18.031  -3.224  1.00 20.00     0.015 C 
HETATM    5  C5  UNL     1     -33.647  15.934  -2.929  1.00 20.00     0.015 C 
HETATM    6  C6  UNL     1     -36.023  15.767  -3.798  1.00 20.00     0.093 C 
HETATM    7  C7  UNL     1     -33.896  17.366  -2.441  1.00 20.00     0.093 C 
HETATM    8  N9  UNL     1     -38.265  14.286  -3.784  1.00 20.00    -0.197 NA
ENDROOT
BRANCH   7   9
HETATM    9  C8  UNL     1     -34.167  17.392  -0.991  1.00 20.00     0.391 C 
HETATM   10  F10 UNL     1     -34.615  16.195  -0.586  1.00 20.00    -0.171 F 
HETATM   11  F11 UNL     1     -33.044  17.686  -0.320  1.00 20.00    -0.171 F 
HETATM   12  F12 UNL     1     -35.095  18.321  -0.714  1.00 20.00    -0.171 F 
ENDBRANCH   7   9
TORSDOF 1
ENDMDL
MODEL 6
REMARK VINA RESULT:      -4.8      1.964      2.437
REMARK  1 active torsions:
REMARK  status: ('A' for Active; 'I' for Inactive)
REMARK    1  A    between atoms: C7_7  and  C8_8 
ROOT
HETATM    1  C1  UNL     1     -36.563  15.933  -6.941  1.00 20.00     0.064 C 
HETATM    2  C2  UNL     1     -34.869  14.293  -6.059  1.00 20.00     0.020 C 
HETATM    3  C3  UNL     1     -36.036  15.881  -4.479  1.00 20.00     0.020 C 
HETATM    4  C4  UNL     1     -34.425  13.434  -4.872  1.00 20.00     0.015 C 
HETATM    5  C5  UNL     1     -35.597  15.025  -3.289  1.00 20.00     0.015 C 
HETATM    6  C6  UNL     1     -36.170  15.048  -5.759  1.00 20.00     0.093 C 
HETATM    7  C7  UNL     1     -34.317  14.227  -3.565  1.00 20.00     0.093 C 
HETATM    8  N9  UNL     1     -36.860  16.606  -7.837  1.00 20.00    -0.197 NA
ENDROOT
BRANCH   7   9
HETATM    9  C8  UNL     1     -33.135  15.110  -3.579  1.00 20.00     0.391 C 
HETATM   10  F10 UNL     1     -32.017  14.384  -3.430  1.00 20.00    -0.171 F 
HETATM   11  F11 UNL     1     -33.072  15.773  -4.743  1.00 20.00    -0.171 F 
HETATM   12  F12 UNL     1     -33.213  15.998  -2.577  1.00 20.00    -0.171 F 
ENDBRANCH   7   9
TORSDOF 1
ENDMDL
MODEL 7
REMARK VINA RESULT:      -4.7      2.450      2.780
REMARK  1 active torsions:
REMARK  status: ('A' for Active; 'I' for Inactive)
REMARK    1  A    between atoms: C7_7  and  C8_8 
ROOT
HETATM    1  C1  UNL     1     -37.958  14.790  -4.272  1.00 20.00     0.064 C 
HETATM    2  C2  UNL     1     -36.028  16.348  -3.847  1.00 20.00     0.020 C 
HETATM    3  C3  UNL     1     -35.662  14.198  -5.120  1.00 20.00     0.020 C 
HETATM    4  C4  UNL     1     -34.684  16.879  -4.352  1.00 20.00     0.015 C 
HETATM    5  C5  UNL     1     -34.319  14.723  -5.629  1.00 20.00     0.015 C 
HETATM    6  C6  UNL     1     -36.643  15.338  -4.823  1.00 20.00     0.093 C 
HETATM    7  C7  UNL     1     -33.689  15.764  -4.695  1.00 20.00     0.093 C 
HETATM    8  N9  UNL     1     -38.956  14.372  -3.853  1.00 20.00    -0.197 NA
ENDROOT
BRANCH   7   9
HETATM    9  C8  UNL     1     -33.165  15.128  -3.472  1.00 20.00     0.391 C 
HETATM   10  F10 UNL     1     -31.884  14.774  -3.650  1.00 20.00    -0.171 F 
HETATM   11  F11 UNL     1     -33.241  15.984  -2.442  1.00 20.00    -0.171 F 
HETATM   12  F12 UNL     1     -33.882  14.032  -3.180  1.00 20.00    -0.171 F 
ENDBRANCH   7   9
TORSDOF 1
ENDMDL
MODEL 8
REMARK VINA RESULT:      -4.7      2.674      3.639
REMARK  1 active torsions:
REMARK  status: ('A' for Active; 'I' for Inactive)
REMARK    1  A    between atoms: C7_7  and  C8_8 
ROOT
HETATM    1  C1  UNL     1     -37.373  16.996  -3.224  1.00 20.00     0.064 C 
HETATM    2  C2  UNL     1     -35.152  16.182  -2.362  1.00 20.00     0.020 C 
HETATM    3  C3  UNL     1     -35.604  16.236  -4.846  1.00 20.00     0.020 C 
HETATM    4  C4  UNL     1     -33.652  16.046  -2.635  1.00 20.00     0.015 C 
HETATM    5  C5  UNL     1     -34.106  16.102  -5.125  1.00 20.00     0.015 C 
HETATM    6  C6  UNL     1     -35.872  16.917  -3.499  1.00 20.00     0.093 C 
HETATM    7  C7  UNL     1     -33.345  15.403  -3.992  1.00 20.00     0.093 C 
HETATM    8  N9  UNL     1     -38.512  17.054  -3.015  1.00 20.00    -0.197 NA
ENDROOT
BRANCH   7   9
HETATM    9  C8  UNL     1     -33.639  13.958  -3.970  1.00 20.00     0.391 C 
HETATM   10  F10 UNL     1     -34.004  13.544  -5.193  1.00 20.00    -0.171 F 
HETATM   11  F11 UNL     1     -32.552  13.273  -3.586  1.00 20.00    -0.171 F 
HETATM   12  F12 UNL     1     -34.638  13.705  -3.110  1.00 20.00    -0.171 F 
ENDBRANCH   7   9
TORSDOF 1
ENDMDL
MODEL 9
REMARK VINA RESULT:      -4.7      2.483      3.300
REMARK  1 active torsions:
REMARK  status: ('A' for Active; 'I' for Inactive)
REMARK    1  A    between atoms: C7_7  and  C8_8 
ROOT
HETATM    1  C1  UNL     1     -37.089  17.320  -4.572  1.00 20.00     0.064 C 
HETATM    2  C2  UNL     1     -35.642  16.155  -2.873  1.00 20.00     0.020 C 
HETATM    3  C3  UNL     1     -34.767  16.579  -5.204  1.00 20.00     0.020 C 
HETATM    4  C4  UNL     1     -34.217  15.886  -2.384  1.00 20.00     0.015 C 
HETATM    5  C5  UNL     1     -33.341  16.312  -4.721  1.00 20.00     0.015 C 
HETATM    6  C6  UNL     1     -35.660  17.107  -4.075  1.00 20.00     0.093 C 
HETATM    7  C7  UNL     1     -33.285  15.391  -3.496  1.00 20.00     0.093 C 
HETATM    8  N9  UNL     1     -38.174  17.480  -4.950  1.00 20.00    -0.197 NA
ENDROOT
BRANCH   7   9
HETATM    9  C8  UNL     1     -33.597  13.998  -3.866  1.00 20.00     0.391 C 
HETATM   10  F10 UNL     1     -32.549  13.205  -3.601  1.00 20.00    -0.171 F 
HETATM   11  F11 UNL     1     -34.658  13.564  -3.170  1.00 20.00    -0.171 F 
HETATM   12  F12 UNL     1     -33.877  13.923  -5.176  1.00 20.00    -0.171 F 
ENDBRANCH   7   9
TORSDOF 1
ENDMDL
