MODEL 1
REMARK VINA RESULT:      -5.0      0.000      0.000
REMARK  1 active torsions:
REMARK  status: ('A' for Active; 'I' for Inactive)
REMARK    1  A    between atoms: C7_7  and  C8_8 
ROOT
HETATM    1  C1  UNL     1     -34.628  16.740  -0.771  1.00 20.00     0.064 C 
HETATM    2  C2  UNL     1     -33.473  16.857  -4.418  1.00 20.00     0.002 C 
HETATM    3  C3  UNL     1     -33.703  17.320  -2.983  1.00 20.00     0.019 C 
HETATM    4  C4  UNL     1     -34.761  16.344  -5.058  1.00 20.00     0.013 C 
HETATM    5  C5  UNL     1     -35.647  15.717  -2.773  1.00 20.00     0.032 C 
HETATM    6  C6  UNL     1     -34.352  16.228  -2.126  1.00 20.00     0.093 C 
HETATM    7  C7  UNL     1     -35.454  15.255  -4.227  1.00 20.00     0.095 C 
HETATM    8  N9  UNL     1     -34.845  17.142   0.296  1.00 20.00    -0.197 NA
ENDROOT
BRANCH   7   9
HETATM    9  C8  UNL     1     -34.705  13.922  -4.303  1.00 20.00     0.391 C 
HETATM   10  F10 UNL     1     -34.115  13.798  -5.500  1.00 20.00    -0.171 F 
HETATM   11  F11 UNL     1     -33.768  13.869  -3.347  1.00 20.00    -0.171 F 
HETATM   12  F12 UNL     1     -35.564  12.906  -4.132  1.00 20.00    -0.171 F 
ENDBRANCH   7   9
TORSDOF 1
ENDMDL
MODEL 2
REMARK VINA RESULT:      -5.0      3.062      4.200
REMARK  1 active torsions:
REMARK  status: ('A' for Active; 'I' for Inactive)
REMARK    1  A    between atoms: C7_7  and  C8_8 
ROOT
HETATM    1  C1  UNL     1     -35.000  13.814  -4.053  1.00 20.00     0.064 C 
HETATM    2  C2  UNL     1     -35.778  17.559  -3.933  1.00 20.00     0.002 C 
HETATM    3  C3  UNL     1     -35.733  16.132  -4.469  1.00 20.00     0.019 C 
HETATM    4  C4  UNL     1     -34.395  18.042  -3.501  1.00 20.00     0.013 C 
HETATM    5  C5  UNL     1     -33.704  15.654  -3.038  1.00 20.00     0.032 C 
HETATM    6  C6  UNL     1     -35.095  15.164  -3.467  1.00 20.00     0.093 C 
HETATM    7  C7  UNL     1     -33.710  17.096  -2.506  1.00 20.00     0.095 C 
HETATM    8  N9  UNL     1     -34.926  12.751  -4.512  1.00 20.00    -0.197 NA
ENDROOT
BRANCH   7   9
HETATM    9  C8  UNL     1     -34.343  17.183  -1.114  1.00 20.00     0.391 C 
HETATM   10  F10 UNL     1     -35.359  18.057  -1.129  1.00 20.00    -0.171 F 
HETATM   11  F11 UNL     1     -34.806  15.981  -0.747  1.00 20.00    -0.171 F 
HETATM   12  F12 UNL     1     -33.429  17.592  -0.223  1.00 20.00    -0.171 F 
ENDBRANCH   7   9
TORSDOF 1
ENDMDL
MODEL 3
REMARK VINA RESULT:      -5.0      2.716      3.776
REMARK  1 active torsions:
REMARK  status: ('A' for Active; 'I' for Inactive)
REMARK    1  A    between atoms: C7_7  and  C8_8 
ROOT
HETATM    1  C1  UNL     1     -37.612  14.609  -3.887  1.00 20.00     0.064 C 
HETATM    2  C2  UNL     1     -33.996  13.556  -4.569  1.00 20.00     0.002 C 
HETATM    3  C3  UNL     1     -35.502  13.423  -4.359  1.00 20.00     0.019 C 
HETATM    4  C4  UNL     1     -33.337  14.341  -3.438  1.00 20.00     0.013 C 
HETATM    5  C5  UNL     1     -35.508  15.570  -3.024  1.00 20.00     0.032 C 
HETATM    6  C6  UNL     1     -36.175  14.786  -4.163  1.00 20.00     0.093 C 
HETATM    7  C7  UNL     1     -33.987  15.710  -3.197  1.00 20.00     0.095 C 
HETATM    8  N9  UNL     1     -38.744  14.471  -3.669  1.00 20.00    -0.197 NA
ENDROOT
BRANCH   7   9
HETATM    9  C8  UNL     1     -33.632  16.709  -4.302  1.00 20.00     0.391 C 
HETATM   10  F10 UNL     1     -33.336  17.900  -3.762  1.00 20.00    -0.171 F 
HETATM   11  F11 UNL     1     -32.573  16.267  -4.992  1.00 20.00    -0.171 F 
HETATM   12  F12 UNL     1     -34.671  16.854  -5.137  1.00 20.00    -0.171 F 
ENDBRANCH   7   9
TORSDOF 1
ENDMDL
MODEL 4
REMARK VINA RESULT:      -4.9      2.820      3.366
REMARK  1 active torsions:
REMARK  status: ('A' for Active; 'I' for Inactive)
REMARK    1  A    between atoms: C7_7  and  C8_8 
ROOT
HETATM    1  C1  UNL     1     -37.850  14.753  -3.952  1.00 20.00     0.064 C 
HETATM    2  C2  UNL     1     -35.077  16.250  -6.124  1.00 20.00     0.002 C 
HETATM    3  C3  UNL     1     -36.487  15.905  -5.654  1.00 20.00     0.019 C 
HETATM    4  C4  UNL     1     -34.194  15.008  -6.215  1.00 20.00     0.013 C 
HETATM    5  C5  UNL     1     -35.589  13.885  -4.429  1.00 20.00     0.032 C 
HETATM    6  C6  UNL     1     -36.477  15.134  -4.331  1.00 20.00     0.093 C 
HETATM    7  C7  UNL     1     -34.163  14.194  -4.914  1.00 20.00     0.095 C 
HETATM    8  N9  UNL     1     -38.931  14.453  -3.653  1.00 20.00    -0.197 NA
ENDROOT
BRANCH   7   9
HETATM    9  C8  UNL     1     -33.335  14.890  -3.830  1.00 20.00     0.391 C 
HETATM   10  F10 UNL     1     -32.275  14.134  -3.511  1.00 20.00    -0.171 F 
HETATM   11  F11 UNL     1     -32.905  16.078  -4.276  1.00 20.00    -0.171 F 
HETATM   12  F12 UNL     1     -34.083  15.078  -2.734  1.00 20.00    -0.171 F 
ENDBRANCH   7   9
TORSDOF 1
ENDMDL
MODEL 5
REMARK VINA RESULT:      -4.8      3.249      3.998
REMARK  1 active torsions:
REMARK  status: ('A' for Active; 'I' for Inactive)
REMARK    1  A    between atoms: C7_7  and  C8_8 
ROOT
HETATM    1  C1  UNL     1     -37.418  15.038  -3.611  1.00 20.00     0.064 C 
HETATM    2  C2  UNL     1     -34.860  17.810  -4.254  1.00 20.00     0.002 C 
HETATM    3  C3  UNL     1     -36.009  16.844  -4.525  1.00 20.00     0.019 C 
HETATM    4  C4  UNL     1     -33.631  17.087  -3.709  1.00 20.00     0.013 C 
HETATM    5  C5  UNL     1     -35.120  15.284  -2.745  1.00 20.00     0.032 C 
HETATM    6  C6  UNL     1     -36.359  16.011  -3.287  1.00 20.00     0.093 C 
HETATM    7  C7  UNL     1     -33.936  16.228  -2.475  1.00 20.00     0.095 C 
HETATM    8  N9  UNL     1     -38.252  14.272  -3.865  1.00 20.00    -0.197 NA
ENDROOT
BRANCH   7   9
HETATM    9  C8  UNL     1     -34.170  17.088  -1.230  1.00 20.00     0.391 C 
HETATM   10  F10 UNL     1     -34.798  16.368  -0.290  1.00 20.00    -0.171 F 
HETATM   11  F11 UNL     1     -32.997  17.513  -0.743  1.00 20.00    -0.171 F 
HETATM   12  F12 UNL     1     -34.926  18.150  -1.544  1.00 20.00    -0.171 F 
ENDBRANCH   7   9
TORSDOF 1
ENDMDL
MODEL 6
REMARK VINA RESULT:      -4.8      2.682      3.389
REMARK  1 active torsions:
REMARK  status: ('A' for Active; 'I' for Inactive)
REMARK    1  A    between atoms: C7_7  and  C8_8 
ROOT
HETATM    1  C1  UNL     1     -37.346  16.516  -4.399  1.00 20.00     0.064 C 
HETATM    2  C2  UNL     1     -34.828  14.176  -6.081  1.00 20.00     0.002 C 
HETATM    3  C3  UNL     1     -36.124  14.951  -5.862  1.00 20.00     0.019 C 
HETATM    4  C4  UNL     1     -34.435  13.372  -4.843  1.00 20.00     0.013 C 
HETATM    5  C5  UNL     1     -35.658  15.032  -3.378  1.00 20.00     0.032 C 
HETATM    6  C6  UNL     1     -36.052  15.846  -4.620  1.00 20.00     0.093 C 
HETATM    7  C7  UNL     1     -34.363  14.226  -3.570  1.00 20.00     0.095 C 
HETATM    8  N9  UNL     1     -38.364  17.045  -4.226  1.00 20.00    -0.197 NA
ENDROOT
BRANCH   7   9
HETATM    9  C8  UNL     1     -33.127  15.130  -3.563  1.00 20.00     0.391 C 
HETATM   10  F10 UNL     1     -33.063  15.823  -4.708  1.00 20.00    -0.171 F 
HETATM   11  F11 UNL     1     -33.196  15.988  -2.536  1.00 20.00    -0.171 F 
HETATM   12  F12 UNL     1     -32.019  14.385  -3.439  1.00 20.00    -0.171 F 
ENDBRANCH   7   9
TORSDOF 1
ENDMDL
MODEL 7
REMARK VINA RESULT:      -4.8     12.285     13.155
REMARK  1 active torsions:
REMARK  status: ('A' for Active; 'I' for Inactive)
REMARK    1  A    between atoms: C7_7  and  C8_8 
ROOT
HETATM    1  C1  UNL     1     -31.767   7.125   4.025  1.00 20.00     0.064 C 
HETATM    2  C2  UNL     1     -34.711   5.049   2.731  1.00 20.00     0.002 C 
HETATM    3  C3  UNL     1     -33.520   6.003   2.701  1.00 20.00     0.019 C 
HETATM    4  C4  UNL     1     -35.730   5.453   3.795  1.00 20.00     0.013 C 
HETATM    5  C5  UNL     1     -33.890   6.546   5.143  1.00 20.00     0.032 C 
HETATM    6  C6  UNL     1     -32.861   6.138   4.078  1.00 20.00     0.093 C 
HETATM    7  C7  UNL     1     -35.111   5.613   5.190  1.00 20.00     0.095 C 
HETATM    8  N9  UNL     1     -30.905   7.901   3.983  1.00 20.00    -0.197 NA
ENDROOT
BRANCH   7   9
HETATM    9  C8  UNL     1     -34.767   4.259   5.817  1.00 20.00     0.391 C 
HETATM   10  F10 UNL     1     -35.671   3.948   6.756  1.00 20.00    -0.171 F 
HETATM   11  F11 UNL     1     -34.771   3.307   4.875  1.00 20.00    -0.171 F 
HETATM   12  F12 UNL     1     -33.551   4.313   6.380  1.00 20.00    -0.171 F 
ENDBRANCH   7   9
TORSDOF 1
ENDMDL
MODEL 8
REMARK VINA RESULT:      -4.8      2.510      3.650
REMARK  1 active torsions:
REMARK  status: ('A' for Active; 'I' for Inactive)
REMARK    1  A    between atoms: C7_7  and  C8_8 
ROOT
HETATM    1  C1  UNL     1     -34.603  17.472  -6.522  1.00 20.00     0.064 C 
HETATM    2  C2  UNL     1     -35.557  16.307  -3.004  1.00 20.00     0.002 C 
HETATM    3  C3  UNL     1     -35.533  17.177  -4.257  1.00 20.00     0.019 C 
HETATM    4  C4  UNL     1     -34.147  16.012  -2.496  1.00 20.00     0.013 C 
HETATM    5  C5  UNL     1     -33.246  16.274  -4.844  1.00 20.00     0.032 C 
HETATM    6  C6  UNL     1     -34.662  16.566  -5.360  1.00 20.00     0.093 C 
HETATM    7  C7  UNL     1     -33.233  15.411  -3.572  1.00 20.00     0.095 C 
HETATM    8  N9  UNL     1     -34.557  18.184  -7.438  1.00 20.00    -0.197 NA
ENDROOT
BRANCH   7   9
HETATM    9  C8  UNL     1     -33.594  13.953  -3.872  1.00 20.00     0.391 C 
HETATM   10  F10 UNL     1     -34.644  13.581  -3.127  1.00 20.00    -0.171 F 
HETATM   11  F11 UNL     1     -33.908  13.819  -5.167  1.00 20.00    -0.171 F 
HETATM   12  F12 UNL     1     -32.553  13.158  -3.588  1.00 20.00    -0.171 F 
ENDBRANCH   7   9
TORSDOF 1
ENDMDL
MODEL 9
REMARK VINA RESULT:      -4.7     11.809     13.193
REMARK  1 active torsions:
REMARK  status: ('A' for Active; 'I' for Inactive)
REMARK    1  A    between atoms: C7_7  and  C8_8 
ROOT
HETATM    1  C1  UNL     1     -42.936   3.856  -3.405  1.00 20.00     0.064 C 
HETATM    2  C2  UNL     1     -40.593   5.069  -0.632  1.00 20.00     0.002 C 
HETATM    3  C3  UNL     1     -41.201   4.134  -1.673  1.00 20.00     0.019 C 
HETATM    4  C4  UNL     1     -41.658   5.644   0.300  1.00 20.00     0.013 C 
HETATM    5  C5  UNL     1     -43.392   5.388  -1.524  1.00 20.00     0.032 C 
HETATM    6  C6  UNL     1     -42.323   4.814  -2.466  1.00 20.00     0.093 C 
HETATM    7  C7  UNL     1     -42.810   6.324  -0.452  1.00 20.00     0.095 C 
HETATM    8  N9  UNL     1     -43.417   3.104  -4.145  1.00 20.00    -0.197 NA
ENDROOT
BRANCH   7   9
HETATM    9  C8  UNL     1     -42.385   7.670  -1.044  1.00 20.00     0.391 C 
HETATM   10  F10 UNL     1     -41.068   7.851  -0.866  1.00 20.00    -0.171 F 
HETATM   11  F11 UNL     1     -42.655   7.697  -2.356  1.00 20.00    -0.171 F 
HETATM   12  F12 UNL     1     -43.048   8.666  -0.439  1.00 20.00    -0.171 F 
ENDBRANCH   7   9
TORSDOF 1
ENDMDL
