MODEL 1
REMARK VINA RESULT:      -4.1      0.000      0.000
REMARK  5 active torsions:
REMARK  status: ('A' for Active; 'I' for Inactive)
REMARK    1  A    between atoms: C6_6  and  C7_7 
REMARK    2  A    between atoms: C6_6  and  C9_9 
REMARK    3  A    between atoms: C7_7  and  C11_11 
REMARK    4  A    between atoms: C8_8  and  C9_9 
REMARK    5  A    between atoms: C8_8  and  C10_10 
ROOT
HETATM    1  C6  UNL     1     -35.412  15.732  -2.606  1.00 20.00     0.005 C 
ENDROOT
BRANCH   1   2
HETATM    2  C7  UNL     1     -34.392  16.184  -1.548  1.00 20.00     0.008 C 
BRANCH   2   3
HETATM    3  C11 UNL     1     -34.630  17.595  -0.943  1.00 20.00    -0.051 C 
HETATM    4  C3  UNL     1     -35.749  18.341  -1.688  1.00 20.00     0.014 C 
HETATM    5  C4  UNL     1     -33.346  18.440  -0.980  1.00 20.00     0.014 C 
HETATM    6  C5  UNL     1     -35.058  17.420   0.528  1.00 20.00     0.014 C 
ENDBRANCH   2   3
ENDBRANCH   1   2
BRANCH   1   7
HETATM    7  C9  UNL     1     -34.763  15.152  -3.883  1.00 20.00    -0.017 C 
HETATM    8  C1  UNL     1     -34.645  13.623  -3.820  1.00 20.00     0.010 C 
BRANCH   7   9
HETATM    9  C8  UNL     1     -33.354  15.746  -4.134  1.00 20.00     0.024 C 
BRANCH   9  10
HETATM   10  C10 UNL     1     -33.228  16.739  -5.300  1.00 20.00     0.078 C 
HETATM   11  C2  UNL     1     -33.640  18.143  -4.866  1.00 20.00     0.026 C 
HETATM   12 CL12 UNL     1     -34.246  16.243  -6.684  1.00 20.00    -0.125 Cl
ENDBRANCH   9  10
ENDBRANCH   7   9
ENDBRANCH   1   7
TORSDOF 5
ENDMDL
MODEL 2
REMARK VINA RESULT:      -4.1      0.122      1.253
REMARK  5 active torsions:
REMARK  status: ('A' for Active; 'I' for Inactive)
REMARK    1  A    between atoms: C6_6  and  C7_7 
REMARK    2  A    between atoms: C6_6  and  C9_9 
REMARK    3  A    between atoms: C7_7  and  C11_11 
REMARK    4  A    between atoms: C8_8  and  C9_9 
REMARK    5  A    between atoms: C8_8  and  C10_10 
ROOT
HETATM    1  C6  UNL     1     -35.420  15.786  -2.638  1.00 20.00     0.005 C 
ENDROOT
BRANCH   1   2
HETATM    2  C7  UNL     1     -34.464  16.162  -1.493  1.00 20.00     0.008 C 
BRANCH   2   3
HETATM    3  C11 UNL     1     -34.695  17.559  -0.856  1.00 20.00    -0.051 C 
HETATM    4  C3  UNL     1     -35.105  17.440   0.621  1.00 20.00     0.014 C 
HETATM    5  C4  UNL     1     -35.772  18.348  -1.619  1.00 20.00     0.014 C 
HETATM    6  C5  UNL     1     -33.370  18.344  -0.930  1.00 20.00     0.014 C 
ENDBRANCH   2   3
ENDBRANCH   1   2
BRANCH   1   7
HETATM    7  C9  UNL     1     -34.704  15.184  -3.868  1.00 20.00    -0.017 C 
HETATM    8  C1  UNL     1     -34.485  13.672  -3.719  1.00 20.00     0.010 C 
BRANCH   7   9
HETATM    9  C8  UNL     1     -33.334  15.859  -4.125  1.00 20.00     0.024 C 
BRANCH   9  10
HETATM   10  C10 UNL     1     -33.271  16.859  -5.291  1.00 20.00     0.078 C 
HETATM   11  C2  UNL     1     -33.660  18.260  -4.827  1.00 20.00     0.026 C 
HETATM   12 CL12 UNL     1     -34.363  16.370  -6.621  1.00 20.00    -0.125 Cl
ENDBRANCH   9  10
ENDBRANCH   7   9
ENDBRANCH   1   7
TORSDOF 5
ENDMDL
MODEL 3
REMARK VINA RESULT:      -4.1      0.493      1.405
REMARK  5 active torsions:
REMARK  status: ('A' for Active; 'I' for Inactive)
REMARK    1  A    between atoms: C6_6  and  C7_7 
REMARK    2  A    between atoms: C6_6  and  C9_9 
REMARK    3  A    between atoms: C7_7  and  C11_11 
REMARK    4  A    between atoms: C8_8  and  C9_9 
REMARK    5  A    between atoms: C8_8  and  C10_10 
ROOT
HETATM    1  C6  UNL     1     -34.919  15.839  -2.249  1.00 20.00     0.005 C 
ENDROOT
BRANCH   1   2
HETATM    2  C7  UNL     1     -33.776  16.646  -1.612  1.00 20.00     0.008 C 
BRANCH   2   3
HETATM    3  C11 UNL     1     -34.210  17.847  -0.729  1.00 20.00    -0.051 C 
HETATM    4  C3  UNL     1     -32.995  18.661  -0.255  1.00 20.00     0.014 C 
HETATM    5  C4  UNL     1     -35.015  17.377   0.494  1.00 20.00     0.014 C 
HETATM    6  C5  UNL     1     -35.108  18.767  -1.581  1.00 20.00     0.014 C 
ENDBRANCH   2   3
ENDBRANCH   1   2
BRANCH   1   7
HETATM    7  C9  UNL     1     -34.576  15.276  -3.647  1.00 20.00    -0.017 C 
HETATM    8  C1  UNL     1     -34.544  13.742  -3.654  1.00 20.00     0.010 C 
BRANCH   7   9
HETATM    9  C8  UNL     1     -33.212  15.801  -4.159  1.00 20.00     0.024 C 
BRANCH   9  10
HETATM   10  C10 UNL     1     -33.246  16.682  -5.418  1.00 20.00     0.078 C 
HETATM   11  C2  UNL     1     -33.755  18.083  -5.087  1.00 20.00     0.026 C 
HETATM   12 CL12 UNL     1     -34.299  15.971  -6.677  1.00 20.00    -0.125 Cl
ENDBRANCH   9  10
ENDBRANCH   7   9
ENDBRANCH   1   7
TORSDOF 5
ENDMDL
MODEL 4
REMARK VINA RESULT:      -4.1      2.327      4.744
REMARK  5 active torsions:
REMARK  status: ('A' for Active; 'I' for Inactive)
REMARK    1  A    between atoms: C6_6  and  C7_7 
REMARK    2  A    between atoms: C6_6  and  C9_9 
REMARK    3  A    between atoms: C7_7  and  C11_11 
REMARK    4  A    between atoms: C8_8  and  C9_9 
REMARK    5  A    between atoms: C8_8  and  C10_10 
ROOT
HETATM    1  C6  UNL     1     -33.202  16.158  -4.859  1.00 20.00     0.005 C 
ENDROOT
BRANCH   1   2
HETATM    2  C7  UNL     1     -34.569  16.737  -5.258  1.00 20.00     0.008 C 
BRANCH   2   3
HETATM    3  C11 UNL     1     -35.323  15.970  -6.379  1.00 20.00    -0.051 C 
HETATM    4  C3  UNL     1     -36.471  15.125  -5.803  1.00 20.00     0.014 C 
HETATM    5  C4  UNL     1     -34.369  15.058  -7.168  1.00 20.00     0.014 C 
HETATM    6  C5  UNL     1     -35.923  17.007  -7.349  1.00 20.00     0.014 C 
ENDBRANCH   2   3
ENDBRANCH   1   2
BRANCH   1   7
HETATM    7  C9  UNL     1     -33.228  15.368  -3.532  1.00 20.00    -0.017 C 
HETATM    8  C1  UNL     1     -33.503  13.875  -3.761  1.00 20.00     0.010 C 
BRANCH   7   9
HETATM    9  C8  UNL     1     -34.293  15.921  -2.552  1.00 20.00     0.024 C 
BRANCH   9  10
HETATM   10  C10 UNL     1     -33.795  16.913  -1.489  1.00 20.00     0.078 C 
HETATM   11  C2  UNL     1     -34.767  16.984  -0.314  1.00 20.00     0.026 C 
HETATM   12 CL12 UNL     1     -33.602  18.553  -2.175  1.00 20.00    -0.125 Cl
ENDBRANCH   9  10
ENDBRANCH   7   9
ENDBRANCH   1   7
TORSDOF 5
ENDMDL
MODEL 5
REMARK VINA RESULT:      -4.1      0.930      2.647
REMARK  5 active torsions:
REMARK  status: ('A' for Active; 'I' for Inactive)
REMARK    1  A    between atoms: C6_6  and  C7_7 
REMARK    2  A    between atoms: C6_6  and  C9_9 
REMARK    3  A    between atoms: C7_7  and  C11_11 
REMARK    4  A    between atoms: C8_8  and  C9_9 
REMARK    5  A    between atoms: C8_8  and  C10_10 
ROOT
HETATM    1  C6  UNL     1     -33.466  16.060  -2.658  1.00 20.00     0.005 C 
ENDROOT
BRANCH   1   2
HETATM    2  C7  UNL     1     -34.673  16.263  -1.726  1.00 20.00     0.008 C 
BRANCH   2   3
HETATM    3  C11 UNL     1     -34.658  17.565  -0.881  1.00 20.00    -0.051 C 
HETATM    4  C3  UNL     1     -33.259  18.203  -0.860  1.00 20.00     0.014 C 
HETATM    5  C4  UNL     1     -35.115  17.297   0.563  1.00 20.00     0.014 C 
HETATM    6  C5  UNL     1     -35.638  18.566  -1.525  1.00 20.00     0.014 C 
ENDBRANCH   2   3
ENDBRANCH   1   2
BRANCH   1   7
HETATM    7  C9  UNL     1     -33.805  16.230  -4.156  1.00 20.00    -0.017 C 
HETATM    8  C1  UNL     1     -33.672  17.690  -4.610  1.00 20.00     0.010 C 
BRANCH   7   9
HETATM    9  C8  UNL     1     -35.238  15.741  -4.481  1.00 20.00     0.024 C 
BRANCH   9  10
HETATM   10  C10 UNL     1     -35.352  14.552  -5.448  1.00 20.00     0.078 C 
HETATM   11  C2  UNL     1     -34.836  13.271  -4.798  1.00 20.00     0.026 C 
HETATM   12 CL12 UNL     1     -34.427  14.848  -6.949  1.00 20.00    -0.125 Cl
ENDBRANCH   9  10
ENDBRANCH   7   9
ENDBRANCH   1   7
TORSDOF 5
ENDMDL
MODEL 6
REMARK VINA RESULT:      -4.1      0.910      2.615
REMARK  5 active torsions:
REMARK  status: ('A' for Active; 'I' for Inactive)
REMARK    1  A    between atoms: C6_6  and  C7_7 
REMARK    2  A    between atoms: C6_6  and  C9_9 
REMARK    3  A    between atoms: C7_7  and  C11_11 
REMARK    4  A    between atoms: C8_8  and  C9_9 
REMARK    5  A    between atoms: C8_8  and  C10_10 
ROOT
HETATM    1  C6  UNL     1     -33.530  16.099  -2.556  1.00 20.00     0.005 C 
ENDROOT
BRANCH   1   2
HETATM    2  C7  UNL     1     -34.744  16.338  -1.642  1.00 20.00     0.008 C 
BRANCH   2   3
HETATM    3  C11 UNL     1     -34.697  17.632  -0.785  1.00 20.00    -0.051 C 
HETATM    4  C3  UNL     1     -35.137  17.361   0.663  1.00 20.00     0.014 C 
HETATM    5  C4  UNL     1     -35.587  18.731  -1.388  1.00 20.00     0.014 C 
HETATM    6  C5  UNL     1     -33.241  18.140  -0.764  1.00 20.00     0.014 C 
ENDBRANCH   2   3
ENDBRANCH   1   2
BRANCH   1   7
HETATM    7  C9  UNL     1     -33.849  16.252  -4.060  1.00 20.00    -0.017 C 
HETATM    8  C1  UNL     1     -33.709  17.706  -4.529  1.00 20.00     0.010 C 
BRANCH   7   9
HETATM    9  C8  UNL     1     -35.277  15.758  -4.399  1.00 20.00     0.024 C 
BRANCH   9  10
HETATM   10  C10 UNL     1     -35.377  14.543  -5.335  1.00 20.00     0.078 C 
HETATM   11  C2  UNL     1     -34.853  13.284  -4.649  1.00 20.00     0.026 C 
HETATM   12 CL12 UNL     1     -34.448  14.807  -6.840  1.00 20.00    -0.125 Cl
ENDBRANCH   9  10
ENDBRANCH   7   9
ENDBRANCH   1   7
TORSDOF 5
ENDMDL
MODEL 7
REMARK VINA RESULT:      -4.0      2.711      5.183
REMARK  5 active torsions:
REMARK  status: ('A' for Active; 'I' for Inactive)
REMARK    1  A    between atoms: C6_6  and  C7_7 
REMARK    2  A    between atoms: C6_6  and  C9_9 
REMARK    3  A    between atoms: C7_7  and  C11_11 
REMARK    4  A    between atoms: C8_8  and  C9_9 
REMARK    5  A    between atoms: C8_8  and  C10_10 
ROOT
HETATM    1  C6  UNL     1     -34.483  16.002  -1.902  1.00 20.00     0.005 C 
ENDROOT
BRANCH   1   2
HETATM    2  C7  UNL     1     -35.192  15.577  -3.199  1.00 20.00     0.008 C 
BRANCH   2   3
HETATM    3  C11 UNL     1     -34.370  14.664  -4.148  1.00 20.00    -0.051 C 
HETATM    4  C3  UNL     1     -35.043  13.294  -4.328  1.00 20.00     0.014 C 
HETATM    5  C4  UNL     1     -32.939  14.461  -3.623  1.00 20.00     0.014 C 
HETATM    6  C5  UNL     1     -34.293  15.351  -5.526  1.00 20.00     0.014 C 
ENDBRANCH   2   3
ENDBRANCH   1   2
BRANCH   1   7
HETATM    7  C9  UNL     1     -34.353  17.533  -1.741  1.00 20.00    -0.017 C 
HETATM    8  C1  UNL     1     -33.864  18.204  -3.032  1.00 20.00     0.010 C 
BRANCH   7   9
HETATM    9  C8  UNL     1     -33.386  17.911  -0.591  1.00 20.00     0.024 C 
BRANCH   9  10
HETATM   10  C10 UNL     1     -34.023  18.527   0.664  1.00 20.00     0.078 C 
HETATM   11  C2  UNL     1     -32.966  18.797   1.733  1.00 20.00     0.026 C 
HETATM   12 CL12 UNL     1     -35.272  17.448   1.351  1.00 20.00    -0.125 Cl
ENDBRANCH   9  10
ENDBRANCH   7   9
ENDBRANCH   1   7
TORSDOF 5
ENDMDL
MODEL 8
REMARK VINA RESULT:      -4.0      1.437      2.081
REMARK  5 active torsions:
REMARK  status: ('A' for Active; 'I' for Inactive)
REMARK    1  A    between atoms: C6_6  and  C7_7 
REMARK    2  A    between atoms: C6_6  and  C9_9 
REMARK    3  A    between atoms: C7_7  and  C11_11 
REMARK    4  A    between atoms: C8_8  and  C9_9 
REMARK    5  A    between atoms: C8_8  and  C10_10 
ROOT
HETATM    1  C6  UNL     1     -35.345  15.165  -3.248  1.00 20.00     0.005 C 
ENDROOT
BRANCH   1   2
HETATM    2  C7  UNL     1     -34.368  15.760  -2.220  1.00 20.00     0.008 C 
BRANCH   2   3
HETATM    3  C11 UNL     1     -34.770  17.139  -1.630  1.00 20.00    -0.051 C 
HETATM    4  C3  UNL     1     -34.821  17.098  -0.094  1.00 20.00     0.014 C 
HETATM    5  C4  UNL     1     -36.133  17.600  -2.171  1.00 20.00     0.014 C 
HETATM    6  C5  UNL     1     -33.703  18.169  -2.052  1.00 20.00     0.014 C 
ENDBRANCH   2   3
ENDBRANCH   1   2
BRANCH   1   7
HETATM    7  C9  UNL     1     -34.703  14.100  -4.167  1.00 20.00    -0.017 C 
HETATM    8  C1  UNL     1     -33.297  13.709  -3.693  1.00 20.00     0.010 C 
BRANCH   7   9
HETATM    9  C8  UNL     1     -34.612  14.586  -5.635  1.00 20.00     0.024 C 
BRANCH   9  10
HETATM   10  C10 UNL     1     -34.818  16.091  -5.872  1.00 20.00     0.078 C 
HETATM   11  C2  UNL     1     -35.200  16.365  -7.324  1.00 20.00     0.026 C 
HETATM   12 CL12 UNL     1     -33.337  17.015  -5.482  1.00 20.00    -0.125 Cl
ENDBRANCH   9  10
ENDBRANCH   7   9
ENDBRANCH   1   7
TORSDOF 5
ENDMDL
MODEL 9
REMARK VINA RESULT:      -3.9      2.652      5.422
REMARK  5 active torsions:
REMARK  status: ('A' for Active; 'I' for Inactive)
REMARK    1  A    between atoms: C6_6  and  C7_7 
REMARK    2  A    between atoms: C6_6  and  C9_9 
REMARK    3  A    between atoms: C7_7  and  C11_11 
REMARK    4  A    between atoms: C8_8  and  C9_9 
REMARK    5  A    between atoms: C8_8  and  C10_10 
ROOT
HETATM    1  C6  UNL     1     -33.667  16.565  -2.187  1.00 20.00     0.005 C 
ENDROOT
BRANCH   1   2
HETATM    2  C7  UNL     1     -34.782  15.573  -2.559  1.00 20.00     0.008 C 
BRANCH   2   3
HETATM    3  C11 UNL     1     -34.542  14.744  -3.850  1.00 20.00    -0.051 C 
HETATM    4  C3  UNL     1     -35.778  13.906  -4.215  1.00 20.00     0.014 C 
HETATM    5  C4  UNL     1     -33.326  13.814  -3.696  1.00 20.00     0.014 C 
HETATM    6  C5  UNL     1     -34.263  15.726  -5.005  1.00 20.00     0.014 C 
ENDBRANCH   2   3
ENDBRANCH   1   2
BRANCH   1   7
HETATM    7  C9  UNL     1     -34.122  17.666  -1.203  1.00 20.00    -0.017 C 
HETATM    8  C1  UNL     1     -32.937  18.484  -0.672  1.00 20.00     0.010 C 
BRANCH   7   9
HETATM    9  C8  UNL     1     -34.896  17.078   0.003  1.00 20.00     0.024 C 
BRANCH   9  10
HETATM   10  C10 UNL     1     -35.491  18.090   0.994  1.00 20.00     0.078 C 
HETATM   11  C2  UNL     1     -35.378  17.578   2.428  1.00 20.00     0.026 C 
HETATM   12 CL12 UNL     1     -37.212  18.414   0.633  1.00 20.00    -0.125 Cl
ENDBRANCH   9  10
ENDBRANCH   7   9
ENDBRANCH   1   7
TORSDOF 5
ENDMDL
