MODEL 1
REMARK VINA RESULT:      -4.9      0.000      0.000
REMARK  0 active torsions:
REMARK  status: ('A' for Active; 'I' for Inactive)
ROOT
HETATM    1  C1  UNL     1     -34.287  13.733  -4.029  1.00 20.00     0.088 C 
HETATM    2  C2  UNL     1     -34.134  15.960  -3.124  1.00 20.00    -0.070 C 
HETATM    3  C3  UNL     1     -33.555  14.906  -3.716  1.00 20.00     0.096 C 
HETATM    4  C4  UNL     1     -35.595  15.966  -2.751  1.00 20.00     0.035 C 
HETATM    5  C5  UNL     1     -33.370  17.195  -2.741  1.00 20.00     0.039 C 
HETATM    6  C6  UNL     1     -35.891  16.898  -1.567  1.00 20.00     0.009 C 
HETATM    7  C7  UNL     1     -33.421  17.456  -1.217  1.00 20.00    -0.011 C 
HETATM    8  C8  UNL     1     -34.730  16.920  -0.561  1.00 20.00    -0.014 C 
HETATM    9  C9  UNL     1     -33.144  18.943  -0.967  1.00 20.00     0.010 C 
HETATM   10  C10 UNL     1     -35.137  17.638   0.725  1.00 20.00     0.010 C 
HETATM   11  N11 UNL     1     -34.880  12.769  -4.288  1.00 20.00    -0.192 NA
ENDROOT
TORSDOF 0
ENDMDL
MODEL 2
REMARK VINA RESULT:      -4.6      2.790      4.830
REMARK  0 active torsions:
REMARK  status: ('A' for Active; 'I' for Inactive)
ROOT
HETATM    1  C1  UNL     1     -32.528  18.576  -0.207  1.00 20.00     0.088 C 
HETATM    2  C2  UNL     1     -34.204  17.563  -1.610  1.00 20.00    -0.070 C 
HETATM    3  C3  UNL     1     -33.653  17.736  -0.400  1.00 20.00     0.096 C 
HETATM    4  C4  UNL     1     -33.665  18.248  -2.840  1.00 20.00     0.035 C 
HETATM    5  C5  UNL     1     -35.366  16.642  -1.847  1.00 20.00     0.039 C 
HETATM    6  C6  UNL     1     -33.966  17.462  -4.124  1.00 20.00     0.009 C 
HETATM    7  C7  UNL     1     -35.015  15.514  -2.845  1.00 20.00    -0.011 C 
HETATM    8  C8  UNL     1     -33.931  15.946  -3.880  1.00 20.00    -0.014 C 
HETATM    9  C9  UNL     1     -36.313  14.985  -3.463  1.00 20.00     0.010 C 
HETATM   10  C10 UNL     1     -33.974  15.180  -5.202  1.00 20.00     0.010 C 
HETATM   11  N11 UNL     1     -31.607  19.263  -0.041  1.00 20.00    -0.192 NA
ENDROOT
TORSDOF 0
ENDMDL
MODEL 3
REMARK VINA RESULT:      -4.5      2.817      4.744
REMARK  0 active torsions:
REMARK  status: ('A' for Active; 'I' for Inactive)
ROOT
HETATM    1  C1  UNL     1     -34.387  16.651  -1.205  1.00 20.00     0.088 C 
HETATM    2  C2  UNL     1     -34.460  15.582  -3.363  1.00 20.00    -0.070 C 
HETATM    3  C3  UNL     1     -33.795  16.296  -2.443  1.00 20.00     0.096 C 
HETATM    4  C4  UNL     1     -35.875  15.112  -3.142  1.00 20.00     0.035 C 
HETATM    5  C5  UNL     1     -33.870  15.234  -4.700  1.00 20.00     0.039 C 
HETATM    6  C6  UNL     1     -36.639  14.923  -4.461  1.00 20.00     0.009 C 
HETATM    7  C7  UNL     1     -34.701  15.818  -5.867  1.00 20.00    -0.011 C 
HETATM    8  C8  UNL     1     -36.214  15.958  -5.514  1.00 20.00    -0.014 C 
HETATM    9  C9  UNL     1     -34.413  15.000  -7.130  1.00 20.00     0.010 C 
HETATM   10  C10 UNL     1     -37.153  15.927  -6.719  1.00 20.00     0.010 C 
HETATM   11  N11 UNL     1     -34.865  16.944  -0.190  1.00 20.00    -0.192 NA
ENDROOT
TORSDOF 0
ENDMDL
MODEL 4
REMARK VINA RESULT:      -4.5      2.718      4.930
REMARK  0 active torsions:
REMARK  status: ('A' for Active; 'I' for Inactive)
ROOT
HETATM    1  C1  UNL     1     -33.854  18.095  -1.220  1.00 20.00     0.088 C 
HETATM    2  C2  UNL     1     -34.620  16.270  -2.595  1.00 20.00    -0.070 C 
HETATM    3  C3  UNL     1     -33.946  16.713  -1.524  1.00 20.00     0.096 C 
HETATM    4  C4  UNL     1     -35.321  17.209  -3.544  1.00 20.00     0.035 C 
HETATM    5  C5  UNL     1     -34.691  14.816  -2.962  1.00 20.00     0.039 C 
HETATM    6  C6  UNL     1     -35.441  16.625  -4.959  1.00 20.00     0.009 C 
HETATM    7  C7  UNL     1     -34.085  14.543  -4.359  1.00 20.00    -0.011 C 
HETATM    8  C8  UNL     1     -34.221  15.764  -5.321  1.00 20.00    -0.014 C 
HETATM    9  C9  UNL     1     -34.672  13.236  -4.901  1.00 20.00     0.010 C 
HETATM   10  C10 UNL     1     -34.229  15.405  -6.806  1.00 20.00     0.010 C 
HETATM   11  N11 UNL     1     -33.776  19.224  -0.965  1.00 20.00    -0.192 NA
ENDROOT
TORSDOF 0
ENDMDL
MODEL 5
REMARK VINA RESULT:      -4.4      1.466      2.541
REMARK  0 active torsions:
REMARK  status: ('A' for Active; 'I' for Inactive)
ROOT
HETATM    1  C1  UNL     1     -35.308  13.635  -4.417  1.00 20.00     0.088 C 
HETATM    2  C2  UNL     1     -35.746  15.630  -3.140  1.00 20.00    -0.070 C 
HETATM    3  C3  UNL     1     -36.118  14.748  -4.079  1.00 20.00     0.096 C 
HETATM    4  C4  UNL     1     -34.448  15.497  -2.385  1.00 20.00     0.035 C 
HETATM    5  C5  UNL     1     -36.565  16.842  -2.797  1.00 20.00     0.039 C 
HETATM    6  C6  UNL     1     -33.920  16.851  -1.890  1.00 20.00     0.009 C 
HETATM    7  C7  UNL     1     -35.787  18.154  -3.051  1.00 20.00    -0.011 C 
HETATM    8  C8  UNL     1     -34.246  17.981  -2.879  1.00 20.00    -0.014 C 
HETATM    9  C9  UNL     1     -36.404  19.263  -2.192  1.00 20.00     0.010 C 
HETATM   10  C10 UNL     1     -33.500  19.262  -2.508  1.00 20.00     0.010 C 
HETATM   11  N11 UNL     1     -34.651  12.721  -4.698  1.00 20.00    -0.192 NA
ENDROOT
TORSDOF 0
ENDMDL
MODEL 6
REMARK VINA RESULT:      -4.4      2.027      2.886
REMARK  0 active torsions:
REMARK  status: ('A' for Active; 'I' for Inactive)
ROOT
HETATM    1  C1  UNL     1     -35.183  14.357  -6.676  1.00 20.00     0.088 C 
HETATM    2  C2  UNL     1     -34.488  15.191  -4.526  1.00 20.00    -0.070 C 
HETATM    3  C3  UNL     1     -35.120  14.267  -5.263  1.00 20.00     0.096 C 
HETATM    4  C4  UNL     1     -33.806  16.383  -5.148  1.00 20.00     0.035 C 
HETATM    5  C5  UNL     1     -34.448  15.141  -3.025  1.00 20.00     0.039 C 
HETATM    6  C6  UNL     1     -33.740  17.582  -4.192  1.00 20.00     0.009 C 
HETATM    7  C7  UNL     1     -35.103  16.389  -2.388  1.00 20.00    -0.011 C 
HETATM    8  C8  UNL     1     -34.982  17.656  -3.291  1.00 20.00    -0.014 C 
HETATM    9  C9  UNL     1     -34.551  16.561  -0.969  1.00 20.00     0.010 C 
HETATM   10  C10 UNL     1     -35.028  18.982  -2.533  1.00 20.00     0.010 C 
HETATM   11  N11 UNL     1     -35.238  14.425  -7.833  1.00 20.00    -0.192 NA
ENDROOT
TORSDOF 0
ENDMDL
MODEL 7
REMARK VINA RESULT:      -4.4      2.555      4.807
REMARK  0 active torsions:
REMARK  status: ('A' for Active; 'I' for Inactive)
ROOT
HETATM    1  C1  UNL     1     -34.397  17.957   0.189  1.00 20.00     0.088 C 
HETATM    2  C2  UNL     1     -35.090  17.064  -1.939  1.00 20.00    -0.070 C 
HETATM    3  C3  UNL     1     -35.396  17.509  -0.712  1.00 20.00     0.096 C 
HETATM    4  C4  UNL     1     -33.669  17.009  -2.439  1.00 20.00     0.035 C 
HETATM    5  C5  UNL     1     -36.125  16.541  -2.893  1.00 20.00     0.039 C 
HETATM    6  C6  UNL     1     -33.468  15.925  -3.507  1.00 20.00     0.009 C 
HETATM    7  C7  UNL     1     -35.864  15.066  -3.277  1.00 20.00    -0.011 C 
HETATM    8  C8  UNL     1     -34.349  14.695  -3.238  1.00 20.00    -0.014 C 
HETATM    9  C9  UNL     1     -36.558  14.778  -4.613  1.00 20.00     0.010 C 
HETATM   10  C10 UNL     1     -33.956  13.533  -4.148  1.00 20.00     0.010 C 
HETATM   11  N11 UNL     1     -33.585  18.325   0.931  1.00 20.00    -0.192 NA
ENDROOT
TORSDOF 0
ENDMDL
MODEL 8
REMARK VINA RESULT:      -4.2      3.934      5.994
REMARK  0 active torsions:
REMARK  status: ('A' for Active; 'I' for Inactive)
ROOT
HETATM    1  C1  UNL     1     -31.484  18.987   3.266  1.00 20.00     0.088 C 
HETATM    2  C2  UNL     1     -33.290  19.074   1.674  1.00 20.00    -0.070 C 
HETATM    3  C3  UNL     1     -32.864  18.991   2.943  1.00 20.00     0.096 C 
HETATM    4  C4  UNL     1     -32.333  19.169   0.513  1.00 20.00     0.035 C 
HETATM    5  C5  UNL     1     -34.745  19.033   1.304  1.00 20.00     0.039 C 
HETATM    6  C6  UNL     1     -32.934  18.610  -0.784  1.00 20.00     0.009 C 
HETATM    7  C7  UNL     1     -35.072  17.834   0.382  1.00 20.00    -0.011 C 
HETATM    8  C8  UNL     1     -33.862  17.417  -0.509  1.00 20.00    -0.014 C 
HETATM    9  C9  UNL     1     -36.357  18.148  -0.391  1.00 20.00     0.010 C 
HETATM   10  C10 UNL     1     -34.245  16.713  -1.811  1.00 20.00     0.010 C 
HETATM   11  N11 UNL     1     -30.356  18.985   3.539  1.00 20.00    -0.192 NA
ENDROOT
TORSDOF 0
ENDMDL
MODEL 9
REMARK VINA RESULT:      -4.1     12.698     14.432
REMARK  0 active torsions:
REMARK  status: ('A' for Active; 'I' for Inactive)
ROOT
HETATM    1  C1  UNL     1     -42.853   1.565  -3.340  1.00 20.00     0.088 C 
HETATM    2  C2  UNL     1     -42.997   3.862  -2.627  1.00 20.00    -0.070 C 
HETATM    3  C3  UNL     1     -42.916   2.954  -3.612  1.00 20.00     0.096 C 
HETATM    4  C4  UNL     1     -43.024   3.465  -1.173  1.00 20.00     0.035 C 
HETATM    5  C5  UNL     1     -43.018   5.340  -2.889  1.00 20.00     0.039 C 
HETATM    6  C6  UNL     1     -42.471   4.566  -0.258  1.00 20.00     0.009 C 
HETATM    7  C7  UNL     1     -41.820   6.060  -2.227  1.00 20.00    -0.011 C 
HETATM    8  C8  UNL     1     -41.328   5.341  -0.933  1.00 20.00    -0.014 C 
HETATM    9  C9  UNL     1     -42.180   7.538  -2.038  1.00 20.00     0.010 C 
HETATM   10  C10 UNL     1     -40.620   6.251   0.070  1.00 20.00     0.010 C 
HETATM   11  N11 UNL     1     -42.802   0.426  -3.125  1.00 20.00    -0.192 NA
ENDROOT
TORSDOF 0
ENDMDL
