MODEL 1
REMARK VINA RESULT:      -5.0      0.000      0.000
REMARK  3 active torsions:
REMARK  status: ('A' for Active; 'I' for Inactive)
REMARK    1  A    between atoms: C1_1  and  C12_12 
REMARK    2  A    between atoms: C5_5  and  C11_11 
REMARK    3  A    between atoms: C11_11  and  C12_12 
ROOT
HETATM    1  C2  UNL     1     -35.421  17.645  -0.739  1.00 20.00     0.005 C 
HETATM    2  C3  UNL     1     -35.482  17.911   0.768  1.00 20.00     0.005 C 
HETATM    3  C4  UNL     1     -32.918  17.967  -0.819  1.00 20.00     0.009 C 
HETATM    4  C5  UNL     1     -34.088  17.026  -1.151  1.00 20.00    -0.013 C 
HETATM    5  C6  UNL     1     -34.107  18.166   1.418  1.00 20.00    -0.015 C 
HETATM    6  C7  UNL     1     -33.158  18.859   0.419  1.00 20.00    -0.015 C 
HETATM    7  C8  UNL     1     -34.297  18.940   2.725  1.00 20.00     0.010 C 
HETATM    8  C9  UNL     1     -31.813  19.263   1.026  1.00 20.00     0.010 C 
ENDROOT
BRANCH   4   9
HETATM    9  C11 UNL     1     -34.084  16.654  -2.633  1.00 20.00     0.015 C 
BRANCH   9  10
HETATM   10  C12 UNL     1     -34.457  15.188  -2.867  1.00 20.00     0.043 C 
HETATM   11  C10 UNL     1     -35.846  15.083  -3.494  1.00 20.00     0.017 C 
BRANCH  10  12
HETATM   12  C1  UNL     1     -33.483  14.464  -3.781  1.00 20.00     0.235 C 
HETATM   13  O13 UNL     1     -33.290  13.252  -3.782  1.00 20.00    -0.306 OA
ENDBRANCH  10  12
ENDBRANCH   9  10
ENDBRANCH   4   9
TORSDOF 3
ENDMDL
MODEL 2
REMARK VINA RESULT:      -5.0     10.441     11.430
REMARK  3 active torsions:
REMARK  status: ('A' for Active; 'I' for Inactive)
REMARK    1  A    between atoms: C1_1  and  C12_12 
REMARK    2  A    between atoms: C5_5  and  C11_11 
REMARK    3  A    between atoms: C11_11  and  C12_12 
ROOT
HETATM    1  C2  UNL     1     -33.642   6.200   2.465  1.00 20.00     0.005 C 
HETATM    2  C3  UNL     1     -34.338   5.041   3.184  1.00 20.00     0.005 C 
HETATM    3  C4  UNL     1     -32.790   7.192   4.625  1.00 20.00     0.009 C 
HETATM    4  C5  UNL     1     -32.408   6.680   3.226  1.00 20.00    -0.013 C 
HETATM    5  C6  UNL     1     -34.141   5.041   4.714  1.00 20.00    -0.015 C 
HETATM    6  C7  UNL     1     -34.016   6.485   5.242  1.00 20.00    -0.015 C 
HETATM    7  C8  UNL     1     -35.266   4.238   5.372  1.00 20.00     0.010 C 
HETATM    8  C9  UNL     1     -33.947   6.578   6.768  1.00 20.00     0.010 C 
ENDROOT
BRANCH   4   9
HETATM    9  C11 UNL     1     -31.655   7.752   2.441  1.00 20.00     0.015 C 
BRANCH   9  10
HETATM   10  C12 UNL     1     -32.590   8.621   1.595  1.00 20.00     0.043 C 
HETATM   11  C10 UNL     1     -32.689  10.028   2.183  1.00 20.00     0.017 C 
BRANCH  10  12
HETATM   12  C1  UNL     1     -32.137   8.754   0.152  1.00 20.00     0.235 C 
HETATM   13  O13 UNL     1     -32.887   8.824  -0.817  1.00 20.00    -0.306 OA
ENDBRANCH  10  12
ENDBRANCH   9  10
ENDBRANCH   4   9
TORSDOF 3
ENDMDL
MODEL 3
REMARK VINA RESULT:      -5.0      2.547      5.774
REMARK  3 active torsions:
REMARK  status: ('A' for Active; 'I' for Inactive)
REMARK    1  A    between atoms: C1_1  and  C12_12 
REMARK    2  A    between atoms: C5_5  and  C11_11 
REMARK    3  A    between atoms: C11_11  and  C12_12 
ROOT
HETATM    1  C2  UNL     1     -33.279  15.926  -2.808  1.00 20.00     0.005 C 
HETATM    2  C3  UNL     1     -33.347  14.646  -3.645  1.00 20.00     0.005 C 
HETATM    3  C4  UNL     1     -35.775  15.961  -2.432  1.00 20.00     0.009 C 
HETATM    4  C5  UNL     1     -34.390  15.980  -1.763  1.00 20.00    -0.013 C 
HETATM    5  C6  UNL     1     -34.766  14.055  -3.778  1.00 20.00    -0.015 C 
HETATM    6  C7  UNL     1     -35.821  15.181  -3.764  1.00 20.00    -0.015 C 
HETATM    7  C8  UNL     1     -34.833  13.163  -5.019  1.00 20.00     0.010 C 
HETATM    8  C9  UNL     1     -37.248  14.690  -4.020  1.00 20.00     0.010 C 
ENDROOT
BRANCH   4   9
HETATM    9  C11 UNL     1     -34.241  17.201  -0.857  1.00 20.00     0.015 C 
BRANCH   9  10
HETATM   10  C12 UNL     1     -33.570  18.378  -1.570  1.00 20.00     0.043 C 
HETATM   11  C10 UNL     1     -34.618  19.261  -2.245  1.00 20.00     0.017 C 
BRANCH  10  12
HETATM   12  C1  UNL     1     -32.758  19.257  -0.635  1.00 20.00     0.235 C 
HETATM   13  O13 UNL     1     -31.592  19.051  -0.313  1.00 20.00    -0.306 OA
ENDBRANCH  10  12
ENDBRANCH   9  10
ENDBRANCH   4   9
TORSDOF 3
ENDMDL
MODEL 4
REMARK VINA RESULT:      -4.9      2.520      5.988
REMARK  3 active torsions:
REMARK  status: ('A' for Active; 'I' for Inactive)
REMARK    1  A    between atoms: C1_1  and  C12_12 
REMARK    2  A    between atoms: C5_5  and  C11_11 
REMARK    3  A    between atoms: C11_11  and  C12_12 
ROOT
HETATM    1  C2  UNL     1     -33.277  16.145  -2.932  1.00 20.00     0.005 C 
HETATM    2  C3  UNL     1     -33.305  14.775  -3.615  1.00 20.00     0.005 C 
HETATM    3  C4  UNL     1     -35.771  16.140  -2.541  1.00 20.00     0.009 C 
HETATM    4  C5  UNL     1     -34.385  16.283  -1.891  1.00 20.00    -0.013 C 
HETATM    5  C6  UNL     1     -34.704  14.127  -3.667  1.00 20.00    -0.015 C 
HETATM    6  C7  UNL     1     -35.797  15.210  -3.774  1.00 20.00    -0.015 C 
HETATM    7  C8  UNL     1     -34.746  13.095  -4.796  1.00 20.00     0.010 C 
HETATM    8  C9  UNL     1     -37.207  14.646  -3.959  1.00 20.00     0.010 C 
ENDROOT
BRANCH   4   9
HETATM    9  C11 UNL     1     -34.272  17.604  -1.133  1.00 20.00     0.015 C 
BRANCH   9  10
HETATM   10  C12 UNL     1     -34.849  17.515   0.283  1.00 20.00     0.043 C 
HETATM   11  C10 UNL     1     -33.933  18.223   1.279  1.00 20.00     0.017 C 
BRANCH  10  12
HETATM   12  C1  UNL     1     -36.230  18.134   0.404  1.00 20.00     0.235 C 
HETATM   13  O13 UNL     1     -36.869  18.229   1.448  1.00 20.00    -0.306 OA
ENDBRANCH  10  12
ENDBRANCH   9  10
ENDBRANCH   4   9
TORSDOF 3
ENDMDL
MODEL 5
REMARK VINA RESULT:      -4.7      2.358      3.596
REMARK  3 active torsions:
REMARK  status: ('A' for Active; 'I' for Inactive)
REMARK    1  A    between atoms: C1_1  and  C12_12 
REMARK    2  A    between atoms: C5_5  and  C11_11 
REMARK    3  A    between atoms: C11_11  and  C12_12 
ROOT
HETATM    1  C2  UNL     1     -34.172  15.789  -2.279  1.00 20.00     0.005 C 
HETATM    2  C3  UNL     1     -34.645  16.672  -1.121  1.00 20.00     0.005 C 
HETATM    3  C4  UNL     1     -35.489  17.105  -3.984  1.00 20.00     0.009 C 
HETATM    4  C5  UNL     1     -34.103  16.565  -3.592  1.00 20.00    -0.013 C 
HETATM    5  C6  UNL     1     -35.559  17.838  -1.551  1.00 20.00    -0.015 C 
HETATM    6  C7  UNL     1     -36.399  17.438  -2.782  1.00 20.00    -0.015 C 
HETATM    7  C8  UNL     1     -36.397  18.297  -0.355  1.00 20.00     0.010 C 
HETATM    8  C9  UNL     1     -37.426  18.495  -3.195  1.00 20.00     0.010 C 
ENDROOT
BRANCH   4   9
HETATM    9  C11 UNL     1     -33.517  15.708  -4.712  1.00 20.00     0.015 C 
BRANCH   9  10
HETATM   10  C12 UNL     1     -34.570  14.820  -5.380  1.00 20.00     0.043 C 
HETATM   11  C10 UNL     1     -34.485  14.940  -6.901  1.00 20.00     0.017 C 
BRANCH  10  12
HETATM   12  C1  UNL     1     -34.423  13.351  -5.024  1.00 20.00     0.235 C 
HETATM   13  O13 UNL     1     -35.193  12.722  -4.304  1.00 20.00    -0.306 OA
ENDBRANCH  10  12
ENDBRANCH   9  10
ENDBRANCH   4   9
TORSDOF 3
ENDMDL
MODEL 6
REMARK VINA RESULT:      -4.7      2.385      5.844
REMARK  3 active torsions:
REMARK  status: ('A' for Active; 'I' for Inactive)
REMARK    1  A    between atoms: C1_1  and  C12_12 
REMARK    2  A    between atoms: C5_5  and  C11_11 
REMARK    3  A    between atoms: C11_11  and  C12_12 
ROOT
HETATM    1  C2  UNL     1     -34.026  17.597  -3.993  1.00 20.00     0.005 C 
HETATM    2  C3  UNL     1     -33.854  16.930  -5.360  1.00 20.00     0.005 C 
HETATM    3  C4  UNL     1     -34.555  15.408  -2.852  1.00 20.00     0.009 C 
HETATM    4  C5  UNL     1     -33.655  16.655  -2.851  1.00 20.00    -0.013 C 
HETATM    5  C6  UNL     1     -34.024  15.397  -5.338  1.00 20.00    -0.015 C 
HETATM    6  C7  UNL     1     -35.042  14.983  -4.255  1.00 20.00    -0.015 C 
HETATM    7  C8  UNL     1     -34.383  14.904  -6.742  1.00 20.00     0.010 C 
HETATM    8  C9  UNL     1     -35.365  13.488  -4.253  1.00 20.00     0.010 C 
ENDROOT
BRANCH   4   9
HETATM    9  C11 UNL     1     -33.714  17.367  -1.501  1.00 20.00     0.015 C 
BRANCH   9  10
HETATM   10  C12 UNL     1     -35.069  17.193  -0.809  1.00 20.00     0.043 C 
HETATM   11  C10 UNL     1     -34.923  17.353   0.703  1.00 20.00     0.017 C 
BRANCH  10  12
HETATM   12  C1  UNL     1     -36.111  18.193  -1.280  1.00 20.00     0.235 C 
HETATM   13  O13 UNL     1     -37.033  17.938  -2.049  1.00 20.00    -0.306 OA
ENDBRANCH  10  12
ENDBRANCH   9  10
ENDBRANCH   4   9
TORSDOF 3
ENDMDL
MODEL 7
REMARK VINA RESULT:      -4.7     13.008     15.501
REMARK  3 active torsions:
REMARK  status: ('A' for Active; 'I' for Inactive)
REMARK    1  A    between atoms: C1_1  and  C12_12 
REMARK    2  A    between atoms: C5_5  and  C11_11 
REMARK    3  A    between atoms: C11_11  and  C12_12 
ROOT
HETATM    1  C2  UNL     1     -42.228   4.012  -0.800  1.00 20.00     0.005 C 
HETATM    2  C3  UNL     1     -41.499   5.292  -0.386  1.00 20.00     0.005 C 
HETATM    3  C4  UNL     1     -42.713   4.888  -3.118  1.00 20.00     0.009 C 
HETATM    4  C5  UNL     1     -42.096   3.743  -2.297  1.00 20.00    -0.013 C 
HETATM    5  C6  UNL     1     -41.396   6.348  -1.507  1.00 20.00    -0.015 C 
HETATM    6  C7  UNL     1     -42.626   6.271  -2.434  1.00 20.00    -0.015 C 
HETATM    7  C8  UNL     1     -41.178   7.730  -0.886  1.00 20.00     0.010 C 
HETATM    8  C9  UNL     1     -42.665   7.370  -3.498  1.00 20.00     0.010 C 
ENDROOT
BRANCH   4   9
HETATM    9  C11 UNL     1     -42.723   2.403  -2.678  1.00 20.00     0.015 C 
BRANCH   9  10
HETATM   10  C12 UNL     1     -42.253   1.907  -4.048  1.00 20.00     0.043 C 
HETATM   11  C10 UNL     1     -41.628   0.518  -3.928  1.00 20.00     0.017 C 
BRANCH  10  12
HETATM   12  C1  UNL     1     -43.374   1.823  -5.069  1.00 20.00     0.235 C 
HETATM   13  O13 UNL     1     -43.218   1.814  -6.286  1.00 20.00    -0.306 OA
ENDBRANCH  10  12
ENDBRANCH   9  10
ENDBRANCH   4   9
TORSDOF 3
ENDMDL
MODEL 8
REMARK VINA RESULT:      -4.7      2.386      5.832
REMARK  3 active torsions:
REMARK  status: ('A' for Active; 'I' for Inactive)
REMARK    1  A    between atoms: C1_1  and  C12_12 
REMARK    2  A    between atoms: C5_5  and  C11_11 
REMARK    3  A    between atoms: C11_11  and  C12_12 
ROOT
HETATM    1  C2  UNL     1     -35.031  17.383  -3.332  1.00 20.00     0.005 C 
HETATM    2  C3  UNL     1     -34.681  17.308  -4.820  1.00 20.00     0.005 C 
HETATM    3  C4  UNL     1     -34.420  14.965  -2.939  1.00 20.00     0.009 C 
HETATM    4  C5  UNL     1     -34.186  16.421  -2.501  1.00 20.00    -0.013 C 
HETATM    5  C6  UNL     1     -34.135  15.937  -5.270  1.00 20.00    -0.015 C 
HETATM    6  C7  UNL     1     -34.768  14.804  -4.435  1.00 20.00    -0.015 C 
HETATM    7  C8  UNL     1     -34.339  15.777  -6.779  1.00 20.00     0.010 C 
HETATM    8  C9  UNL     1     -34.376  13.402  -4.904  1.00 20.00     0.010 C 
ENDROOT
BRANCH   4   9
HETATM    9  C11 UNL     1     -34.458  16.590  -1.008  1.00 20.00     0.015 C 
BRANCH   9  10
HETATM   10  C12 UNL     1     -34.630  18.059  -0.610  1.00 20.00     0.043 C 
HETATM   11  C10 UNL     1     -35.441  18.172   0.680  1.00 20.00     0.017 C 
BRANCH  10  12
HETATM   12  C1  UNL     1     -33.309  18.774  -0.388  1.00 20.00     0.235 C 
HETATM   13  O13 UNL     1     -32.616  19.262  -1.276  1.00 20.00    -0.306 OA
ENDBRANCH  10  12
ENDBRANCH   9  10
ENDBRANCH   4   9
TORSDOF 3
ENDMDL
MODEL 9
REMARK VINA RESULT:      -4.7      2.900      6.270
REMARK  3 active torsions:
REMARK  status: ('A' for Active; 'I' for Inactive)
REMARK    1  A    between atoms: C1_1  and  C12_12 
REMARK    2  A    between atoms: C5_5  and  C11_11 
REMARK    3  A    between atoms: C11_11  and  C12_12 
ROOT
HETATM    1  C2  UNL     1     -33.740  14.597  -3.948  1.00 20.00     0.005 C 
HETATM    2  C3  UNL     1     -34.465  14.014  -5.163  1.00 20.00     0.005 C 
HETATM    3  C4  UNL     1     -34.032  16.972  -4.756  1.00 20.00     0.009 C 
HETATM    4  C5  UNL     1     -34.256  15.990  -3.593  1.00 20.00    -0.013 C 
HETATM    5  C6  UNL     1     -35.001  15.076  -6.146  1.00 20.00    -0.015 C 
HETATM    6  C7  UNL     1     -34.082  16.316  -6.154  1.00 20.00    -0.015 C 
HETATM    7  C8  UNL     1     -35.193  14.443  -7.526  1.00 20.00     0.010 C 
HETATM    8  C9  UNL     1     -34.472  17.364  -7.197  1.00 20.00     0.010 C 
ENDROOT
BRANCH   4   9
HETATM    9  C11 UNL     1     -33.612  16.511  -2.310  1.00 20.00     0.015 C 
BRANCH   9  10
HETATM   10  C12 UNL     1     -34.494  17.533  -1.588  1.00 20.00     0.043 C 
HETATM   11  C10 UNL     1     -34.739  17.102  -0.143  1.00 20.00     0.017 C 
BRANCH  10  12
HETATM   12  C1  UNL     1     -33.889  18.926  -1.558  1.00 20.00     0.235 C 
HETATM   13  O13 UNL     1     -32.694  19.171  -1.428  1.00 20.00    -0.306 OA
ENDBRANCH  10  12
ENDBRANCH   9  10
ENDBRANCH   4   9
TORSDOF 3
ENDMDL
