MODEL 1
REMARK VINA RESULT:      -5.0      0.000      0.000
REMARK  5 active torsions:
REMARK  status: ('A' for Active; 'I' for Inactive)
REMARK    1  A    between atoms: C6_6  and  C7_7 
REMARK    2  A    between atoms: C7_7  and  C10_10 
REMARK    3  A    between atoms: C8_8  and  C9_9 
REMARK    4  A    between atoms: C8_8  and  C10_10 
REMARK    5  A    between atoms: C9_9  and  O11_11 
ROOT
HETATM    1  C1  UNL     1     -34.717  17.726   0.767  1.00 20.00     0.012 C 
HETATM    2  C2  UNL     1     -34.744  17.058  -0.231  1.00 20.00    -0.117 C 
HETATM    3  C6  UNL     1     -34.780  16.238  -1.452  1.00 20.00     0.093 C 
ENDROOT
BRANCH   3   4
HETATM    4  C7  UNL     1     -33.637  16.622  -2.402  1.00 20.00     0.021 C 
BRANCH   4   5
HETATM    5  C10 UNL     1     -33.505  15.760  -3.690  1.00 20.00    -0.045 C 
HETATM    6  C4  UNL     1     -32.301  14.797  -3.572  1.00 20.00     0.015 C 
HETATM    7  C5  UNL     1     -33.276  16.657  -4.919  1.00 20.00     0.015 C 
BRANCH   5   8
HETATM    8  C8  UNL     1     -34.779  14.869  -3.867  1.00 20.00     0.040 C 
BRANCH   8   9
HETATM    9  C9  UNL     1     -34.657  13.624  -4.759  1.00 20.00     0.114 C 
HETATM   10  C3  UNL     1     -35.214  13.903  -6.152  1.00 20.00     0.039 C 
BRANCH   9  11
HETATM   11  O11 UNL     1     -35.400  12.549  -4.195  1.00 20.00    -0.396 OA
HETATM   12  H29 UNL     1     -35.504  12.747  -3.251  1.00 20.00     0.210 HD
ENDBRANCH   9  11
ENDBRANCH   8   9
ENDBRANCH   5   8
ENDBRANCH   4   5
ENDBRANCH   3   4
TORSDOF 5
ENDMDL
MODEL 2
REMARK VINA RESULT:      -4.6      1.184      1.190
REMARK  5 active torsions:
REMARK  status: ('A' for Active; 'I' for Inactive)
REMARK    1  A    between atoms: C6_6  and  C7_7 
REMARK    2  A    between atoms: C7_7  and  C10_10 
REMARK    3  A    between atoms: C8_8  and  C9_9 
REMARK    4  A    between atoms: C8_8  and  C10_10 
REMARK    5  A    between atoms: C9_9  and  O11_11 
ROOT
HETATM    1  C1  UNL     1     -32.421  18.761   0.021  1.00 20.00     0.012 C 
HETATM    2  C2  UNL     1     -33.273  18.305  -0.691  1.00 20.00    -0.117 C 
HETATM    3  C6  UNL     1     -34.321  17.749  -1.563  1.00 20.00     0.093 C 
ENDROOT
BRANCH   3   4
HETATM    4  C7  UNL     1     -34.087  16.252  -1.811  1.00 20.00     0.021 C 
BRANCH   4   5
HETATM    5  C10 UNL     1     -33.887  15.833  -3.296  1.00 20.00    -0.045 C 
HETATM    6  C4  UNL     1     -32.576  15.030  -3.456  1.00 20.00     0.015 C 
HETATM    7  C5  UNL     1     -33.796  17.075  -4.200  1.00 20.00     0.015 C 
BRANCH   5   8
HETATM    8  C8  UNL     1     -35.052  14.890  -3.744  1.00 20.00     0.040 C 
BRANCH   8   9
HETATM    9  C9  UNL     1     -34.690  13.682  -4.623  1.00 20.00     0.114 C 
HETATM   10  C3  UNL     1     -35.079  13.938  -6.076  1.00 20.00     0.039 C 
BRANCH   9  11
HETATM   11  O11 UNL     1     -35.394  12.529  -4.175  1.00 20.00    -0.396 OA
HETATM   12  H29 UNL     1     -34.807  11.770  -4.320  1.00 20.00     0.210 HD
ENDBRANCH   9  11
ENDBRANCH   8   9
ENDBRANCH   5   8
ENDBRANCH   4   5
ENDBRANCH   3   4
TORSDOF 5
ENDMDL
MODEL 3
REMARK VINA RESULT:      -4.5      1.670      2.259
REMARK  5 active torsions:
REMARK  status: ('A' for Active; 'I' for Inactive)
REMARK    1  A    between atoms: C6_6  and  C7_7 
REMARK    2  A    between atoms: C7_7  and  C10_10 
REMARK    3  A    between atoms: C8_8  and  C9_9 
REMARK    4  A    between atoms: C8_8  and  C10_10 
REMARK    5  A    between atoms: C9_9  and  O11_11 
ROOT
HETATM    1  C1  UNL     1     -35.146  17.390   0.670  1.00 20.00     0.012 C 
HETATM    2  C2  UNL     1     -34.635  17.036  -0.357  1.00 20.00    -0.117 C 
HETATM    3  C6  UNL     1     -34.006  16.605  -1.616  1.00 20.00     0.093 C 
ENDROOT
BRANCH   3   4
HETATM    4  C7  UNL     1     -34.987  15.783  -2.464  1.00 20.00     0.021 C 
BRANCH   4   5
HETATM    5  C10 UNL     1     -34.391  15.113  -3.734  1.00 20.00    -0.045 C 
HETATM    6  C4  UNL     1     -34.810  13.627  -3.805  1.00 20.00     0.015 C 
HETATM    7  C5  UNL     1     -32.853  15.171  -3.704  1.00 20.00     0.015 C 
BRANCH   5   8
HETATM    8  C8  UNL     1     -34.960  15.804  -5.017  1.00 20.00     0.040 C 
BRANCH   8   9
HETATM    9  C9  UNL     1     -33.979  16.086  -6.167  1.00 20.00     0.114 C 
HETATM   10  C3  UNL     1     -34.427  17.303  -6.970  1.00 20.00     0.039 C 
BRANCH   9  11
HETATM   11  O11 UNL     1     -33.931  14.969  -7.048  1.00 20.00    -0.396 OA
HETATM   12  H29 UNL     1     -33.870  15.327  -7.948  1.00 20.00     0.210 HD
ENDBRANCH   9  11
ENDBRANCH   8   9
ENDBRANCH   5   8
ENDBRANCH   4   5
ENDBRANCH   3   4
TORSDOF 5
ENDMDL
MODEL 4
REMARK VINA RESULT:      -4.5      1.316      1.920
REMARK  5 active torsions:
REMARK  status: ('A' for Active; 'I' for Inactive)
REMARK    1  A    between atoms: C6_6  and  C7_7 
REMARK    2  A    between atoms: C7_7  and  C10_10 
REMARK    3  A    between atoms: C8_8  and  C9_9 
REMARK    4  A    between atoms: C8_8  and  C10_10 
REMARK    5  A    between atoms: C9_9  and  O11_11 
ROOT
HETATM    1  C1  UNL     1     -34.783  17.032  -0.039  1.00 20.00     0.012 C 
HETATM    2  C2  UNL     1     -34.439  16.993  -1.188  1.00 20.00    -0.117 C 
HETATM    3  C6  UNL     1     -34.013  16.948  -2.597  1.00 20.00     0.093 C 
ENDROOT
BRANCH   3   4
HETATM    4  C7  UNL     1     -35.174  16.516  -3.504  1.00 20.00     0.021 C 
BRANCH   4   5
HETATM    5  C10 UNL     1     -34.804  16.219  -4.985  1.00 20.00    -0.045 C 
HETATM    6  C4  UNL     1     -33.406  16.789  -5.315  1.00 20.00     0.015 C 
HETATM    7  C5  UNL     1     -35.820  16.875  -5.937  1.00 20.00     0.015 C 
BRANCH   5   8
HETATM    8  C8  UNL     1     -34.728  14.674  -5.215  1.00 20.00     0.040 C 
BRANCH   8   9
HETATM    9  C9  UNL     1     -34.650  13.774  -3.972  1.00 20.00     0.114 C 
HETATM   10  C3  UNL     1     -33.200  13.417  -3.655  1.00 20.00     0.039 C 
BRANCH   9  11
HETATM   11  O11 UNL     1     -35.360  12.563  -4.204  1.00 20.00    -0.396 OA
HETATM   12  H29 UNL     1     -35.770  12.644  -5.081  1.00 20.00     0.210 HD
ENDBRANCH   9  11
ENDBRANCH   8   9
ENDBRANCH   5   8
ENDBRANCH   4   5
ENDBRANCH   3   4
TORSDOF 5
ENDMDL
MODEL 5
REMARK VINA RESULT:      -4.4      1.361      3.655
REMARK  5 active torsions:
REMARK  status: ('A' for Active; 'I' for Inactive)
REMARK    1  A    between atoms: C6_6  and  C7_7 
REMARK    2  A    between atoms: C7_7  and  C10_10 
REMARK    3  A    between atoms: C8_8  and  C9_9 
REMARK    4  A    between atoms: C8_8  and  C10_10 
REMARK    5  A    between atoms: C9_9  and  O11_11 
ROOT
HETATM    1  C1  UNL     1     -34.738  17.077  -7.583  1.00 20.00     0.012 C 
HETATM    2  C2  UNL     1     -34.298  17.350  -6.499  1.00 20.00    -0.117 C 
HETATM    3  C6  UNL     1     -33.756  17.685  -5.173  1.00 20.00     0.093 C 
ENDROOT
BRANCH   3   4
HETATM    4  C7  UNL     1     -34.749  17.303  -4.065  1.00 20.00     0.021 C 
BRANCH   4   5
HETATM    5  C10 UNL     1     -34.404  16.019  -3.258  1.00 20.00    -0.045 C 
HETATM    6  C4  UNL     1     -34.580  16.272  -1.744  1.00 20.00     0.015 C 
HETATM    7  C5  UNL     1     -32.943  15.603  -3.503  1.00 20.00     0.015 C 
BRANCH   5   8
HETATM    8  C8  UNL     1     -35.393  14.869  -3.641  1.00 20.00     0.040 C 
BRANCH   8   9
HETATM    9  C9  UNL     1     -34.822  13.668  -4.413  1.00 20.00     0.114 C 
HETATM   10  C3  UNL     1     -35.094  13.810  -5.908  1.00 20.00     0.039 C 
BRANCH   9  11
HETATM   11  O11 UNL     1     -35.439  12.466  -3.965  1.00 20.00    -0.396 OA
HETATM   12  H29 UNL     1     -35.159  12.335  -3.045  1.00 20.00     0.210 HD
ENDBRANCH   9  11
ENDBRANCH   8   9
ENDBRANCH   5   8
ENDBRANCH   4   5
ENDBRANCH   3   4
TORSDOF 5
ENDMDL
MODEL 6
REMARK VINA RESULT:      -4.3      1.998      2.469
REMARK  5 active torsions:
REMARK  status: ('A' for Active; 'I' for Inactive)
REMARK    1  A    between atoms: C6_6  and  C7_7 
REMARK    2  A    between atoms: C7_7  and  C10_10 
REMARK    3  A    between atoms: C8_8  and  C9_9 
REMARK    4  A    between atoms: C8_8  and  C10_10 
REMARK    5  A    between atoms: C9_9  and  O11_11 
ROOT
HETATM    1  C1  UNL     1     -34.815  17.045  -0.199  1.00 20.00     0.012 C 
HETATM    2  C2  UNL     1     -34.345  16.697  -1.248  1.00 20.00    -0.117 C 
HETATM    3  C6  UNL     1     -33.768  16.274  -2.534  1.00 20.00     0.093 C 
ENDROOT
BRANCH   3   4
HETATM    4  C7  UNL     1     -34.440  14.989  -3.037  1.00 20.00     0.021 C 
BRANCH   4   5
HETATM    5  C10 UNL     1     -34.943  15.017  -4.509  1.00 20.00    -0.045 C 
HETATM    6  C4  UNL     1     -35.067  13.579  -5.063  1.00 20.00     0.015 C 
HETATM    7  C5  UNL     1     -33.955  15.787  -5.403  1.00 20.00     0.015 C 
BRANCH   5   8
HETATM    8  C8  UNL     1     -36.373  15.649  -4.570  1.00 20.00     0.040 C 
BRANCH   8   9
HETATM    9  C9  UNL     1     -37.568  14.733  -4.261  1.00 20.00     0.114 C 
HETATM   10  C3  UNL     1     -38.751  15.069  -5.165  1.00 20.00     0.039 C 
BRANCH   9  11
HETATM   11  O11 UNL     1     -37.980  14.912  -2.911  1.00 20.00    -0.396 OA
HETATM   12  H29 UNL     1     -38.943  15.035  -2.927  1.00 20.00     0.210 HD
ENDBRANCH   9  11
ENDBRANCH   8   9
ENDBRANCH   5   8
ENDBRANCH   4   5
ENDBRANCH   3   4
TORSDOF 5
ENDMDL
MODEL 7
REMARK VINA RESULT:      -4.2     10.610     11.263
REMARK  5 active torsions:
REMARK  status: ('A' for Active; 'I' for Inactive)
REMARK    1  A    between atoms: C6_6  and  C7_7 
REMARK    2  A    between atoms: C7_7  and  C10_10 
REMARK    3  A    between atoms: C8_8  and  C9_9 
REMARK    4  A    between atoms: C8_8  and  C10_10 
REMARK    5  A    between atoms: C9_9  and  O11_11 
ROOT
HETATM    1  C1  UNL     1     -35.166   4.223   6.185  1.00 20.00     0.012 C 
HETATM    2  C2  UNL     1     -34.973   4.821   5.162  1.00 20.00    -0.117 C 
HETATM    3  C6  UNL     1     -34.738   5.551   3.906  1.00 20.00     0.093 C 
ENDROOT
BRANCH   3   4
HETATM    4  C7  UNL     1     -33.853   6.782   4.147  1.00 20.00     0.021 C 
BRANCH   4   5
HETATM    5  C10 UNL     1     -32.548   6.856   3.305  1.00 20.00    -0.045 C 
HETATM    6  C4  UNL     1     -32.054   5.434   2.952  1.00 20.00     0.015 C 
HETATM    7  C5  UNL     1     -31.433   7.562   4.097  1.00 20.00     0.015 C 
BRANCH   5   8
HETATM    8  C8  UNL     1     -32.830   7.585   1.950  1.00 20.00     0.040 C 
BRANCH   8   9
HETATM    9  C9  UNL     1     -31.873   8.716   1.539  1.00 20.00     0.114 C 
HETATM   10  C3  UNL     1     -32.595  10.061   1.547  1.00 20.00     0.039 C 
BRANCH   9  11
HETATM   11  O11 UNL     1     -31.387   8.485   0.221  1.00 20.00    -0.396 OA
HETATM   12  H29 UNL     1     -31.604   9.274  -0.299  1.00 20.00     0.210 HD
ENDBRANCH   9  11
ENDBRANCH   8   9
ENDBRANCH   5   8
ENDBRANCH   4   5
ENDBRANCH   3   4
TORSDOF 5
ENDMDL
MODEL 8
REMARK VINA RESULT:      -4.2      2.064      4.030
REMARK  5 active torsions:
REMARK  status: ('A' for Active; 'I' for Inactive)
REMARK    1  A    between atoms: C6_6  and  C7_7 
REMARK    2  A    between atoms: C7_7  and  C10_10 
REMARK    3  A    between atoms: C8_8  and  C9_9 
REMARK    4  A    between atoms: C8_8  and  C10_10 
REMARK    5  A    between atoms: C9_9  and  O11_11 
ROOT
HETATM    1  C1  UNL     1     -34.712  16.553  -7.250  1.00 20.00     0.012 C 
HETATM    2  C2  UNL     1     -34.048  16.469  -6.253  1.00 20.00    -0.117 C 
HETATM    3  C6  UNL     1     -33.233  16.363  -5.032  1.00 20.00     0.093 C 
ENDROOT
BRANCH   3   4
HETATM    4  C7  UNL     1     -33.957  16.995  -3.835  1.00 20.00     0.021 C 
BRANCH   4   5
HETATM    5  C10 UNL     1     -34.774  16.018  -2.942  1.00 20.00    -0.045 C 
HETATM    6  C4  UNL     1     -34.549  16.340  -1.447  1.00 20.00     0.015 C 
HETATM    7  C5  UNL     1     -34.330  14.565  -3.186  1.00 20.00     0.015 C 
BRANCH   5   8
HETATM    8  C8  UNL     1     -36.303  16.198  -3.218  1.00 20.00     0.040 C 
BRANCH   8   9
HETATM    9  C9  UNL     1     -37.080  14.976  -3.734  1.00 20.00     0.114 C 
HETATM   10  C3  UNL     1     -37.496  15.179  -5.189  1.00 20.00     0.039 C 
BRANCH   9  11
HETATM   11  O11 UNL     1     -38.260  14.790  -2.961  1.00 20.00    -0.396 OA
HETATM   12  H29 UNL     1     -38.677  13.974  -3.280  1.00 20.00     0.210 HD
ENDBRANCH   9  11
ENDBRANCH   8   9
ENDBRANCH   5   8
ENDBRANCH   4   5
ENDBRANCH   3   4
TORSDOF 5
ENDMDL
MODEL 9
REMARK VINA RESULT:      -4.1     11.153     12.053
REMARK  5 active torsions:
REMARK  status: ('A' for Active; 'I' for Inactive)
REMARK    1  A    between atoms: C6_6  and  C7_7 
REMARK    2  A    between atoms: C7_7  and  C10_10 
REMARK    3  A    between atoms: C8_8  and  C9_9 
REMARK    4  A    between atoms: C8_8  and  C10_10 
REMARK    5  A    between atoms: C9_9  and  O11_11 
ROOT
HETATM    1  C1  UNL     1     -32.125   8.909   0.629  1.00 20.00     0.012 C 
HETATM    2  C2  UNL     1     -31.974   8.437   1.723  1.00 20.00    -0.117 C 
HETATM    3  C6  UNL     1     -31.786   7.861   3.064  1.00 20.00     0.093 C 
ENDROOT
BRANCH   3   4
HETATM    4  C7  UNL     1     -32.138   6.366   3.070  1.00 20.00     0.021 C 
BRANCH   4   5
HETATM    5  C10 UNL     1     -33.626   6.020   3.361  1.00 20.00    -0.045 C 
HETATM    6  C4  UNL     1     -34.271   5.343   2.130  1.00 20.00     0.015 C 
HETATM    7  C5  UNL     1     -34.426   7.297   3.673  1.00 20.00     0.015 C 
BRANCH   5   8
HETATM    8  C8  UNL     1     -33.715   4.994   4.538  1.00 20.00     0.040 C 
BRANCH   8   9
HETATM    9  C9  UNL     1     -35.035   4.924   5.322  1.00 20.00     0.114 C 
HETATM   10  C3  UNL     1     -34.834   5.404   6.757  1.00 20.00     0.039 C 
BRANCH   9  11
HETATM   11  O11 UNL     1     -35.501   3.580   5.368  1.00 20.00    -0.396 OA
HETATM   12  H29 UNL     1     -35.567   3.277   4.449  1.00 20.00     0.210 HD
ENDBRANCH   9  11
ENDBRANCH   8   9
ENDBRANCH   5   8
ENDBRANCH   4   5
ENDBRANCH   3   4
TORSDOF 5
ENDMDL
