MODEL 1
REMARK VINA RESULT:      -4.9      0.000      0.000
REMARK  0 active torsions:
REMARK  status: ('A' for Active; 'I' for Inactive)
ROOT
HETATM    1  C1  UNL     1     -34.075  16.574  -1.849  1.00 20.00     0.088 C 
HETATM    2  C2  UNL     1     -34.054  17.948   0.129  1.00 20.00    -0.070 C 
HETATM    3  C3  UNL     1     -34.568  16.925  -0.568  1.00 20.00     0.096 C 
HETATM    4  C4  UNL     1     -32.926  18.794  -0.390  1.00 20.00     0.035 C 
HETATM    5  C5  UNL     1     -34.550  18.327   1.498  1.00 20.00     0.039 C 
HETATM    6  C6  UNL     1     -31.775  18.825   0.614  1.00 20.00     0.009 C 
HETATM    7  C7  UNL     1     -33.396  18.358   2.521  1.00 20.00    -0.011 C 
HETATM    8  C8  UNL     1     -32.238  19.261   2.019  1.00 20.00    -0.014 C 
HETATM    9  C9  UNL     1     -33.938  18.803   3.882  1.00 20.00     0.010 C 
HETATM   10  C10 UNL     1     -31.038  19.259   2.971  1.00 20.00     0.010 C 
HETATM   11  N11 UNL     1     -33.675  16.282  -2.899  1.00 20.00    -0.192 NA
ENDROOT
TORSDOF 0
ENDMDL
MODEL 2
REMARK VINA RESULT:      -4.8      0.905      1.043
REMARK  0 active torsions:
REMARK  status: ('A' for Active; 'I' for Inactive)
ROOT
HETATM    1  C1  UNL     1     -33.908  16.086  -2.571  1.00 20.00     0.088 C 
HETATM    2  C2  UNL     1     -34.401  17.456  -0.653  1.00 20.00    -0.070 C 
HETATM    3  C3  UNL     1     -34.636  16.359  -1.387  1.00 20.00     0.096 C 
HETATM    4  C4  UNL     1     -33.358  18.470  -1.027  1.00 20.00     0.035 C 
HETATM    5  C5  UNL     1     -35.149  17.757   0.618  1.00 20.00     0.039 C 
HETATM    6  C6  UNL     1     -32.388  18.693   0.133  1.00 20.00     0.009 C 
HETATM    7  C7  UNL     1     -34.179  17.980   1.797  1.00 20.00    -0.011 C 
HETATM    8  C8  UNL     1     -33.119  19.056   1.442  1.00 20.00    -0.014 C 
HETATM    9  C9  UNL     1     -34.982  18.339   3.050  1.00 20.00     0.010 C 
HETATM   10  C10 UNL     1     -32.089  19.254   2.558  1.00 20.00     0.010 C 
HETATM   11  N11 UNL     1     -33.315  15.856  -3.542  1.00 20.00    -0.192 NA
ENDROOT
TORSDOF 0
ENDMDL
MODEL 3
REMARK VINA RESULT:      -4.8     11.258     12.115
REMARK  0 active torsions:
REMARK  status: ('A' for Active; 'I' for Inactive)
ROOT
HETATM    1  C1  UNL     1     -31.877   8.498   1.196  1.00 20.00     0.088 C 
HETATM    2  C2  UNL     1     -32.342   7.271   3.216  1.00 20.00    -0.070 C 
HETATM    3  C3  UNL     1     -32.021   8.419   2.603  1.00 20.00     0.096 C 
HETATM    4  C4  UNL     1     -32.570   5.991   2.464  1.00 20.00     0.035 C 
HETATM    5  C5  UNL     1     -32.519   7.169   4.707  1.00 20.00     0.039 C 
HETATM    6  C6  UNL     1     -33.939   5.404   2.809  1.00 20.00     0.009 C 
HETATM    7  C7  UNL     1     -33.898   6.581   5.066  1.00 20.00    -0.011 C 
HETATM    8  C8  UNL     1     -34.134   5.235   4.329  1.00 20.00    -0.014 C 
HETATM    9  C9  UNL     1     -34.008   6.443   6.587  1.00 20.00     0.010 C 
HETATM   10  C10 UNL     1     -35.525   4.655   4.599  1.00 20.00     0.010 C 
HETATM   11  N11 UNL     1     -31.757   8.568   0.044  1.00 20.00    -0.192 NA
ENDROOT
TORSDOF 0
ENDMDL
MODEL 4
REMARK VINA RESULT:      -4.8     14.741     16.740
REMARK  0 active torsions:
REMARK  status: ('A' for Active; 'I' for Inactive)
ROOT
HETATM    1  C1  UNL     1     -42.115   1.938  -4.435  1.00 20.00     0.088 C 
HETATM    2  C2  UNL     1     -42.092   3.482  -2.586  1.00 20.00    -0.070 C 
HETATM    3  C3  UNL     1     -41.538   2.457  -3.249  1.00 20.00     0.096 C 
HETATM    4  C4  UNL     1     -43.356   4.152  -3.043  1.00 20.00     0.035 C 
HETATM    5  C5  UNL     1     -41.485   4.061  -1.336  1.00 20.00     0.039 C 
HETATM    6  C6  UNL     1     -43.140   5.657  -3.192  1.00 20.00     0.009 C 
HETATM    7  C7  UNL     1     -41.260   5.580  -1.477  1.00 20.00    -0.011 C 
HETATM    8  C8  UNL     1     -42.568   6.294  -1.909  1.00 20.00    -0.014 C 
HETATM    9  C9  UNL     1     -40.697   6.131  -0.164  1.00 20.00     0.010 C 
HETATM   10  C10 UNL     1     -42.369   7.795  -2.135  1.00 20.00     0.010 C 
HETATM   11  N11 UNL     1     -42.584   1.509  -5.406  1.00 20.00    -0.192 NA
ENDROOT
TORSDOF 0
ENDMDL
MODEL 5
REMARK VINA RESULT:      -4.7      3.739      5.649
REMARK  0 active torsions:
REMARK  status: ('A' for Active; 'I' for Inactive)
ROOT
HETATM    1  C1  UNL     1     -34.832  15.265  -6.991  1.00 20.00     0.088 C 
HETATM    2  C2  UNL     1     -33.855  16.422  -5.119  1.00 20.00    -0.070 C 
HETATM    3  C3  UNL     1     -34.376  16.445  -6.353  1.00 20.00     0.096 C 
HETATM    4  C4  UNL     1     -33.714  15.154  -4.325  1.00 20.00     0.035 C 
HETATM    5  C5  UNL     1     -33.382  17.665  -4.415  1.00 20.00     0.039 C 
HETATM    6  C6  UNL     1     -34.392  15.298  -2.963  1.00 20.00     0.009 C 
HETATM    7  C7  UNL     1     -34.063  17.822  -3.040  1.00 20.00    -0.011 C 
HETATM    8  C8  UNL     1     -33.891  16.535  -2.189  1.00 20.00    -0.014 C 
HETATM    9  C9  UNL     1     -33.508  19.065  -2.340  1.00 20.00     0.010 C 
HETATM   10  C10 UNL     1     -34.619  16.620  -0.845  1.00 20.00     0.010 C 
HETATM   11  N11 UNL     1     -35.208  14.302  -7.519  1.00 20.00    -0.192 NA
ENDROOT
TORSDOF 0
ENDMDL
MODEL 6
REMARK VINA RESULT:      -4.7      2.356      5.093
REMARK  0 active torsions:
REMARK  status: ('A' for Active; 'I' for Inactive)
ROOT
HETATM    1  C1  UNL     1     -31.796  18.886   1.700  1.00 20.00     0.088 C 
HETATM    2  C2  UNL     1     -33.089  18.813  -0.331  1.00 20.00    -0.070 C 
HETATM    3  C3  UNL     1     -31.967  19.152   0.318  1.00 20.00     0.096 C 
HETATM    4  C4  UNL     1     -34.243  18.133   0.350  1.00 20.00     0.035 C 
HETATM    5  C5  UNL     1     -33.284  19.068  -1.802  1.00 20.00     0.039 C 
HETATM    6  C6  UNL     1     -34.610  16.842  -0.381  1.00 20.00     0.009 C 
HETATM    7  C7  UNL     1     -33.652  17.770  -2.549  1.00 20.00    -0.011 C 
HETATM    8  C8  UNL     1     -34.869  17.075  -1.883  1.00 20.00    -0.014 C 
HETATM    9  C9  UNL     1     -33.896  18.090  -4.027  1.00 20.00     0.010 C 
HETATM   10  C10 UNL     1     -35.220  15.742  -2.549  1.00 20.00     0.010 C 
HETATM   11  N11 UNL     1     -31.651  18.672   2.831  1.00 20.00    -0.192 NA
ENDROOT
TORSDOF 0
ENDMDL
MODEL 7
REMARK VINA RESULT:      -4.6      3.466      6.692
REMARK  0 active torsions:
REMARK  status: ('A' for Active; 'I' for Inactive)
ROOT
HETATM    1  C1  UNL     1     -34.846  17.714  -0.963  1.00 20.00     0.088 C 
HETATM    2  C2  UNL     1     -34.203  16.073  -2.605  1.00 20.00    -0.070 C 
HETATM    3  C3  UNL     1     -34.762  16.378  -1.425  1.00 20.00     0.096 C 
HETATM    4  C4  UNL     1     -33.625  17.117  -3.518  1.00 20.00     0.035 C 
HETATM    5  C5  UNL     1     -34.121  14.663  -3.124  1.00 20.00     0.039 C 
HETATM    6  C6  UNL     1     -34.248  17.014  -4.910  1.00 20.00     0.009 C 
HETATM    7  C7  UNL     1     -34.750  14.547  -4.527  1.00 20.00    -0.011 C 
HETATM    8  C8  UNL     1     -34.134  15.592  -5.496  1.00 20.00    -0.014 C 
HETATM    9  C9  UNL     1     -34.591  13.112  -5.035  1.00 20.00     0.010 C 
HETATM   10  C10 UNL     1     -34.786  15.562  -6.881  1.00 20.00     0.010 C 
HETATM   11  N11 UNL     1     -34.917  18.807  -0.579  1.00 20.00    -0.192 NA
ENDROOT
TORSDOF 0
ENDMDL
MODEL 8
REMARK VINA RESULT:      -4.6      3.086      6.584
REMARK  0 active torsions:
REMARK  status: ('A' for Active; 'I' for Inactive)
ROOT
HETATM    1  C1  UNL     1     -33.845  17.535  -0.776  1.00 20.00     0.088 C 
HETATM    2  C2  UNL     1     -34.688  16.059  -2.482  1.00 20.00    -0.070 C 
HETATM    3  C3  UNL     1     -34.908  16.875  -1.442  1.00 20.00     0.096 C 
HETATM    4  C4  UNL     1     -33.311  15.783  -3.017  1.00 20.00     0.035 C 
HETATM    5  C5  UNL     1     -35.803  15.363  -3.216  1.00 20.00     0.039 C 
HETATM    6  C6  UNL     1     -33.248  16.086  -4.513  1.00 20.00     0.009 C 
HETATM    7  C7  UNL     1     -35.750  15.665  -4.728  1.00 20.00    -0.011 C 
HETATM    8  C8  UNL     1     -34.345  15.346  -5.305  1.00 20.00    -0.014 C 
HETATM    9  C9  UNL     1     -36.864  14.892  -5.437  1.00 20.00     0.010 C 
HETATM   10  C10 UNL     1     -34.226  15.704  -6.789  1.00 20.00     0.010 C 
HETATM   11  N11 UNL     1     -32.979  18.078  -0.226  1.00 20.00    -0.192 NA
ENDROOT
TORSDOF 0
ENDMDL
MODEL 9
REMARK VINA RESULT:      -4.5      3.696      5.367
REMARK  0 active torsions:
REMARK  status: ('A' for Active; 'I' for Inactive)
ROOT
HETATM    1  C1  UNL     1     -34.284  13.413  -4.349  1.00 20.00     0.088 C 
HETATM    2  C2  UNL     1     -34.364  15.383  -2.967  1.00 20.00    -0.070 C 
HETATM    3  C3  UNL     1     -33.655  14.445  -3.611  1.00 20.00     0.096 C 
HETATM    4  C4  UNL     1     -35.866  15.410  -2.978  1.00 20.00     0.035 C 
HETATM    5  C5  UNL     1     -33.717  16.500  -2.192  1.00 20.00     0.039 C 
HETATM    6  C6  UNL     1     -36.373  16.769  -3.459  1.00 20.00     0.009 C 
HETATM    7  C7  UNL     1     -34.219  17.876  -2.673  1.00 20.00    -0.011 C 
HETATM    8  C8  UNL     1     -35.770  17.936  -2.651  1.00 20.00    -0.014 C 
HETATM    9  C9  UNL     1     -33.579  18.974  -1.819  1.00 20.00     0.010 C 
HETATM   10  C10 UNL     1     -36.313  19.261  -3.194  1.00 20.00     0.010 C 
HETATM   11  N11 UNL     1     -34.793  12.564  -4.956  1.00 20.00    -0.192 NA
ENDROOT
TORSDOF 0
ENDMDL
