MODEL 1
REMARK VINA RESULT:      -5.0      0.000      0.000
REMARK  2 active torsions:
REMARK  status: ('A' for Active; 'I' for Inactive)
REMARK    1  A    between atoms: C1_1  and  C5_5 
REMARK    2  A    between atoms: C1_1  and  C11_11 
ROOT
HETATM    1  C2  UNL     1     -33.936  17.531  -4.216  1.00 20.00     0.012 C 
HETATM    2  C3  UNL     1     -33.783  16.815  -5.555  1.00 20.00     0.005 C 
HETATM    3  C4  UNL     1     -34.365  15.319  -3.084  1.00 20.00     0.016 C 
HETATM    4  C5  UNL     1     -33.559  16.617  -3.054  1.00 20.00     0.056 C 
HETATM    5  C6  UNL     1     -34.593  15.509  -5.608  1.00 20.00    -0.015 C 
HETATM    6  C7  UNL     1     -34.215  14.581  -4.426  1.00 20.00    -0.014 C 
HETATM    7  C8  UNL     1     -34.387  14.839  -6.969  1.00 20.00     0.010 C 
HETATM    8  C9  UNL     1     -35.053  13.299  -4.395  1.00 20.00     0.010 C 
ENDROOT
BRANCH   4   9
HETATM    9  C1  UNL     1     -33.802  17.322  -1.754  1.00 20.00     0.130 C 
HETATM   10  O12 UNL     1     -33.292  18.416  -1.520  1.00 20.00    -0.298 OA
BRANCH   9  11
HETATM   11  C11 UNL     1     -34.704  16.605  -0.766  1.00 20.00     0.074 C 
HETATM   12  C10 UNL     1     -34.948  17.415   0.495  1.00 20.00     0.013 C 
ENDBRANCH   9  11
ENDBRANCH   4   9
TORSDOF 2
ENDMDL
MODEL 2
REMARK VINA RESULT:      -4.9      1.188      1.351
REMARK  2 active torsions:
REMARK  status: ('A' for Active; 'I' for Inactive)
REMARK    1  A    between atoms: C1_1  and  C5_5 
REMARK    2  A    between atoms: C1_1  and  C11_11 
ROOT
HETATM    1  C2  UNL     1     -33.772  17.528  -3.739  1.00 20.00     0.012 C 
HETATM    2  C3  UNL     1     -33.554  16.868  -5.097  1.00 20.00     0.005 C 
HETATM    3  C4  UNL     1     -34.592  15.334  -2.805  1.00 20.00     0.016 C 
HETATM    4  C5  UNL     1     -33.644  16.515  -2.604  1.00 20.00     0.056 C 
HETATM    5  C6  UNL     1     -34.505  15.679  -5.321  1.00 20.00    -0.015 C 
HETATM    6  C7  UNL     1     -34.380  14.652  -4.168  1.00 20.00    -0.014 C 
HETATM    7  C8  UNL     1     -34.226  15.059  -6.693  1.00 20.00     0.010 C 
HETATM    8  C9  UNL     1     -35.364  13.487  -4.311  1.00 20.00     0.010 C 
ENDROOT
BRANCH   4   9
HETATM    9  C1  UNL     1     -33.948  17.178  -1.295  1.00 20.00     0.130 C 
HETATM   10  O12 UNL     1     -34.598  16.598  -0.427  1.00 20.00    -0.298 OA
BRANCH   9  11
HETATM   11  C11 UNL     1     -33.408  18.585  -1.119  1.00 20.00     0.074 C 
HETATM   12  C10 UNL     1     -32.396  18.685   0.009  1.00 20.00     0.013 C 
ENDBRANCH   9  11
ENDBRANCH   4   9
TORSDOF 2
ENDMDL
MODEL 3
REMARK VINA RESULT:      -4.8      2.564      5.030
REMARK  2 active torsions:
REMARK  status: ('A' for Active; 'I' for Inactive)
REMARK    1  A    between atoms: C1_1  and  C5_5 
REMARK    2  A    between atoms: C1_1  and  C11_11 
ROOT
HETATM    1  C2  UNL     1     -36.596  15.767  -4.152  1.00 20.00     0.012 C 
HETATM    2  C3  UNL     1     -37.133  16.738  -3.105  1.00 20.00     0.005 C 
HETATM    3  C4  UNL     1     -34.476  15.498  -2.815  1.00 20.00     0.016 C 
HETATM    4  C5  UNL     1     -35.613  14.776  -3.536  1.00 20.00     0.056 C 
HETATM    5  C6  UNL     1     -36.002  17.481  -2.372  1.00 20.00    -0.015 C 
HETATM    6  C7  UNL     1     -35.000  16.477  -1.750  1.00 20.00    -0.014 C 
HETATM    7  C8  UNL     1     -36.608  18.427  -1.333  1.00 20.00     0.010 C 
HETATM    8  C9  UNL     1     -33.815  17.174  -1.074  1.00 20.00     0.010 C 
ENDROOT
BRANCH   4   9
HETATM    9  C1  UNL     1     -35.042  13.895  -4.605  1.00 20.00     0.130 C 
HETATM   10  O12 UNL     1     -35.030  12.671  -4.479  1.00 20.00    -0.298 OA
BRANCH   9  11
HETATM   11  C11 UNL     1     -34.490  14.603  -5.828  1.00 20.00     0.074 C 
HETATM   12  C10 UNL     1     -35.263  14.273  -7.092  1.00 20.00     0.013 C 
ENDBRANCH   9  11
ENDBRANCH   4   9
TORSDOF 2
ENDMDL
MODEL 4
REMARK VINA RESULT:      -4.7      1.870      4.733
REMARK  2 active torsions:
REMARK  status: ('A' for Active; 'I' for Inactive)
REMARK    1  A    between atoms: C1_1  and  C5_5 
REMARK    2  A    between atoms: C1_1  and  C11_11 
ROOT
HETATM    1  C2  UNL     1     -35.581  16.679  -3.502  1.00 20.00     0.012 C 
HETATM    2  C3  UNL     1     -36.599  17.287  -2.543  1.00 20.00     0.005 C 
HETATM    3  C4  UNL     1     -33.876  16.606  -1.646  1.00 20.00     0.016 C 
HETATM    4  C5  UNL     1     -34.565  15.817  -2.758  1.00 20.00     0.056 C 
HETATM    5  C6  UNL     1     -35.924  18.092  -1.419  1.00 20.00    -0.015 C 
HETATM    6  C7  UNL     1     -34.889  17.220  -0.665  1.00 20.00    -0.014 C 
HETATM    7  C8  UNL     1     -36.998  18.664  -0.490  1.00 20.00     0.010 C 
HETATM    8  C9  UNL     1     -34.138  18.005   0.416  1.00 20.00     0.010 C 
ENDROOT
BRANCH   4   9
HETATM    9  C1  UNL     1     -33.533  15.306  -3.717  1.00 20.00     0.130 C 
HETATM   10  O12 UNL     1     -32.806  16.080  -4.338  1.00 20.00    -0.298 OA
BRANCH   9  11
HETATM   11  C11 UNL     1     -33.448  13.798  -3.864  1.00 20.00     0.074 C 
HETATM   12  C10 UNL     1     -34.614  13.222  -4.647  1.00 20.00     0.013 C 
ENDBRANCH   9  11
ENDBRANCH   4   9
TORSDOF 2
ENDMDL
MODEL 5
REMARK VINA RESULT:      -4.7      3.003      6.756
REMARK  2 active torsions:
REMARK  status: ('A' for Active; 'I' for Inactive)
REMARK    1  A    between atoms: C1_1  and  C5_5 
REMARK    2  A    between atoms: C1_1  and  C11_11 
ROOT
HETATM    1  C2  UNL     1     -32.222  18.694   0.205  1.00 20.00     0.012 C 
HETATM    2  C3  UNL     1     -31.454  19.263   1.394  1.00 20.00     0.005 C 
HETATM    3  C4  UNL     1     -34.164  18.149   1.718  1.00 20.00     0.016 C 
HETATM    4  C5  UNL     1     -33.729  18.810   0.411  1.00 20.00     0.056 C 
HETATM    5  C6  UNL     1     -31.873  18.603   2.720  1.00 20.00    -0.015 C 
HETATM    6  C7  UNL     1     -33.404  18.716   2.929  1.00 20.00    -0.014 C 
HETATM    7  C8  UNL     1     -31.075  19.224   3.869  1.00 20.00     0.010 C 
HETATM    8  C9  UNL     1     -33.875  18.005   4.202  1.00 20.00     0.010 C 
ENDROOT
BRANCH   4   9
HETATM    9  C1  UNL     1     -34.451  18.167  -0.734  1.00 20.00     0.130 C 
HETATM   10  O12 UNL     1     -34.855  18.835  -1.684  1.00 20.00    -0.298 OA
BRANCH   9  11
HETATM   11  C11 UNL     1     -34.643  16.665  -0.641  1.00 20.00     0.074 C 
HETATM   12  C10 UNL     1     -34.898  16.025  -1.994  1.00 20.00     0.013 C 
ENDBRANCH   9  11
ENDBRANCH   4   9
TORSDOF 2
ENDMDL
MODEL 6
REMARK VINA RESULT:      -4.6      1.409      1.821
REMARK  2 active torsions:
REMARK  status: ('A' for Active; 'I' for Inactive)
REMARK    1  A    between atoms: C1_1  and  C5_5 
REMARK    2  A    between atoms: C1_1  and  C11_11 
ROOT
HETATM    1  C2  UNL     1     -33.291  15.931  -2.945  1.00 20.00     0.012 C 
HETATM    2  C3  UNL     1     -33.419  14.670  -3.794  1.00 20.00     0.005 C 
HETATM    3  C4  UNL     1     -35.797  16.015  -2.688  1.00 20.00     0.016 C 
HETATM    4  C5  UNL     1     -34.452  16.061  -1.965  1.00 20.00     0.056 C 
HETATM    5  C6  UNL     1     -34.766  14.609  -4.537  1.00 20.00    -0.015 C 
HETATM    6  C7  UNL     1     -35.946  14.744  -3.543  1.00 20.00    -0.014 C 
HETATM    7  C8  UNL     1     -34.834  13.319  -5.358  1.00 20.00     0.010 C 
HETATM    8  C9  UNL     1     -37.307  14.765  -4.248  1.00 20.00     0.010 C 
ENDROOT
BRANCH   4   9
HETATM    9  C1  UNL     1     -34.339  17.350  -1.209  1.00 20.00     0.130 C 
HETATM   10  O12 UNL     1     -33.820  18.341  -1.720  1.00 20.00    -0.298 OA
BRANCH   9  11
HETATM   11  C11 UNL     1     -34.899  17.347   0.201  1.00 20.00     0.074 C 
HETATM   12  C10 UNL     1     -34.112  18.241   1.143  1.00 20.00     0.013 C 
ENDBRANCH   9  11
ENDBRANCH   4   9
TORSDOF 2
ENDMDL
MODEL 7
REMARK VINA RESULT:      -4.5      2.280      5.007
REMARK  2 active torsions:
REMARK  status: ('A' for Active; 'I' for Inactive)
REMARK    1  A    between atoms: C1_1  and  C5_5 
REMARK    2  A    between atoms: C1_1  and  C11_11 
ROOT
HETATM    1  C2  UNL     1     -34.803  15.163  -2.849  1.00 20.00     0.012 C 
HETATM    2  C3  UNL     1     -34.180  16.276  -2.011  1.00 20.00     0.005 C 
HETATM    3  C4  UNL     1     -34.107  16.360  -4.956  1.00 20.00     0.016 C 
HETATM    4  C5  UNL     1     -34.108  15.032  -4.201  1.00 20.00     0.056 C 
HETATM    5  C6  UNL     1     -34.177  17.624  -2.753  1.00 20.00    -0.015 C 
HETATM    6  C7  UNL     1     -33.475  17.492  -4.127  1.00 20.00    -0.014 C 
HETATM    7  C8  UNL     1     -33.530  18.690  -1.863  1.00 20.00     0.010 C 
HETATM    8  C9  UNL     1     -33.515  18.794  -4.934  1.00 20.00     0.010 C 
ENDROOT
BRANCH   4   9
HETATM    9  C1  UNL     1     -34.798  13.991  -5.029  1.00 20.00     0.130 C 
HETATM   10  O12 UNL     1     -34.566  12.794  -4.866  1.00 20.00    -0.298 OA
BRANCH   9  11
HETATM   11  C11 UNL     1     -35.783  14.506  -6.062  1.00 20.00     0.074 C 
HETATM   12  C10 UNL     1     -35.299  14.296  -7.485  1.00 20.00     0.013 C 
ENDBRANCH   9  11
ENDBRANCH   4   9
TORSDOF 2
ENDMDL
MODEL 8
REMARK VINA RESULT:      -4.5      2.481      5.014
REMARK  2 active torsions:
REMARK  status: ('A' for Active; 'I' for Inactive)
REMARK    1  A    between atoms: C1_1  and  C5_5 
REMARK    2  A    between atoms: C1_1  and  C11_11 
ROOT
HETATM    1  C2  UNL     1     -33.918  14.892  -3.180  1.00 20.00     0.012 C 
HETATM    2  C3  UNL     1     -33.807  16.144  -2.314  1.00 20.00     0.005 C 
HETATM    3  C4  UNL     1     -36.189  15.644  -3.976  1.00 20.00     0.016 C 
HETATM    4  C5  UNL     1     -34.811  15.134  -4.393  1.00 20.00     0.056 C 
HETATM    5  C6  UNL     1     -35.186  16.668  -1.878  1.00 20.00    -0.015 C 
HETATM    6  C7  UNL     1     -36.095  16.911  -3.108  1.00 20.00    -0.014 C 
HETATM    7  C8  UNL     1     -35.003  17.926  -1.025  1.00 20.00     0.010 C 
HETATM    8  C9  UNL     1     -37.505  17.363  -2.715  1.00 20.00     0.010 C 
ENDROOT
BRANCH   4   9
HETATM    9  C1  UNL     1     -34.967  13.864  -5.172  1.00 20.00     0.130 C 
HETATM   10  O12 UNL     1     -34.938  12.769  -4.612  1.00 20.00    -0.298 OA
BRANCH   9  11
HETATM   11  C11 UNL     1     -35.158  14.019  -6.669  1.00 20.00     0.074 C 
HETATM   12  C10 UNL     1     -34.377  15.189  -7.239  1.00 20.00     0.013 C 
ENDBRANCH   9  11
ENDBRANCH   4   9
TORSDOF 2
ENDMDL
MODEL 9
REMARK VINA RESULT:      -4.4      1.663      2.688
REMARK  2 active torsions:
REMARK  status: ('A' for Active; 'I' for Inactive)
REMARK    1  A    between atoms: C1_1  and  C5_5 
REMARK    2  A    between atoms: C1_1  and  C11_11 
ROOT
HETATM    1  C2  UNL     1     -33.870  19.139  -1.669  1.00 20.00     0.012 C 
HETATM    2  C3  UNL     1     -33.483  18.807  -3.107  1.00 20.00     0.005 C 
HETATM    3  C4  UNL     1     -34.236  16.688  -1.201  1.00 20.00     0.016 C 
HETATM    4  C5  UNL     1     -33.562  17.976  -0.730  1.00 20.00     0.056 C 
HETATM    5  C6  UNL     1     -34.157  17.516  -3.603  1.00 20.00    -0.015 C 
HETATM    6  C7  UNL     1     -33.850  16.335  -2.648  1.00 20.00    -0.014 C 
HETATM    7  C8  UNL     1     -33.720  17.237  -5.043  1.00 20.00     0.010 C 
HETATM    8  C9  UNL     1     -34.564  15.045  -3.063  1.00 20.00     0.010 C 
ENDROOT
BRANCH   4   9
HETATM    9  C1  UNL     1     -34.032  18.303   0.655  1.00 20.00     0.130 C 
HETATM   10  O12 UNL     1     -33.422  19.106   1.359  1.00 20.00    -0.298 OA
BRANCH   9  11
HETATM   11  C11 UNL     1     -35.287  17.588   1.119  1.00 20.00     0.074 C 
HETATM   12  C10 UNL     1     -35.442  17.601   2.630  1.00 20.00     0.013 C 
ENDBRANCH   9  11
ENDBRANCH   4   9
TORSDOF 2
ENDMDL
