MODEL 1
REMARK VINA RESULT:      -4.2      0.000      0.000
REMARK  3 active torsions:
REMARK  status: ('A' for Active; 'I' for Inactive)
REMARK    1  A    between atoms: C2_2  and  C3_3 
REMARK    2  A    between atoms: C2_2  and  S8_8 
REMARK    3  A    between atoms: C3_3  and  C4_4 
ROOT
HETATM    1  C3  UNL     1     -33.995   6.352   4.120  1.00 20.00     0.174 C 
HETATM    2 BR9  UNL     1     -34.014   6.215   6.088  1.00 20.00    -0.081 Br
ENDROOT
BRANCH   1   3
HETATM    3  C2  UNL     1     -32.546   6.188   3.662  1.00 20.00     0.098 C 
BRANCH   3   4
HETATM    4  S8  UNL     1     -31.644   7.766   3.599  1.00 20.00    -0.172 SA
HETATM    5  C1  UNL     1     -32.082   8.248   1.913  1.00 20.00     0.089 C 
ENDBRANCH   3   4
ENDBRANCH   1   3
BRANCH   1   6
HETATM    6  C4  UNL     1     -34.961   5.312   3.578  1.00 20.00     0.401 C 
HETATM    7  F5  UNL     1     -35.065   4.243   4.398  1.00 20.00    -0.170 F 
HETATM    8  F6  UNL     1     -34.569   4.863   2.363  1.00 20.00    -0.170 F 
HETATM    9  F7  UNL     1     -36.203   5.823   3.421  1.00 20.00    -0.170 F 
ENDBRANCH   1   6
TORSDOF 3
ENDMDL
MODEL 2
REMARK VINA RESULT:      -4.2      1.645      2.385
REMARK  3 active torsions:
REMARK  status: ('A' for Active; 'I' for Inactive)
REMARK    1  A    between atoms: C2_2  and  C3_3 
REMARK    2  A    between atoms: C2_2  and  S8_8 
REMARK    3  A    between atoms: C3_3  and  C4_4 
ROOT
HETATM    1  C3  UNL     1     -34.799   5.779   5.078  1.00 20.00     0.174 C 
HETATM    2 BR9  UNL     1     -33.648   6.799   6.314  1.00 20.00    -0.081 Br
ENDROOT
BRANCH   1   3
HETATM    3  C2  UNL     1     -34.248   5.979   3.667  1.00 20.00     0.098 C 
BRANCH   3   4
HETATM    4  S8  UNL     1     -32.445   6.217   3.641  1.00 20.00    -0.172 SA
HETATM    5  C1  UNL     1     -32.388   7.644   2.533  1.00 20.00     0.089 C 
ENDBRANCH   3   4
ENDBRANCH   1   3
BRANCH   1   6
HETATM    6  C4  UNL     1     -34.825   4.338   5.559  1.00 20.00     0.401 C 
HETATM    7  F5  UNL     1     -35.159   3.481   4.570  1.00 20.00    -0.170 F 
HETATM    8  F6  UNL     1     -35.714   4.173   6.566  1.00 20.00    -0.170 F 
HETATM    9  F7  UNL     1     -33.621   3.954   6.038  1.00 20.00    -0.170 F 
ENDBRANCH   1   6
TORSDOF 3
ENDMDL
MODEL 3
REMARK VINA RESULT:      -4.1      2.322      2.702
REMARK  3 active torsions:
REMARK  status: ('A' for Active; 'I' for Inactive)
REMARK    1  A    between atoms: C2_2  and  C3_3 
REMARK    2  A    between atoms: C2_2  and  S8_8 
REMARK    3  A    between atoms: C3_3  and  C4_4 
ROOT
HETATM    1  C3  UNL     1     -34.045   5.399   4.793  1.00 20.00     0.174 C 
HETATM    2 BR9  UNL     1     -35.697   5.466   3.715  1.00 20.00    -0.081 Br
ENDROOT
BRANCH   1   3
HETATM    3  C2  UNL     1     -33.209   6.626   4.429  1.00 20.00     0.098 C 
BRANCH   3   4
HETATM    4  S8  UNL     1     -32.144   6.348   2.981  1.00 20.00    -0.172 SA
HETATM    5  C1  UNL     1     -32.121   8.042   2.348  1.00 20.00     0.089 C 
ENDBRANCH   3   4
ENDBRANCH   1   3
BRANCH   1   6
HETATM    6  C4  UNL     1     -34.455   5.311   6.253  1.00 20.00     0.401 C 
HETATM    7  F5  UNL     1     -34.463   6.523   6.849  1.00 20.00    -0.170 F 
HETATM    8  F6  UNL     1     -33.613   4.514   6.951  1.00 20.00    -0.170 F 
HETATM    9  F7  UNL     1     -35.692   4.784   6.390  1.00 20.00    -0.170 F 
ENDBRANCH   1   6
TORSDOF 3
ENDMDL
MODEL 4
REMARK VINA RESULT:      -3.7     11.430     12.021
REMARK  3 active torsions:
REMARK  status: ('A' for Active; 'I' for Inactive)
REMARK    1  A    between atoms: C2_2  and  C3_3 
REMARK    2  A    between atoms: C2_2  and  S8_8 
REMARK    3  A    between atoms: C3_3  and  C4_4 
ROOT
HETATM    1  C3  UNL     1     -33.926  15.149  -4.765  1.00 20.00     0.174 C 
HETATM    2 BR9  UNL     1     -34.626  14.926  -6.597  1.00 20.00    -0.081 Br
ENDROOT
BRANCH   1   3
HETATM    3  C2  UNL     1     -34.844  16.131  -4.039  1.00 20.00     0.098 C 
BRANCH   3   4
HETATM    4  S8  UNL     1     -33.957  17.167  -2.835  1.00 20.00    -0.172 SA
HETATM    5  C1  UNL     1     -34.628  16.439  -1.323  1.00 20.00     0.089 C 
ENDBRANCH   3   4
ENDBRANCH   1   3
BRANCH   1   6
HETATM    6  C4  UNL     1     -33.838  13.768  -4.138  1.00 20.00     0.401 C 
HETATM    7  F5  UNL     1     -34.115  12.790  -5.027  1.00 20.00    -0.170 F 
HETATM    8  F6  UNL     1     -34.703  13.643  -3.105  1.00 20.00    -0.170 F 
HETATM    9  F7  UNL     1     -32.604  13.527  -3.642  1.00 20.00    -0.170 F 
ENDBRANCH   1   6
TORSDOF 3
ENDMDL
MODEL 5
REMARK VINA RESULT:      -3.7     11.427     11.976
REMARK  3 active torsions:
REMARK  status: ('A' for Active; 'I' for Inactive)
REMARK    1  A    between atoms: C2_2  and  C3_3 
REMARK    2  A    between atoms: C2_2  and  S8_8 
REMARK    3  A    between atoms: C3_3  and  C4_4 
ROOT
HETATM    1  C3  UNL     1     -33.967  15.144  -4.805  1.00 20.00     0.174 C 
HETATM    2 BR9  UNL     1     -34.766  14.826  -6.581  1.00 20.00    -0.081 Br
ENDROOT
BRANCH   1   3
HETATM    3  C2  UNL     1     -34.869  16.133  -4.066  1.00 20.00     0.098 C 
BRANCH   3   4
HETATM    4  S8  UNL     1     -33.958  17.163  -2.875  1.00 20.00    -0.172 SA
HETATM    5  C1  UNL     1     -34.633  16.457  -1.354  1.00 20.00     0.089 C 
ENDBRANCH   3   4
ENDBRANCH   1   3
BRANCH   1   6
HETATM    6  C4  UNL     1     -33.803  13.794  -4.127  1.00 20.00     0.401 C 
HETATM    7  F5  UNL     1     -32.560  13.629  -3.625  1.00 20.00    -0.170 F 
HETATM    8  F6  UNL     1     -34.037  12.780  -4.992  1.00 20.00    -0.170 F 
HETATM    9  F7  UNL     1     -34.676  13.643  -3.107  1.00 20.00    -0.170 F 
ENDBRANCH   1   6
TORSDOF 3
ENDMDL
MODEL 6
REMARK VINA RESULT:      -3.7     11.403     11.968
REMARK  3 active torsions:
REMARK  status: ('A' for Active; 'I' for Inactive)
REMARK    1  A    between atoms: C2_2  and  C3_3 
REMARK    2  A    between atoms: C2_2  and  S8_8 
REMARK    3  A    between atoms: C3_3  and  C4_4 
ROOT
HETATM    1  C3  UNL     1     -33.946  15.128  -4.757  1.00 20.00     0.174 C 
HETATM    2 BR9  UNL     1     -34.638  14.850  -6.584  1.00 20.00    -0.081 Br
ENDROOT
BRANCH   1   3
HETATM    3  C2  UNL     1     -34.897  16.091  -4.047  1.00 20.00     0.098 C 
BRANCH   3   4
HETATM    4  S8  UNL     1     -34.043  17.194  -2.880  1.00 20.00    -0.172 SA
HETATM    5  C1  UNL     1     -34.580  16.409  -1.342  1.00 20.00     0.089 C 
ENDBRANCH   3   4
ENDBRANCH   1   3
BRANCH   1   6
HETATM    6  C4  UNL     1     -33.810  13.762  -4.105  1.00 20.00     0.401 C 
HETATM    7  F5  UNL     1     -34.669  13.607  -3.075  1.00 20.00    -0.170 F 
HETATM    8  F6  UNL     1     -32.558  13.567  -3.631  1.00 20.00    -0.170 F 
HETATM    9  F7  UNL     1     -34.051  12.767  -4.987  1.00 20.00    -0.170 F 
ENDBRANCH   1   6
TORSDOF 3
ENDMDL
MODEL 7
REMARK VINA RESULT:      -3.5      9.087      9.924
REMARK  3 active torsions:
REMARK  status: ('A' for Active; 'I' for Inactive)
REMARK    1  A    between atoms: C2_2  and  C3_3 
REMARK    2  A    between atoms: C2_2  and  S8_8 
REMARK    3  A    between atoms: C3_3  and  C4_4 
ROOT
HETATM    1  C3  UNL     1     -42.256   5.538  -1.207  1.00 20.00     0.174 C 
HETATM    2 BR9  UNL     1     -42.035   7.475  -1.517  1.00 20.00    -0.081 Br
ENDROOT
BRANCH   1   3
HETATM    3  C2  UNL     1     -42.316   4.859  -2.575  1.00 20.00     0.098 C 
BRANCH   3   4
HETATM    4  S8  UNL     1     -43.016   3.182  -2.500  1.00 20.00    -0.172 SA
HETATM    5  C1  UNL     1     -41.657   2.297  -3.299  1.00 20.00     0.089 C 
ENDBRANCH   3   4
ENDBRANCH   1   3
BRANCH   1   6
HETATM    6  C4  UNL     1     -41.115   5.084  -0.314  1.00 20.00     0.401 C 
HETATM    7  F5  UNL     1     -41.541   4.267   0.674  1.00 20.00    -0.170 F 
HETATM    8  F6  UNL     1     -40.493   6.138   0.262  1.00 20.00    -0.170 F 
HETATM    9  F7  UNL     1     -40.174   4.413  -1.015  1.00 20.00    -0.170 F 
ENDBRANCH   1   6
TORSDOF 3
ENDMDL
MODEL 8
REMARK VINA RESULT:      -3.4     11.333     12.195
REMARK  3 active torsions:
REMARK  status: ('A' for Active; 'I' for Inactive)
REMARK    1  A    between atoms: C2_2  and  C3_3 
REMARK    2  A    between atoms: C2_2  and  S8_8 
REMARK    3  A    between atoms: C3_3  and  C4_4 
ROOT
HETATM    1  C3  UNL     1     -34.747  14.623  -3.092  1.00 20.00     0.174 C 
HETATM    2 BR9  UNL     1     -34.386  16.266  -2.061  1.00 20.00    -0.081 Br
ENDROOT
BRANCH   1   3
HETATM    3  C2  UNL     1     -36.104  14.799  -3.775  1.00 20.00     0.098 C 
BRANCH   3   4
HETATM    4  S8  UNL     1     -36.609  16.541  -3.902  1.00 20.00    -0.172 SA
HETATM    5  C1  UNL     1     -35.980  16.873  -5.564  1.00 20.00     0.089 C 
ENDBRANCH   3   4
ENDBRANCH   1   3
BRANCH   1   6
HETATM    6  C4  UNL     1     -33.576  14.408  -4.036  1.00 20.00     0.401 C 
HETATM    7  F5  UNL     1     -32.792  13.381  -3.641  1.00 20.00    -0.170 F 
HETATM    8  F6  UNL     1     -32.800  15.513  -4.115  1.00 20.00    -0.170 F 
HETATM    9  F7  UNL     1     -33.996  14.137  -5.292  1.00 20.00    -0.170 F 
ENDBRANCH   1   6
TORSDOF 3
ENDMDL
MODEL 9
REMARK VINA RESULT:      -3.4      9.250      9.967
REMARK  3 active torsions:
REMARK  status: ('A' for Active; 'I' for Inactive)
REMARK    1  A    between atoms: C2_2  and  C3_3 
REMARK    2  A    between atoms: C2_2  and  S8_8 
REMARK    3  A    between atoms: C3_3  and  C4_4 
ROOT
HETATM    1  C3  UNL     1     -41.925   5.040  -1.970  1.00 20.00     0.174 C 
HETATM    2 BR9  UNL     1     -42.207   3.251  -2.754  1.00 20.00    -0.081 Br
ENDROOT
BRANCH   1   3
HETATM    3  C2  UNL     1     -43.295   5.586  -1.568  1.00 20.00     0.098 C 
BRANCH   3   4
HETATM    4  S8  UNL     1     -43.416   7.392  -1.755  1.00 20.00    -0.172 SA
HETATM    5  C1  UNL     1     -42.352   7.574  -3.204  1.00 20.00     0.089 C 
ENDBRANCH   3   4
ENDBRANCH   1   3
BRANCH   1   6
HETATM    6  C4  UNL     1     -40.933   4.889  -0.829  1.00 20.00     0.401 C 
HETATM    7  F5  UNL     1     -39.965   3.992  -1.116  1.00 20.00    -0.170 F 
HETATM    8  F6  UNL     1     -41.549   4.484   0.305  1.00 20.00    -0.170 F 
HETATM    9  F7  UNL     1     -40.326   6.063  -0.543  1.00 20.00    -0.170 F 
ENDBRANCH   1   6
TORSDOF 3
ENDMDL
