MODEL 1
REMARK VINA RESULT:      -5.4      0.000      0.000
REMARK  1 active torsions:
REMARK  status: ('A' for Active; 'I' for Inactive)
REMARK    1  A    between atoms: C6_6  and  C8_8 
ROOT
HETATM    1  C1  UNL     1     -32.972   6.861   5.200  1.00 20.00     0.016 C 
HETATM    2  C2  UNL     1     -33.910   5.668   3.170  1.00 20.00     0.016 C 
HETATM    3  C3  UNL     1     -34.130   6.335   6.048  1.00 20.00     0.041 C 
HETATM    4  C4  UNL     1     -35.070   5.139   4.013  1.00 20.00     0.041 C 
HETATM    5  C5  UNL     1     -34.352   3.734   6.092  1.00 20.00     0.207 A 
HETATM    6  C6  UNL     1     -33.374   7.003   3.720  1.00 20.00     0.093 C 
HETATM    7  C7  UNL     1     -34.667   5.068   5.455  1.00 20.00     0.082 A 
HETATM    8  O9  UNL     1     -35.614   4.388   6.292  1.00 20.00    -0.375 OA
ENDROOT
BRANCH   6   9
HETATM    9  C8  UNL     1     -32.191   7.492   2.887  1.00 20.00     0.391 C 
HETATM   10  F10 UNL     1     -32.553   8.560   2.159  1.00 20.00    -0.171 F 
HETATM   11  F11 UNL     1     -31.174   7.838   3.691  1.00 20.00    -0.171 F 
HETATM   12  F12 UNL     1     -31.780   6.520   2.059  1.00 20.00    -0.171 F 
ENDBRANCH   6   9
TORSDOF 1
ENDMDL
MODEL 2
REMARK VINA RESULT:      -5.1     11.657     12.309
REMARK  1 active torsions:
REMARK  status: ('A' for Active; 'I' for Inactive)
REMARK    1  A    between atoms: C6_6  and  C8_8 
ROOT
HETATM    1  C1  UNL     1     -33.453  15.285  -3.053  1.00 20.00     0.016 C 
HETATM    2  C2  UNL     1     -35.972  15.565  -3.067  1.00 20.00     0.016 C 
HETATM    3  C3  UNL     1     -33.588  13.994  -3.860  1.00 20.00     0.041 C 
HETATM    4  C4  UNL     1     -36.114  14.275  -3.875  1.00 20.00     0.041 C 
HETATM    5  C5  UNL     1     -34.823  14.265  -6.144  1.00 20.00     0.207 A 
HETATM    6  C6  UNL     1     -34.704  15.548  -2.194  1.00 20.00     0.093 C 
HETATM    7  C7  UNL     1     -34.860  14.016  -4.654  1.00 20.00     0.082 A 
HETATM    8  O9  UNL     1     -34.973  12.945  -5.602  1.00 20.00    -0.375 OA
ENDROOT
BRANCH   6   9
HETATM    9  C8  UNL     1     -34.562  16.861  -1.426  1.00 20.00     0.391 C 
HETATM   10  F10 UNL     1     -34.842  16.666  -0.129  1.00 20.00    -0.171 F 
HETATM   11  F11 UNL     1     -33.308  17.325  -1.537  1.00 20.00    -0.171 F 
HETATM   12  F12 UNL     1     -35.409  17.775  -1.922  1.00 20.00    -0.171 F 
ENDBRANCH   6   9
TORSDOF 1
ENDMDL
MODEL 3
REMARK VINA RESULT:      -4.9     11.905     13.046
REMARK  1 active torsions:
REMARK  status: ('A' for Active; 'I' for Inactive)
REMARK    1  A    between atoms: C6_6  and  C8_8 
ROOT
HETATM    1  C1  UNL     1     -33.663  17.101  -3.797  1.00 20.00     0.016 C 
HETATM    2  C2  UNL     1     -34.897  15.120  -2.806  1.00 20.00     0.016 C 
HETATM    3  C3  UNL     1     -33.372  16.291  -5.061  1.00 20.00     0.041 C 
HETATM    4  C4  UNL     1     -34.609  14.306  -4.068  1.00 20.00     0.041 C 
HETATM    5  C5  UNL     1     -35.493  15.377  -6.278  1.00 20.00     0.207 A 
HETATM    6  C6  UNL     1     -33.815  16.189  -2.565  1.00 20.00     0.093 C 
HETATM    7  C7  UNL     1     -34.409  15.223  -5.237  1.00 20.00     0.082 A 
HETATM    8  O9  UNL     1     -34.342  14.549  -6.501  1.00 20.00    -0.375 OA
ENDROOT
BRANCH   6   9
HETATM    9  C8  UNL     1     -34.143  17.015  -1.323  1.00 20.00     0.391 C 
HETATM   10  F10 UNL     1     -33.015  17.504  -0.786  1.00 20.00    -0.171 F 
HETATM   11  F11 UNL     1     -34.948  18.038  -1.651  1.00 20.00    -0.171 F 
HETATM   12  F12 UNL     1     -34.762  16.249  -0.413  1.00 20.00    -0.171 F 
ENDBRANCH   6   9
TORSDOF 1
ENDMDL
MODEL 4
REMARK VINA RESULT:      -4.8      3.452      4.531
REMARK  1 active torsions:
REMARK  status: ('A' for Active; 'I' for Inactive)
REMARK    1  A    between atoms: C6_6  and  C8_8 
ROOT
HETATM    1  C1  UNL     1     -33.480   6.768   4.990  1.00 20.00     0.016 C 
HETATM    2  C2  UNL     1     -33.973   5.373   2.933  1.00 20.00     0.016 C 
HETATM    3  C3  UNL     1     -32.230   7.330   4.313  1.00 20.00     0.041 C 
HETATM    4  C4  UNL     1     -32.725   5.932   2.250  1.00 20.00     0.041 C 
HETATM    5  C5  UNL     1     -32.674   8.533   2.039  1.00 20.00     0.207 A 
HETATM    6  C6  UNL     1     -33.822   5.362   4.465  1.00 20.00     0.093 C 
HETATM    7  C7  UNL     1     -32.384   7.274   2.823  1.00 20.00     0.082 A 
HETATM    8  O9  UNL     1     -31.355   7.970   2.105  1.00 20.00    -0.375 OA
ENDROOT
BRANCH   6   9
HETATM    9  C8  UNL     1     -35.095   4.836   5.127  1.00 20.00     0.391 C 
HETATM   10  F10 UNL     1     -36.161   5.127   4.366  1.00 20.00    -0.171 F 
HETATM   11  F11 UNL     1     -35.018   3.505   5.277  1.00 20.00    -0.171 F 
HETATM   12  F12 UNL     1     -35.252   5.402   6.332  1.00 20.00    -0.171 F 
ENDBRANCH   6   9
TORSDOF 1
ENDMDL
MODEL 5
REMARK VINA RESULT:      -4.7     12.033     13.235
REMARK  1 active torsions:
REMARK  status: ('A' for Active; 'I' for Inactive)
REMARK    1  A    between atoms: C6_6  and  C8_8 
ROOT
HETATM    1  C1  UNL     1     -34.581  15.194  -2.954  1.00 20.00     0.016 C 
HETATM    2  C2  UNL     1     -34.198  16.032  -5.315  1.00 20.00     0.016 C 
HETATM    3  C3  UNL     1     -33.848  16.415  -2.398  1.00 20.00     0.041 C 
HETATM    4  C4  UNL     1     -33.465  17.255  -4.765  1.00 20.00     0.041 C 
HETATM    5  C5  UNL     1     -34.866  18.711  -3.112  1.00 20.00     0.207 A 
HETATM    6  C6  UNL     1     -34.080  14.827  -4.363  1.00 20.00     0.093 C 
HETATM    7  C7  UNL     1     -33.932  17.552  -3.372  1.00 20.00     0.082 A 
HETATM    8  O9  UNL     1     -33.457  18.801  -2.851  1.00 20.00    -0.375 OA
ENDROOT
BRANCH   6   9
HETATM    9  C8  UNL     1     -34.852  13.630  -4.913  1.00 20.00     0.391 C 
HETATM   10  F10 UNL     1     -35.314  13.907  -6.142  1.00 20.00    -0.171 F 
HETATM   11  F11 UNL     1     -34.048  12.557  -4.983  1.00 20.00    -0.171 F 
HETATM   12  F12 UNL     1     -35.888  13.345  -4.112  1.00 20.00    -0.171 F 
ENDBRANCH   6   9
TORSDOF 1
ENDMDL
MODEL 6
REMARK VINA RESULT:      -4.6     11.850     12.625
REMARK  1 active torsions:
REMARK  status: ('A' for Active; 'I' for Inactive)
REMARK    1  A    between atoms: C6_6  and  C8_8 
ROOT
HETATM    1  C1  UNL     1     -35.815  15.983  -2.850  1.00 20.00     0.016 C 
HETATM    2  C2  UNL     1     -33.288  15.884  -3.013  1.00 20.00     0.016 C 
HETATM    3  C3  UNL     1     -35.930  15.509  -4.299  1.00 20.00     0.041 C 
HETATM    4  C4  UNL     1     -33.396  15.409  -4.462  1.00 20.00     0.041 C 
HETATM    5  C5  UNL     1     -34.777  13.218  -4.788  1.00 20.00     0.207 A 
HETATM    6  C6  UNL     1     -34.498  16.744  -2.608  1.00 20.00     0.093 C 
HETATM    7  C7  UNL     1     -34.711  14.724  -4.681  1.00 20.00     0.082 A 
HETATM    8  O9  UNL     1     -34.819  14.062  -5.949  1.00 20.00    -0.375 OA
ENDROOT
BRANCH   6   9
HETATM    9  C8  UNL     1     -34.388  17.174  -1.146  1.00 20.00     0.391 C 
HETATM   10  F10 UNL     1     -35.140  18.264  -0.930  1.00 20.00    -0.171 F 
HETATM   11  F11 UNL     1     -34.813  16.186  -0.343  1.00 20.00    -0.171 F 
HETATM   12  F12 UNL     1     -33.112  17.458  -0.847  1.00 20.00    -0.171 F 
ENDBRANCH   6   9
TORSDOF 1
ENDMDL
MODEL 7
REMARK VINA RESULT:      -4.6     11.813     12.950
REMARK  1 active torsions:
REMARK  status: ('A' for Active; 'I' for Inactive)
REMARK    1  A    between atoms: C6_6  and  C8_8 
ROOT
HETATM    1  C1  UNL     1     -34.335  14.728  -3.153  1.00 20.00     0.016 C 
HETATM    2  C2  UNL     1     -35.467  16.848  -3.960  1.00 20.00     0.016 C 
HETATM    3  C3  UNL     1     -34.978  13.946  -4.299  1.00 20.00     0.041 C 
HETATM    4  C4  UNL     1     -36.112  16.071  -5.108  1.00 20.00     0.041 C 
HETATM    5  C5  UNL     1     -34.422  14.855  -6.683  1.00 20.00     0.207 A 
HETATM    6  C6  UNL     1     -35.194  15.940  -2.747  1.00 20.00     0.093 C 
HETATM    7  C7  UNL     1     -35.284  14.867  -5.442  1.00 20.00     0.082 A 
HETATM    8  O9  UNL     1     -35.694  14.192  -6.639  1.00 20.00    -0.375 OA
ENDROOT
BRANCH   6   9
HETATM    9  C8  UNL     1     -34.514  16.728  -1.628  1.00 20.00     0.391 C 
HETATM   10  F10 UNL     1     -34.893  18.014  -1.677  1.00 20.00    -0.171 F 
HETATM   11  F11 UNL     1     -34.856  16.219  -0.434  1.00 20.00    -0.171 F 
HETATM   12  F12 UNL     1     -33.182  16.661  -1.764  1.00 20.00    -0.171 F 
ENDBRANCH   6   9
TORSDOF 1
ENDMDL
MODEL 8
REMARK VINA RESULT:      -4.5     12.226     14.005
REMARK  1 active torsions:
REMARK  status: ('A' for Active; 'I' for Inactive)
REMARK    1  A    between atoms: C6_6  and  C8_8 
ROOT
HETATM    1  C1  UNL     1     -33.871  16.252  -4.560  1.00 20.00     0.016 C 
HETATM    2  C2  UNL     1     -34.805  14.495  -6.130  1.00 20.00     0.016 C 
HETATM    3  C3  UNL     1     -33.682  17.208  -5.738  1.00 20.00     0.041 C 
HETATM    4  C4  UNL     1     -34.618  15.446  -7.312  1.00 20.00     0.041 C 
HETATM    5  C5  UNL     1     -35.862  17.729  -7.076  1.00 20.00     0.207 A 
HETATM    6  C6  UNL     1     -33.790  14.781  -5.008  1.00 20.00     0.093 C 
HETATM    7  C7  UNL     1     -34.644  16.867  -6.836  1.00 20.00     0.082 A 
HETATM    8  O9  UNL     1     -34.686  17.835  -7.894  1.00 20.00    -0.375 OA
ENDROOT
BRANCH   6   9
HETATM    9  C8  UNL     1     -34.021  13.845  -3.823  1.00 20.00     0.391 C 
HETATM   10  F10 UNL     1     -34.411  14.550  -2.750  1.00 20.00    -0.171 F 
HETATM   11  F11 UNL     1     -34.972  12.948  -4.124  1.00 20.00    -0.171 F 
HETATM   12  F12 UNL     1     -32.887  13.193  -3.526  1.00 20.00    -0.171 F 
ENDBRANCH   6   9
TORSDOF 1
ENDMDL
MODEL 9
REMARK VINA RESULT:      -4.5     11.713     12.801
REMARK  1 active torsions:
REMARK  status: ('A' for Active; 'I' for Inactive)
REMARK    1  A    between atoms: C6_6  and  C8_8 
ROOT
HETATM    1  C1  UNL     1     -35.859  15.642  -3.892  1.00 20.00     0.016 C 
HETATM    2  C2  UNL     1     -33.550  15.776  -2.854  1.00 20.00     0.016 C 
HETATM    3  C3  UNL     1     -36.347  16.748  -2.956  1.00 20.00     0.041 C 
HETATM    4  C4  UNL     1     -34.032  16.882  -1.915  1.00 20.00     0.041 C 
HETATM    5  C5  UNL     1     -35.007  18.983  -3.121  1.00 20.00     0.207 A 
HETATM    6  C6  UNL     1     -34.703  14.841  -3.265  1.00 20.00     0.093 C 
HETATM    7  C7  UNL     1     -35.194  17.605  -2.528  1.00 20.00     0.082 A 
HETATM    8  O9  UNL     1     -35.581  18.791  -1.819  1.00 20.00    -0.375 OA
ENDROOT
BRANCH   6   9
HETATM    9  C8  UNL     1     -34.206  13.768  -4.232  1.00 20.00     0.391 C 
HETATM   10  F10 UNL     1     -34.087  14.282  -5.465  1.00 20.00    -0.171 F 
HETATM   11  F11 UNL     1     -33.009  13.310  -3.834  1.00 20.00    -0.171 F 
HETATM   12  F12 UNL     1     -35.073  12.746  -4.268  1.00 20.00    -0.171 F 
ENDBRANCH   6   9
TORSDOF 1
ENDMDL
