MODEL 1
REMARK VINA RESULT:      -5.2      0.000      0.000
REMARK  2 active torsions:
REMARK  status: ('A' for Active; 'I' for Inactive)
REMARK    1  A    between atoms: C8_8  and  C11_11 
REMARK    2  A    between atoms: C8_8  and  O12_12 
ROOT
HETATM    1  C1  UNL     1     -36.872  15.239  -5.458  1.00 20.00     0.012 C 
HETATM    2  C2  UNL     1     -35.786  14.757  -5.290  1.00 20.00    -0.115 C 
HETATM    3  C11 UNL     1     -34.465  14.156  -5.096  1.00 20.00     0.131 C 
ENDROOT
BRANCH   3   4
HETATM    4  C8  UNL     1     -33.630  14.982  -4.112  1.00 20.00     0.069 C 
HETATM    5  C4  UNL     1     -33.105  16.273  -4.773  1.00 20.00     0.043 C 
HETATM    6  C6  UNL     1     -34.024  17.468  -4.505  1.00 20.00    -0.015 C 
HETATM    7  C3  UNL     1     -34.108  17.766  -2.996  1.00 20.00     0.008 C 
HETATM    8  C9  UNL     1     -33.565  18.704  -5.276  1.00 20.00     0.010 C 
HETATM    9  C7  UNL     1     -33.939  16.517  -2.110  1.00 20.00    -0.015 C 
HETATM   10  C5  UNL     1     -34.444  15.261  -2.831  1.00 20.00     0.043 C 
HETATM   11  C10 UNL     1     -34.640  16.707  -0.767  1.00 20.00     0.010 C 
BRANCH   4  12
HETATM   12  O12 UNL     1     -32.480  14.200  -3.766  1.00 20.00    -0.389 OA
HETATM   13  H30 UNL     1     -31.758  14.512  -4.331  1.00 20.00     0.210 HD
ENDBRANCH   4  12
ENDBRANCH   3   4
TORSDOF 2
ENDMDL
MODEL 2
REMARK VINA RESULT:      -4.9      1.318      3.666
REMARK  2 active torsions:
REMARK  status: ('A' for Active; 'I' for Inactive)
REMARK    1  A    between atoms: C8_8  and  C11_11 
REMARK    2  A    between atoms: C8_8  and  O12_12 
ROOT
HETATM    1  C1  UNL     1     -34.540  16.642  -1.039  1.00 20.00     0.012 C 
HETATM    2  C2  UNL     1     -34.668  15.909  -1.980  1.00 20.00    -0.115 C 
HETATM    3  C11 UNL     1     -34.835  15.003  -3.119  1.00 20.00     0.131 C 
ENDROOT
BRANCH   3   4
HETATM    4  C8  UNL     1     -33.934  15.424  -4.285  1.00 20.00     0.069 C 
HETATM    5  C4  UNL     1     -34.262  14.620  -5.561  1.00 20.00     0.043 C 
HETATM    6  C6  UNL     1     -35.246  15.363  -6.468  1.00 20.00    -0.015 C 
HETATM    7  C3  UNL     1     -34.648  16.699  -6.948  1.00 20.00     0.008 C 
HETATM    8  C9  UNL     1     -35.664  14.498  -7.657  1.00 20.00     0.010 C 
HETATM    9  C7  UNL     1     -33.664  17.330  -5.945  1.00 20.00    -0.015 C 
HETATM   10  C5  UNL     1     -34.030  16.949  -4.505  1.00 20.00     0.043 C 
HETATM   11  C10 UNL     1     -33.610  18.846  -6.121  1.00 20.00     0.010 C 
BRANCH   4  12
HETATM   12  O12 UNL     1     -32.587  15.094  -3.925  1.00 20.00    -0.389 OA
HETATM   13  H30 UNL     1     -32.468  14.157  -4.140  1.00 20.00     0.210 HD
ENDBRANCH   4  12
ENDBRANCH   3   4
TORSDOF 2
ENDMDL
MODEL 3
REMARK VINA RESULT:      -4.9      1.307      4.253
REMARK  2 active torsions:
REMARK  status: ('A' for Active; 'I' for Inactive)
REMARK    1  A    between atoms: C8_8  and  C11_11 
REMARK    2  A    between atoms: C8_8  and  O12_12 
ROOT
HETATM    1  C1  UNL     1     -34.505  16.654  -0.837  1.00 20.00     0.012 C 
HETATM    2  C2  UNL     1     -34.092  16.717  -1.962  1.00 20.00    -0.115 C 
HETATM    3  C11 UNL     1     -33.582  16.809  -3.332  1.00 20.00     0.131 C 
ENDROOT
BRANCH   3   4
HETATM    4  C8  UNL     1     -33.880  15.524  -4.111  1.00 20.00     0.069 C 
HETATM    5  C4  UNL     1     -35.175  14.853  -3.607  1.00 20.00     0.043 C 
HETATM    6  C6  UNL     1     -36.392  15.262  -4.439  1.00 20.00    -0.015 C 
HETATM    7  C3  UNL     1     -36.227  14.821  -5.906  1.00 20.00     0.008 C 
HETATM    8  C9  UNL     1     -37.683  14.699  -3.846  1.00 20.00     0.010 C 
HETATM    9  C7  UNL     1     -34.761  14.782  -6.376  1.00 20.00    -0.015 C 
HETATM   10  C5  UNL     1     -33.916  15.818  -5.625  1.00 20.00     0.043 C 
HETATM   11  C10 UNL     1     -34.673  14.983  -7.888  1.00 20.00     0.010 C 
BRANCH   4  12
HETATM   12  O12 UNL     1     -32.811  14.607  -3.845  1.00 20.00    -0.389 OA
HETATM   13  H30 UNL     1     -32.878  14.374  -2.908  1.00 20.00     0.210 HD
ENDBRANCH   4  12
ENDBRANCH   3   4
TORSDOF 2
ENDMDL
MODEL 4
REMARK VINA RESULT:      -4.8      1.851      2.962
REMARK  2 active torsions:
REMARK  status: ('A' for Active; 'I' for Inactive)
REMARK    1  A    between atoms: C8_8  and  C11_11 
REMARK    2  A    between atoms: C8_8  and  O12_12 
ROOT
HETATM    1  C1  UNL     1     -34.577  16.226  -7.073  1.00 20.00     0.012 C 
HETATM    2  C2  UNL     1     -34.528  15.172  -6.500  1.00 20.00    -0.115 C 
HETATM    3  C11 UNL     1     -34.459  13.880  -5.814  1.00 20.00     0.131 C 
ENDROOT
BRANCH   3   4
HETATM    4  C8  UNL     1     -35.246  13.919  -4.500  1.00 20.00     0.069 C 
HETATM    5  C4  UNL     1     -34.407  14.544  -3.366  1.00 20.00     0.043 C 
HETATM    6  C6  UNL     1     -34.685  16.041  -3.208  1.00 20.00    -0.015 C 
HETATM    7  C3  UNL     1     -36.159  16.289  -2.834  1.00 20.00     0.008 C 
HETATM    8  C9  UNL     1     -33.751  16.672  -2.176  1.00 20.00     0.010 C 
HETATM    9  C7  UNL     1     -37.124  15.227  -3.395  1.00 20.00    -0.015 C 
HETATM   10  C5  UNL     1     -36.593  14.643  -4.710  1.00 20.00     0.043 C 
HETATM   11  C10 UNL     1     -38.525  15.810  -3.571  1.00 20.00     0.010 C 
BRANCH   4  12
HETATM   12  O12 UNL     1     -35.508  12.562  -4.118  1.00 20.00    -0.389 OA
HETATM   13  H30 UNL     1     -36.197  12.238  -4.717  1.00 20.00     0.210 HD
ENDBRANCH   4  12
ENDBRANCH   3   4
TORSDOF 2
ENDMDL
MODEL 5
REMARK VINA RESULT:      -4.8      1.694      3.880
REMARK  2 active torsions:
REMARK  status: ('A' for Active; 'I' for Inactive)
REMARK    1  A    between atoms: C8_8  and  C11_11 
REMARK    2  A    between atoms: C8_8  and  O12_12 
ROOT
HETATM    1  C1  UNL     1     -35.132  17.381   0.719  1.00 20.00     0.012 C 
HETATM    2  C2  UNL     1     -34.533  17.160  -0.297  1.00 20.00    -0.115 C 
HETATM    3  C11 UNL     1     -33.788  16.895  -1.530  1.00 20.00     0.131 C 
ENDROOT
BRANCH   3   4
HETATM    4  C8  UNL     1     -34.726  16.411  -2.640  1.00 20.00     0.069 C 
HETATM    5  C4  UNL     1     -34.751  17.404  -3.821  1.00 20.00     0.043 C 
HETATM    6  C6  UNL     1     -33.762  17.009  -4.921  1.00 20.00    -0.015 C 
HETATM    7  C3  UNL     1     -34.122  15.634  -5.513  1.00 20.00     0.008 C 
HETATM    8  C9  UNL     1     -33.700  18.072  -6.018  1.00 20.00     0.010 C 
HETATM    9  C7  UNL     1     -34.805  14.689  -4.507  1.00 20.00    -0.015 C 
HETATM   10  C5  UNL     1     -34.340  14.982  -3.076  1.00 20.00     0.043 C 
HETATM   11  C10 UNL     1     -34.560  13.229  -4.883  1.00 20.00     0.010 C 
BRANCH   4  12
HETATM   12  O12 UNL     1     -36.052  16.385  -2.098  1.00 20.00    -0.389 OA
HETATM   13  H30 UNL     1     -36.155  15.522  -1.670  1.00 20.00     0.210 HD
ENDBRANCH   4  12
ENDBRANCH   3   4
TORSDOF 2
ENDMDL
MODEL 6
REMARK VINA RESULT:      -4.6      1.582      1.815
REMARK  2 active torsions:
REMARK  status: ('A' for Active; 'I' for Inactive)
REMARK    1  A    between atoms: C8_8  and  C11_11 
REMARK    2  A    between atoms: C8_8  and  O12_12 
ROOT
HETATM    1  C1  UNL     1     -35.351  14.584  -7.592  1.00 20.00     0.012 C 
HETATM    2  C2  UNL     1     -34.884  14.428  -6.497  1.00 20.00    -0.115 C 
HETATM    3  C11 UNL     1     -34.316  14.220  -5.163  1.00 20.00     0.131 C 
ENDROOT
BRANCH   3   4
HETATM    4  C8  UNL     1     -34.028  15.561  -4.480  1.00 20.00     0.069 C 
HETATM    5  C4  UNL     1     -34.893  16.690  -5.079  1.00 20.00     0.043 C 
HETATM    6  C6  UNL     1     -36.175  16.917  -4.274  1.00 20.00    -0.015 C 
HETATM    7  C3  UNL     1     -35.846  17.351  -2.832  1.00 20.00     0.008 C 
HETATM    8  C9  UNL     1     -37.083  17.940  -4.954  1.00 20.00     0.010 C 
HETATM    9  C7  UNL     1     -34.516  16.781  -2.305  1.00 20.00    -0.015 C 
HETATM   10  C5  UNL     1     -34.204  15.427  -2.953  1.00 20.00     0.043 C 
HETATM   11  C10 UNL     1     -34.539  16.676  -0.781  1.00 20.00     0.010 C 
BRANCH   4  12
HETATM   12  O12 UNL     1     -32.663  15.897  -4.759  1.00 20.00    -0.389 OA
HETATM   13  H30 UNL     1     -32.454  15.503  -5.619  1.00 20.00     0.210 HD
ENDBRANCH   4  12
ENDBRANCH   3   4
TORSDOF 2
ENDMDL
MODEL 7
REMARK VINA RESULT:      -4.5      2.366      3.446
REMARK  2 active torsions:
REMARK  status: ('A' for Active; 'I' for Inactive)
REMARK    1  A    between atoms: C8_8  and  C11_11 
REMARK    2  A    between atoms: C8_8  and  O12_12 
ROOT
HETATM    1  C1  UNL     1     -35.799  17.179  -6.540  1.00 20.00     0.012 C 
HETATM    2  C2  UNL     1     -36.637  16.729  -5.809  1.00 20.00    -0.115 C 
HETATM    3  C11 UNL     1     -37.673  16.185  -4.927  1.00 20.00     0.131 C 
ENDROOT
BRANCH   3   4
HETATM    4  C8  UNL     1     -37.048  15.546  -3.683  1.00 20.00     0.069 C 
HETATM    5  C4  UNL     1     -36.333  14.224  -4.034  1.00 20.00     0.043 C 
HETATM    6  C6  UNL     1     -34.838  14.432  -4.289  1.00 20.00    -0.015 C 
HETATM    7  C3  UNL     1     -34.137  14.974  -3.029  1.00 20.00     0.008 C 
HETATM    8  C9  UNL     1     -34.174  13.142  -4.767  1.00 20.00     0.010 C 
HETATM    9  C7  UNL     1     -35.050  15.841  -2.141  1.00 20.00    -0.015 C 
HETATM   10  C5  UNL     1     -36.115  16.556  -2.981  1.00 20.00     0.043 C 
HETATM   11  C10 UNL     1     -34.224  16.836  -1.327  1.00 20.00     0.010 C 
BRANCH   4  12
HETATM   12  O12 UNL     1     -38.118  15.211  -2.791  1.00 20.00    -0.389 OA
HETATM   13  H30 UNL     1     -38.940  15.410  -3.264  1.00 20.00     0.210 HD
ENDBRANCH   4  12
ENDBRANCH   3   4
TORSDOF 2
ENDMDL
MODEL 8
REMARK VINA RESULT:      -4.4      1.836      3.437
REMARK  2 active torsions:
REMARK  status: ('A' for Active; 'I' for Inactive)
REMARK    1  A    between atoms: C8_8  and  C11_11 
REMARK    2  A    between atoms: C8_8  and  O12_12 
ROOT
HETATM    1  C1  UNL     1     -33.294  13.296  -3.785  1.00 20.00     0.012 C 
HETATM    2  C2  UNL     1     -34.421  13.658  -3.980  1.00 20.00    -0.115 C 
HETATM    3  C11 UNL     1     -35.802  14.084  -4.222  1.00 20.00     0.131 C 
ENDROOT
BRANCH   3   4
HETATM    4  C8  UNL     1     -35.930  15.607  -4.111  1.00 20.00     0.069 C 
HETATM    5  C4  UNL     1     -35.958  16.057  -2.635  1.00 20.00     0.043 C 
HETATM    6  C6  UNL     1     -34.568  16.455  -2.131  1.00 20.00    -0.015 C 
HETATM    7  C3  UNL     1     -34.017  17.650  -2.931  1.00 20.00     0.008 C 
HETATM    8  C9  UNL     1     -34.589  16.767  -0.636  1.00 20.00     0.010 C 
HETATM    9  C7  UNL     1     -34.519  17.702  -4.387  1.00 20.00    -0.015 C 
HETATM   10  C5  UNL     1     -34.808  16.293  -4.918  1.00 20.00     0.043 C 
HETATM   11  C10 UNL     1     -33.519  18.438  -5.277  1.00 20.00     0.010 C 
BRANCH   4  12
HETATM   12  O12 UNL     1     -37.194  15.972  -4.676  1.00 20.00    -0.389 OA
HETATM   13  H30 UNL     1     -37.850  15.864  -3.972  1.00 20.00     0.210 HD
ENDBRANCH   4  12
ENDBRANCH   3   4
TORSDOF 2
ENDMDL
MODEL 9
REMARK VINA RESULT:      -4.4      2.122      4.524
REMARK  2 active torsions:
REMARK  status: ('A' for Active; 'I' for Inactive)
REMARK    1  A    between atoms: C8_8  and  C11_11 
REMARK    2  A    between atoms: C8_8  and  O12_12 
ROOT
HETATM    1  C1  UNL     1     -32.835  18.432  -0.272  1.00 20.00     0.012 C 
HETATM    2  C2  UNL     1     -33.725  17.682  -0.566  1.00 20.00    -0.115 C 
HETATM    3  C11 UNL     1     -34.814  16.764  -0.907  1.00 20.00     0.131 C 
ENDROOT
BRANCH   3   4
HETATM    4  C8  UNL     1     -34.971  16.647  -2.427  1.00 20.00     0.069 C 
HETATM    5  C4  UNL     1     -33.853  15.775  -3.037  1.00 20.00     0.043 C 
HETATM    6  C6  UNL     1     -34.289  14.317  -3.199  1.00 20.00    -0.015 C 
HETATM    7  C3  UNL     1     -35.489  14.207  -4.160  1.00 20.00     0.008 C 
HETATM    8  C9  UNL     1     -33.131  13.442  -3.676  1.00 20.00     0.010 C 
HETATM    9  C7  UNL     1     -36.404  15.446  -4.148  1.00 20.00    -0.015 C 
HETATM   10  C5  UNL     1     -36.383  16.131  -2.776  1.00 20.00     0.043 C 
HETATM   11  C10 UNL     1     -37.826  15.071  -4.560  1.00 20.00     0.010 C 
BRANCH   4  12
HETATM   12  O12 UNL     1     -34.813  17.962  -2.975  1.00 20.00    -0.389 OA
HETATM   13  H30 UNL     1     -34.666  18.555  -2.223  1.00 20.00     0.210 HD
ENDBRANCH   4  12
ENDBRANCH   3   4
TORSDOF 2
ENDMDL
