MODEL 1
REMARK VINA RESULT:      -4.8      0.000      0.000
REMARK  4 active torsions:
REMARK  status: ('A' for Active; 'I' for Inactive)
REMARK    1  A    between atoms: C5_5  and  C6_6 
REMARK    2  A    between atoms: C6_6  and  C8_8 
REMARK    3  A    between atoms: C7_7  and  C8_8 
REMARK    4  A    between atoms: C7_7  and  C9_9 
ROOT
HETATM    1  C1  UNL     1     -32.166   9.113   1.044  1.00 20.00     0.012 C 
HETATM    2  C2  UNL     1     -32.055   8.443   2.034  1.00 20.00    -0.117 C 
HETATM    3  C5  UNL     1     -31.919   7.628   3.248  1.00 20.00     0.093 C 
ENDROOT
BRANCH   3   4
HETATM    4  C6  UNL     1     -32.197   6.143   2.991  1.00 20.00     0.016 C 
BRANCH   4   5
HETATM    5  C8  UNL     1     -33.533   5.599   3.553  1.00 20.00    -0.016 C 
HETATM    6  C3  UNL     1     -34.412   5.149   2.379  1.00 20.00     0.010 C 
BRANCH   5   7
HETATM    7  C7  UNL     1     -34.248   6.648   4.436  1.00 20.00     0.024 C 
BRANCH   7   8
HETATM    8  C9  UNL     1     -34.412   6.284   5.922  1.00 20.00     0.078 C 
HETATM    9  C4  UNL     1     -33.362   6.991   6.773  1.00 20.00     0.026 C 
HETATM   10 CL10 UNL     1     -34.261   4.519   6.170  1.00 20.00    -0.125 Cl
ENDBRANCH   7   8
ENDBRANCH   5   7
ENDBRANCH   4   5
ENDBRANCH   3   4
TORSDOF 4
ENDMDL
MODEL 2
REMARK VINA RESULT:      -4.7      1.109      1.287
REMARK  4 active torsions:
REMARK  status: ('A' for Active; 'I' for Inactive)
REMARK    1  A    between atoms: C5_5  and  C6_6 
REMARK    2  A    between atoms: C6_6  and  C8_8 
REMARK    3  A    between atoms: C7_7  and  C8_8 
REMARK    4  A    between atoms: C7_7  and  C9_9 
ROOT
HETATM    1  C1  UNL     1     -32.150   8.988   0.826  1.00 20.00     0.012 C 
HETATM    2  C2  UNL     1     -32.054   8.394   1.864  1.00 20.00    -0.117 C 
HETATM    3  C5  UNL     1     -31.937   7.670   3.137  1.00 20.00     0.093 C 
ENDROOT
BRANCH   3   4
HETATM    4  C6  UNL     1     -32.089   6.156   2.966  1.00 20.00     0.016 C 
BRANCH   4   5
HETATM    5  C8  UNL     1     -33.426   5.551   3.459  1.00 20.00    -0.016 C 
HETATM    6  C3  UNL     1     -34.345   5.340   2.249  1.00 20.00     0.010 C 
BRANCH   5   7
HETATM    7  C7  UNL     1     -34.091   6.441   4.536  1.00 20.00     0.024 C 
BRANCH   7   8
HETATM    8  C9  UNL     1     -33.860   6.021   5.998  1.00 20.00     0.078 C 
HETATM    9  C4  UNL     1     -34.940   5.047   6.460  1.00 20.00     0.026 C 
HETATM   10 CL10 UNL     1     -33.865   7.443   7.083  1.00 20.00    -0.125 Cl
ENDBRANCH   7   8
ENDBRANCH   5   7
ENDBRANCH   4   5
ENDBRANCH   3   4
TORSDOF 4
ENDMDL
MODEL 3
REMARK VINA RESULT:      -4.3      2.703      5.088
REMARK  4 active torsions:
REMARK  status: ('A' for Active; 'I' for Inactive)
REMARK    1  A    between atoms: C5_5  and  C6_6 
REMARK    2  A    between atoms: C6_6  and  C8_8 
REMARK    3  A    between atoms: C7_7  and  C8_8 
REMARK    4  A    between atoms: C7_7  and  C9_9 
ROOT
HETATM    1  C1  UNL     1     -35.123   4.236   6.309  1.00 20.00     0.012 C 
HETATM    2  C2  UNL     1     -35.054   4.743   5.223  1.00 20.00    -0.117 C 
HETATM    3  C5  UNL     1     -34.972   5.360   3.893  1.00 20.00     0.093 C 
ENDROOT
BRANCH   3   4
HETATM    4  C6  UNL     1     -34.037   6.573   3.866  1.00 20.00     0.016 C 
BRANCH   4   5
HETATM    5  C8  UNL     1     -32.886   6.516   2.832  1.00 20.00    -0.016 C 
HETATM    6  C3  UNL     1     -31.958   5.350   3.195  1.00 20.00     0.010 C 
BRANCH   5   7
HETATM    7  C7  UNL     1     -32.120   7.858   2.759  1.00 20.00     0.024 C 
BRANCH   7   8
HETATM    8  C9  UNL     1     -32.490   8.785   1.588  1.00 20.00     0.078 C 
HETATM    9  C4  UNL     1     -31.432   8.723   0.491  1.00 20.00     0.026 C 
HETATM   10 CL10 UNL     1     -32.651  10.479   2.138  1.00 20.00    -0.125 Cl
ENDBRANCH   7   8
ENDBRANCH   5   7
ENDBRANCH   4   5
ENDBRANCH   3   4
TORSDOF 4
ENDMDL
MODEL 4
REMARK VINA RESULT:      -4.3     11.075     12.407
REMARK  4 active torsions:
REMARK  status: ('A' for Active; 'I' for Inactive)
REMARK    1  A    between atoms: C5_5  and  C6_6 
REMARK    2  A    between atoms: C6_6  and  C8_8 
REMARK    3  A    between atoms: C7_7  and  C8_8 
REMARK    4  A    between atoms: C7_7  and  C9_9 
ROOT
HETATM    1  C1  UNL     1     -34.813  17.004  -0.232  1.00 20.00     0.012 C 
HETATM    2  C2  UNL     1     -34.485  16.581  -1.306  1.00 20.00    -0.117 C 
HETATM    3  C5  UNL     1     -34.080  16.066  -2.621  1.00 20.00     0.093 C 
ENDROOT
BRANCH   3   4
HETATM    4  C6  UNL     1     -35.105  15.094  -3.211  1.00 20.00     0.016 C 
BRANCH   4   5
HETATM    5  C8  UNL     1     -34.531  13.784  -3.804  1.00 20.00    -0.016 C 
HETATM    6  C3  UNL     1     -33.012  13.774  -3.589  1.00 20.00     0.010 C 
BRANCH   5   7
HETATM    7  C7  UNL     1     -34.901  13.624  -5.297  1.00 20.00     0.024 C 
BRANCH   7   8
HETATM    8  C9  UNL     1     -35.310  14.911  -6.034  1.00 20.00     0.078 C 
HETATM    9  C4  UNL     1     -35.951  14.585  -7.380  1.00 20.00     0.026 C 
HETATM   10 CL10 UNL     1     -33.895  15.969  -6.311  1.00 20.00    -0.125 Cl
ENDBRANCH   7   8
ENDBRANCH   5   7
ENDBRANCH   4   5
ENDBRANCH   3   4
TORSDOF 4
ENDMDL
MODEL 5
REMARK VINA RESULT:      -4.2      1.842      4.182
REMARK  4 active torsions:
REMARK  status: ('A' for Active; 'I' for Inactive)
REMARK    1  A    between atoms: C5_5  and  C6_6 
REMARK    2  A    between atoms: C6_6  and  C8_8 
REMARK    3  A    between atoms: C7_7  and  C8_8 
REMARK    4  A    between atoms: C7_7  and  C9_9 
ROOT
HETATM    1  C1  UNL     1     -33.488   7.552   6.996  1.00 20.00     0.012 C 
HETATM    2  C2  UNL     1     -33.990   6.509   6.677  1.00 20.00    -0.117 C 
HETATM    3  C5  UNL     1     -34.606   5.234   6.290  1.00 20.00     0.093 C 
ENDROOT
BRANCH   3   4
HETATM    4  C6  UNL     1     -34.319   4.863   4.832  1.00 20.00     0.016 C 
BRANCH   4   5
HETATM    5  C8  UNL     1     -34.349   6.033   3.819  1.00 20.00    -0.016 C 
HETATM    6  C3  UNL     1     -35.500   5.797   2.832  1.00 20.00     0.010 C 
BRANCH   5   7
HETATM    7  C7  UNL     1     -32.994   6.193   3.093  1.00 20.00     0.024 C 
BRANCH   7   8
HETATM    8  C9  UNL     1     -32.407   7.615   3.058  1.00 20.00     0.078 C 
HETATM    9  C4  UNL     1     -31.935   7.974   1.653  1.00 20.00     0.026 C 
HETATM   10 CL10 UNL     1     -31.028   7.767   4.187  1.00 20.00    -0.125 Cl
ENDBRANCH   7   8
ENDBRANCH   5   7
ENDBRANCH   4   5
ENDBRANCH   3   4
TORSDOF 4
ENDMDL
MODEL 6
REMARK VINA RESULT:      -4.1     11.096     12.730
REMARK  4 active torsions:
REMARK  status: ('A' for Active; 'I' for Inactive)
REMARK    1  A    between atoms: C5_5  and  C6_6 
REMARK    2  A    between atoms: C6_6  and  C8_8 
REMARK    3  A    between atoms: C7_7  and  C8_8 
REMARK    4  A    between atoms: C7_7  and  C9_9 
ROOT
HETATM    1  C1  UNL     1     -35.029  17.402   0.626  1.00 20.00     0.012 C 
HETATM    2  C2  UNL     1     -34.595  17.079  -0.445  1.00 20.00    -0.117 C 
HETATM    3  C5  UNL     1     -34.060  16.687  -1.756  1.00 20.00     0.093 C 
ENDROOT
BRANCH   3   4
HETATM    4  C6  UNL     1     -34.836  15.524  -2.381  1.00 20.00     0.016 C 
BRANCH   4   5
HETATM    5  C8  UNL     1     -34.365  15.076  -3.786  1.00 20.00    -0.016 C 
HETATM    6  C3  UNL     1     -33.974  13.594  -3.723  1.00 20.00     0.010 C 
BRANCH   5   7
HETATM    7  C7  UNL     1     -33.202  15.955  -4.304  1.00 20.00     0.024 C 
BRANCH   7   8
HETATM    8  C9  UNL     1     -33.460  16.712  -5.617  1.00 20.00     0.078 C 
HETATM    9  C4  UNL     1     -34.468  17.837  -5.408  1.00 20.00     0.026 C 
HETATM   10 CL10 UNL     1     -34.081  15.610  -6.883  1.00 20.00    -0.125 Cl
ENDBRANCH   7   8
ENDBRANCH   5   7
ENDBRANCH   4   5
ENDBRANCH   3   4
TORSDOF 4
ENDMDL
MODEL 7
REMARK VINA RESULT:      -4.1     11.606     12.800
REMARK  4 active torsions:
REMARK  status: ('A' for Active; 'I' for Inactive)
REMARK    1  A    between atoms: C5_5  and  C6_6 
REMARK    2  A    between atoms: C6_6  and  C8_8 
REMARK    3  A    between atoms: C7_7  and  C8_8 
REMARK    4  A    between atoms: C7_7  and  C9_9 
ROOT
HETATM    1  C1  UNL     1     -34.680  17.334   0.070  1.00 20.00     0.012 C 
HETATM    2  C2  UNL     1     -34.664  16.646  -0.913  1.00 20.00    -0.117 C 
HETATM    3  C5  UNL     1     -34.649  15.803  -2.116  1.00 20.00     0.093 C 
ENDROOT
BRANCH   3   4
HETATM    4  C6  UNL     1     -33.449  16.095  -3.022  1.00 20.00     0.016 C 
BRANCH   4   5
HETATM    5  C8  UNL     1     -33.769  16.291  -4.524  1.00 20.00    -0.016 C 
HETATM    6  C3  UNL     1     -33.547  17.765  -4.885  1.00 20.00     0.010 C 
BRANCH   5   7
HETATM    7  C7  UNL     1     -35.205  15.826  -4.865  1.00 20.00     0.024 C 
BRANCH   7   8
HETATM    8  C9  UNL     1     -35.318  14.589  -5.772  1.00 20.00     0.078 C 
HETATM    9  C4  UNL     1     -34.768  13.350  -5.072  1.00 20.00     0.026 C 
HETATM   10 CL10 UNL     1     -34.424  14.831  -7.302  1.00 20.00    -0.125 Cl
ENDBRANCH   7   8
ENDBRANCH   5   7
ENDBRANCH   4   5
ENDBRANCH   3   4
TORSDOF 4
ENDMDL
MODEL 8
REMARK VINA RESULT:      -3.9     10.852     12.044
REMARK  4 active torsions:
REMARK  status: ('A' for Active; 'I' for Inactive)
REMARK    1  A    between atoms: C5_5  and  C6_6 
REMARK    2  A    between atoms: C6_6  and  C8_8 
REMARK    3  A    between atoms: C7_7  and  C8_8 
REMARK    4  A    between atoms: C7_7  and  C9_9 
ROOT
HETATM    1  C1  UNL     1     -35.074  18.138   1.737  1.00 20.00     0.012 C 
HETATM    2  C2  UNL     1     -34.599  17.848   0.674  1.00 20.00    -0.117 C 
HETATM    3  C5  UNL     1     -34.014  17.496  -0.626  1.00 20.00     0.093 C 
ENDROOT
BRANCH   3   4
HETATM    4  C6  UNL     1     -34.725  16.311  -1.287  1.00 20.00     0.016 C 
BRANCH   4   5
HETATM    5  C8  UNL     1     -34.203  15.906  -2.687  1.00 20.00    -0.016 C 
HETATM    6  C3  UNL     1     -33.809  17.177  -3.450  1.00 20.00     0.010 C 
BRANCH   5   7
HETATM    7  C7  UNL     1     -35.246  15.069  -3.464  1.00 20.00     0.024 C 
BRANCH   7   8
HETATM    8  C9  UNL     1     -34.695  13.883  -4.274  1.00 20.00     0.078 C 
HETATM    9  C4  UNL     1     -33.299  13.499  -3.795  1.00 20.00     0.026 C 
HETATM   10 CL10 UNL     1     -34.618  14.277  -6.017  1.00 20.00    -0.125 Cl
ENDBRANCH   7   8
ENDBRANCH   5   7
ENDBRANCH   4   5
ENDBRANCH   3   4
TORSDOF 4
ENDMDL
MODEL 9
REMARK VINA RESULT:      -3.9     10.933     11.936
REMARK  4 active torsions:
REMARK  status: ('A' for Active; 'I' for Inactive)
REMARK    1  A    between atoms: C5_5  and  C6_6 
REMARK    2  A    between atoms: C6_6  and  C8_8 
REMARK    3  A    between atoms: C7_7  and  C8_8 
REMARK    4  A    between atoms: C7_7  and  C9_9 
ROOT
HETATM    1  C1  UNL     1     -37.220  14.643  -4.088  1.00 20.00     0.012 C 
HETATM    2  C2  UNL     1     -36.176  14.052  -4.123  1.00 20.00    -0.117 C 
HETATM    3  C5  UNL     1     -34.901  13.325  -4.169  1.00 20.00     0.093 C 
ENDROOT
BRANCH   3   4
HETATM    4  C6  UNL     1     -33.699  14.231  -3.883  1.00 20.00     0.016 C 
BRANCH   4   5
HETATM    5  C8  UNL     1     -33.995  15.750  -3.836  1.00 20.00    -0.016 C 
HETATM    6  C3  UNL     1     -33.174  16.444  -4.930  1.00 20.00     0.010 C 
BRANCH   5   7
HETATM    7  C7  UNL     1     -33.706  16.344  -2.437  1.00 20.00     0.024 C 
BRANCH   7   8
HETATM    8  C9  UNL     1     -34.931  16.594  -1.541  1.00 20.00     0.078 C 
HETATM    9  C4  UNL     1     -35.928  17.520  -2.231  1.00 20.00     0.026 C 
HETATM   10 CL10 UNL     1     -34.447  17.328   0.017  1.00 20.00    -0.125 Cl
ENDBRANCH   7   8
ENDBRANCH   5   7
ENDBRANCH   4   5
ENDBRANCH   3   4
TORSDOF 4
ENDMDL
