MODEL 1
REMARK VINA RESULT:      -4.6      0.000      0.000
REMARK  3 active torsions:
REMARK  status: ('A' for Active; 'I' for Inactive)
REMARK    1  A    between atoms: C5_5  and  C7_7 
REMARK    2  A    between atoms: C6_6  and  C7_7 
REMARK    3  A    between atoms: C6_6  and  C8_8 
ROOT
HETATM    1  C1  UNL     1     -32.115   8.746   1.154  1.00 20.00     0.012 C 
HETATM    2  C2  UNL     1     -31.975   8.197   2.212  1.00 20.00    -0.117 C 
HETATM    3  C5  UNL     1     -31.797   7.529   3.511  1.00 20.00     0.097 C 
ENDROOT
BRANCH   3   4
HETATM    4  C7  UNL     1     -32.643   6.252   3.672  1.00 20.00    -0.006 C 
HETATM    5  C3  UNL     1     -32.425   5.288   2.498  1.00 20.00     0.011 C 
BRANCH   4   6
HETATM    6  C6  UNL     1     -34.157   6.510   3.858  1.00 20.00     0.025 C 
BRANCH   6   7
HETATM    7  C8  UNL     1     -34.779   5.956   5.150  1.00 20.00     0.078 C 
HETATM    8  C4  UNL     1     -33.954   6.357   6.367  1.00 20.00     0.026 C 
HETATM    9 CL9  UNL     1     -34.896   4.172   5.094  1.00 20.00    -0.125 Cl
ENDBRANCH   6   7
ENDBRANCH   4   6
ENDBRANCH   3   4
TORSDOF 3
ENDMDL
MODEL 2
REMARK VINA RESULT:      -4.4      1.335      1.421
REMARK  3 active torsions:
REMARK  status: ('A' for Active; 'I' for Inactive)
REMARK    1  A    between atoms: C5_5  and  C7_7 
REMARK    2  A    between atoms: C6_6  and  C7_7 
REMARK    3  A    between atoms: C6_6  and  C8_8 
ROOT
HETATM    1  C1  UNL     1     -32.149   8.840   1.071  1.00 20.00     0.012 C 
HETATM    2  C2  UNL     1     -31.999   8.255   2.109  1.00 20.00    -0.117 C 
HETATM    3  C5  UNL     1     -31.809   7.544   3.383  1.00 20.00     0.097 C 
ENDROOT
BRANCH   3   4
HETATM    4  C7  UNL     1     -32.584   6.216   3.472  1.00 20.00    -0.006 C 
HETATM    5  C3  UNL     1     -32.821   5.615   2.080  1.00 20.00     0.011 C 
BRANCH   4   6
HETATM    6  C6  UNL     1     -33.927   6.313   4.232  1.00 20.00     0.025 C 
BRANCH   6   7
HETATM    7  C8  UNL     1     -33.932   5.754   5.664  1.00 20.00     0.078 C 
HETATM    8  C4  UNL     1     -35.159   4.882   5.904  1.00 20.00     0.026 C 
HETATM    9 CL9  UNL     1     -33.919   7.075   6.871  1.00 20.00    -0.125 Cl
ENDBRANCH   6   7
ENDBRANCH   4   6
ENDBRANCH   3   4
TORSDOF 3
ENDMDL
MODEL 3
REMARK VINA RESULT:      -4.4      2.255      4.421
REMARK  3 active torsions:
REMARK  status: ('A' for Active; 'I' for Inactive)
REMARK    1  A    between atoms: C5_5  and  C7_7 
REMARK    2  A    between atoms: C6_6  and  C7_7 
REMARK    3  A    between atoms: C6_6  and  C8_8 
ROOT
HETATM    1  C1  UNL     1     -35.139   4.075   6.286  1.00 20.00     0.012 C 
HETATM    2  C2  UNL     1     -34.619   5.089   5.907  1.00 20.00    -0.117 C 
HETATM    3  C5  UNL     1     -33.983   6.334   5.451  1.00 20.00     0.097 C 
ENDROOT
BRANCH   3   4
HETATM    4  C7  UNL     1     -33.938   6.482   3.918  1.00 20.00    -0.006 C 
HETATM    5  C3  UNL     1     -35.071   5.690   3.250  1.00 20.00     0.011 C 
BRANCH   4   6
HETATM    6  C6  UNL     1     -32.585   6.092   3.280  1.00 20.00     0.025 C 
BRANCH   6   7
HETATM    7  C8  UNL     1     -31.628   7.254   2.970  1.00 20.00     0.078 C 
HETATM    8  C4  UNL     1     -31.181   7.948   4.251  1.00 20.00     0.026 C 
HETATM    9 CL9  UNL     1     -32.406   8.461   1.902  1.00 20.00    -0.125 Cl
ENDBRANCH   6   7
ENDBRANCH   4   6
ENDBRANCH   3   4
TORSDOF 3
ENDMDL
MODEL 4
REMARK VINA RESULT:      -4.1      0.815      1.470
REMARK  3 active torsions:
REMARK  status: ('A' for Active; 'I' for Inactive)
REMARK    1  A    between atoms: C5_5  and  C7_7 
REMARK    2  A    between atoms: C6_6  and  C7_7 
REMARK    3  A    between atoms: C6_6  and  C8_8 
ROOT
HETATM    1  C1  UNL     1     -32.229   9.888   0.881  1.00 20.00     0.012 C 
HETATM    2  C2  UNL     1     -32.187   8.778   1.336  1.00 20.00    -0.117 C 
HETATM    3  C5  UNL     1     -32.136   7.415   1.886  1.00 20.00     0.097 C 
ENDROOT
BRANCH   3   4
HETATM    4  C7  UNL     1     -32.451   7.342   3.392  1.00 20.00    -0.006 C 
HETATM    5  C3  UNL     1     -31.226   7.722   4.235  1.00 20.00     0.011 C 
BRANCH   4   6
HETATM    6  C6  UNL     1     -33.002   5.975   3.862  1.00 20.00     0.025 C 
BRANCH   6   7
HETATM    7  C8  UNL     1     -34.286   6.022   4.704  1.00 20.00     0.078 C 
HETATM    8  C4  UNL     1     -33.971   6.352   6.159  1.00 20.00     0.026 C 
HETATM    9 CL9  UNL     1     -35.153   4.458   4.643  1.00 20.00    -0.125 Cl
ENDBRANCH   6   7
ENDBRANCH   4   6
ENDBRANCH   3   4
TORSDOF 3
ENDMDL
MODEL 5
REMARK VINA RESULT:      -4.0      1.648      4.428
REMARK  3 active torsions:
REMARK  status: ('A' for Active; 'I' for Inactive)
REMARK    1  A    between atoms: C5_5  and  C7_7 
REMARK    2  A    between atoms: C6_6  and  C7_7 
REMARK    3  A    between atoms: C6_6  and  C8_8 
ROOT
HETATM    1  C1  UNL     1     -35.174   3.511   4.942  1.00 20.00     0.012 C 
HETATM    2  C2  UNL     1     -34.926   4.417   5.690  1.00 20.00    -0.117 C 
HETATM    3  C5  UNL     1     -34.629   5.526   6.609  1.00 20.00     0.097 C 
ENDROOT
BRANCH   3   4
HETATM    4  C7  UNL     1     -33.530   6.477   6.099  1.00 20.00    -0.006 C 
HETATM    5  C3  UNL     1     -33.353   7.677   7.039  1.00 20.00     0.011 C 
BRANCH   4   6
HETATM    6  C6  UNL     1     -33.744   6.977   4.651  1.00 20.00     0.025 C 
BRANCH   6   7
HETATM    7  C8  UNL     1     -32.824   6.362   3.584  1.00 20.00     0.078 C 
HETATM    8  C4  UNL     1     -32.072   7.447   2.823  1.00 20.00     0.026 C 
HETATM    9 CL9  UNL     1     -33.759   5.380   2.417  1.00 20.00    -0.125 Cl
ENDBRANCH   6   7
ENDBRANCH   4   6
ENDBRANCH   3   4
TORSDOF 3
ENDMDL
MODEL 6
REMARK VINA RESULT:      -4.0     11.423     12.301
REMARK  3 active torsions:
REMARK  status: ('A' for Active; 'I' for Inactive)
REMARK    1  A    between atoms: C5_5  and  C7_7 
REMARK    2  A    between atoms: C6_6  and  C7_7 
REMARK    3  A    between atoms: C6_6  and  C8_8 
ROOT
HETATM    1  C1  UNL     1     -34.773  17.402   0.279  1.00 20.00     0.012 C 
HETATM    2  C2  UNL     1     -34.755  16.753  -0.731  1.00 20.00    -0.117 C 
HETATM    3  C5  UNL     1     -34.737  15.953  -1.965  1.00 20.00     0.097 C 
ENDROOT
BRANCH   3   4
HETATM    4  C7  UNL     1     -33.591  16.320  -2.925  1.00 20.00    -0.006 C 
HETATM    5  C3  UNL     1     -33.855  17.663  -3.620  1.00 20.00     0.011 C 
BRANCH   4   6
HETATM    6  C6  UNL     1     -33.278  15.239  -3.987  1.00 20.00     0.025 C 
BRANCH   6   7
HETATM    7  C8  UNL     1     -34.473  14.749  -4.819  1.00 20.00     0.078 C 
HETATM    8  C4  UNL     1     -34.655  13.242  -4.676  1.00 20.00     0.026 C 
HETATM    9 CL9  UNL     1     -34.256  15.141  -6.551  1.00 20.00    -0.125 Cl
ENDBRANCH   6   7
ENDBRANCH   4   6
ENDBRANCH   3   4
TORSDOF 3
ENDMDL
MODEL 7
REMARK VINA RESULT:      -4.0     11.008     12.070
REMARK  3 active torsions:
REMARK  status: ('A' for Active; 'I' for Inactive)
REMARK    1  A    between atoms: C5_5  and  C7_7 
REMARK    2  A    between atoms: C6_6  and  C7_7 
REMARK    3  A    between atoms: C6_6  and  C8_8 
ROOT
HETATM    1  C1  UNL     1     -34.457  15.365  -7.074  1.00 20.00     0.012 C 
HETATM    2  C2  UNL     1     -34.596  14.476  -6.279  1.00 20.00    -0.117 C 
HETATM    3  C5  UNL     1     -34.765  13.382  -5.310  1.00 20.00     0.097 C 
ENDROOT
BRANCH   3   4
HETATM    4  C7  UNL     1     -35.233  13.852  -3.921  1.00 20.00    -0.006 C 
HETATM    5  C3  UNL     1     -36.578  14.586  -4.005  1.00 20.00     0.011 C 
BRANCH   4   6
HETATM    6  C6  UNL     1     -34.208  14.731  -3.167  1.00 20.00     0.025 C 
BRANCH   6   7
HETATM    7  C8  UNL     1     -34.672  16.153  -2.814  1.00 20.00     0.078 C 
HETATM    8  C4  UNL     1     -33.789  17.197  -3.487  1.00 20.00     0.026 C 
HETATM    9 CL9  UNL     1     -34.636  16.422  -1.045  1.00 20.00    -0.125 Cl
ENDBRANCH   6   7
ENDBRANCH   4   6
ENDBRANCH   3   4
TORSDOF 3
ENDMDL
MODEL 8
REMARK VINA RESULT:      -4.0     11.014     12.455
REMARK  3 active torsions:
REMARK  status: ('A' for Active; 'I' for Inactive)
REMARK    1  A    between atoms: C5_5  and  C7_7 
REMARK    2  A    between atoms: C6_6  and  C7_7 
REMARK    3  A    between atoms: C6_6  and  C8_8 
ROOT
HETATM    1  C1  UNL     1     -34.783  16.929  -0.560  1.00 20.00     0.012 C 
HETATM    2  C2  UNL     1     -34.283  16.510  -1.568  1.00 20.00    -0.117 C 
HETATM    3  C5  UNL     1     -33.666  16.002  -2.803  1.00 20.00     0.097 C 
ENDROOT
BRANCH   3   4
HETATM    4  C7  UNL     1     -34.401  14.794  -3.412  1.00 20.00    -0.006 C 
HETATM    5  C3  UNL     1     -33.424  13.660  -3.751  1.00 20.00     0.011 C 
BRANCH   4   6
HETATM    6  C6  UNL     1     -35.259  15.130  -4.654  1.00 20.00     0.025 C 
BRANCH   6   7
HETATM    7  C8  UNL     1     -34.528  15.097  -6.005  1.00 20.00     0.078 C 
HETATM    8  C4  UNL     1     -34.214  16.508  -6.489  1.00 20.00     0.026 C 
HETATM    9 CL9  UNL     1     -35.509  14.266  -7.249  1.00 20.00    -0.125 Cl
ENDBRANCH   6   7
ENDBRANCH   4   6
ENDBRANCH   3   4
TORSDOF 3
ENDMDL
MODEL 9
REMARK VINA RESULT:      -3.9     11.091     12.747
REMARK  3 active torsions:
REMARK  status: ('A' for Active; 'I' for Inactive)
REMARK    1  A    between atoms: C5_5  and  C7_7 
REMARK    2  A    between atoms: C6_6  and  C7_7 
REMARK    3  A    between atoms: C6_6  and  C8_8 
ROOT
HETATM    1  C1  UNL     1     -34.273  16.884  -0.885  1.00 20.00     0.012 C 
HETATM    2  C2  UNL     1     -34.785  16.245  -1.763  1.00 20.00    -0.117 C 
HETATM    3  C5  UNL     1     -35.419  15.462  -2.834  1.00 20.00     0.097 C 
ENDROOT
BRANCH   3   4
HETATM    4  C7  UNL     1     -34.438  15.001  -3.929  1.00 20.00    -0.006 C 
HETATM    5  C3  UNL     1     -33.960  13.565  -3.678  1.00 20.00     0.011 C 
BRANCH   4   6
HETATM    6  C6  UNL     1     -33.217  15.930  -4.121  1.00 20.00     0.025 C 
BRANCH   6   7
HETATM    7  C8  UNL     1     -33.280  16.884  -5.324  1.00 20.00     0.078 C 
HETATM    8  C4  UNL     1     -33.779  18.261  -4.901  1.00 20.00     0.026 C 
HETATM    9 CL9  UNL     1     -34.363  16.245  -6.597  1.00 20.00    -0.125 Cl
ENDBRANCH   6   7
ENDBRANCH   4   6
ENDBRANCH   3   4
TORSDOF 3
ENDMDL
