MODEL 1
REMARK VINA RESULT:      -4.5      0.000      0.000
REMARK  2 active torsions:
REMARK  status: ('A' for Active; 'I' for Inactive)
REMARK    1  A    between atoms: C5_5  and  C7_7 
REMARK    2  A    between atoms: C6_6  and  S11_11 
ROOT
HETATM    1  C1  UNL     1     -33.846  16.863  -1.802  1.00 20.00     0.002 C 
HETATM    2  C2  UNL     1     -33.487  15.863  -2.904  1.00 20.00     0.013 C 
HETATM    3  C3  UNL     1     -35.349  17.130  -1.678  1.00 20.00     0.015 C 
HETATM    4  C4  UNL     1     -35.913  15.534  -3.569  1.00 20.00     0.028 C 
HETATM    5  C5  UNL     1     -34.605  14.842  -3.131  1.00 20.00     0.094 C 
HETATM    6  C6  UNL     1     -36.054  16.965  -3.024  1.00 20.00     0.045 C 
ENDROOT
BRANCH   5   7
HETATM    7  C7  UNL     1     -34.187  13.778  -4.144  1.00 20.00     0.391 C 
HETATM    8  F8  UNL     1     -34.087  14.323  -5.365  1.00 20.00    -0.171 F 
HETATM    9  F9  UNL     1     -32.999  13.259  -3.800  1.00 20.00    -0.171 F 
HETATM   10  F10 UNL     1     -35.099  12.795  -4.178  1.00 20.00    -0.171 F 
ENDBRANCH   5   7
BRANCH   6  11
HETATM   11  S11 UNL     1     -37.815  17.418  -2.888  1.00 20.00    -0.177 SA
HETATM   12  H22 UNL     1     -38.261  16.422  -3.663  1.00 20.00     0.102 HD
ENDBRANCH   6  11
TORSDOF 2
ENDMDL
MODEL 2
REMARK VINA RESULT:      -4.5      2.289      2.868
REMARK  2 active torsions:
REMARK  status: ('A' for Active; 'I' for Inactive)
REMARK    1  A    between atoms: C5_5  and  C7_7 
REMARK    2  A    between atoms: C6_6  and  S11_11 
ROOT
HETATM    1  C1  UNL     1     -34.089  17.055  -6.070  1.00 20.00     0.002 C 
HETATM    2  C2  UNL     1     -34.360  15.637  -5.561  1.00 20.00     0.013 C 
HETATM    3  C3  UNL     1     -33.595  18.016  -4.983  1.00 20.00     0.015 C 
HETATM    4  C4  UNL     1     -33.684  16.225  -3.188  1.00 20.00     0.028 C 
HETATM    5  C5  UNL     1     -33.455  15.275  -4.381  1.00 20.00     0.094 C 
HETATM    6  C6  UNL     1     -34.144  17.629  -3.611  1.00 20.00     0.045 C 
ENDROOT
BRANCH   5   7
HETATM    7  C7  UNL     1     -33.647  13.819  -3.962  1.00 20.00     0.391 C 
HETATM    8  F8  UNL     1     -34.543  13.744  -2.966  1.00 20.00    -0.171 F 
HETATM    9  F9  UNL     1     -34.091  13.097  -5.001  1.00 20.00    -0.171 F 
HETATM   10  F10 UNL     1     -32.482  13.305  -3.540  1.00 20.00    -0.171 F 
ENDBRANCH   5   7
BRANCH   6  11
HETATM   11  S11 UNL     1     -33.659  18.859  -2.354  1.00 20.00    -0.177 SA
HETATM   12  H22 UNL     1     -34.846  19.475  -2.317  1.00 20.00     0.102 HD
ENDBRANCH   6  11
TORSDOF 2
ENDMDL
MODEL 3
REMARK VINA RESULT:      -4.4      2.699      3.611
REMARK  2 active torsions:
REMARK  status: ('A' for Active; 'I' for Inactive)
REMARK    1  A    between atoms: C5_5  and  C7_7 
REMARK    2  A    between atoms: C6_6  and  S11_11 
ROOT
HETATM    1  C1  UNL     1     -35.100  14.846  -7.416  1.00 20.00     0.002 C 
HETATM    2  C2  UNL     1     -35.172  14.172  -6.044  1.00 20.00     0.013 C 
HETATM    3  C3  UNL     1     -34.482  16.248  -7.383  1.00 20.00     0.015 C 
HETATM    4  C4  UNL     1     -34.110  16.157  -4.875  1.00 20.00     0.028 C 
HETATM    5  C5  UNL     1     -34.040  14.636  -5.124  1.00 20.00     0.094 C 
HETATM    6  C6  UNL     1     -34.739  16.934  -6.042  1.00 20.00     0.045 C 
ENDROOT
BRANCH   5   7
HETATM    7  C7  UNL     1     -34.048  13.868  -3.804  1.00 20.00     0.391 C 
HETATM    8  F8  UNL     1     -32.854  13.291  -3.603  1.00 20.00    -0.171 F 
HETATM    9  F9  UNL     1     -34.303  14.705  -2.787  1.00 20.00    -0.171 F 
HETATM   10  F10 UNL     1     -34.993  12.917  -3.832  1.00 20.00    -0.171 F 
ENDBRANCH   5   7
BRANCH   6  11
HETATM   11  S11 UNL     1     -34.117  18.649  -6.069  1.00 20.00    -0.177 SA
HETATM   12  H22 UNL     1     -32.857  18.320  -6.381  1.00 20.00     0.102 HD
ENDBRANCH   6  11
TORSDOF 2
ENDMDL
MODEL 4
REMARK VINA RESULT:      -4.4     12.232     13.073
REMARK  2 active torsions:
REMARK  status: ('A' for Active; 'I' for Inactive)
REMARK    1  A    between atoms: C5_5  and  C7_7 
REMARK    2  A    between atoms: C6_6  and  S11_11 
ROOT
HETATM    1  C1  UNL     1     -34.636   5.092   2.519  1.00 20.00     0.002 C 
HETATM    2  C2  UNL     1     -35.157   5.175   3.956  1.00 20.00     0.013 C 
HETATM    3  C3  UNL     1     -33.291   5.793   2.310  1.00 20.00     0.015 C 
HETATM    4  C4  UNL     1     -33.145   6.506   4.740  1.00 20.00     0.028 C 
HETATM    5  C5  UNL     1     -34.013   5.252   4.970  1.00 20.00     0.094 C 
HETATM    6  C6  UNL     1     -33.122   6.966   3.274  1.00 20.00     0.045 C 
ENDROOT
BRANCH   5   7
HETATM    7  C7  UNL     1     -34.540   5.209   6.403  1.00 20.00     0.391 C 
HETATM    8  F8  UNL     1     -35.767   4.669   6.424  1.00 20.00    -0.171 F 
HETATM    9  F9  UNL     1     -33.726   4.469   7.169  1.00 20.00    -0.171 F 
HETATM   10  F10 UNL     1     -34.601   6.451   6.906  1.00 20.00    -0.171 F 
ENDBRANCH   5   7
BRANCH   6  11
HETATM   11  S11 UNL     1     -31.578   7.872   2.921  1.00 20.00    -0.177 SA
HETATM   12  H22 UNL     1     -31.909   8.962   3.623  1.00 20.00     0.102 HD
ENDBRANCH   6  11
TORSDOF 2
ENDMDL
MODEL 5
REMARK VINA RESULT:      -4.4      1.681      1.907
REMARK  2 active torsions:
REMARK  status: ('A' for Active; 'I' for Inactive)
REMARK    1  A    between atoms: C5_5  and  C7_7 
REMARK    2  A    between atoms: C6_6  and  S11_11 
ROOT
HETATM    1  C1  UNL     1     -33.726  17.915  -4.243  1.00 20.00     0.002 C 
HETATM    2  C2  UNL     1     -34.029  16.470  -4.650  1.00 20.00     0.013 C 
HETATM    3  C3  UNL     1     -33.795  18.156  -2.732  1.00 20.00     0.015 C 
HETATM    4  C4  UNL     1     -34.393  15.738  -2.249  1.00 20.00     0.028 C 
HETATM    5  C5  UNL     1     -33.623  15.476  -3.559  1.00 20.00     0.094 C 
HETATM    6  C6  UNL     1     -34.793  17.211  -2.065  1.00 20.00     0.045 C 
ENDROOT
BRANCH   5   7
HETATM    7  C7  UNL     1     -33.814  14.035  -4.024  1.00 20.00     0.391 C 
HETATM    8  F8  UNL     1     -33.992  14.002  -5.353  1.00 20.00    -0.171 F 
HETATM    9  F9  UNL     1     -32.733  13.304  -3.713  1.00 20.00    -0.171 F 
HETATM   10  F10 UNL     1     -34.889  13.498  -3.427  1.00 20.00    -0.171 F 
ENDBRANCH   5   7
BRANCH   6  11
HETATM   11  S11 UNL     1     -34.963  17.603  -0.291  1.00 20.00    -0.177 SA
HETATM   12  H22 UNL     1     -33.648  17.701  -0.059  1.00 20.00     0.102 HD
ENDBRANCH   6  11
TORSDOF 2
ENDMDL
MODEL 6
REMARK VINA RESULT:      -4.3     12.029     12.961
REMARK  2 active torsions:
REMARK  status: ('A' for Active; 'I' for Inactive)
REMARK    1  A    between atoms: C5_5  and  C7_7 
REMARK    2  A    between atoms: C6_6  and  S11_11 
ROOT
HETATM    1  C1  UNL     1     -40.802   5.580  -0.473  1.00 20.00     0.002 C 
HETATM    2  C2  UNL     1     -40.815   4.387  -1.433  1.00 20.00     0.013 C 
HETATM    3  C3  UNL     1     -41.797   6.683  -0.849  1.00 20.00     0.015 C 
HETATM    4  C4  UNL     1     -42.624   5.415  -2.884  1.00 20.00     0.028 C 
HETATM    5  C5  UNL     1     -42.195   4.181  -2.064  1.00 20.00     0.094 C 
HETATM    6  C6  UNL     1     -42.028   6.730  -2.359  1.00 20.00     0.045 C 
ENDROOT
BRANCH   5   7
HETATM    7  C7  UNL     1     -42.229   2.918  -2.921  1.00 20.00     0.391 C 
HETATM    8  F8  UNL     1     -40.982   2.566  -3.268  1.00 20.00    -0.171 F 
HETATM    9  F9  UNL     1     -42.789   1.912  -2.234  1.00 20.00    -0.171 F 
HETATM   10  F10 UNL     1     -42.945   3.138  -4.034  1.00 20.00    -0.171 F 
ENDBRANCH   5   7
BRANCH   6  11
HETATM   11  S11 UNL     1     -43.106   8.134  -2.801  1.00 20.00    -0.177 SA
HETATM   12  H22 UNL     1     -44.103   7.380  -3.279  1.00 20.00     0.102 HD
ENDBRANCH   6  11
TORSDOF 2
ENDMDL
MODEL 7
REMARK VINA RESULT:      -4.2      1.956      2.318
REMARK  2 active torsions:
REMARK  status: ('A' for Active; 'I' for Inactive)
REMARK    1  A    between atoms: C5_5  and  C7_7 
REMARK    2  A    between atoms: C6_6  and  S11_11 
ROOT
HETATM    1  C1  UNL     1     -34.330  16.670  -2.059  1.00 20.00     0.002 C 
HETATM    2  C2  UNL     1     -34.049  15.290  -2.659  1.00 20.00     0.013 C 
HETATM    3  C3  UNL     1     -34.474  17.779  -3.106  1.00 20.00     0.015 C 
HETATM    4  C4  UNL     1     -34.086  16.177  -5.035  1.00 20.00     0.028 C 
HETATM    5  C5  UNL     1     -34.667  15.140  -4.052  1.00 20.00     0.094 C 
HETATM    6  C6  UNL     1     -33.638  17.478  -4.350  1.00 20.00     0.045 C 
ENDROOT
BRANCH   5   7
HETATM    7  C7  UNL     1     -34.487  13.722  -4.588  1.00 20.00     0.391 C 
HETATM    8  F8  UNL     1     -33.319  13.217  -4.164  1.00 20.00    -0.171 F 
HETATM    9  F9  UNL     1     -35.483  12.937  -4.153  1.00 20.00    -0.171 F 
HETATM   10  F10 UNL     1     -34.495  13.734  -5.929  1.00 20.00    -0.171 F 
ENDBRANCH   5   7
BRANCH   6  11
HETATM   11  S11 UNL     1     -33.713  18.871  -5.526  1.00 20.00    -0.177 SA
HETATM   12  H22 UNL     1     -34.987  19.187  -5.265  1.00 20.00     0.102 HD
ENDBRANCH   6  11
TORSDOF 2
ENDMDL
MODEL 8
REMARK VINA RESULT:      -4.2      3.577      4.294
REMARK  2 active torsions:
REMARK  status: ('A' for Active; 'I' for Inactive)
REMARK    1  A    between atoms: C5_5  and  C7_7 
REMARK    2  A    between atoms: C6_6  and  S11_11 
ROOT
HETATM    1  C1  UNL     1     -33.539  15.125  -3.981  1.00 20.00     0.002 C 
HETATM    2  C2  UNL     1     -34.196  15.567  -2.670  1.00 20.00     0.013 C 
HETATM    3  C3  UNL     1     -33.169  16.288  -4.907  1.00 20.00     0.015 C 
HETATM    4  C4  UNL     1     -34.056  18.024  -3.284  1.00 20.00     0.028 C 
HETATM    5  C5  UNL     1     -33.711  16.951  -2.231  1.00 20.00     0.094 C 
HETATM    6  C6  UNL     1     -34.117  17.471  -4.716  1.00 20.00     0.045 C 
ENDROOT
BRANCH   5   7
HETATM    7  C7  UNL     1     -34.277  17.328  -0.864  1.00 20.00     0.391 C 
HETATM    8  F8  UNL     1     -34.819  16.249  -0.279  1.00 20.00    -0.171 F 
HETATM    9  F9  UNL     1     -33.299  17.803  -0.078  1.00 20.00    -0.171 F 
HETATM   10  F10 UNL     1     -35.221  18.270  -1.002  1.00 20.00    -0.171 F 
ENDBRANCH   5   7
BRANCH   6  11
HETATM   11  S11 UNL     1     -33.749  18.791  -5.920  1.00 20.00    -0.177 SA
HETATM   12  H22 UNL     1     -34.905  19.443  -5.748  1.00 20.00     0.102 HD
ENDBRANCH   6  11
TORSDOF 2
ENDMDL
MODEL 9
REMARK VINA RESULT:      -4.2      3.507      4.164
REMARK  2 active torsions:
REMARK  status: ('A' for Active; 'I' for Inactive)
REMARK    1  A    between atoms: C5_5  and  C7_7 
REMARK    2  A    between atoms: C6_6  and  S11_11 
ROOT
HETATM    1  C1  UNL     1     -33.991  17.351  -5.087  1.00 20.00     0.002 C 
HETATM    2  C2  UNL     1     -33.682  17.610  -3.610  1.00 20.00     0.013 C 
HETATM    3  C3  UNL     1     -34.569  15.958  -5.361  1.00 20.00     0.015 C 
HETATM    4  C4  UNL     1     -34.479  15.306  -2.911  1.00 20.00     0.028 C 
HETATM    5  C5  UNL     1     -34.619  16.826  -2.688  1.00 20.00     0.094 C 
HETATM    6  C6  UNL     1     -34.060  14.938  -4.343  1.00 20.00     0.045 C 
ENDROOT
BRANCH   5   7
HETATM    7  C7  UNL     1     -34.384  17.185  -1.223  1.00 20.00     0.391 C 
HETATM    8  F8  UNL     1     -33.074  17.370  -1.002  1.00 20.00    -0.171 F 
HETATM    9  F9  UNL     1     -35.040  18.314  -0.916  1.00 20.00    -0.171 F 
HETATM   10  F10 UNL     1     -34.824  16.196  -0.431  1.00 20.00    -0.171 F 
ENDBRANCH   5   7
BRANCH   6  11
HETATM   11  S11 UNL     1     -34.648  13.263  -4.764  1.00 20.00    -0.177 SA
HETATM   12  H22 UNL     1     -33.737  12.621  -4.022  1.00 20.00     0.102 HD
ENDBRANCH   6  11
TORSDOF 2
ENDMDL
