MODEL 1
REMARK VINA RESULT:      -5.0      0.000      0.000
REMARK  4 active torsions:
REMARK  status: ('A' for Active; 'I' for Inactive)
REMARK    1  A    between atoms: C2_2  and  C7_7 
REMARK    2  A    between atoms: C3_3  and  C8_8 
REMARK    3  A    between atoms: C7_7  and  C9_9 
REMARK    4  A    between atoms: C8_8  and  C9_9 
ROOT
HETATM    1  C1  UNL     1     -32.257   8.495   1.873  1.00 20.00    -0.111 C 
HETATM    2  C2  UNL     1     -32.202   7.481   2.516  1.00 20.00    -0.107 C 
HETATM    3  C4  UNL     1     -32.327   9.726   1.088  1.00 20.00     0.112 C 
ENDROOT
BRANCH   2   4
HETATM    4  C7  UNL     1     -32.134   6.243   3.306  1.00 20.00     0.098 C 
BRANCH   4   5
HETATM    5  C9  UNL     1     -33.504   5.568   3.521  1.00 20.00    -0.001 C 
HETATM    6  C6  UNL     1     -34.189   5.253   2.185  1.00 20.00     0.011 C 
BRANCH   5   7
HETATM    7  C8  UNL     1     -34.415   6.408   4.435  1.00 20.00     0.083 C 
BRANCH   7   8
HETATM    8  C3  UNL     1     -34.325   6.033   5.906  1.00 20.00     0.123 C 
HETATM    9  C5  UNL     1     -34.796   4.648   6.266  1.00 20.00     0.091 C 
HETATM   10  O10 UNL     1     -33.925   6.810   6.773  1.00 20.00    -0.298 OA
ENDBRANCH   7   8
ENDBRANCH   5   7
ENDBRANCH   4   5
ENDBRANCH   2   4
TORSDOF 4
ENDMDL
MODEL 2
REMARK VINA RESULT:      -4.8      0.792      1.097
REMARK  4 active torsions:
REMARK  status: ('A' for Active; 'I' for Inactive)
REMARK    1  A    between atoms: C2_2  and  C7_7 
REMARK    2  A    between atoms: C3_3  and  C8_8 
REMARK    3  A    between atoms: C7_7  and  C9_9 
REMARK    4  A    between atoms: C8_8  and  C9_9 
ROOT
HETATM    1  C1  UNL     1     -32.258   8.465   1.875  1.00 20.00    -0.111 C 
HETATM    2  C2  UNL     1     -32.208   7.474   2.552  1.00 20.00    -0.107 C 
HETATM    3  C4  UNL     1     -32.316   9.672   1.052  1.00 20.00     0.112 C 
ENDROOT
BRANCH   2   4
HETATM    4  C7  UNL     1     -32.149   6.259   3.378  1.00 20.00     0.098 C 
BRANCH   4   5
HETATM    5  C9  UNL     1     -33.523   5.594   3.604  1.00 20.00    -0.001 C 
HETATM    6  C6  UNL     1     -34.219   5.279   2.274  1.00 20.00     0.011 C 
BRANCH   5   7
HETATM    7  C8  UNL     1     -34.421   6.445   4.520  1.00 20.00     0.083 C 
BRANCH   7   8
HETATM    8  C3  UNL     1     -34.221   6.173   6.003  1.00 20.00     0.123 C 
HETATM    9  C5  UNL     1     -33.464   7.224   6.773  1.00 20.00     0.091 C 
HETATM   10  O10 UNL     1     -34.616   5.147   6.556  1.00 20.00    -0.298 OA
ENDBRANCH   7   8
ENDBRANCH   5   7
ENDBRANCH   4   5
ENDBRANCH   2   4
TORSDOF 4
ENDMDL
MODEL 3
REMARK VINA RESULT:      -4.5     10.940     11.819
REMARK  4 active torsions:
REMARK  status: ('A' for Active; 'I' for Inactive)
REMARK    1  A    between atoms: C2_2  and  C7_7 
REMARK    2  A    between atoms: C3_3  and  C8_8 
REMARK    3  A    between atoms: C7_7  and  C9_9 
REMARK    4  A    between atoms: C8_8  and  C9_9 
ROOT
HETATM    1  C1  UNL     1     -34.711  17.004  -0.336  1.00 20.00    -0.111 C 
HETATM    2  C2  UNL     1     -34.754  16.363  -1.351  1.00 20.00    -0.107 C 
HETATM    3  C4  UNL     1     -34.662  17.786   0.898  1.00 20.00     0.112 C 
ENDROOT
BRANCH   2   4
HETATM    4  C7  UNL     1     -34.803  15.575  -2.591  1.00 20.00     0.098 C 
BRANCH   4   5
HETATM    5  C9  UNL     1     -33.446  15.473  -3.317  1.00 20.00    -0.001 C 
HETATM    6  C6  UNL     1     -33.291  16.574  -4.373  1.00 20.00     0.011 C 
BRANCH   5   7
HETATM    7  C8  UNL     1     -33.231  14.075  -3.926  1.00 20.00     0.083 C 
BRANCH   7   8
HETATM    8  C3  UNL     1     -34.439  13.539  -4.679  1.00 20.00     0.123 C 
HETATM    9  C5  UNL     1     -34.748  14.206  -5.995  1.00 20.00     0.091 C 
HETATM   10  O10 UNL     1     -35.155  12.638  -4.244  1.00 20.00    -0.298 OA
ENDBRANCH   7   8
ENDBRANCH   5   7
ENDBRANCH   4   5
ENDBRANCH   2   4
TORSDOF 4
ENDMDL
MODEL 4
REMARK VINA RESULT:      -4.5     10.581     11.804
REMARK  4 active torsions:
REMARK  status: ('A' for Active; 'I' for Inactive)
REMARK    1  A    between atoms: C2_2  and  C7_7 
REMARK    2  A    between atoms: C3_3  and  C8_8 
REMARK    3  A    between atoms: C7_7  and  C9_9 
REMARK    4  A    between atoms: C8_8  and  C9_9 
ROOT
HETATM    1  C1  UNL     1     -33.005  18.263  -0.299  1.00 20.00    -0.111 C 
HETATM    2  C2  UNL     1     -33.772  17.461  -0.759  1.00 20.00    -0.107 C 
HETATM    3  C4  UNL     1     -32.072  19.241   0.258  1.00 20.00     0.112 C 
ENDROOT
BRANCH   2   4
HETATM    4  C7  UNL     1     -34.712  16.478  -1.318  1.00 20.00     0.098 C 
BRANCH   4   5
HETATM    5  C9  UNL     1     -34.378  16.052  -2.763  1.00 20.00    -0.001 C 
HETATM    6  C6  UNL     1     -34.423  17.246  -3.724  1.00 20.00     0.011 C 
BRANCH   5   7
HETATM    7  C8  UNL     1     -35.292  14.909  -3.243  1.00 20.00     0.083 C 
BRANCH   7   8
HETATM    8  C3  UNL     1     -34.537  13.695  -3.763  1.00 20.00     0.123 C 
HETATM    9  C5  UNL     1     -33.036  13.745  -3.638  1.00 20.00     0.091 C 
HETATM   10  O10 UNL     1     -35.095  12.732  -4.288  1.00 20.00    -0.298 OA
ENDBRANCH   7   8
ENDBRANCH   5   7
ENDBRANCH   4   5
ENDBRANCH   2   4
TORSDOF 4
ENDMDL
MODEL 5
REMARK VINA RESULT:      -4.5      1.756      2.596
REMARK  4 active torsions:
REMARK  status: ('A' for Active; 'I' for Inactive)
REMARK    1  A    between atoms: C2_2  and  C7_7 
REMARK    2  A    between atoms: C3_3  and  C8_8 
REMARK    3  A    between atoms: C7_7  and  C9_9 
REMARK    4  A    between atoms: C8_8  and  C9_9 
ROOT
HETATM    1  C1  UNL     1     -32.238   7.840   2.440  1.00 20.00    -0.111 C 
HETATM    2  C2  UNL     1     -32.417   7.099   3.368  1.00 20.00    -0.107 C 
HETATM    3  C4  UNL     1     -32.022   8.744   1.311  1.00 20.00     0.112 C 
ENDROOT
BRANCH   2   4
HETATM    4  C7  UNL     1     -32.632   6.190   4.504  1.00 20.00     0.098 C 
BRANCH   4   5
HETATM    5  C9  UNL     1     -33.733   6.662   5.476  1.00 20.00    -0.001 C 
HETATM    6  C6  UNL     1     -33.143   7.449   6.653  1.00 20.00     0.011 C 
BRANCH   5   7
HETATM    7  C8  UNL     1     -34.600   5.487   5.964  1.00 20.00     0.083 C 
BRANCH   7   8
HETATM    8  C3  UNL     1     -35.186   4.646   4.840  1.00 20.00     0.123 C 
HETATM    9  C5  UNL     1     -35.823   5.407   3.707  1.00 20.00     0.091 C 
HETATM   10  O10 UNL     1     -35.180   3.416   4.850  1.00 20.00    -0.298 OA
ENDBRANCH   7   8
ENDBRANCH   5   7
ENDBRANCH   4   5
ENDBRANCH   2   4
TORSDOF 4
ENDMDL
MODEL 6
REMARK VINA RESULT:      -4.4     10.748     11.776
REMARK  4 active torsions:
REMARK  status: ('A' for Active; 'I' for Inactive)
REMARK    1  A    between atoms: C2_2  and  C7_7 
REMARK    2  A    between atoms: C3_3  and  C8_8 
REMARK    3  A    between atoms: C7_7  and  C9_9 
REMARK    4  A    between atoms: C8_8  and  C9_9 
ROOT
HETATM    1  C1  UNL     1     -34.688  16.922  -0.476  1.00 20.00    -0.111 C 
HETATM    2  C2  UNL     1     -34.312  16.497  -1.536  1.00 20.00    -0.107 C 
HETATM    3  C4  UNL     1     -35.147  17.435   0.813  1.00 20.00     0.112 C 
ENDROOT
BRANCH   2   4
HETATM    4  C7  UNL     1     -33.849  15.981  -2.832  1.00 20.00     0.098 C 
BRANCH   4   5
HETATM    5  C9  UNL     1     -34.617  14.733  -3.313  1.00 20.00    -0.001 C 
HETATM    6  C6  UNL     1     -33.661  13.649  -3.827  1.00 20.00     0.011 C 
BRANCH   5   7
HETATM    7  C8  UNL     1     -35.680  15.091  -4.369  1.00 20.00     0.083 C 
BRANCH   7   8
HETATM    8  C3  UNL     1     -37.096  15.157  -3.818  1.00 20.00     0.123 C 
HETATM    9  C5  UNL     1     -37.564  16.512  -3.352  1.00 20.00     0.091 C 
HETATM   10  O10 UNL     1     -37.824  14.170  -3.720  1.00 20.00    -0.298 OA
ENDBRANCH   7   8
ENDBRANCH   5   7
ENDBRANCH   4   5
ENDBRANCH   2   4
TORSDOF 4
ENDMDL
MODEL 7
REMARK VINA RESULT:      -4.4     10.858     11.883
REMARK  4 active torsions:
REMARK  status: ('A' for Active; 'I' for Inactive)
REMARK    1  A    between atoms: C2_2  and  C7_7 
REMARK    2  A    between atoms: C3_3  and  C8_8 
REMARK    3  A    between atoms: C7_7  and  C9_9 
REMARK    4  A    between atoms: C8_8  and  C9_9 
ROOT
HETATM    1  C1  UNL     1     -34.761  17.139  -0.044  1.00 20.00    -0.111 C 
HETATM    2  C2  UNL     1     -34.278  16.854  -1.107  1.00 20.00    -0.107 C 
HETATM    3  C4  UNL     1     -35.347  17.483   1.250  1.00 20.00     0.112 C 
ENDROOT
BRANCH   2   4
HETATM    4  C7  UNL     1     -33.688  16.509  -2.409  1.00 20.00     0.098 C 
BRANCH   4   5
HETATM    5  C9  UNL     1     -34.662  15.782  -3.359  1.00 20.00    -0.001 C 
HETATM    6  C6  UNL     1     -36.123  16.089  -3.008  1.00 20.00     0.011 C 
BRANCH   5   7
HETATM    7  C8  UNL     1     -34.398  14.265  -3.390  1.00 20.00     0.083 C 
BRANCH   7   8
HETATM    8  C3  UNL     1     -34.596  13.634  -4.760  1.00 20.00     0.123 C 
HETATM    9  C5  UNL     1     -34.508  14.569  -5.938  1.00 20.00     0.091 C 
HETATM   10  O10 UNL     1     -34.847  12.440  -4.918  1.00 20.00    -0.298 OA
ENDBRANCH   7   8
ENDBRANCH   5   7
ENDBRANCH   4   5
ENDBRANCH   2   4
TORSDOF 4
ENDMDL
MODEL 8
REMARK VINA RESULT:      -4.3     11.024     11.824
REMARK  4 active torsions:
REMARK  status: ('A' for Active; 'I' for Inactive)
REMARK    1  A    between atoms: C2_2  and  C7_7 
REMARK    2  A    between atoms: C3_3  and  C8_8 
REMARK    3  A    between atoms: C7_7  and  C9_9 
REMARK    4  A    between atoms: C8_8  and  C9_9 
ROOT
HETATM    1  C1  UNL     1     -34.728  17.139  -0.159  1.00 20.00    -0.111 C 
HETATM    2  C2  UNL     1     -34.327  16.876  -1.261  1.00 20.00    -0.107 C 
HETATM    3  C4  UNL     1     -35.215  17.462   1.181  1.00 20.00     0.112 C 
ENDROOT
BRANCH   2   4
HETATM    4  C7  UNL     1     -33.839  16.551  -2.610  1.00 20.00     0.098 C 
BRANCH   4   5
HETATM    5  C9  UNL     1     -33.961  15.057  -2.971  1.00 20.00    -0.001 C 
HETATM    6  C6  UNL     1     -32.691  14.540  -3.658  1.00 20.00     0.011 C 
BRANCH   5   7
HETATM    7  C8  UNL     1     -35.213  14.780  -3.824  1.00 20.00     0.083 C 
BRANCH   7   8
HETATM    8  C3  UNL     1     -34.979  13.792  -4.957  1.00 20.00     0.123 C 
HETATM    9  C5  UNL     1     -34.946  14.374  -6.347  1.00 20.00     0.091 C 
HETATM   10  O10 UNL     1     -34.855  12.581  -4.776  1.00 20.00    -0.298 OA
ENDBRANCH   7   8
ENDBRANCH   5   7
ENDBRANCH   4   5
ENDBRANCH   2   4
TORSDOF 4
ENDMDL
MODEL 9
REMARK VINA RESULT:      -4.1     10.873     12.311
REMARK  4 active torsions:
REMARK  status: ('A' for Active; 'I' for Inactive)
REMARK    1  A    between atoms: C2_2  and  C7_7 
REMARK    2  A    between atoms: C3_3  and  C8_8 
REMARK    3  A    between atoms: C7_7  and  C9_9 
REMARK    4  A    between atoms: C8_8  and  C9_9 
ROOT
HETATM    1  C1  UNL     1     -34.197  16.781  -1.826  1.00 20.00    -0.111 C 
HETATM    2  C2  UNL     1     -33.847  16.723  -2.974  1.00 20.00    -0.107 C 
HETATM    3  C4  UNL     1     -34.620  16.851  -0.428  1.00 20.00     0.112 C 
ENDROOT
BRANCH   2   4
HETATM    4  C7  UNL     1     -33.422  16.655  -4.380  1.00 20.00     0.098 C 
BRANCH   4   5
HETATM    5  C9  UNL     1     -34.268  15.692  -5.238  1.00 20.00    -0.001 C 
HETATM    6  C6  UNL     1     -34.149  16.020  -6.732  1.00 20.00     0.011 C 
BRANCH   5   7
HETATM    7  C8  UNL     1     -35.738  15.668  -4.783  1.00 20.00     0.083 C 
BRANCH   7   8
HETATM    8  C3  UNL     1     -36.190  14.325  -4.229  1.00 20.00     0.123 C 
HETATM    9  C5  UNL     1     -35.150  13.235  -4.209  1.00 20.00     0.091 C 
HETATM   10  O10 UNL     1     -37.338  14.110  -3.844  1.00 20.00    -0.298 OA
ENDBRANCH   7   8
ENDBRANCH   5   7
ENDBRANCH   4   5
ENDBRANCH   2   4
TORSDOF 4
ENDMDL
