MODEL 1
REMARK VINA RESULT:      -5.0      0.000      0.000
REMARK  0 active torsions:
REMARK  status: ('A' for Active; 'I' for Inactive)
ROOT
HETATM    1  C1  UNL     1     -31.917   8.115   1.839  1.00 20.00     0.088 C 
HETATM    2  C2  UNL     1     -32.760   6.700   3.597  1.00 20.00    -0.070 C 
HETATM    3  C3  UNL     1     -32.055   7.772   3.207  1.00 20.00     0.096 C 
HETATM    4  C4  UNL     1     -33.450   5.791   2.614  1.00 20.00     0.035 C 
HETATM    5  C5  UNL     1     -32.939   6.337   5.048  1.00 20.00     0.039 C 
HETATM    6  C6  UNL     1     -34.928   5.631   2.970  1.00 20.00     0.009 C 
HETATM    7  C7  UNL     1     -34.430   6.178   5.395  1.00 20.00    -0.011 C 
HETATM    8  C8  UNL     1     -35.155   5.198   4.434  1.00 20.00    -0.014 C 
HETATM    9  C9  UNL     1     -34.599   5.798   6.867  1.00 20.00     0.010 C 
HETATM   10  C10 UNL     1     -34.764   3.729   4.634  1.00 20.00     0.010 C 
HETATM   11  N11 UNL     1     -31.801   8.402   0.721  1.00 20.00    -0.192 NA
ENDROOT
TORSDOF 0
ENDMDL
MODEL 2
REMARK VINA RESULT:      -4.7     11.286     12.231
REMARK  0 active torsions:
REMARK  status: ('A' for Active; 'I' for Inactive)
ROOT
HETATM    1  C1  UNL     1     -35.205  17.487  -0.229  1.00 20.00     0.088 C 
HETATM    2  C2  UNL     1     -34.853  16.282  -2.285  1.00 20.00    -0.070 C 
HETATM    3  C3  UNL     1     -34.448  16.615  -1.051  1.00 20.00     0.096 C 
HETATM    4  C4  UNL     1     -36.132  16.808  -2.880  1.00 20.00     0.035 C 
HETATM    5  C5  UNL     1     -34.074  15.335  -3.161  1.00 20.00     0.039 C 
HETATM    6  C6  UNL     1     -37.010  15.659  -3.378  1.00 20.00     0.009 C 
HETATM    7  C7  UNL     1     -34.967  14.184  -3.656  1.00 20.00    -0.011 C 
HETATM    8  C8  UNL     1     -36.267  14.698  -4.330  1.00 20.00    -0.014 C 
HETATM    9  C9  UNL     1     -34.170  13.236  -4.553  1.00 20.00     0.010 C 
HETATM   10  C10 UNL     1     -36.041  15.354  -5.698  1.00 20.00     0.010 C 
HETATM   11  N11 UNL     1     -35.819  18.200   0.449  1.00 20.00    -0.192 NA
ENDROOT
TORSDOF 0
ENDMDL
MODEL 3
REMARK VINA RESULT:      -4.7      9.765     11.371
REMARK  0 active torsions:
REMARK  status: ('A' for Active; 'I' for Inactive)
ROOT
HETATM    1  C1  UNL     1     -42.439   2.305  -4.461  1.00 20.00     0.088 C 
HETATM    2  C2  UNL     1     -42.281   3.787  -2.567  1.00 20.00    -0.070 C 
HETATM    3  C3  UNL     1     -41.875   2.686  -3.218  1.00 20.00     0.096 C 
HETATM    4  C4  UNL     1     -43.357   4.689  -3.110  1.00 20.00     0.035 C 
HETATM    5  C5  UNL     1     -41.673   4.220  -1.259  1.00 20.00     0.039 C 
HETATM    6  C6  UNL     1     -42.868   6.137  -3.174  1.00 20.00     0.009 C 
HETATM    7  C7  UNL     1     -41.185   5.677  -1.335  1.00 20.00    -0.011 C 
HETATM    8  C8  UNL     1     -42.293   6.642  -1.834  1.00 20.00    -0.014 C 
HETATM    9  C9  UNL     1     -40.581   6.110   0.002  1.00 20.00     0.010 C 
HETATM   10  C10 UNL     1     -43.415   6.879  -0.816  1.00 20.00     0.010 C 
HETATM   11  N11 UNL     1     -42.896   1.988  -5.479  1.00 20.00    -0.192 NA
ENDROOT
TORSDOF 0
ENDMDL
MODEL 4
REMARK VINA RESULT:      -4.6     11.311     12.795
REMARK  0 active torsions:
REMARK  status: ('A' for Active; 'I' for Inactive)
ROOT
HETATM    1  C1  UNL     1     -37.711  15.354  -7.067  1.00 20.00     0.088 C 
HETATM    2  C2  UNL     1     -35.977  15.623  -5.416  1.00 20.00    -0.070 C 
HETATM    3  C3  UNL     1     -37.079  16.081  -6.028  1.00 20.00     0.096 C 
HETATM    4  C4  UNL     1     -35.338  14.311  -5.789  1.00 20.00     0.035 C 
HETATM    5  C5  UNL     1     -35.309  16.370  -4.292  1.00 20.00     0.039 C 
HETATM    6  C6  UNL     1     -35.164  13.424  -4.555  1.00 20.00     0.009 C 
HETATM    7  C7  UNL     1     -35.138  15.468  -3.057  1.00 20.00    -0.011 C 
HETATM    8  C8  UNL     1     -34.427  14.132  -3.399  1.00 20.00    -0.014 C 
HETATM    9  C9  UNL     1     -34.449  16.233  -1.926  1.00 20.00     0.010 C 
HETATM   10  C10 UNL     1     -32.935  14.287  -3.719  1.00 20.00     0.010 C 
HETATM   11  N11 UNL     1     -38.233  14.763  -7.918  1.00 20.00    -0.192 NA
ENDROOT
TORSDOF 0
ENDMDL
MODEL 5
REMARK VINA RESULT:      -4.6     11.027     12.575
REMARK  0 active torsions:
REMARK  status: ('A' for Active; 'I' for Inactive)
ROOT
HETATM    1  C1  UNL     1     -34.304  13.535  -4.181  1.00 20.00     0.088 C 
HETATM    2  C2  UNL     1     -34.384  15.542  -2.849  1.00 20.00    -0.070 C 
HETATM    3  C3  UNL     1     -33.681  14.543  -3.405  1.00 20.00     0.096 C 
HETATM    4  C4  UNL     1     -35.876  15.660  -3.012  1.00 20.00     0.035 C 
HETATM    5  C5  UNL     1     -33.733  16.635  -2.044  1.00 20.00     0.039 C 
HETATM    6  C6  UNL     1     -36.255  17.043  -3.543  1.00 20.00     0.009 C 
HETATM    7  C7  UNL     1     -34.122  18.022  -2.586  1.00 20.00    -0.011 C 
HETATM    8  C8  UNL     1     -35.659  18.196  -2.707  1.00 20.00    -0.014 C 
HETATM    9  C9  UNL     1     -33.465  19.126  -1.754  1.00 20.00     0.010 C 
HETATM   10  C10 UNL     1     -36.379  18.319  -1.359  1.00 20.00     0.010 C 
HETATM   11  N11 UNL     1     -34.808  12.707  -4.818  1.00 20.00    -0.192 NA
ENDROOT
TORSDOF 0
ENDMDL
MODEL 6
REMARK VINA RESULT:      -4.6     11.428     12.462
REMARK  0 active torsions:
REMARK  status: ('A' for Active; 'I' for Inactive)
ROOT
HETATM    1  C1  UNL     1     -39.051  14.795  -4.135  1.00 20.00     0.088 C 
HETATM    2  C2  UNL     1     -36.892  15.734  -3.619  1.00 20.00    -0.070 C 
HETATM    3  C3  UNL     1     -38.222  15.716  -3.446  1.00 20.00     0.096 C 
HETATM    4  C4  UNL     1     -36.191  14.784  -4.553  1.00 20.00     0.035 C 
HETATM    5  C5  UNL     1     -35.995  16.688  -2.874  1.00 20.00     0.039 C 
HETATM    6  C6  UNL     1     -35.069  14.041  -3.826  1.00 20.00     0.009 C 
HETATM    7  C7  UNL     1     -34.870  15.930  -2.148  1.00 20.00    -0.011 C 
HETATM    8  C8  UNL     1     -34.089  14.986  -3.100  1.00 20.00    -0.014 C 
HETATM    9  C9  UNL     1     -33.958  16.908  -1.405  1.00 20.00     0.010 C 
HETATM   10  C10 UNL     1     -33.194  15.719  -4.106  1.00 20.00     0.010 C 
HETATM   11  N11 UNL     1     -39.734  14.044  -4.695  1.00 20.00    -0.192 NA
ENDROOT
TORSDOF 0
ENDMDL
MODEL 7
REMARK VINA RESULT:      -4.5     11.934     12.845
REMARK  0 active torsions:
REMARK  status: ('A' for Active; 'I' for Inactive)
ROOT
HETATM    1  C1  UNL     1     -31.798  18.915   3.151  1.00 20.00     0.088 C 
HETATM    2  C2  UNL     1     -32.941  18.727   1.038  1.00 20.00    -0.070 C 
HETATM    3  C3  UNL     1     -31.799  18.815   1.737  1.00 20.00     0.096 C 
HETATM    4  C4  UNL     1     -34.292  18.728   1.703  1.00 20.00     0.035 C 
HETATM    5  C5  UNL     1     -32.959  18.593  -0.462  1.00 20.00     0.039 C 
HETATM    6  C6  UNL     1     -35.113  17.516   1.262  1.00 20.00     0.009 C 
HETATM    7  C7  UNL     1     -33.789  17.371  -0.894  1.00 20.00    -0.011 C 
HETATM    8  C8  UNL     1     -35.210  17.376  -0.272  1.00 20.00    -0.014 C 
HETATM    9  C9  UNL     1     -33.811  17.251  -2.419  1.00 20.00     0.010 C 
HETATM   10  C10 UNL     1     -36.141  18.445  -0.858  1.00 20.00     0.010 C 
HETATM   11  N11 UNL     1     -31.789  18.996   4.308  1.00 20.00    -0.192 NA
ENDROOT
TORSDOF 0
ENDMDL
MODEL 8
REMARK VINA RESULT:      -4.4     11.819     12.494
REMARK  0 active torsions:
REMARK  status: ('A' for Active; 'I' for Inactive)
ROOT
HETATM    1  C1  UNL     1     -33.757  17.655  -0.748  1.00 20.00     0.088 C 
HETATM    2  C2  UNL     1     -34.789  16.168  -2.339  1.00 20.00    -0.070 C 
HETATM    3  C3  UNL     1     -34.896  17.036  -1.321  1.00 20.00     0.096 C 
HETATM    4  C4  UNL     1     -33.460  15.794  -2.939  1.00 20.00     0.035 C 
HETATM    5  C5  UNL     1     -35.991  15.523  -2.977  1.00 20.00     0.039 C 
HETATM    6  C6  UNL     1     -33.470  16.009  -4.453  1.00 20.00     0.009 C 
HETATM    7  C7  UNL     1     -35.990  15.745  -4.500  1.00 20.00    -0.011 C 
HETATM    8  C8  UNL     1     -34.653  15.310  -5.155  1.00 20.00    -0.014 C 
HETATM    9  C9  UNL     1     -37.208  15.075  -5.139  1.00 20.00     0.010 C 
HETATM   10  C10 UNL     1     -34.443  13.791  -5.193  1.00 20.00     0.010 C 
HETATM   11  N11 UNL     1     -32.830  18.166  -0.274  1.00 20.00    -0.192 NA
ENDROOT
TORSDOF 0
ENDMDL
MODEL 9
REMARK VINA RESULT:      -4.4     11.291     13.031
REMARK  0 active torsions:
REMARK  status: ('A' for Active; 'I' for Inactive)
ROOT
HETATM    1  C1  UNL     1     -33.627  18.757  -2.520  1.00 20.00     0.088 C 
HETATM    2  C2  UNL     1     -34.507  16.957  -3.858  1.00 20.00    -0.070 C 
HETATM    3  C3  UNL     1     -34.247  18.262  -3.695  1.00 20.00     0.096 C 
HETATM    4  C4  UNL     1     -34.160  15.932  -2.812  1.00 20.00     0.035 C 
HETATM    5  C5  UNL     1     -35.141  16.412  -5.111  1.00 20.00     0.039 C 
HETATM    6  C6  UNL     1     -33.321  14.804  -3.415  1.00 20.00     0.009 C 
HETATM    7  C7  UNL     1     -34.289  15.278  -5.709  1.00 20.00    -0.011 C 
HETATM    8  C8  UNL     1     -33.966  14.174  -4.668  1.00 20.00    -0.014 C 
HETATM    9  C9  UNL     1     -34.948  14.724  -6.974  1.00 20.00     0.010 C 
HETATM   10  C10 UNL     1     -35.174  13.311  -4.282  1.00 20.00     0.010 C 
HETATM   11  N11 UNL     1     -33.119  19.168  -1.562  1.00 20.00    -0.192 NA
ENDROOT
TORSDOF 0
ENDMDL
