MODEL 1
REMARK VINA RESULT:      -4.5      0.000      0.000
REMARK  4 active torsions:
REMARK  status: ('A' for Active; 'I' for Inactive)
REMARK    1  A    between atoms: C4_4  and  C5_5 
REMARK    2  A    between atoms: C5_5  and  C7_7 
REMARK    3  A    between atoms: C6_6  and  C7_7 
REMARK    4  A    between atoms: C6_6  and  C8_8 
ROOT
HETATM    1  C2  UNL     1     -32.108   5.540   2.947  1.00 20.00     0.010 C 
HETATM    2  C7  UNL     1     -33.036   6.464   3.746  1.00 20.00    -0.017 C 
ENDROOT
BRANCH   2   3
HETATM    3  C5  UNL     1     -33.038   7.860   3.082  1.00 20.00     0.004 C 
BRANCH   3   4
HETATM    4  C4  UNL     1     -31.947   8.043   2.024  1.00 20.00    -0.004 C 
HETATM    5  C1  UNL     1     -32.247   9.228   1.119  1.00 20.00     0.005 C 
ENDBRANCH   3   4
ENDBRANCH   2   3
BRANCH   2   6
HETATM    6  C6  UNL     1     -34.465   5.885   3.859  1.00 20.00     0.024 C 
BRANCH   6   7
HETATM    7  C8  UNL     1     -34.941   5.527   5.276  1.00 20.00     0.078 C 
HETATM    8  C3  UNL     1     -34.090   6.230   6.330  1.00 20.00     0.026 C 
HETATM    9 CL9  UNL     1     -34.862   3.762   5.556  1.00 20.00    -0.125 Cl
ENDBRANCH   6   7
ENDBRANCH   2   6
TORSDOF 4
ENDMDL
MODEL 2
REMARK VINA RESULT:      -4.4      1.249      1.448
REMARK  4 active torsions:
REMARK  status: ('A' for Active; 'I' for Inactive)
REMARK    1  A    between atoms: C4_4  and  C5_5 
REMARK    2  A    between atoms: C5_5  and  C7_7 
REMARK    3  A    between atoms: C6_6  and  C7_7 
REMARK    4  A    between atoms: C6_6  and  C8_8 
ROOT
HETATM    1  C2  UNL     1     -32.349   5.608   2.204  1.00 20.00     0.010 C 
HETATM    2  C7  UNL     1     -32.358   6.499   3.452  1.00 20.00    -0.017 C 
ENDROOT
BRANCH   2   3
HETATM    3  C5  UNL     1     -31.810   7.893   3.071  1.00 20.00     0.004 C 
BRANCH   3   4
HETATM    4  C4  UNL     1     -31.972   8.238   1.588  1.00 20.00    -0.004 C 
HETATM    5  C1  UNL     1     -32.419   9.679   1.400  1.00 20.00     0.005 C 
ENDBRANCH   3   4
ENDBRANCH   2   3
BRANCH   2   6
HETATM    6  C6  UNL     1     -33.769   6.594   4.079  1.00 20.00     0.024 C 
BRANCH   6   7
HETATM    7  C8  UNL     1     -34.160   5.460   5.041  1.00 20.00     0.078 C 
HETATM    8  C3  UNL     1     -35.424   4.751   4.560  1.00 20.00     0.026 C 
HETATM    9 CL9  UNL     1     -34.444   6.085   6.692  1.00 20.00    -0.125 Cl
ENDBRANCH   6   7
ENDBRANCH   2   6
TORSDOF 4
ENDMDL
MODEL 3
REMARK VINA RESULT:      -4.2      1.003      1.370
REMARK  4 active torsions:
REMARK  status: ('A' for Active; 'I' for Inactive)
REMARK    1  A    between atoms: C4_4  and  C5_5 
REMARK    2  A    between atoms: C5_5  and  C7_7 
REMARK    3  A    between atoms: C6_6  and  C7_7 
REMARK    4  A    between atoms: C6_6  and  C8_8 
ROOT
HETATM    1  C2  UNL     1     -34.249   5.070   2.266  1.00 20.00     0.010 C 
HETATM    2  C7  UNL     1     -33.478   5.528   3.510  1.00 20.00    -0.017 C 
ENDROOT
BRANCH   2   3
HETATM    3  C5  UNL     1     -32.115   6.107   3.063  1.00 20.00     0.004 C 
BRANCH   3   4
HETATM    4  C4  UNL     1     -32.008   7.626   3.220  1.00 20.00    -0.004 C 
HETATM    5  C1  UNL     1     -31.989   8.322   1.867  1.00 20.00     0.005 C 
ENDBRANCH   3   4
ENDBRANCH   2   3
BRANCH   2   6
HETATM    6  C6  UNL     1     -34.286   6.550   4.342  1.00 20.00     0.024 C 
BRANCH   6   7
HETATM    7  C8  UNL     1     -34.533   6.181   5.814  1.00 20.00     0.078 C 
HETATM    8  C3  UNL     1     -33.576   6.936   6.733  1.00 20.00     0.026 C 
HETATM    9 CL9  UNL     1     -34.323   4.425   6.082  1.00 20.00    -0.125 Cl
ENDBRANCH   6   7
ENDBRANCH   2   6
TORSDOF 4
ENDMDL
MODEL 4
REMARK VINA RESULT:      -4.2      2.484      4.592
REMARK  4 active torsions:
REMARK  status: ('A' for Active; 'I' for Inactive)
REMARK    1  A    between atoms: C4_4  and  C5_5 
REMARK    2  A    between atoms: C5_5  and  C7_7 
REMARK    3  A    between atoms: C6_6  and  C7_7 
REMARK    4  A    between atoms: C6_6  and  C8_8 
ROOT
HETATM    1  C2  UNL     1     -35.191   5.731   3.358  1.00 20.00     0.010 C 
HETATM    2  C7  UNL     1     -33.996   6.478   3.963  1.00 20.00    -0.017 C 
ENDROOT
BRANCH   2   3
HETATM    3  C5  UNL     1     -33.966   6.217   5.486  1.00 20.00     0.004 C 
BRANCH   3   4
HETATM    4  C4  UNL     1     -34.987   5.178   5.956  1.00 20.00    -0.004 C 
HETATM    5  C1  UNL     1     -34.373   3.788   6.021  1.00 20.00     0.005 C 
ENDBRANCH   3   4
ENDBRANCH   2   3
BRANCH   2   6
HETATM    6  C6  UNL     1     -32.665   6.074   3.288  1.00 20.00     0.024 C 
BRANCH   6   7
HETATM    7  C8  UNL     1     -31.694   7.220   2.963  1.00 20.00     0.078 C 
HETATM    8  C3  UNL     1     -31.196   7.891   4.240  1.00 20.00     0.026 C 
HETATM    9 CL9  UNL     1     -32.477   8.454   1.931  1.00 20.00    -0.125 Cl
ENDBRANCH   6   7
ENDBRANCH   2   6
TORSDOF 4
ENDMDL
MODEL 5
REMARK VINA RESULT:      -4.2      2.063      4.439
REMARK  4 active torsions:
REMARK  status: ('A' for Active; 'I' for Inactive)
REMARK    1  A    between atoms: C4_4  and  C5_5 
REMARK    2  A    between atoms: C5_5  and  C7_7 
REMARK    3  A    between atoms: C6_6  and  C7_7 
REMARK    4  A    between atoms: C6_6  and  C8_8 
ROOT
HETATM    1  C2  UNL     1     -35.594   5.753   3.169  1.00 20.00     0.010 C 
HETATM    2  C7  UNL     1     -34.349   6.163   3.966  1.00 20.00    -0.017 C 
ENDROOT
BRANCH   2   3
HETATM    3  C5  UNL     1     -34.125   5.136   5.099  1.00 20.00     0.004 C 
BRANCH   3   4
HETATM    4  C4  UNL     1     -34.388   5.695   6.500  1.00 20.00    -0.004 C 
HETATM    5  C1  UNL     1     -33.727   7.052   6.689  1.00 20.00     0.005 C 
ENDBRANCH   3   4
ENDBRANCH   2   3
BRANCH   2   6
HETATM    6  C6  UNL     1     -33.103   6.292   3.059  1.00 20.00     0.024 C 
BRANCH   6   7
HETATM    7  C8  UNL     1     -32.428   7.673   3.025  1.00 20.00     0.078 C 
HETATM    8  C3  UNL     1     -31.953   8.012   1.615  1.00 20.00     0.026 C 
HETATM    9 CL9  UNL     1     -31.027   7.733   4.135  1.00 20.00    -0.125 Cl
ENDBRANCH   6   7
ENDBRANCH   2   6
TORSDOF 4
ENDMDL
MODEL 6
REMARK VINA RESULT:      -4.0      1.741      4.488
REMARK  4 active torsions:
REMARK  status: ('A' for Active; 'I' for Inactive)
REMARK    1  A    between atoms: C4_4  and  C5_5 
REMARK    2  A    between atoms: C5_5  and  C7_7 
REMARK    3  A    between atoms: C6_6  and  C7_7 
REMARK    4  A    between atoms: C6_6  and  C8_8 
ROOT
HETATM    1  C2  UNL     1     -33.329   7.571   6.940  1.00 20.00     0.010 C 
HETATM    2  C7  UNL     1     -33.542   6.408   5.963  1.00 20.00    -0.017 C 
ENDROOT
BRANCH   2   3
HETATM    3  C5  UNL     1     -34.725   5.549   6.465  1.00 20.00     0.004 C 
BRANCH   3   4
HETATM    4  C4  UNL     1     -34.625   4.071   6.077  1.00 20.00    -0.004 C 
HETATM    5  C1  UNL     1     -35.303   3.802   4.742  1.00 20.00     0.005 C 
ENDBRANCH   3   4
ENDBRANCH   2   3
BRANCH   2   6
HETATM    6  C6  UNL     1     -33.772   6.906   4.517  1.00 20.00     0.024 C 
BRANCH   6   7
HETATM    7  C8  UNL     1     -32.817   6.350   3.448  1.00 20.00     0.078 C 
HETATM    8  C3  UNL     1     -32.142   7.483   2.679  1.00 20.00     0.026 C 
HETATM    9 CL9  UNL     1     -33.688   5.305   2.287  1.00 20.00    -0.125 Cl
ENDBRANCH   6   7
ENDBRANCH   2   6
TORSDOF 4
ENDMDL
MODEL 7
REMARK VINA RESULT:      -3.9      2.742      4.936
REMARK  4 active torsions:
REMARK  status: ('A' for Active; 'I' for Inactive)
REMARK    1  A    between atoms: C4_4  and  C5_5 
REMARK    2  A    between atoms: C5_5  and  C7_7 
REMARK    3  A    between atoms: C6_6  and  C7_7 
REMARK    4  A    between atoms: C6_6  and  C8_8 
ROOT
HETATM    1  C2  UNL     1     -32.154   5.226   2.920  1.00 20.00     0.010 C 
HETATM    2  C7  UNL     1     -33.047   6.463   3.074  1.00 20.00    -0.017 C 
ENDROOT
BRANCH   2   3
HETATM    3  C5  UNL     1     -33.779   6.381   4.433  1.00 20.00     0.004 C 
BRANCH   3   4
HETATM    4  C4  UNL     1     -34.874   5.312   4.482  1.00 20.00    -0.004 C 
HETATM    5  C1  UNL     1     -34.878   4.584   5.817  1.00 20.00     0.005 C 
ENDBRANCH   3   4
ENDBRANCH   2   3
BRANCH   2   6
HETATM    6  C6  UNL     1     -32.239   7.775   2.941  1.00 20.00     0.024 C 
BRANCH   6   7
HETATM    7  C8  UNL     1     -32.545   8.637   1.706  1.00 20.00     0.078 C 
HETATM    8  C3  UNL     1     -31.433   8.515   0.667  1.00 20.00     0.026 C 
HETATM    9 CL9  UNL     1     -32.729  10.360   2.151  1.00 20.00    -0.125 Cl
ENDBRANCH   6   7
ENDBRANCH   2   6
TORSDOF 4
ENDMDL
MODEL 8
REMARK VINA RESULT:      -3.9     10.765     11.907
REMARK  4 active torsions:
REMARK  status: ('A' for Active; 'I' for Inactive)
REMARK    1  A    between atoms: C4_4  and  C5_5 
REMARK    2  A    between atoms: C5_5  and  C7_7 
REMARK    3  A    between atoms: C6_6  and  C7_7 
REMARK    4  A    between atoms: C6_6  and  C8_8 
ROOT
HETATM    1  C2  UNL     1     -33.708  17.230  -4.215  1.00 20.00     0.010 C 
HETATM    2  C7  UNL     1     -33.709  16.250  -3.036  1.00 20.00    -0.017 C 
ENDROOT
BRANCH   2   3
HETATM    3  C5  UNL     1     -33.695  17.058  -1.718  1.00 20.00     0.004 C 
BRANCH   3   4
HETATM    4  C4  UNL     1     -34.766  16.623  -0.714  1.00 20.00    -0.004 C 
HETATM    5  C1  UNL     1     -34.786  17.535   0.503  1.00 20.00     0.005 C 
ENDBRANCH   3   4
ENDBRANCH   2   3
BRANCH   2   6
HETATM    6  C6  UNL     1     -34.911  15.279  -3.096  1.00 20.00     0.024 C 
BRANCH   6   7
HETATM    7  C8  UNL     1     -34.656  13.925  -3.777  1.00 20.00     0.078 C 
HETATM    8  C3  UNL     1     -33.184  13.532  -3.671  1.00 20.00     0.026 C 
HETATM    9 CL9  UNL     1     -35.115  13.974  -5.505  1.00 20.00    -0.125 Cl
ENDBRANCH   6   7
ENDBRANCH   2   6
TORSDOF 4
ENDMDL
MODEL 9
REMARK VINA RESULT:      -3.8     11.025     12.139
REMARK  4 active torsions:
REMARK  status: ('A' for Active; 'I' for Inactive)
REMARK    1  A    between atoms: C4_4  and  C5_5 
REMARK    2  A    between atoms: C5_5  and  C7_7 
REMARK    3  A    between atoms: C6_6  and  C7_7 
REMARK    4  A    between atoms: C6_6  and  C8_8 
ROOT
HETATM    1  C2  UNL     1     -36.622  14.453  -4.065  1.00 20.00     0.010 C 
HETATM    2  C7  UNL     1     -35.255  13.764  -3.964  1.00 20.00    -0.017 C 
ENDROOT
BRANCH   2   3
HETATM    3  C5  UNL     1     -34.743  13.465  -5.391  1.00 20.00     0.004 C 
BRANCH   3   4
HETATM    4  C4  UNL     1     -35.338  14.379  -6.466  1.00 20.00    -0.004 C 
HETATM    5  C1  UNL     1     -34.296  15.341  -7.014  1.00 20.00     0.005 C 
ENDBRANCH   3   4
ENDBRANCH   2   3
BRANCH   2   6
HETATM    6  C6  UNL     1     -34.243  14.613  -3.161  1.00 20.00     0.024 C 
BRANCH   6   7
HETATM    7  C8  UNL     1     -34.662  16.060  -2.855  1.00 20.00     0.078 C 
HETATM    8  C3  UNL     1     -33.755  17.053  -3.577  1.00 20.00     0.026 C 
HETATM    9 CL9  UNL     1     -34.598  16.392  -1.099  1.00 20.00    -0.125 Cl
ENDBRANCH   6   7
ENDBRANCH   2   6
TORSDOF 4
ENDMDL
