MODEL 1
REMARK VINA RESULT:      -3.9      0.000      0.000
REMARK  3 active torsions:
REMARK  status: ('A' for Active; 'I' for Inactive)
REMARK    1  A    between atoms: C6_6  and  C7_7 
REMARK    2  A    between atoms: C6_6  and  C8_8 
REMARK    3  A    between atoms: C7_7  and  C9_9 
ROOT
HETATM    1  C1  UNL     1     -34.510  16.441  -1.290  1.00 20.00     0.011 C 
HETATM    2  C7  UNL     1     -34.271  16.078  -2.766  1.00 20.00    -0.010 C 
ENDROOT
BRANCH   2   3
HETATM    3  C6  UNL     1     -35.274  14.977  -3.218  1.00 20.00     0.024 C 
BRANCH   3   4
HETATM    4  C8  UNL     1     -34.665  13.704  -3.835  1.00 20.00     0.078 C 
HETATM    5  C2  UNL     1     -34.970  13.626  -5.329  1.00 20.00     0.026 C 
HETATM    6 CL10 UNL     1     -32.891  13.661  -3.611  1.00 20.00    -0.125 Cl
ENDBRANCH   3   4
ENDBRANCH   2   3
BRANCH   2   7
HETATM    7  C9  UNL     1     -34.266  17.340  -3.716  1.00 20.00    -0.048 C 
HETATM    8  C3  UNL     1     -33.745  18.607  -3.011  1.00 20.00     0.015 C 
HETATM    9  C4  UNL     1     -33.376  17.079  -4.953  1.00 20.00     0.015 C 
HETATM   10  C5  UNL     1     -35.689  17.633  -4.242  1.00 20.00     0.015 C 
ENDBRANCH   2   7
TORSDOF 3
ENDMDL
MODEL 2
REMARK VINA RESULT:      -3.7      1.950      3.766
REMARK  3 active torsions:
REMARK  status: ('A' for Active; 'I' for Inactive)
REMARK    1  A    between atoms: C6_6  and  C7_7 
REMARK    2  A    between atoms: C6_6  and  C8_8 
REMARK    3  A    between atoms: C7_7  and  C9_9 
ROOT
HETATM    1  C1  UNL     1     -32.622  14.352  -3.507  1.00 20.00     0.011 C 
HETATM    2  C7  UNL     1     -33.931  15.137  -3.319  1.00 20.00    -0.010 C 
ENDROOT
BRANCH   2   3
HETATM    3  C6  UNL     1     -33.655  16.667  -3.387  1.00 20.00     0.024 C 
BRANCH   3   4
HETATM    4  C8  UNL     1     -34.223  17.519  -2.236  1.00 20.00     0.078 C 
HETATM    5  C2  UNL     1     -35.474  18.271  -2.683  1.00 20.00     0.026 C 
HETATM    6 CL10 UNL     1     -34.639  16.504  -0.823  1.00 20.00    -0.125 Cl
ENDBRANCH   3   4
ENDBRANCH   2   3
BRANCH   2   7
HETATM    7  C9  UNL     1     -35.074  14.668  -4.304  1.00 20.00    -0.048 C 
HETATM    8  C3  UNL     1     -36.473  14.742  -3.662  1.00 20.00     0.015 C 
HETATM    9  C4  UNL     1     -35.083  15.549  -5.575  1.00 20.00     0.015 C 
HETATM   10  C5  UNL     1     -34.833  13.215  -4.769  1.00 20.00     0.015 C 
ENDBRANCH   2   7
TORSDOF 3
ENDMDL
MODEL 3
REMARK VINA RESULT:      -3.7      1.942      3.699
REMARK  3 active torsions:
REMARK  status: ('A' for Active; 'I' for Inactive)
REMARK    1  A    between atoms: C6_6  and  C7_7 
REMARK    2  A    between atoms: C6_6  and  C8_8 
REMARK    3  A    between atoms: C7_7  and  C9_9 
ROOT
HETATM    1  C1  UNL     1     -32.630  14.338  -3.507  1.00 20.00     0.011 C 
HETATM    2  C7  UNL     1     -33.942  15.127  -3.354  1.00 20.00    -0.010 C 
ENDROOT
BRANCH   2   3
HETATM    3  C6  UNL     1     -33.659  16.657  -3.410  1.00 20.00     0.024 C 
BRANCH   3   4
HETATM    4  C8  UNL     1     -34.237  17.505  -2.262  1.00 20.00     0.078 C 
HETATM    5  C2  UNL     1     -35.502  18.234  -2.709  1.00 20.00     0.026 C 
HETATM    6 CL10 UNL     1     -34.631  16.490  -0.843  1.00 20.00    -0.125 Cl
ENDBRANCH   3   4
ENDBRANCH   2   3
BRANCH   2   7
HETATM    7  C9  UNL     1     -35.058  14.664  -4.371  1.00 20.00    -0.048 C 
HETATM    8  C3  UNL     1     -35.104  15.542  -5.637  1.00 20.00     0.015 C 
HETATM    9  C4  UNL     1     -34.813  13.202  -4.810  1.00 20.00     0.015 C 
HETATM   10  C5  UNL     1     -36.453  14.703  -3.707  1.00 20.00     0.015 C 
ENDBRANCH   2   7
TORSDOF 3
ENDMDL
MODEL 4
REMARK VINA RESULT:      -3.7      2.155      3.978
REMARK  3 active torsions:
REMARK  status: ('A' for Active; 'I' for Inactive)
REMARK    1  A    between atoms: C6_6  and  C7_7 
REMARK    2  A    between atoms: C6_6  and  C8_8 
REMARK    3  A    between atoms: C7_7  and  C9_9 
ROOT
HETATM    1  C1  UNL     1     -36.697  15.050  -3.505  1.00 20.00     0.011 C 
HETATM    2  C7  UNL     1     -35.285  15.657  -3.460  1.00 20.00    -0.010 C 
ENDROOT
BRANCH   2   3
HETATM    3  C6  UNL     1     -34.827  15.845  -1.984  1.00 20.00     0.024 C 
BRANCH   3   4
HETATM    4  C8  UNL     1     -34.912  17.273  -1.415  1.00 20.00     0.078 C 
HETATM    5  C2  UNL     1     -34.840  17.255   0.110  1.00 20.00     0.026 C 
HETATM    6 CL10 UNL     1     -33.587  18.299  -2.040  1.00 20.00    -0.125 Cl
ENDBRANCH   3   4
ENDBRANCH   2   3
BRANCH   2   7
HETATM    7  C9  UNL     1     -34.243  14.853  -4.335  1.00 20.00    -0.048 C 
HETATM    8  C3  UNL     1     -34.618  13.366  -4.480  1.00 20.00     0.015 C 
HETATM    9  C4  UNL     1     -34.147  15.464  -5.752  1.00 20.00     0.015 C 
HETATM   10  C5  UNL     1     -32.830  14.936  -3.715  1.00 20.00     0.015 C 
ENDBRANCH   2   7
TORSDOF 3
ENDMDL
MODEL 5
REMARK VINA RESULT:      -3.7      1.899      4.118
REMARK  3 active torsions:
REMARK  status: ('A' for Active; 'I' for Inactive)
REMARK    1  A    between atoms: C6_6  and  C7_7 
REMARK    2  A    between atoms: C6_6  and  C8_8 
REMARK    3  A    between atoms: C7_7  and  C9_9 
ROOT
HETATM    1  C1  UNL     1     -33.412  17.020  -5.399  1.00 20.00     0.011 C 
HETATM    2  C7  UNL     1     -33.611  16.248  -4.083  1.00 20.00    -0.010 C 
ENDROOT
BRANCH   2   3
HETATM    3  C6  UNL     1     -34.356  17.138  -3.046  1.00 20.00     0.024 C 
BRANCH   3   4
HETATM    4  C8  UNL     1     -33.676  17.308  -1.674  1.00 20.00     0.078 C 
HETATM    5  C2  UNL     1     -33.329  18.773  -1.419  1.00 20.00     0.026 C 
HETATM    6 CL10 UNL     1     -34.733  16.731  -0.351  1.00 20.00    -0.125 Cl
ENDBRANCH   3   4
ENDBRANCH   2   3
BRANCH   2   7
HETATM    7  C9  UNL     1     -34.295  14.839  -4.296  1.00 20.00    -0.048 C 
HETATM    8  C3  UNL     1     -33.435  13.679  -3.758  1.00 20.00     0.015 C 
HETATM    9  C4  UNL     1     -35.665  14.793  -3.582  1.00 20.00     0.015 C 
HETATM   10  C5  UNL     1     -34.564  14.584  -5.796  1.00 20.00     0.015 C 
ENDBRANCH   2   7
TORSDOF 3
ENDMDL
MODEL 6
REMARK VINA RESULT:      -3.7      2.175      3.913
REMARK  3 active torsions:
REMARK  status: ('A' for Active; 'I' for Inactive)
REMARK    1  A    between atoms: C6_6  and  C7_7 
REMARK    2  A    between atoms: C6_6  and  C8_8 
REMARK    3  A    between atoms: C7_7  and  C9_9 
ROOT
HETATM    1  C1  UNL     1     -36.701  15.121  -3.469  1.00 20.00     0.011 C 
HETATM    2  C7  UNL     1     -35.275  15.696  -3.435  1.00 20.00    -0.010 C 
ENDROOT
BRANCH   2   3
HETATM    3  C6  UNL     1     -34.802  15.876  -1.963  1.00 20.00     0.024 C 
BRANCH   3   4
HETATM    4  C8  UNL     1     -34.902  17.298  -1.379  1.00 20.00     0.078 C 
HETATM    5  C2  UNL     1     -34.877  17.261   0.147  1.00 20.00     0.026 C 
HETATM    6 CL10 UNL     1     -33.556  18.329  -1.950  1.00 20.00    -0.125 Cl
ENDBRANCH   3   4
ENDBRANCH   2   3
BRANCH   2   7
HETATM    7  C9  UNL     1     -34.258  14.868  -4.316  1.00 20.00    -0.048 C 
HETATM    8  C3  UNL     1     -34.204  15.360  -5.775  1.00 20.00     0.015 C 
HETATM    9  C4  UNL     1     -32.832  14.964  -3.725  1.00 20.00     0.015 C 
HETATM   10  C5  UNL     1     -34.638  13.371  -4.326  1.00 20.00     0.015 C 
ENDBRANCH   2   7
TORSDOF 3
ENDMDL
MODEL 7
REMARK VINA RESULT:      -3.7      1.811      3.704
REMARK  3 active torsions:
REMARK  status: ('A' for Active; 'I' for Inactive)
REMARK    1  A    between atoms: C6_6  and  C7_7 
REMARK    2  A    between atoms: C6_6  and  C8_8 
REMARK    3  A    between atoms: C7_7  and  C9_9 
ROOT
HETATM    1  C1  UNL     1     -34.448  15.055  -7.357  1.00 20.00     0.011 C 
HETATM    2  C7  UNL     1     -34.717  15.079  -5.843  1.00 20.00    -0.010 C 
ENDROOT
BRANCH   2   3
HETATM    3  C6  UNL     1     -33.676  15.988  -5.126  1.00 20.00     0.024 C 
BRANCH   3   4
HETATM    4  C8  UNL     1     -33.067  15.440  -3.822  1.00 20.00     0.078 C 
HETATM    5  C2  UNL     1     -33.723  16.085  -2.604  1.00 20.00     0.026 C 
HETATM    6 CL10 UNL     1     -33.269  13.666  -3.709  1.00 20.00    -0.125 Cl
ENDBRANCH   3   4
ENDBRANCH   2   3
BRANCH   2   7
HETATM    7  C9  UNL     1     -36.212  15.450  -5.491  1.00 20.00    -0.048 C 
HETATM    8  C3  UNL     1     -36.759  14.634  -4.304  1.00 20.00     0.015 C 
HETATM    9  C4  UNL     1     -36.323  16.950  -5.133  1.00 20.00     0.015 C 
HETATM   10  C5  UNL     1     -37.134  15.211  -6.707  1.00 20.00     0.015 C 
ENDBRANCH   2   7
TORSDOF 3
ENDMDL
MODEL 8
REMARK VINA RESULT:      -3.7      2.013      3.548
REMARK  3 active torsions:
REMARK  status: ('A' for Active; 'I' for Inactive)
REMARK    1  A    between atoms: C6_6  and  C7_7 
REMARK    2  A    between atoms: C6_6  and  C8_8 
REMARK    3  A    between atoms: C7_7  and  C9_9 
ROOT
HETATM    1  C1  UNL     1     -35.135  13.582  -4.169  1.00 20.00     0.011 C 
HETATM    2  C7  UNL     1     -35.047  15.110  -4.018  1.00 20.00    -0.010 C 
ENDROOT
BRANCH   2   3
HETATM    3  C6  UNL     1     -34.112  15.480  -2.830  1.00 20.00     0.024 C 
BRANCH   3   4
HETATM    4  C8  UNL     1     -34.738  16.314  -1.697  1.00 20.00     0.078 C 
HETATM    5  C2  UNL     1     -33.726  17.308  -1.131  1.00 20.00     0.026 C 
HETATM    6 CL10 UNL     1     -36.169  17.219  -2.273  1.00 20.00    -0.125 Cl
ENDBRANCH   3   4
ENDBRANCH   2   3
BRANCH   2   7
HETATM    7  C9  UNL     1     -34.658  15.838  -5.365  1.00 20.00    -0.048 C 
HETATM    8  C3  UNL     1     -35.723  16.857  -5.815  1.00 20.00     0.015 C 
HETATM    9  C4  UNL     1     -33.316  16.589  -5.201  1.00 20.00     0.015 C 
HETATM   10  C5  UNL     1     -34.460  14.813  -6.503  1.00 20.00     0.015 C 
ENDBRANCH   2   7
TORSDOF 3
ENDMDL
MODEL 9
REMARK VINA RESULT:      -3.7      1.978      3.937
REMARK  3 active torsions:
REMARK  status: ('A' for Active; 'I' for Inactive)
REMARK    1  A    between atoms: C6_6  and  C7_7 
REMARK    2  A    between atoms: C6_6  and  C8_8 
REMARK    3  A    between atoms: C7_7  and  C9_9 
ROOT
HETATM    1  C1  UNL     1     -33.333  16.876  -5.240  1.00 20.00     0.011 C 
HETATM    2  C7  UNL     1     -34.016  16.154  -4.065  1.00 20.00    -0.010 C 
ENDROOT
BRANCH   2   3
HETATM    3  C6  UNL     1     -35.133  17.052  -3.459  1.00 20.00     0.024 C 
BRANCH   3   4
HETATM    4  C8  UNL     1     -34.854  17.652  -2.069  1.00 20.00     0.078 C 
HETATM    5  C2  UNL     1     -34.595  16.549  -1.044  1.00 20.00     0.026 C 
HETATM    6 CL10 UNL     1     -33.437  18.742  -2.106  1.00 20.00    -0.125 Cl
ENDBRANCH   3   4
ENDBRANCH   2   3
BRANCH   2   7
HETATM    7  C9  UNL     1     -34.521  14.706  -4.446  1.00 20.00    -0.048 C 
HETATM    8  C3  UNL     1     -34.588  14.486  -5.969  1.00 20.00     0.015 C 
HETATM    9  C4  UNL     1     -33.581  13.634  -3.847  1.00 20.00     0.015 C 
HETATM   10  C5  UNL     1     -35.926  14.447  -3.858  1.00 20.00     0.015 C 
ENDBRANCH   2   7
TORSDOF 3
ENDMDL
