MODEL 1
REMARK VINA RESULT:      -4.3      0.000      0.000
REMARK  4 active torsions:
REMARK  status: ('A' for Active; 'I' for Inactive)
REMARK    1  A    between atoms: C2_2  and  C6_6 
REMARK    2  A    between atoms: C6_6  and  C8_8 
REMARK    3  A    between atoms: C7_7  and  C8_8 
REMARK    4  A    between atoms: C7_7  and  C9_9 
ROOT
HETATM    1  C1  UNL     1     -34.651  16.963  -0.524  1.00 20.00    -0.111 C 
HETATM    2  C2  UNL     1     -34.732  16.312  -1.530  1.00 20.00    -0.107 C 
HETATM    3  C3  UNL     1     -34.550  17.752   0.702  1.00 20.00     0.112 C 
ENDROOT
BRANCH   2   4
HETATM    4  C6  UNL     1     -34.839  15.516  -2.761  1.00 20.00     0.098 C 
BRANCH   4   5
HETATM    5  C8  UNL     1     -33.477  15.138  -3.374  1.00 20.00    -0.006 C 
HETATM    6  C4  UNL     1     -33.450  13.661  -3.791  1.00 20.00     0.011 C 
BRANCH   5   7
HETATM    7  C7  UNL     1     -33.038  16.022  -4.567  1.00 20.00     0.020 C 
BRANCH   7   8
HETATM    8  C9  UNL     1     -34.158  16.506  -5.493  1.00 20.00     0.054 C 
HETATM    9  C5  UNL     1     -34.200  15.695  -6.783  1.00 20.00     0.022 C 
HETATM   10 BR10 UNL     1     -33.879  18.384  -5.977  1.00 20.00    -0.092 Br
ENDBRANCH   7   8
ENDBRANCH   5   7
ENDBRANCH   4   5
ENDBRANCH   2   4
TORSDOF 4
ENDMDL
MODEL 2
REMARK VINA RESULT:      -4.2      1.545      4.568
REMARK  4 active torsions:
REMARK  status: ('A' for Active; 'I' for Inactive)
REMARK    1  A    between atoms: C2_2  and  C6_6 
REMARK    2  A    between atoms: C6_6  and  C8_8 
REMARK    3  A    between atoms: C7_7  and  C8_8 
REMARK    4  A    between atoms: C7_7  and  C9_9 
ROOT
HETATM    1  C1  UNL     1     -34.807  15.275  -6.815  1.00 20.00    -0.111 C 
HETATM    2  C2  UNL     1     -34.806  14.389  -6.005  1.00 20.00    -0.107 C 
HETATM    3  C3  UNL     1     -34.805  16.353  -7.803  1.00 20.00     0.112 C 
ENDROOT
BRANCH   2   4
HETATM    4  C6  UNL     1     -34.804  13.308  -5.008  1.00 20.00     0.098 C 
BRANCH   4   5
HETATM    5  C8  UNL     1     -34.362  13.762  -3.604  1.00 20.00    -0.006 C 
HETATM    6  C4  UNL     1     -32.836  13.902  -3.524  1.00 20.00     0.011 C 
BRANCH   5   7
HETATM    7  C7  UNL     1     -35.029  15.068  -3.107  1.00 20.00     0.020 C 
BRANCH   7   8
HETATM    8  C9  UNL     1     -34.091  16.111  -2.492  1.00 20.00     0.054 C 
HETATM    9  C5  UNL     1     -34.594  16.575  -1.131  1.00 20.00     0.022 C 
HETATM   10 BR10 UNL     1     -33.969  17.685  -3.653  1.00 20.00    -0.092 Br
ENDBRANCH   7   8
ENDBRANCH   5   7
ENDBRANCH   4   5
ENDBRANCH   2   4
TORSDOF 4
ENDMDL
MODEL 3
REMARK VINA RESULT:      -4.1      1.302      1.678
REMARK  4 active torsions:
REMARK  status: ('A' for Active; 'I' for Inactive)
REMARK    1  A    between atoms: C2_2  and  C6_6 
REMARK    2  A    between atoms: C6_6  and  C8_8 
REMARK    3  A    between atoms: C7_7  and  C8_8 
REMARK    4  A    between atoms: C7_7  and  C9_9 
ROOT
HETATM    1  C1  UNL     1     -34.636  16.839  -0.600  1.00 20.00    -0.111 C 
HETATM    2  C2  UNL     1     -34.250  16.375  -1.639  1.00 20.00    -0.107 C 
HETATM    3  C3  UNL     1     -35.102  17.404   0.665  1.00 20.00     0.112 C 
ENDROOT
BRANCH   2   4
HETATM    4  C6  UNL     1     -33.780  15.801  -2.908  1.00 20.00     0.098 C 
BRANCH   4   5
HETATM    5  C8  UNL     1     -34.730  14.742  -3.498  1.00 20.00    -0.006 C 
HETATM    6  C4  UNL     1     -36.196  15.167  -3.340  1.00 20.00     0.011 C 
BRANCH   5   7
HETATM    7  C7  UNL     1     -34.452  14.377  -4.977  1.00 20.00     0.020 C 
BRANCH   7   8
HETATM    8  C9  UNL     1     -35.255  15.154  -6.024  1.00 20.00     0.054 C 
HETATM    9  C5  UNL     1     -35.393  14.362  -7.318  1.00 20.00     0.022 C 
HETATM   10 BR10 UNL     1     -34.361  16.846  -6.451  1.00 20.00    -0.092 Br
ENDBRANCH   7   8
ENDBRANCH   5   7
ENDBRANCH   4   5
ENDBRANCH   2   4
TORSDOF 4
ENDMDL
MODEL 4
REMARK VINA RESULT:      -4.1      1.180      1.673
REMARK  4 active torsions:
REMARK  status: ('A' for Active; 'I' for Inactive)
REMARK    1  A    between atoms: C2_2  and  C6_6 
REMARK    2  A    between atoms: C6_6  and  C8_8 
REMARK    3  A    between atoms: C7_7  and  C8_8 
REMARK    4  A    between atoms: C7_7  and  C9_9 
ROOT
HETATM    1  C1  UNL     1     -34.264  16.427  -1.697  1.00 20.00    -0.111 C 
HETATM    2  C2  UNL     1     -33.797  15.923  -2.683  1.00 20.00    -0.107 C 
HETATM    3  C3  UNL     1     -34.832  17.036  -0.496  1.00 20.00     0.112 C 
ENDROOT
BRANCH   2   4
HETATM    4  C6  UNL     1     -33.231  15.307  -3.891  1.00 20.00     0.098 C 
BRANCH   4   5
HETATM    5  C8  UNL     1     -34.277  14.597  -4.772  1.00 20.00    -0.006 C 
HETATM    6  C4  UNL     1     -34.815  13.336  -4.082  1.00 20.00     0.011 C 
BRANCH   5   7
HETATM    7  C7  UNL     1     -35.461  15.490  -5.216  1.00 20.00     0.020 C 
BRANCH   7   8
HETATM    8  C9  UNL     1     -35.432  15.970  -6.671  1.00 20.00     0.054 C 
HETATM    9  C5  UNL     1     -34.771  14.943  -7.581  1.00 20.00     0.022 C 
HETATM   10 BR10 UNL     1     -34.418  17.640  -6.817  1.00 20.00    -0.092 Br
ENDBRANCH   7   8
ENDBRANCH   5   7
ENDBRANCH   4   5
ENDBRANCH   2   4
TORSDOF 4
ENDMDL
MODEL 5
REMARK VINA RESULT:      -4.1      1.426      1.488
REMARK  4 active torsions:
REMARK  status: ('A' for Active; 'I' for Inactive)
REMARK    1  A    between atoms: C2_2  and  C6_6 
REMARK    2  A    between atoms: C6_6  and  C8_8 
REMARK    3  A    between atoms: C7_7  and  C8_8 
REMARK    4  A    between atoms: C7_7  and  C9_9 
ROOT
HETATM    1  C1  UNL     1     -34.461  17.047  -0.602  1.00 20.00    -0.111 C 
HETATM    2  C2  UNL     1     -34.667  16.284  -1.506  1.00 20.00    -0.107 C 
HETATM    3  C3  UNL     1     -34.207  17.977   0.497  1.00 20.00     0.112 C 
ENDROOT
BRANCH   2   4
HETATM    4  C6  UNL     1     -34.919  15.345  -2.608  1.00 20.00     0.098 C 
BRANCH   4   5
HETATM    5  C8  UNL     1     -33.736  15.206  -3.585  1.00 20.00    -0.006 C 
HETATM    6  C4  UNL     1     -33.282  13.745  -3.698  1.00 20.00     0.011 C 
BRANCH   5   7
HETATM    7  C7  UNL     1     -33.996  15.780  -5.000  1.00 20.00     0.020 C 
BRANCH   7   8
HETATM    8  C9  UNL     1     -34.857  14.917  -5.927  1.00 20.00     0.054 C 
HETATM    9  C5  UNL     1     -34.391  15.021  -7.374  1.00 20.00     0.022 C 
HETATM   10 BR10 UNL     1     -36.727  15.499  -5.858  1.00 20.00    -0.092 Br
ENDBRANCH   7   8
ENDBRANCH   5   7
ENDBRANCH   4   5
ENDBRANCH   2   4
TORSDOF 4
ENDMDL
MODEL 6
REMARK VINA RESULT:      -4.1      1.613      2.375
REMARK  4 active torsions:
REMARK  status: ('A' for Active; 'I' for Inactive)
REMARK    1  A    between atoms: C2_2  and  C6_6 
REMARK    2  A    between atoms: C6_6  and  C8_8 
REMARK    3  A    between atoms: C7_7  and  C8_8 
REMARK    4  A    between atoms: C7_7  and  C9_9 
ROOT
HETATM    1  C1  UNL     1     -35.068  17.468   0.817  1.00 20.00    -0.111 C 
HETATM    2  C2  UNL     1     -34.558  17.183  -0.232  1.00 20.00    -0.107 C 
HETATM    3  C3  UNL     1     -35.689  17.812   2.095  1.00 20.00     0.112 C 
ENDROOT
BRANCH   2   4
HETATM    4  C6  UNL     1     -33.940  16.835  -1.519  1.00 20.00     0.098 C 
BRANCH   4   5
HETATM    5  C8  UNL     1     -34.759  15.825  -2.346  1.00 20.00    -0.006 C 
HETATM    6  C4  UNL     1     -36.039  16.470  -2.894  1.00 20.00     0.011 C 
BRANCH   5   7
HETATM    7  C7  UNL     1     -33.978  15.156  -3.505  1.00 20.00     0.020 C 
BRANCH   7   8
HETATM    8  C9  UNL     1     -34.821  14.655  -4.682  1.00 20.00     0.054 C 
HETATM    9  C5  UNL     1     -34.648  13.156  -4.890  1.00 20.00     0.022 C 
HETATM   10 BR10 UNL     1     -34.281  15.554  -6.338  1.00 20.00    -0.092 Br
ENDBRANCH   7   8
ENDBRANCH   5   7
ENDBRANCH   4   5
ENDBRANCH   2   4
TORSDOF 4
ENDMDL
MODEL 7
REMARK VINA RESULT:      -4.1     11.247     12.798
REMARK  4 active torsions:
REMARK  status: ('A' for Active; 'I' for Inactive)
REMARK    1  A    between atoms: C2_2  and  C6_6 
REMARK    2  A    between atoms: C6_6  and  C8_8 
REMARK    3  A    between atoms: C7_7  and  C8_8 
REMARK    4  A    between atoms: C7_7  and  C9_9 
ROOT
HETATM    1  C1  UNL     1     -32.179   8.641   1.692  1.00 20.00    -0.111 C 
HETATM    2  C2  UNL     1     -32.430   7.679   2.366  1.00 20.00    -0.107 C 
HETATM    3  C3  UNL     1     -31.876   9.814   0.874  1.00 20.00     0.112 C 
ENDROOT
BRANCH   2   4
HETATM    4  C6  UNL     1     -32.740   6.500   3.185  1.00 20.00     0.098 C 
BRANCH   4   5
HETATM    5  C8  UNL     1     -34.113   5.874   2.875  1.00 20.00    -0.006 C 
HETATM    6  C4  UNL     1     -33.962   4.599   2.035  1.00 20.00     0.011 C 
BRANCH   5   7
HETATM    7  C7  UNL     1     -34.983   5.574   4.121  1.00 20.00     0.020 C 
BRANCH   7   8
HETATM    8  C9  UNL     1     -34.224   5.169   5.389  1.00 20.00     0.054 C 
HETATM    9  C5  UNL     1     -35.018   4.162   6.212  1.00 20.00     0.022 C 
HETATM   10 BR10 UNL     1     -33.896   6.737   6.517  1.00 20.00    -0.092 Br
ENDBRANCH   7   8
ENDBRANCH   5   7
ENDBRANCH   4   5
ENDBRANCH   2   4
TORSDOF 4
ENDMDL
MODEL 8
REMARK VINA RESULT:      -4.1      2.523      3.650
REMARK  4 active torsions:
REMARK  status: ('A' for Active; 'I' for Inactive)
REMARK    1  A    between atoms: C2_2  and  C6_6 
REMARK    2  A    between atoms: C6_6  and  C8_8 
REMARK    3  A    between atoms: C7_7  and  C8_8 
REMARK    4  A    between atoms: C7_7  and  C9_9 
ROOT
HETATM    1  C1  UNL     1     -31.961  18.944   1.367  1.00 20.00    -0.111 C 
HETATM    2  C2  UNL     1     -32.476  18.821   0.290  1.00 20.00    -0.107 C 
HETATM    3  C3  UNL     1     -31.331  19.094   2.678  1.00 20.00     0.112 C 
ENDROOT
BRANCH   2   4
HETATM    4  C6  UNL     1     -33.106  18.664  -1.029  1.00 20.00     0.098 C 
BRANCH   4   5
HETATM    5  C8  UNL     1     -33.680  17.256  -1.277  1.00 20.00    -0.006 C 
HETATM    6  C4  UNL     1     -34.799  16.932  -0.279  1.00 20.00     0.011 C 
BRANCH   5   7
HETATM    7  C7  UNL     1     -34.184  17.009  -2.721  1.00 20.00     0.020 C 
BRANCH   7   8
HETATM    8  C9  UNL     1     -33.406  15.974  -3.538  1.00 20.00     0.054 C 
HETATM    9  C5  UNL     1     -33.212  16.434  -4.977  1.00 20.00     0.022 C 
HETATM   10 BR10 UNL     1     -34.375  14.271  -3.580  1.00 20.00    -0.092 Br
ENDBRANCH   7   8
ENDBRANCH   5   7
ENDBRANCH   4   5
ENDBRANCH   2   4
TORSDOF 4
ENDMDL
MODEL 9
REMARK VINA RESULT:      -4.0      2.107      2.493
REMARK  4 active torsions:
REMARK  status: ('A' for Active; 'I' for Inactive)
REMARK    1  A    between atoms: C2_2  and  C6_6 
REMARK    2  A    between atoms: C6_6  and  C8_8 
REMARK    3  A    between atoms: C7_7  and  C8_8 
REMARK    4  A    between atoms: C7_7  and  C9_9 
ROOT
HETATM    1  C1  UNL     1     -34.814  17.097  -0.068  1.00 20.00    -0.111 C 
HETATM    2  C2  UNL     1     -34.447  16.706  -1.143  1.00 20.00    -0.107 C 
HETATM    3  C3  UNL     1     -35.261  17.570   1.241  1.00 20.00     0.112 C 
ENDROOT
BRANCH   2   4
HETATM    4  C6  UNL     1     -34.003  16.226  -2.459  1.00 20.00     0.098 C 
BRANCH   4   5
HETATM    5  C8  UNL     1     -34.640  16.983  -3.641  1.00 20.00    -0.006 C 
HETATM    6  C4  UNL     1     -33.635  17.946  -4.286  1.00 20.00     0.011 C 
BRANCH   5   7
HETATM    7  C7  UNL     1     -35.261  16.074  -4.730  1.00 20.00     0.020 C 
BRANCH   7   8
HETATM    8  C9  UNL     1     -34.308  15.075  -5.395  1.00 20.00     0.054 C 
HETATM    9  C5  UNL     1     -34.458  15.089  -6.911  1.00 20.00     0.022 C 
HETATM   10 BR10 UNL     1     -34.688  13.255  -4.773  1.00 20.00    -0.092 Br
ENDBRANCH   7   8
ENDBRANCH   5   7
ENDBRANCH   4   5
ENDBRANCH   2   4
TORSDOF 4
ENDMDL
