MODEL 1
REMARK VINA RESULT:      -5.0      0.000      0.000
REMARK  2 active torsions:
REMARK  status: ('A' for Active; 'I' for Inactive)
REMARK    1  A    between atoms: C1_1  and  C10_10 
REMARK    2  A    between atoms: C5_5  and  C10_10 
ROOT
HETATM    1  C2  UNL     1     -33.864   5.234   2.711  1.00 20.00     0.005 C 
HETATM    2  C3  UNL     1     -35.216   5.417   3.402  1.00 20.00     0.005 C 
HETATM    3  C4  UNL     1     -32.725   6.403   4.650  1.00 20.00     0.009 C 
HETATM    4  C5  UNL     1     -32.832   6.293   3.121  1.00 20.00    -0.008 C 
HETATM    5  C6  UNL     1     -35.101   5.492   4.935  1.00 20.00    -0.015 C 
HETATM    6  C7  UNL     1     -34.086   6.587   5.343  1.00 20.00    -0.015 C 
HETATM    7  C8  UNL     1     -34.794   4.109   5.525  1.00 20.00     0.010 C 
HETATM    8  C9  UNL     1     -33.902   6.692   6.858  1.00 20.00     0.010 C 
ENDROOT
BRANCH   4   9
HETATM    9  C10 UNL     1     -33.129   7.649   2.475  1.00 20.00     0.074 C 
BRANCH   9  10
HETATM   10  C1  UNL     1     -31.898   8.284   1.888  1.00 20.00     0.231 C 
HETATM   11  O11 UNL     1     -31.834   8.811   0.784  1.00 20.00    -0.307 OA
ENDBRANCH   9  10
ENDBRANCH   4   9
TORSDOF 2
ENDMDL
MODEL 2
REMARK VINA RESULT:      -4.7     10.981     12.485
REMARK  2 active torsions:
REMARK  status: ('A' for Active; 'I' for Inactive)
REMARK    1  A    between atoms: C1_1  and  C10_10 
REMARK    2  A    between atoms: C5_5  and  C10_10 
ROOT
HETATM    1  C2  UNL     1     -35.015  16.430  -4.312  1.00 20.00     0.005 C 
HETATM    2  C3  UNL     1     -33.906  17.481  -4.267  1.00 20.00     0.005 C 
HETATM    3  C4  UNL     1     -34.811  16.121  -1.805  1.00 20.00     0.009 C 
HETATM    4  C5  UNL     1     -34.928  15.415  -3.165  1.00 20.00    -0.008 C 
HETATM    5  C6  UNL     1     -33.820  18.206  -2.912  1.00 20.00    -0.015 C 
HETATM    6  C7  UNL     1     -33.693  17.177  -1.763  1.00 20.00    -0.015 C 
HETATM    7  C8  UNL     1     -34.988  19.186  -2.745  1.00 20.00     0.010 C 
HETATM    8  C9  UNL     1     -33.635  17.835  -0.382  1.00 20.00     0.010 C 
ENDROOT
BRANCH   4   9
HETATM    9  C10 UNL     1     -33.790  14.415  -3.383  1.00 20.00     0.074 C 
BRANCH   9  10
HETATM   10  C1  UNL     1     -34.100  13.423  -4.471  1.00 20.00     0.231 C 
HETATM   11  O11 UNL     1     -35.052  12.651  -4.471  1.00 20.00    -0.307 OA
ENDBRANCH   9  10
ENDBRANCH   4   9
TORSDOF 2
ENDMDL
MODEL 3
REMARK VINA RESULT:      -4.4     11.253     12.587
REMARK  2 active torsions:
REMARK  status: ('A' for Active; 'I' for Inactive)
REMARK    1  A    between atoms: C1_1  and  C10_10 
REMARK    2  A    between atoms: C5_5  and  C10_10 
ROOT
HETATM    1  C2  UNL     1     -34.043  17.348  -3.648  1.00 20.00     0.005 C 
HETATM    2  C3  UNL     1     -35.243  17.046  -4.546  1.00 20.00     0.005 C 
HETATM    3  C4  UNL     1     -33.665  14.862  -3.332  1.00 20.00     0.009 C 
HETATM    4  C5  UNL     1     -33.751  16.230  -2.638  1.00 20.00    -0.008 C 
HETATM    5  C6  UNL     1     -35.131  15.689  -5.262  1.00 20.00    -0.015 C 
HETATM    6  C7  UNL     1     -34.875  14.560  -4.234  1.00 20.00    -0.015 C 
HETATM    7  C8  UNL     1     -34.090  15.754  -6.388  1.00 20.00     0.010 C 
HETATM    8  C9  UNL     1     -34.721  13.186  -4.888  1.00 20.00     0.010 C 
ENDROOT
BRANCH   4   9
HETATM    9  C10 UNL     1     -34.772  16.222  -1.497  1.00 20.00     0.074 C 
BRANCH   9  10
HETATM   10  C1  UNL     1     -34.407  17.182  -0.398  1.00 20.00     0.231 C 
HETATM   11  O11 UNL     1     -35.028  17.326   0.649  1.00 20.00    -0.307 OA
ENDBRANCH   9  10
ENDBRANCH   4   9
TORSDOF 2
ENDMDL
MODEL 4
REMARK VINA RESULT:      -4.4     11.211     13.114
REMARK  2 active torsions:
REMARK  status: ('A' for Active; 'I' for Inactive)
REMARK    1  A    between atoms: C1_1  and  C10_10 
REMARK    2  A    between atoms: C5_5  and  C10_10 
ROOT
HETATM    1  C2  UNL     1     -34.274  16.365  -1.867  1.00 20.00     0.005 C 
HETATM    2  C3  UNL     1     -35.225  17.482  -2.298  1.00 20.00     0.005 C 
HETATM    3  C4  UNL     1     -33.277  16.327  -4.196  1.00 20.00     0.009 C 
HETATM    4  C5  UNL     1     -33.818  15.480  -3.034  1.00 20.00    -0.008 C 
HETATM    5  C6  UNL     1     -34.658  18.345  -3.439  1.00 20.00    -0.015 C 
HETATM    6  C7  UNL     1     -34.235  17.449  -4.629  1.00 20.00    -0.015 C 
HETATM    7  C8  UNL     1     -33.542  19.263  -2.923  1.00 20.00     0.010 C 
HETATM    8  C9  UNL     1     -33.633  18.247  -5.787  1.00 20.00     0.010 C 
ENDROOT
BRANCH   4   9
HETATM    9  C10 UNL     1     -34.932  14.535  -3.494  1.00 20.00     0.074 C 
BRANCH   9  10
HETATM   10  C1  UNL     1     -34.510  13.676  -4.654  1.00 20.00     0.231 C 
HETATM   11  O11 UNL     1     -34.841  12.509  -4.826  1.00 20.00    -0.307 OA
ENDBRANCH   9  10
ENDBRANCH   4   9
TORSDOF 2
ENDMDL
MODEL 5
REMARK VINA RESULT:      -4.4     11.281     12.924
REMARK  2 active torsions:
REMARK  status: ('A' for Active; 'I' for Inactive)
REMARK    1  A    between atoms: C1_1  and  C10_10 
REMARK    2  A    between atoms: C5_5  and  C10_10 
ROOT
HETATM    1  C2  UNL     1     -35.631  13.913  -4.161  1.00 20.00     0.005 C 
HETATM    2  C3  UNL     1     -34.544  13.628  -5.198  1.00 20.00     0.005 C 
HETATM    3  C4  UNL     1     -35.475  16.386  -4.688  1.00 20.00     0.009 C 
HETATM    4  C5  UNL     1     -35.548  15.329  -3.576  1.00 20.00    -0.008 C 
HETATM    5  C6  UNL     1     -34.502  14.675  -6.326  1.00 20.00    -0.015 C 
HETATM    6  C7  UNL     1     -34.379  16.098  -5.730  1.00 20.00    -0.015 C 
HETATM    7  C8  UNL     1     -35.693  14.498  -7.276  1.00 20.00     0.010 C 
HETATM    8  C9  UNL     1     -34.363  17.190  -6.801  1.00 20.00     0.010 C 
ENDROOT
BRANCH   4   9
HETATM    9  C10 UNL     1     -34.386  15.464  -2.590  1.00 20.00     0.074 C 
BRANCH   9  10
HETATM   10  C1  UNL     1     -34.560  16.631  -1.657  1.00 20.00     0.231 C 
HETATM   11  O11 UNL     1     -34.711  16.549  -0.444  1.00 20.00    -0.307 OA
ENDBRANCH   9  10
ENDBRANCH   4   9
TORSDOF 2
ENDMDL
MODEL 6
REMARK VINA RESULT:      -4.3     11.329     13.055
REMARK  2 active torsions:
REMARK  status: ('A' for Active; 'I' for Inactive)
REMARK    1  A    between atoms: C1_1  and  C10_10 
REMARK    2  A    between atoms: C5_5  and  C10_10 
ROOT
HETATM    1  C2  UNL     1     -34.531  14.994  -3.041  1.00 20.00     0.005 C 
HETATM    2  C3  UNL     1     -33.186  15.170  -3.745  1.00 20.00     0.005 C 
HETATM    3  C4  UNL     1     -35.041  17.446  -3.424  1.00 20.00     0.009 C 
HETATM    4  C5  UNL     1     -35.054  16.292  -2.411  1.00 20.00    -0.008 C 
HETATM    5  C6  UNL     1     -33.195  16.307  -4.783  1.00 20.00    -0.015 C 
HETATM    6  C7  UNL     1     -33.686  17.622  -4.131  1.00 20.00    -0.015 C 
HETATM    7  C8  UNL     1     -33.987  15.897  -6.031  1.00 20.00     0.010 C 
HETATM    8  C9  UNL     1     -33.748  18.787  -5.120  1.00 20.00     0.010 C 
ENDROOT
BRANCH   4   9
HETATM    9  C10 UNL     1     -34.283  16.649  -1.137  1.00 20.00     0.074 C 
BRANCH   9  10
HETATM   10  C1  UNL     1     -35.100  17.488  -0.192  1.00 20.00     0.231 C 
HETATM   11  O11 UNL     1     -35.205  17.293   1.013  1.00 20.00    -0.307 OA
ENDBRANCH   9  10
ENDBRANCH   4   9
TORSDOF 2
ENDMDL
MODEL 7
REMARK VINA RESULT:      -4.3     11.229     12.614
REMARK  2 active torsions:
REMARK  status: ('A' for Active; 'I' for Inactive)
REMARK    1  A    between atoms: C1_1  and  C10_10 
REMARK    2  A    between atoms: C5_5  and  C10_10 
ROOT
HETATM    1  C2  UNL     1     -34.869  14.283  -5.981  1.00 20.00     0.005 C 
HETATM    2  C3  UNL     1     -34.764  13.342  -4.780  1.00 20.00     0.005 C 
HETATM    3  C4  UNL     1     -35.248  16.233  -4.409  1.00 20.00     0.009 C 
HETATM    4  C5  UNL     1     -35.712  15.532  -5.695  1.00 20.00    -0.008 C 
HETATM    5  C6  UNL     1     -34.267  14.047  -3.506  1.00 20.00    -0.015 C 
HETATM    6  C7  UNL     1     -35.146  15.285  -3.201  1.00 20.00    -0.015 C 
HETATM    7  C8  UNL     1     -32.768  14.358  -3.608  1.00 20.00     0.010 C 
HETATM    8  C9  UNL     1     -34.683  16.051  -1.961  1.00 20.00     0.010 C 
ENDROOT
BRANCH   4   9
HETATM    9  C10 UNL     1     -37.207  15.205  -5.653  1.00 20.00     0.074 C 
BRANCH   9  10
HETATM   10  C1  UNL     1     -37.881  15.443  -6.977  1.00 20.00     0.231 C 
HETATM   11  O11 UNL     1     -37.886  14.658  -7.918  1.00 20.00    -0.307 OA
ENDBRANCH   9  10
ENDBRANCH   4   9
TORSDOF 2
ENDMDL
MODEL 8
REMARK VINA RESULT:      -4.3      9.621     11.073
REMARK  2 active torsions:
REMARK  status: ('A' for Active; 'I' for Inactive)
REMARK    1  A    between atoms: C1_1  and  C10_10 
REMARK    2  A    between atoms: C5_5  and  C10_10 
ROOT
HETATM    1  C2  UNL     1     -42.400   7.615  -1.019  1.00 20.00     0.005 C 
HETATM    2  C3  UNL     1     -41.073   6.888  -0.800  1.00 20.00     0.005 C 
HETATM    3  C4  UNL     1     -43.179   5.723  -2.513  1.00 20.00     0.009 C 
HETATM    4  C5  UNL     1     -43.075   7.247  -2.346  1.00 20.00    -0.008 C 
HETATM    5  C6  UNL     1     -41.195   5.360  -0.936  1.00 20.00    -0.015 C 
HETATM    6  C7  UNL     1     -41.842   4.994  -2.293  1.00 20.00    -0.015 C 
HETATM    7  C8  UNL     1     -41.918   4.764   0.279  1.00 20.00     0.010 C 
HETATM    8  C9  UNL     1     -42.022   3.486  -2.477  1.00 20.00     0.010 C 
ENDROOT
BRANCH   4   9
HETATM    9  C10 UNL     1     -42.369   7.899  -3.538  1.00 20.00     0.074 C 
BRANCH   9  10
HETATM   10  C1  UNL     1     -43.340   8.475  -4.532  1.00 20.00     0.231 C 
HETATM   11  O11 UNL     1     -43.417   8.152  -5.712  1.00 20.00    -0.307 OA
ENDBRANCH   9  10
ENDBRANCH   4   9
TORSDOF 2
ENDMDL
MODEL 9
REMARK VINA RESULT:      -4.1      9.411     11.003
REMARK  2 active torsions:
REMARK  status: ('A' for Active; 'I' for Inactive)
REMARK    1  A    between atoms: C1_1  and  C10_10 
REMARK    2  A    between atoms: C5_5  and  C10_10 
ROOT
HETATM    1  C2  UNL     1     -43.417   4.732  -2.727  1.00 20.00     0.005 C 
HETATM    2  C3  UNL     1     -42.674   6.012  -3.108  1.00 20.00     0.005 C 
HETATM    3  C4  UNL     1     -41.866   4.430  -0.747  1.00 20.00     0.009 C 
HETATM    4  C5  UNL     1     -42.548   3.743  -1.940  1.00 20.00    -0.008 C 
HETATM    5  C6  UNL     1     -42.023   6.710  -1.900  1.00 20.00    -0.015 C 
HETATM    6  C7  UNL     1     -41.117   5.717  -1.133  1.00 20.00    -0.015 C 
HETATM    7  C8  UNL     1     -43.087   7.386  -1.026  1.00 20.00     0.010 C 
HETATM    8  C9  UNL     1     -40.463   6.342   0.101  1.00 20.00     0.010 C 
ENDROOT
BRANCH   4   9
HETATM    9  C10 UNL     1     -41.532   3.041  -2.845  1.00 20.00     0.074 C 
BRANCH   9  10
HETATM   10  C1  UNL     1     -42.046   1.729  -3.371  1.00 20.00     0.231 C 
HETATM   11  O11 UNL     1     -41.362   0.871  -3.917  1.00 20.00    -0.307 OA
ENDBRANCH   9  10
ENDBRANCH   4   9
TORSDOF 2
ENDMDL
