MODEL 1
REMARK VINA RESULT:      -3.8      0.000      0.000
REMARK  3 active torsions:
REMARK  status: ('A' for Active; 'I' for Inactive)
REMARK    1  A    between atoms: C6_6  and  C7_7 
REMARK    2  A    between atoms: C6_6  and  C8_8 
REMARK    3  A    between atoms: C7_7  and  C9_9 
ROOT
HETATM    1  C1  UNL     1     -34.431  16.496  -1.355  1.00 20.00     0.011 C 
HETATM    2  C7  UNL     1     -34.254  16.066  -2.821  1.00 20.00    -0.010 C 
ENDROOT
BRANCH   2   3
HETATM    3  C6  UNL     1     -35.284  14.957  -3.185  1.00 20.00     0.024 C 
BRANCH   3   4
HETATM    4  C8  UNL     1     -34.735  13.726  -3.929  1.00 20.00     0.078 C 
HETATM    5  C2  UNL     1     -33.230  13.589  -3.714  1.00 20.00     0.026 C 
HETATM    6 CL10 UNL     1     -35.056  13.835  -5.685  1.00 20.00    -0.125 Cl
ENDBRANCH   3   4
ENDBRANCH   2   3
BRANCH   2   7
HETATM    7  C9  UNL     1     -34.276  17.286  -3.825  1.00 20.00    -0.048 C 
HETATM    8  C3  UNL     1     -33.367  17.060  -5.049  1.00 20.00     0.015 C 
HETATM    9  C4  UNL     1     -35.714  17.536  -4.336  1.00 20.00     0.015 C 
HETATM   10  C5  UNL     1     -33.821  18.582  -3.118  1.00 20.00     0.015 C 
ENDBRANCH   2   7
TORSDOF 3
ENDMDL
MODEL 2
REMARK VINA RESULT:      -3.8      2.200      3.424
REMARK  3 active torsions:
REMARK  status: ('A' for Active; 'I' for Inactive)
REMARK    1  A    between atoms: C6_6  and  C7_7 
REMARK    2  A    between atoms: C6_6  and  C8_8 
REMARK    3  A    between atoms: C7_7  and  C9_9 
ROOT
HETATM    1  C1  UNL     1     -32.803  14.791  -3.516  1.00 20.00     0.011 C 
HETATM    2  C7  UNL     1     -34.331  14.830  -3.697  1.00 20.00    -0.010 C 
ENDROOT
BRANCH   2   3
HETATM    3  C6  UNL     1     -34.990  15.636  -2.539  1.00 20.00     0.024 C 
BRANCH   3   4
HETATM    4  C8  UNL     1     -34.083  16.630  -1.790  1.00 20.00     0.078 C 
HETATM    5  C2  UNL     1     -34.644  16.939  -0.405  1.00 20.00     0.026 C 
HETATM    6 CL10 UNL     1     -33.916  18.162  -2.697  1.00 20.00    -0.125 Cl
ENDBRANCH   3   4
ENDBRANCH   2   3
BRANCH   2   7
HETATM    7  C9  UNL     1     -34.766  15.334  -5.129  1.00 20.00    -0.048 C 
HETATM    8  C3  UNL     1     -33.709  16.248  -5.780  1.00 20.00     0.015 C 
HETATM    9  C4  UNL     1     -35.007  14.132  -6.072  1.00 20.00     0.015 C 
HETATM   10  C5  UNL     1     -36.097  16.115  -5.052  1.00 20.00     0.015 C 
ENDBRANCH   2   7
TORSDOF 3
ENDMDL
MODEL 3
REMARK VINA RESULT:      -3.8      2.445      4.097
REMARK  3 active torsions:
REMARK  status: ('A' for Active; 'I' for Inactive)
REMARK    1  A    between atoms: C6_6  and  C7_7 
REMARK    2  A    between atoms: C6_6  and  C8_8 
REMARK    3  A    between atoms: C7_7  and  C9_9 
ROOT
HETATM    1  C1  UNL     1     -33.328  17.037  -5.178  1.00 20.00     0.011 C 
HETATM    2  C7  UNL     1     -33.622  16.171  -3.941  1.00 20.00    -0.010 C 
ENDROOT
BRANCH   2   3
HETATM    3  C6  UNL     1     -34.419  16.992  -2.885  1.00 20.00     0.024 C 
BRANCH   3   4
HETATM    4  C8  UNL     1     -33.741  17.194  -1.518  1.00 20.00     0.078 C 
HETATM    5  C2  UNL     1     -34.714  16.895  -0.381  1.00 20.00     0.026 C 
HETATM    6 CL10 UNL     1     -33.143  18.870  -1.334  1.00 20.00    -0.125 Cl
ENDBRANCH   3   4
ENDBRANCH   2   3
BRANCH   2   7
HETATM    7  C9  UNL     1     -34.309  14.796  -4.304  1.00 20.00    -0.048 C 
HETATM    8  C3  UNL     1     -34.504  14.616  -5.822  1.00 20.00     0.015 C 
HETATM    9  C4  UNL     1     -33.455  13.615  -3.787  1.00 20.00     0.015 C 
HETATM   10  C5  UNL     1     -35.691  14.680  -3.623  1.00 20.00     0.015 C 
ENDBRANCH   2   7
TORSDOF 3
ENDMDL
MODEL 4
REMARK VINA RESULT:      -3.7      2.129      3.824
REMARK  3 active torsions:
REMARK  status: ('A' for Active; 'I' for Inactive)
REMARK    1  A    between atoms: C6_6  and  C7_7 
REMARK    2  A    between atoms: C6_6  and  C8_8 
REMARK    3  A    between atoms: C7_7  and  C9_9 
ROOT
HETATM    1  C1  UNL     1     -32.649  14.328  -3.512  1.00 20.00     0.011 C 
HETATM    2  C7  UNL     1     -33.963  15.100  -3.301  1.00 20.00    -0.010 C 
ENDROOT
BRANCH   2   3
HETATM    3  C6  UNL     1     -33.693  16.633  -3.302  1.00 20.00     0.024 C 
BRANCH   3   4
HETATM    4  C8  UNL     1     -34.345  17.447  -2.170  1.00 20.00     0.078 C 
HETATM    5  C2  UNL     1     -34.621  16.563  -0.956  1.00 20.00     0.026 C 
HETATM    6 CL10 UNL     1     -35.884  18.183  -2.705  1.00 20.00    -0.125 Cl
ENDBRANCH   3   4
ENDBRANCH   2   3
BRANCH   2   7
HETATM    7  C9  UNL     1     -35.097  14.669  -4.314  1.00 20.00    -0.048 C 
HETATM    8  C3  UNL     1     -36.500  14.702  -3.678  1.00 20.00     0.015 C 
HETATM    9  C4  UNL     1     -35.105  15.608  -5.543  1.00 20.00     0.015 C 
HETATM   10  C5  UNL     1     -34.840  13.241  -4.845  1.00 20.00     0.015 C 
ENDBRANCH   2   7
TORSDOF 3
ENDMDL
MODEL 5
REMARK VINA RESULT:      -3.7      2.602      4.043
REMARK  3 active torsions:
REMARK  status: ('A' for Active; 'I' for Inactive)
REMARK    1  A    between atoms: C6_6  and  C7_7 
REMARK    2  A    between atoms: C6_6  and  C8_8 
REMARK    3  A    between atoms: C7_7  and  C9_9 
ROOT
HETATM    1  C1  UNL     1     -36.688  15.123  -3.426  1.00 20.00     0.011 C 
HETATM    2  C7  UNL     1     -35.260  15.695  -3.421  1.00 20.00    -0.010 C 
ENDROOT
BRANCH   2   3
HETATM    3  C6  UNL     1     -34.757  15.877  -1.958  1.00 20.00     0.024 C 
BRANCH   3   4
HETATM    4  C8  UNL     1     -34.877  17.291  -1.361  1.00 20.00     0.078 C 
HETATM    5  C2  UNL     1     -33.671  18.145  -1.743  1.00 20.00     0.026 C 
HETATM    6 CL10 UNL     1     -34.997  17.232   0.422  1.00 20.00    -0.125 Cl
ENDBRANCH   3   4
ENDBRANCH   2   3
BRANCH   2   7
HETATM    7  C9  UNL     1     -34.262  14.862  -4.320  1.00 20.00    -0.048 C 
HETATM    8  C3  UNL     1     -34.192  15.388  -5.766  1.00 20.00     0.015 C 
HETATM    9  C4  UNL     1     -32.836  14.906  -3.723  1.00 20.00     0.015 C 
HETATM   10  C5  UNL     1     -34.682  13.376  -4.366  1.00 20.00     0.015 C 
ENDBRANCH   2   7
TORSDOF 3
ENDMDL
MODEL 6
REMARK VINA RESULT:      -3.7      2.612      3.969
REMARK  3 active torsions:
REMARK  status: ('A' for Active; 'I' for Inactive)
REMARK    1  A    between atoms: C6_6  and  C7_7 
REMARK    2  A    between atoms: C6_6  and  C8_8 
REMARK    3  A    between atoms: C7_7  and  C9_9 
ROOT
HETATM    1  C1  UNL     1     -36.688  15.147  -3.459  1.00 20.00     0.011 C 
HETATM    2  C7  UNL     1     -35.251  15.693  -3.407  1.00 20.00    -0.010 C 
ENDROOT
BRANCH   2   3
HETATM    3  C6  UNL     1     -34.793  15.869  -1.930  1.00 20.00     0.024 C 
BRANCH   3   4
HETATM    4  C8  UNL     1     -34.886  17.290  -1.345  1.00 20.00     0.078 C 
HETATM    5  C2  UNL     1     -33.672  18.122  -1.748  1.00 20.00     0.026 C 
HETATM    6 CL10 UNL     1     -34.988  17.250   0.440  1.00 20.00    -0.125 Cl
ENDBRANCH   3   4
ENDBRANCH   2   3
BRANCH   2   7
HETATM    7  C9  UNL     1     -34.240  14.841  -4.273  1.00 20.00    -0.048 C 
HETATM    8  C3  UNL     1     -32.804  14.885  -3.715  1.00 20.00     0.015 C 
HETATM    9  C4  UNL     1     -34.690  13.363  -4.324  1.00 20.00     0.015 C 
HETATM   10  C5  UNL     1     -34.207  15.350  -5.731  1.00 20.00     0.015 C 
ENDBRANCH   2   7
TORSDOF 3
ENDMDL
MODEL 7
REMARK VINA RESULT:      -3.7      1.763      2.985
REMARK  3 active torsions:
REMARK  status: ('A' for Active; 'I' for Inactive)
REMARK    1  A    between atoms: C6_6  and  C7_7 
REMARK    2  A    between atoms: C6_6  and  C8_8 
REMARK    3  A    between atoms: C7_7  and  C9_9 
ROOT
HETATM    1  C1  UNL     1     -33.135  13.926  -3.666  1.00 20.00     0.011 C 
HETATM    2  C7  UNL     1     -34.167  14.746  -4.461  1.00 20.00    -0.010 C 
ENDROOT
BRANCH   2   3
HETATM    3  C6  UNL     1     -35.032  13.806  -5.351  1.00 20.00     0.024 C 
BRANCH   3   4
HETATM    4  C8  UNL     1     -35.304  14.280  -6.790  1.00 20.00     0.078 C 
HETATM    5  C2  UNL     1     -34.239  15.275  -7.243  1.00 20.00     0.026 C 
HETATM    6 CL10 UNL     1     -36.909  15.058  -6.922  1.00 20.00    -0.125 Cl
ENDBRANCH   3   4
ENDBRANCH   2   3
BRANCH   2   7
HETATM    7  C9  UNL     1     -35.031  15.698  -3.543  1.00 20.00    -0.048 C 
HETATM    8  C3  UNL     1     -34.402  15.909  -2.152  1.00 20.00     0.015 C 
HETATM    9  C4  UNL     1     -35.195  17.084  -4.210  1.00 20.00     0.015 C 
HETATM   10  C5  UNL     1     -36.453  15.125  -3.348  1.00 20.00     0.015 C 
ENDBRANCH   2   7
TORSDOF 3
ENDMDL
MODEL 8
REMARK VINA RESULT:      -3.7      2.445      3.584
REMARK  3 active torsions:
REMARK  status: ('A' for Active; 'I' for Inactive)
REMARK    1  A    between atoms: C6_6  and  C7_7 
REMARK    2  A    between atoms: C6_6  and  C8_8 
REMARK    3  A    between atoms: C7_7  and  C9_9 
ROOT
HETATM    1  C1  UNL     1     -34.443  15.018  -7.271  1.00 20.00     0.011 C 
HETATM    2  C7  UNL     1     -34.739  15.052  -5.761  1.00 20.00    -0.010 C 
ENDROOT
BRANCH   2   3
HETATM    3  C6  UNL     1     -33.679  15.921  -5.023  1.00 20.00     0.024 C 
BRANCH   3   4
HETATM    4  C8  UNL     1     -33.117  15.351  -3.708  1.00 20.00     0.078 C 
HETATM    5  C2  UNL     1     -33.260  13.831  -3.671  1.00 20.00     0.026 C 
HETATM    6 CL10 UNL     1     -33.963  16.040  -2.292  1.00 20.00    -0.125 Cl
ENDBRANCH   3   4
ENDBRANCH   2   3
BRANCH   2   7
HETATM    7  C9  UNL     1     -36.226  15.481  -5.438  1.00 20.00    -0.048 C 
HETATM    8  C3  UNL     1     -37.171  15.285  -6.638  1.00 20.00     0.015 C 
HETATM    9  C4  UNL     1     -36.777  14.655  -4.252  1.00 20.00     0.015 C 
HETATM   10  C5  UNL     1     -36.285  16.966  -5.014  1.00 20.00     0.015 C 
ENDBRANCH   2   7
TORSDOF 3
ENDMDL
MODEL 9
REMARK VINA RESULT:      -3.5      1.817      3.243
REMARK  3 active torsions:
REMARK  status: ('A' for Active; 'I' for Inactive)
REMARK    1  A    between atoms: C6_6  and  C7_7 
REMARK    2  A    between atoms: C6_6  and  C8_8 
REMARK    3  A    between atoms: C7_7  and  C9_9 
ROOT
HETATM    1  C1  UNL     1     -34.792  13.254  -4.271  1.00 20.00     0.011 C 
HETATM    2  C7  UNL     1     -35.020  14.775  -4.231  1.00 20.00    -0.010 C 
ENDROOT
BRANCH   2   3
HETATM    3  C6  UNL     1     -36.282  15.109  -3.384  1.00 20.00     0.024 C 
BRANCH   3   4
HETATM    4  C8  UNL     1     -37.496  15.667  -4.149  1.00 20.00     0.078 C 
HETATM    5  C2  UNL     1     -38.730  14.799  -3.917  1.00 20.00     0.026 C 
HETATM    6 CL10 UNL     1     -37.172  15.745  -5.906  1.00 20.00    -0.125 Cl
ENDBRANCH   3   4
ENDBRANCH   2   3
BRANCH   2   7
HETATM    7  C9  UNL     1     -33.737  15.575  -3.775  1.00 20.00    -0.048 C 
HETATM    8  C3  UNL     1     -33.332  16.667  -4.784  1.00 20.00     0.015 C 
HETATM    9  C4  UNL     1     -33.985  16.254  -2.408  1.00 20.00     0.015 C 
HETATM   10  C5  UNL     1     -32.536  14.621  -3.588  1.00 20.00     0.015 C 
ENDBRANCH   2   7
TORSDOF 3
ENDMDL
