MODEL 1
REMARK VINA RESULT:      -5.2      0.000      0.000
REMARK  2 active torsions:
REMARK  status: ('A' for Active; 'I' for Inactive)
REMARK    1  A    between atoms: C4_4  and  C9_9 
REMARK    2  A    between atoms: C9_9  and  C10_10 
ROOT
HETATM    1  C1  UNL     1     -34.318   5.304   2.994  1.00 20.00     0.005 C 
HETATM    2  C2  UNL     1     -35.511   5.142   3.934  1.00 20.00     0.005 C 
HETATM    3  C3  UNL     1     -33.136   6.695   4.751  1.00 20.00     0.009 C 
HETATM    4  C4  UNL     1     -33.549   6.600   3.275  1.00 20.00    -0.013 C 
HETATM    5  C5  UNL     1     -35.120   5.221   5.419  1.00 20.00    -0.015 C 
HETATM    6  C6  UNL     1     -34.340   6.530   5.692  1.00 20.00    -0.015 C 
HETATM    7  C7  UNL     1     -34.377   3.952   5.856  1.00 20.00     0.010 C 
HETATM    8  C8  UNL     1     -33.903   6.670   7.151  1.00 20.00     0.010 C 
ENDROOT
BRANCH   4   9
HETATM    9  C9  UNL     1     -32.325   6.708   2.366  1.00 20.00     0.020 C 
BRANCH   9  10
HETATM   10  C10 UNL     1     -31.777   8.124   2.263  1.00 20.00     0.115 C 
HETATM   11 CL11 UNL     1     -32.241   8.912   0.739  1.00 20.00    -0.130 Cl
ENDBRANCH   9  10
ENDBRANCH   4   9
TORSDOF 2
ENDMDL
MODEL 2
REMARK VINA RESULT:      -4.7      9.195     10.673
REMARK  2 active torsions:
REMARK  status: ('A' for Active; 'I' for Inactive)
REMARK    1  A    between atoms: C4_4  and  C9_9 
REMARK    2  A    between atoms: C9_9  and  C10_10 
ROOT
HETATM    1  C1  UNL     1     -41.513   7.214  -0.919  1.00 20.00     0.005 C 
HETATM    2  C2  UNL     1     -40.647   6.088  -0.357  1.00 20.00     0.005 C 
HETATM    3  C3  UNL     1     -42.448   5.618  -2.650  1.00 20.00     0.009 C 
HETATM    4  C4  UNL     1     -41.826   7.001  -2.404  1.00 20.00    -0.013 C 
HETATM    5  C5  UNL     1     -41.257   4.694  -0.581  1.00 20.00    -0.015 C 
HETATM    6  C6  UNL     1     -41.573   4.489  -2.082  1.00 20.00    -0.015 C 
HETATM    7  C7  UNL     1     -42.460   4.469   0.344  1.00 20.00     0.010 C 
HETATM    8  C8  UNL     1     -42.199   3.126  -2.379  1.00 20.00     0.010 C 
ENDROOT
BRANCH   4   9
HETATM    9  C9  UNL     1     -42.744   8.104  -2.926  1.00 20.00     0.020 C 
BRANCH   9  10
HETATM   10  C10 UNL     1     -42.945   8.057  -4.434  1.00 20.00     0.115 C 
HETATM   11 CL11 UNL     1     -41.706   8.991  -5.303  1.00 20.00    -0.130 Cl
ENDBRANCH   9  10
ENDBRANCH   4   9
TORSDOF 2
ENDMDL
MODEL 3
REMARK VINA RESULT:      -4.6     11.450     13.133
REMARK  2 active torsions:
REMARK  status: ('A' for Active; 'I' for Inactive)
REMARK    1  A    between atoms: C4_4  and  C9_9 
REMARK    2  A    between atoms: C9_9  and  C10_10 
ROOT
HETATM    1  C1  UNL     1     -34.396  14.548  -3.429  1.00 20.00     0.005 C 
HETATM    2  C2  UNL     1     -34.413  13.755  -4.735  1.00 20.00     0.005 C 
HETATM    3  C3  UNL     1     -33.972  16.675  -4.739  1.00 20.00     0.009 C 
HETATM    4  C4  UNL     1     -33.536  15.812  -3.546  1.00 20.00    -0.013 C 
HETATM    5  C5  UNL     1     -34.859  14.596  -5.942  1.00 20.00    -0.015 C 
HETATM    6  C6  UNL     1     -33.988  15.871  -6.050  1.00 20.00    -0.015 C 
HETATM    7  C7  UNL     1     -36.366  14.877  -5.886  1.00 20.00     0.010 C 
HETATM    8  C8  UNL     1     -34.386  16.768  -7.223  1.00 20.00     0.010 C 
ENDROOT
BRANCH   4   9
HETATM    9  C9  UNL     1     -33.585  16.620  -2.251  1.00 20.00     0.020 C 
BRANCH   9  10
HETATM   10  C10 UNL     1     -34.807  16.313  -1.397  1.00 20.00     0.115 C 
HETATM   11 CL11 UNL     1     -34.774  17.182   0.154  1.00 20.00    -0.130 Cl
ENDBRANCH   9  10
ENDBRANCH   4   9
TORSDOF 2
ENDMDL
MODEL 4
REMARK VINA RESULT:      -4.4     11.420     12.495
REMARK  2 active torsions:
REMARK  status: ('A' for Active; 'I' for Inactive)
REMARK    1  A    between atoms: C4_4  and  C9_9 
REMARK    2  A    between atoms: C9_9  and  C10_10 
ROOT
HETATM    1  C1  UNL     1     -33.308  15.892  -3.848  1.00 20.00     0.005 C 
HETATM    2  C2  UNL     1     -33.915  15.504  -5.195  1.00 20.00     0.005 C 
HETATM    3  C3  UNL     1     -35.615  15.826  -2.803  1.00 20.00     0.009 C 
HETATM    4  C4  UNL     1     -34.319  16.634  -2.965  1.00 20.00    -0.013 C 
HETATM    5  C5  UNL     1     -35.208  14.684  -5.057  1.00 20.00    -0.015 C 
HETATM    6  C6  UNL     1     -36.221  15.438  -4.161  1.00 20.00    -0.015 C 
HETATM    7  C7  UNL     1     -34.902  13.258  -4.584  1.00 20.00     0.010 C 
HETATM    8  C8  UNL     1     -37.529  14.672  -3.965  1.00 20.00     0.010 C 
ENDROOT
BRANCH   4   9
HETATM    9  C9  UNL     1     -33.710  16.955  -1.601  1.00 20.00     0.020 C 
BRANCH   9  10
HETATM   10  C10 UNL     1     -34.706  16.839  -0.456  1.00 20.00     0.115 C 
HETATM   11 CL11 UNL     1     -34.354  17.987   0.855  1.00 20.00    -0.130 Cl
ENDBRANCH   9  10
ENDBRANCH   4   9
TORSDOF 2
ENDMDL
MODEL 5
REMARK VINA RESULT:      -4.4     11.494     12.840
REMARK  2 active torsions:
REMARK  status: ('A' for Active; 'I' for Inactive)
REMARK    1  A    between atoms: C4_4  and  C9_9 
REMARK    2  A    between atoms: C9_9  and  C10_10 
ROOT
HETATM    1  C1  UNL     1     -35.047  14.025  -5.762  1.00 20.00     0.005 C 
HETATM    2  C2  UNL     1     -34.521  13.269  -4.543  1.00 20.00     0.005 C 
HETATM    3  C3  UNL     1     -35.740  15.943  -4.259  1.00 20.00     0.009 C 
HETATM    4  C4  UNL     1     -36.175  14.992  -5.384  1.00 20.00    -0.013 C 
HETATM    5  C5  UNL     1     -34.068  14.201  -3.408  1.00 20.00    -0.015 C 
HETATM    6  C6  UNL     1     -35.211  15.177  -3.036  1.00 20.00    -0.015 C 
HETATM    7  C7  UNL     1     -32.749  14.897  -3.766  1.00 20.00     0.010 C 
HETATM    8  C8  UNL     1     -34.826  16.149  -1.921  1.00 20.00     0.010 C 
ENDROOT
BRANCH   4   9
HETATM    9  C9  UNL     1     -36.640  15.782  -6.607  1.00 20.00     0.020 C 
BRANCH   9  10
HETATM   10  C10 UNL     1     -35.591  15.860  -7.706  1.00 20.00     0.115 C 
HETATM   11 CL11 UNL     1     -34.460  17.210  -7.457  1.00 20.00    -0.130 Cl
ENDBRANCH   9  10
ENDBRANCH   4   9
TORSDOF 2
ENDMDL
MODEL 6
REMARK VINA RESULT:      -4.3     11.565     13.348
REMARK  2 active torsions:
REMARK  status: ('A' for Active; 'I' for Inactive)
REMARK    1  A    between atoms: C4_4  and  C9_9 
REMARK    2  A    between atoms: C9_9  and  C10_10 
ROOT
HETATM    1  C1  UNL     1     -34.339  15.020  -2.931  1.00 20.00     0.005 C 
HETATM    2  C2  UNL     1     -33.714  14.694  -4.286  1.00 20.00     0.005 C 
HETATM    3  C3  UNL     1     -34.060  17.492  -3.409  1.00 20.00     0.009 C 
HETATM    4  C4  UNL     1     -33.843  16.366  -2.389  1.00 20.00    -0.013 C 
HETATM    5  C5  UNL     1     -33.929  15.804  -5.329  1.00 20.00    -0.015 C 
HETATM    6  C6  UNL     1     -33.429  17.159  -4.771  1.00 20.00    -0.015 C 
HETATM    7  C7  UNL     1     -35.386  15.828  -5.808  1.00 20.00     0.010 C 
HETATM    8  C8  UNL     1     -33.627  18.316  -5.751  1.00 20.00     0.010 C 
ENDROOT
BRANCH   4   9
HETATM    9  C9  UNL     1     -34.530  16.700  -1.065  1.00 20.00     0.020 C 
BRANCH   9  10
HETATM   10  C10 UNL     1     -34.332  18.145  -0.633  1.00 20.00     0.115 C 
HETATM   11 CL11 UNL     1     -32.650  18.477  -0.159  1.00 20.00    -0.130 Cl
ENDBRANCH   9  10
ENDBRANCH   4   9
TORSDOF 2
ENDMDL
MODEL 7
REMARK VINA RESULT:      -4.3     11.640     12.609
REMARK  2 active torsions:
REMARK  status: ('A' for Active; 'I' for Inactive)
REMARK    1  A    between atoms: C4_4  and  C9_9 
REMARK    2  A    between atoms: C9_9  and  C10_10 
ROOT
HETATM    1  C1  UNL     1     -35.468  14.011  -4.723  1.00 20.00     0.005 C 
HETATM    2  C2  UNL     1     -34.085  13.793  -4.112  1.00 20.00     0.005 C 
HETATM    3  C3  UNL     1     -35.908  15.851  -3.037  1.00 20.00     0.009 C 
HETATM    4  C4  UNL     1     -36.456  14.576  -3.696  1.00 20.00    -0.013 C 
HETATM    5  C5  UNL     1     -33.510  15.060  -3.457  1.00 20.00    -0.015 C 
HETATM    6  C6  UNL     1     -34.516  15.625  -2.426  1.00 20.00    -0.015 C 
HETATM    7  C7  UNL     1     -33.075  16.075  -4.522  1.00 20.00     0.010 C 
HETATM    8  C8  UNL     1     -34.017  16.900  -1.744  1.00 20.00     0.010 C 
ENDROOT
BRANCH   4   9
HETATM    9  C9  UNL     1     -37.813  14.846  -4.345  1.00 20.00     0.020 C 
BRANCH   9  10
HETATM   10  C10 UNL     1     -37.755  15.898  -5.442  1.00 20.00     0.115 C 
HETATM   11 CL11 UNL     1     -38.026  15.199  -7.054  1.00 20.00    -0.130 Cl
ENDBRANCH   9  10
ENDBRANCH   4   9
TORSDOF 2
ENDMDL
MODEL 8
REMARK VINA RESULT:      -4.3     11.222     12.774
REMARK  2 active torsions:
REMARK  status: ('A' for Active; 'I' for Inactive)
REMARK    1  A    between atoms: C4_4  and  C9_9 
REMARK    2  A    between atoms: C9_9  and  C10_10 
ROOT
HETATM    1  C1  UNL     1     -33.624  16.127  -4.786  1.00 20.00     0.005 C 
HETATM    2  C2  UNL     1     -33.456  17.616  -4.491  1.00 20.00     0.005 C 
HETATM    3  C3  UNL     1     -34.040  15.697  -2.324  1.00 20.00     0.009 C 
HETATM    4  C4  UNL     1     -33.257  15.265  -3.572  1.00 20.00    -0.013 C 
HETATM    5  C5  UNL     1     -34.241  18.075  -3.251  1.00 20.00    -0.015 C 
HETATM    6  C6  UNL     1     -33.867  17.197  -2.032  1.00 20.00    -0.015 C 
HETATM    7  C7  UNL     1     -35.746  18.123  -3.544  1.00 20.00     0.010 C 
HETATM    8  C8  UNL     1     -34.625  17.586  -0.763  1.00 20.00     0.010 C 
ENDROOT
BRANCH   4   9
HETATM    9  C9  UNL     1     -33.494  13.785  -3.871  1.00 20.00     0.020 C 
BRANCH   9  10
HETATM   10  C10 UNL     1     -34.605  13.547  -4.882  1.00 20.00     0.115 C 
HETATM   11 CL11 UNL     1     -36.213  13.892  -4.203  1.00 20.00    -0.130 Cl
ENDBRANCH   9  10
ENDBRANCH   4   9
TORSDOF 2
ENDMDL
MODEL 9
REMARK VINA RESULT:      -4.3     11.692     13.374
REMARK  2 active torsions:
REMARK  status: ('A' for Active; 'I' for Inactive)
REMARK    1  A    between atoms: C4_4  and  C9_9 
REMARK    2  A    between atoms: C9_9  and  C10_10 
ROOT
HETATM    1  C1  UNL     1     -33.435  15.796  -3.531  1.00 20.00     0.005 C 
HETATM    2  C2  UNL     1     -33.466  14.295  -3.811  1.00 20.00     0.005 C 
HETATM    3  C3  UNL     1     -34.389  16.235  -5.836  1.00 20.00     0.009 C 
HETATM    4  C4  UNL     1     -33.298  16.609  -4.824  1.00 20.00    -0.013 C 
HETATM    5  C5  UNL     1     -34.561  13.894  -4.814  1.00 20.00    -0.015 C 
HETATM    6  C6  UNL     1     -34.417  14.723  -6.114  1.00 20.00    -0.015 C 
HETATM    7  C7  UNL     1     -35.950  13.983  -4.171  1.00 20.00     0.010 C 
HETATM    8  C8  UNL     1     -35.486  14.389  -7.155  1.00 20.00     0.010 C 
ENDROOT
BRANCH   4   9
HETATM    9  C9  UNL     1     -33.332  18.107  -4.524  1.00 20.00     0.020 C 
BRANCH   9  10
HETATM   10  C10 UNL     1     -34.211  18.462  -3.334  1.00 20.00     0.115 C 
HETATM   11 CL11 UNL     1     -33.292  19.263  -2.039  1.00 20.00    -0.130 Cl
ENDBRANCH   9  10
ENDBRANCH   4   9
TORSDOF 2
ENDMDL
