MODEL 1
REMARK VINA RESULT:      -4.2      0.000      0.000
REMARK  5 active torsions:
REMARK  status: ('A' for Active; 'I' for Inactive)
REMARK    1  A    between atoms: C6_6  and  C7_7 
REMARK    2  A    between atoms: C6_6  and  C9_9 
REMARK    3  A    between atoms: C7_7  and  C11_11 
REMARK    4  A    between atoms: C8_8  and  C10_10 
REMARK    5  A    between atoms: C8_8  and  C11_11 
ROOT
HETATM    1  C4  UNL     1     -33.662  18.377  -4.263  1.00 20.00     0.015 C 
HETATM    2  C5  UNL     1     -35.720  17.032  -3.921  1.00 20.00     0.015 C 
HETATM    3  C11 UNL     1     -34.182  16.942  -4.010  1.00 20.00    -0.046 C 
ENDROOT
BRANCH   3   4
HETATM    4  C7  UNL     1     -33.657  16.430  -2.638  1.00 20.00     0.009 C 
BRANCH   4   5
HETATM    5  C6  UNL     1     -34.724  16.212  -1.554  1.00 20.00     0.004 C 
BRANCH   5   6
HETATM    6  C9  UNL     1     -34.559  17.150  -0.340  1.00 20.00    -0.023 C 
HETATM    7  C1  UNL     1     -35.777  18.048  -0.123  1.00 20.00     0.009 C 
HETATM    8  C2  UNL     1     -33.307  18.014  -0.521  1.00 20.00     0.009 C 
ENDBRANCH   5   6
ENDBRANCH   4   5
ENDBRANCH   3   4
BRANCH   3   9
HETATM    9  C8  UNL     1     -33.728  16.063  -5.216  1.00 20.00     0.028 C 
BRANCH   9  10
HETATM   10  C10 UNL     1     -34.703  15.002  -5.758  1.00 20.00     0.079 C 
HETATM   11  C3  UNL     1     -34.525  14.828  -7.265  1.00 20.00     0.026 C 
HETATM   12 CL12 UNL     1     -34.447  13.408  -4.988  1.00 20.00    -0.125 Cl
ENDBRANCH   9  10
ENDBRANCH   3   9
TORSDOF 5
ENDMDL
MODEL 2
REMARK VINA RESULT:      -4.2     11.086     12.312
REMARK  5 active torsions:
REMARK  status: ('A' for Active; 'I' for Inactive)
REMARK    1  A    between atoms: C6_6  and  C7_7 
REMARK    2  A    between atoms: C6_6  and  C9_9 
REMARK    3  A    between atoms: C7_7  and  C11_11 
REMARK    4  A    between atoms: C8_8  and  C10_10 
REMARK    5  A    between atoms: C8_8  and  C11_11 
ROOT
HETATM    1  C4  UNL     1     -32.055   5.408   3.033  1.00 20.00     0.015 C 
HETATM    2  C5  UNL     1     -31.390   7.612   3.958  1.00 20.00     0.015 C 
HETATM    3  C11 UNL     1     -32.513   6.876   3.199  1.00 20.00    -0.046 C 
ENDROOT
BRANCH   3   4
HETATM    4  C7  UNL     1     -33.795   6.929   4.079  1.00 20.00     0.009 C 
BRANCH   4   5
HETATM    5  C6  UNL     1     -34.715   5.701   3.992  1.00 20.00     0.004 C 
BRANCH   5   6
HETATM    6  C9  UNL     1     -35.081   5.117   5.373  1.00 20.00    -0.023 C 
HETATM    7  C1  UNL     1     -34.417   5.872   6.525  1.00 20.00     0.009 C 
HETATM    8  C2  UNL     1     -34.686   3.638   5.430  1.00 20.00     0.009 C 
ENDBRANCH   5   6
ENDBRANCH   4   5
ENDBRANCH   3   4
BRANCH   3   9
HETATM    9  C8  UNL     1     -32.719   7.463   1.768  1.00 20.00     0.028 C 
BRANCH   9  10
HETATM   10  C10 UNL     1     -31.967   8.753   1.390  1.00 20.00     0.079 C 
HETATM   11  C3  UNL     1     -31.883   8.901  -0.127  1.00 20.00     0.026 C 
HETATM   12 CL12 UNL     1     -32.777  10.209   2.040  1.00 20.00    -0.125 Cl
ENDBRANCH   9  10
ENDBRANCH   3   9
TORSDOF 5
ENDMDL
MODEL 3
REMARK VINA RESULT:      -4.2      1.588      2.251
REMARK  5 active torsions:
REMARK  status: ('A' for Active; 'I' for Inactive)
REMARK    1  A    between atoms: C6_6  and  C7_7 
REMARK    2  A    between atoms: C6_6  and  C9_9 
REMARK    3  A    between atoms: C7_7  and  C11_11 
REMARK    4  A    between atoms: C8_8  and  C10_10 
REMARK    5  A    between atoms: C8_8  and  C11_11 
ROOT
HETATM    1  C4  UNL     1     -35.654  15.222  -3.874  1.00 20.00     0.015 C 
HETATM    2  C5  UNL     1     -33.563  13.893  -3.745  1.00 20.00     0.015 C 
HETATM    3  C11 UNL     1     -34.111  15.331  -3.841  1.00 20.00    -0.046 C 
ENDROOT
BRANCH   3   4
HETATM    4  C7  UNL     1     -33.668  16.095  -2.560  1.00 20.00     0.009 C 
BRANCH   4   5
HETATM    5  C6  UNL     1     -34.747  16.268  -1.480  1.00 20.00     0.004 C 
BRANCH   5   6
HETATM    6  C9  UNL     1     -34.619  17.593  -0.700  1.00 20.00    -0.023 C 
HETATM    7  C1  UNL     1     -33.184  18.121  -0.670  1.00 20.00     0.009 C 
HETATM    8  C2  UNL     1     -35.128  17.402   0.732  1.00 20.00     0.009 C 
ENDBRANCH   5   6
ENDBRANCH   4   5
ENDBRANCH   3   4
BRANCH   3   9
HETATM    9  C8  UNL     1     -33.666  16.027  -5.165  1.00 20.00     0.028 C 
BRANCH   9  10
HETATM   10  C10 UNL     1     -34.693  16.160  -6.305  1.00 20.00     0.079 C 
HETATM   11  C3  UNL     1     -34.481  17.465  -7.070  1.00 20.00     0.026 C 
HETATM   12 CL12 UNL     1     -34.567  14.812  -7.473  1.00 20.00    -0.125 Cl
ENDBRANCH   9  10
ENDBRANCH   3   9
TORSDOF 5
ENDMDL
MODEL 4
REMARK VINA RESULT:      -4.1      2.333      5.342
REMARK  5 active torsions:
REMARK  status: ('A' for Active; 'I' for Inactive)
REMARK    1  A    between atoms: C6_6  and  C7_7 
REMARK    2  A    between atoms: C6_6  and  C9_9 
REMARK    3  A    between atoms: C7_7  and  C11_11 
REMARK    4  A    between atoms: C8_8  and  C10_10 
REMARK    5  A    between atoms: C8_8  and  C11_11 
ROOT
HETATM    1  C4  UNL     1     -35.060  17.569  -3.275  1.00 20.00     0.015 C 
HETATM    2  C5  UNL     1     -33.197  15.933  -3.183  1.00 20.00     0.015 C 
HETATM    3  C11 UNL     1     -34.632  16.204  -2.687  1.00 20.00    -0.046 C 
ENDROOT
BRANCH   3   4
HETATM    4  C7  UNL     1     -35.550  15.081  -3.250  1.00 20.00     0.009 C 
BRANCH   4   5
HETATM    5  C6  UNL     1     -36.039  15.280  -4.692  1.00 20.00     0.004 C 
BRANCH   5   6
HETATM    6  C9  UNL     1     -35.417  14.279  -5.689  1.00 20.00    -0.023 C 
HETATM    7  C1  UNL     1     -34.671  13.142  -4.990  1.00 20.00     0.009 C 
HETATM    8  C2  UNL     1     -34.465  15.016  -6.635  1.00 20.00     0.009 C 
ENDBRANCH   5   6
ENDBRANCH   4   5
ENDBRANCH   3   4
BRANCH   3   9
HETATM    9  C8  UNL     1     -34.687  16.330  -1.133  1.00 20.00     0.028 C 
BRANCH   9  10
HETATM   10  C10 UNL     1     -34.605  17.735  -0.508  1.00 20.00     0.079 C 
HETATM   11  C3  UNL     1     -35.209  17.735   0.895  1.00 20.00     0.026 C 
HETATM   12 CL12 UNL     1     -32.916  18.308  -0.378  1.00 20.00    -0.125 Cl
ENDBRANCH   9  10
ENDBRANCH   3   9
TORSDOF 5
ENDMDL
MODEL 5
REMARK VINA RESULT:      -4.1      1.923      2.704
REMARK  5 active torsions:
REMARK  status: ('A' for Active; 'I' for Inactive)
REMARK    1  A    between atoms: C6_6  and  C7_7 
REMARK    2  A    between atoms: C6_6  and  C9_9 
REMARK    3  A    between atoms: C7_7  and  C11_11 
REMARK    4  A    between atoms: C8_8  and  C10_10 
REMARK    5  A    between atoms: C8_8  and  C11_11 
ROOT
HETATM    1  C4  UNL     1     -36.198  15.127  -4.561  1.00 20.00     0.015 C 
HETATM    2  C5  UNL     1     -34.601  13.245  -4.819  1.00 20.00     0.015 C 
HETATM    3  C11 UNL     1     -34.693  14.768  -4.593  1.00 20.00    -0.046 C 
ENDROOT
BRANCH   3   4
HETATM    4  C7  UNL     1     -34.050  15.083  -3.212  1.00 20.00     0.009 C 
BRANCH   4   5
HETATM    5  C6  UNL     1     -34.928  15.878  -2.233  1.00 20.00     0.004 C 
BRANCH   5   6
HETATM    6  C9  UNL     1     -34.115  16.792  -1.292  1.00 20.00    -0.023 C 
HETATM    7  C1  UNL     1     -34.871  17.131  -0.006  1.00 20.00     0.009 C 
HETATM    8  C2  UNL     1     -33.737  18.083  -2.024  1.00 20.00     0.009 C 
ENDBRANCH   5   6
ENDBRANCH   4   5
ENDBRANCH   3   4
BRANCH   3   9
HETATM    9  C8  UNL     1     -34.051  15.563  -5.772  1.00 20.00     0.028 C 
BRANCH   9  10
HETATM   10  C10 UNL     1     -34.616  16.954  -6.112  1.00 20.00     0.079 C 
HETATM   11  C3  UNL     1     -33.640  18.049  -5.687  1.00 20.00     0.026 C 
HETATM   12 CL12 UNL     1     -34.919  17.140  -7.865  1.00 20.00    -0.125 Cl
ENDBRANCH   9  10
ENDBRANCH   3   9
TORSDOF 5
ENDMDL
MODEL 6
REMARK VINA RESULT:      -4.1      2.314      5.097
REMARK  5 active torsions:
REMARK  status: ('A' for Active; 'I' for Inactive)
REMARK    1  A    between atoms: C6_6  and  C7_7 
REMARK    2  A    between atoms: C6_6  and  C9_9 
REMARK    3  A    between atoms: C7_7  and  C11_11 
REMARK    4  A    between atoms: C8_8  and  C10_10 
REMARK    5  A    between atoms: C8_8  and  C11_11 
ROOT
HETATM    1  C4  UNL     1     -32.653  14.466  -3.498  1.00 20.00     0.015 C 
HETATM    2  C5  UNL     1     -34.773  13.387  -4.206  1.00 20.00     0.015 C 
HETATM    3  C11 UNL     1     -34.071  14.752  -4.047  1.00 20.00    -0.046 C 
ENDROOT
BRANCH   3   4
HETATM    4  C7  UNL     1     -33.964  15.398  -5.458  1.00 20.00     0.009 C 
BRANCH   4   5
HETATM    5  C6  UNL     1     -35.107  16.350  -5.844  1.00 20.00     0.004 C 
BRANCH   5   6
HETATM    6  C9  UNL     1     -36.055  15.762  -6.909  1.00 20.00    -0.023 C 
HETATM    7  C1  UNL     1     -37.368  15.256  -6.311  1.00 20.00     0.009 C 
HETATM    8  C2  UNL     1     -35.354  14.623  -7.654  1.00 20.00     0.009 C 
ENDBRANCH   5   6
ENDBRANCH   4   5
ENDBRANCH   3   4
BRANCH   3   9
HETATM    9  C8  UNL     1     -34.801  15.654  -3.004  1.00 20.00     0.028 C 
BRANCH   9  10
HETATM   10  C10 UNL     1     -33.947  16.542  -2.079  1.00 20.00     0.079 C 
HETATM   11  C3  UNL     1     -33.805  17.946  -2.663  1.00 20.00     0.026 C 
HETATM   12 CL12 UNL     1     -34.672  16.695  -0.451  1.00 20.00    -0.125 Cl
ENDBRANCH   9  10
ENDBRANCH   3   9
TORSDOF 5
ENDMDL
MODEL 7
REMARK VINA RESULT:      -4.0      1.896      3.386
REMARK  5 active torsions:
REMARK  status: ('A' for Active; 'I' for Inactive)
REMARK    1  A    between atoms: C6_6  and  C7_7 
REMARK    2  A    between atoms: C6_6  and  C9_9 
REMARK    3  A    between atoms: C7_7  and  C11_11 
REMARK    4  A    between atoms: C8_8  and  C10_10 
REMARK    5  A    between atoms: C8_8  and  C11_11 
ROOT
HETATM    1  C4  UNL     1     -35.012  13.569  -4.503  1.00 20.00     0.015 C 
HETATM    2  C5  UNL     1     -34.567  14.684  -6.675  1.00 20.00     0.015 C 
HETATM    3  C11 UNL     1     -35.045  14.934  -5.230  1.00 20.00    -0.046 C 
ENDROOT
BRANCH   3   4
HETATM    4  C7  UNL     1     -34.036  15.909  -4.557  1.00 20.00     0.009 C 
BRANCH   4   5
HETATM    5  C6  UNL     1     -33.599  15.538  -3.132  1.00 20.00     0.004 C 
BRANCH   5   6
HETATM    6  C9  UNL     1     -33.669  16.723  -2.146  1.00 20.00    -0.023 C 
HETATM    7  C1  UNL     1     -34.694  16.502  -1.034  1.00 20.00     0.009 C 
HETATM    8  C2  UNL     1     -34.002  18.010  -2.907  1.00 20.00     0.009 C 
ENDBRANCH   5   6
ENDBRANCH   4   5
ENDBRANCH   3   4
BRANCH   3   9
HETATM    9  C8  UNL     1     -36.519  15.444  -5.194  1.00 20.00     0.028 C 
BRANCH   9  10
HETATM   10  C10 UNL     1     -37.272  15.416  -3.850  1.00 20.00     0.079 C 
HETATM   11  C3  UNL     1     -37.522  16.835  -3.345  1.00 20.00     0.026 C 
HETATM   12 CL12 UNL     1     -38.855  14.597  -3.992  1.00 20.00    -0.125 Cl
ENDBRANCH   9  10
ENDBRANCH   3   9
TORSDOF 5
ENDMDL
MODEL 8
REMARK VINA RESULT:      -4.0     10.786     12.128
REMARK  5 active torsions:
REMARK  status: ('A' for Active; 'I' for Inactive)
REMARK    1  A    between atoms: C6_6  and  C7_7 
REMARK    2  A    between atoms: C6_6  and  C9_9 
REMARK    3  A    between atoms: C7_7  and  C11_11 
REMARK    4  A    between atoms: C8_8  and  C10_10 
REMARK    5  A    between atoms: C8_8  and  C11_11 
ROOT
HETATM    1  C4  UNL     1     -31.788   5.584   3.036  1.00 20.00     0.015 C 
HETATM    2  C5  UNL     1     -31.398   7.642   4.366  1.00 20.00     0.015 C 
HETATM    3  C11 UNL     1     -32.230   7.056   3.207  1.00 20.00    -0.046 C 
ENDROOT
BRANCH   3   4
HETATM    4  C7  UNL     1     -33.729   7.107   3.624  1.00 20.00     0.009 C 
BRANCH   4   5
HETATM    5  C6  UNL     1     -34.419   5.746   3.800  1.00 20.00     0.004 C 
BRANCH   5   6
HETATM    6  C9  UNL     1     -34.920   5.500   5.238  1.00 20.00    -0.023 C 
HETATM    7  C1  UNL     1     -34.132   6.297   6.278  1.00 20.00     0.009 C 
HETATM    8  C2  UNL     1     -34.841   4.006   5.564  1.00 20.00     0.009 C 
ENDBRANCH   5   6
ENDBRANCH   4   5
ENDBRANCH   3   4
BRANCH   3   9
HETATM    9  C8  UNL     1     -31.935   7.789   1.862  1.00 20.00     0.028 C 
BRANCH   9  10
HETATM   10  C10 UNL     1     -32.919   8.875   1.388  1.00 20.00     0.079 C 
HETATM   11  C3  UNL     1     -32.549  10.232   1.982  1.00 20.00     0.026 C 
HETATM   12 CL12 UNL     1     -32.922   9.038  -0.393  1.00 20.00    -0.125 Cl
ENDBRANCH   9  10
ENDBRANCH   3   9
TORSDOF 5
ENDMDL
MODEL 9
REMARK VINA RESULT:      -4.0      2.047      5.147
REMARK  5 active torsions:
REMARK  status: ('A' for Active; 'I' for Inactive)
REMARK    1  A    between atoms: C6_6  and  C7_7 
REMARK    2  A    between atoms: C6_6  and  C9_9 
REMARK    3  A    between atoms: C7_7  and  C11_11 
REMARK    4  A    between atoms: C8_8  and  C10_10 
REMARK    5  A    between atoms: C8_8  and  C11_11 
ROOT
HETATM    1  C4  UNL     1     -33.367  16.860  -4.646  1.00 20.00     0.015 C 
HETATM    2  C5  UNL     1     -32.503  14.761  -3.642  1.00 20.00     0.015 C 
HETATM    3  C11 UNL     1     -33.651  15.788  -3.566  1.00 20.00    -0.046 C 
ENDROOT
BRANCH   3   4
HETATM    4  C7  UNL     1     -34.976  15.045  -3.903  1.00 20.00     0.009 C 
BRANCH   4   5
HETATM    5  C6  UNL     1     -34.880  13.974  -5.000  1.00 20.00     0.004 C 
BRANCH   5   6
HETATM    6  C9  UNL     1     -35.576  14.384  -6.314  1.00 20.00    -0.023 C 
HETATM    7  C1  UNL     1     -34.586  14.850  -7.382  1.00 20.00     0.009 C 
HETATM    8  C2  UNL     1     -36.595  15.493  -6.036  1.00 20.00     0.009 C 
ENDBRANCH   5   6
ENDBRANCH   4   5
ENDBRANCH   3   4
BRANCH   3   9
HETATM    9  C8  UNL     1     -33.681  16.515  -2.186  1.00 20.00     0.028 C 
BRANCH   9  10
HETATM   10  C10 UNL     1     -35.045  16.758  -1.515  1.00 20.00     0.079 C 
HETATM   11  C3  UNL     1     -34.863  17.112  -0.040  1.00 20.00     0.026 C 
HETATM   12 CL12 UNL     1     -35.940  18.097  -2.294  1.00 20.00    -0.125 Cl
ENDBRANCH   9  10
ENDBRANCH   3   9
TORSDOF 5
ENDMDL
