MODEL 1
REMARK VINA RESULT:      -4.8      0.000      0.000
REMARK  1 active torsions:
REMARK  status: ('A' for Active; 'I' for Inactive)
REMARK    1  A    between atoms: C5_5  and  C7_7 
ROOT
HETATM    1  C1  UNL     1     -33.503  17.259  -4.680  1.00 20.00     0.002 C 
HETATM    2  C2  UNL     1     -34.220  16.046  -5.268  1.00 20.00     0.013 C 
HETATM    3  C3  UNL     1     -33.985  17.567  -3.265  1.00 20.00     0.020 C 
HETATM    4  C4  UNL     1     -34.578  15.131  -2.938  1.00 20.00     0.033 C 
HETATM    5  C5  UNL     1     -34.091  14.815  -4.360  1.00 20.00     0.095 C 
HETATM    6  C6  UNL     1     -33.851  16.344  -2.358  1.00 20.00     0.083 C 
HETATM    7 CL11 UNL     1     -34.494  16.720  -0.735  1.00 20.00    -0.125 Cl
ENDROOT
BRANCH   5   8
HETATM    8  C7  UNL     1     -34.859  13.631  -4.943  1.00 20.00     0.391 C 
HETATM    9  F8  UNL     1     -34.058  12.559  -5.027  1.00 20.00    -0.171 F 
HETATM   10  F9  UNL     1     -35.907  13.332  -4.160  1.00 20.00    -0.171 F 
HETATM   11  F10 UNL     1     -35.308  13.936  -6.171  1.00 20.00    -0.171 F 
ENDBRANCH   5   8
TORSDOF 1
ENDMDL
MODEL 2
REMARK VINA RESULT:      -4.8      0.028      1.144
REMARK  1 active torsions:
REMARK  status: ('A' for Active; 'I' for Inactive)
REMARK    1  A    between atoms: C5_5  and  C7_7 
ROOT
HETATM    1  C1  UNL     1     -33.505  17.275  -4.705  1.00 20.00     0.002 C 
HETATM    2  C2  UNL     1     -34.218  16.055  -5.285  1.00 20.00     0.013 C 
HETATM    3  C3  UNL     1     -33.982  17.584  -3.288  1.00 20.00     0.020 C 
HETATM    4  C4  UNL     1     -34.557  15.145  -2.950  1.00 20.00     0.033 C 
HETATM    5  C5  UNL     1     -34.076  14.828  -4.374  1.00 20.00     0.095 C 
HETATM    6  C6  UNL     1     -33.834  16.365  -2.378  1.00 20.00     0.083 C 
HETATM    7 CL11 UNL     1     -34.470  16.742  -0.752  1.00 20.00    -0.125 Cl
ENDROOT
BRANCH   5   8
HETATM    8  C7  UNL     1     -34.840  13.638  -4.949  1.00 20.00     0.391 C 
HETATM    9  F8  UNL     1     -35.891  13.345  -4.169  1.00 20.00    -0.171 F 
HETATM   10  F9  UNL     1     -35.281  13.927  -6.183  1.00 20.00    -0.171 F 
HETATM   11  F10 UNL     1     -34.036  12.566  -5.016  1.00 20.00    -0.171 F 
ENDBRANCH   5   8
TORSDOF 1
ENDMDL
MODEL 3
REMARK VINA RESULT:      -4.8      0.025      1.139
REMARK  1 active torsions:
REMARK  status: ('A' for Active; 'I' for Inactive)
REMARK    1  A    between atoms: C5_5  and  C7_7 
ROOT
HETATM    1  C1  UNL     1     -33.510  17.278  -4.702  1.00 20.00     0.002 C 
HETATM    2  C2  UNL     1     -34.222  16.058  -5.282  1.00 20.00     0.013 C 
HETATM    3  C3  UNL     1     -33.986  17.588  -3.284  1.00 20.00     0.020 C 
HETATM    4  C4  UNL     1     -34.561  15.149  -2.946  1.00 20.00     0.033 C 
HETATM    5  C5  UNL     1     -34.080  14.832  -4.370  1.00 20.00     0.095 C 
HETATM    6  C6  UNL     1     -33.838  16.369  -2.375  1.00 20.00     0.083 C 
HETATM    7 CL11 UNL     1     -34.474  16.746  -0.749  1.00 20.00    -0.125 Cl
ENDROOT
BRANCH   5   8
HETATM    8  C7  UNL     1     -34.844  13.641  -4.945  1.00 20.00     0.391 C 
HETATM    9  F8  UNL     1     -35.293  13.932  -6.175  1.00 20.00    -0.171 F 
HETATM   10  F9  UNL     1     -34.039  12.570  -5.018  1.00 20.00    -0.171 F 
HETATM   11  F10 UNL     1     -35.890  13.344  -4.158  1.00 20.00    -0.171 F 
ENDBRANCH   5   8
TORSDOF 1
ENDMDL
MODEL 4
REMARK VINA RESULT:      -4.8     12.215     13.261
REMARK  1 active torsions:
REMARK  status: ('A' for Active; 'I' for Inactive)
REMARK    1  A    between atoms: C5_5  and  C7_7 
ROOT
HETATM    1  C1  UNL     1     -34.481   5.086   2.535  1.00 20.00     0.002 C 
HETATM    2  C2  UNL     1     -35.024   5.080   3.962  1.00 20.00     0.013 C 
HETATM    3  C3  UNL     1     -33.664   6.344   2.248  1.00 20.00     0.020 C 
HETATM    4  C4  UNL     1     -33.086   6.527   4.704  1.00 20.00     0.033 C 
HETATM    5  C5  UNL     1     -33.904   5.259   4.996  1.00 20.00     0.095 C 
HETATM    6  C6  UNL     1     -32.544   6.520   3.274  1.00 20.00     0.083 C 
HETATM    7 CL11 UNL     1     -31.660   8.038   2.952  1.00 20.00    -0.125 Cl
ENDROOT
BRANCH   5   8
HETATM    8  C7  UNL     1     -34.478   5.303   6.411  1.00 20.00     0.391 C 
HETATM    9  F8  UNL     1     -34.458   6.560   6.877  1.00 20.00    -0.171 F 
HETATM   10  F9  UNL     1     -35.744   4.859   6.407  1.00 20.00    -0.171 F 
HETATM   11  F10 UNL     1     -33.748   4.525   7.226  1.00 20.00    -0.171 F 
ENDBRANCH   5   8
TORSDOF 1
ENDMDL
MODEL 5
REMARK VINA RESULT:      -4.6      1.111      1.585
REMARK  1 active torsions:
REMARK  status: ('A' for Active; 'I' for Inactive)
REMARK    1  A    between atoms: C5_5  and  C7_7 
ROOT
HETATM    1  C1  UNL     1     -33.674  17.936  -4.077  1.00 20.00     0.002 C 
HETATM    2  C2  UNL     1     -33.941  16.527  -4.604  1.00 20.00     0.013 C 
HETATM    3  C3  UNL     1     -34.356  18.172  -2.731  1.00 20.00     0.020 C 
HETATM    4  C4  UNL     1     -34.226  15.696  -2.232  1.00 20.00     0.033 C 
HETATM    5  C5  UNL     1     -33.537  15.454  -3.584  1.00 20.00     0.095 C 
HETATM    6  C6  UNL     1     -33.949  17.108  -1.713  1.00 20.00     0.083 C 
HETATM    7 CL11 UNL     1     -34.823  17.373  -0.178  1.00 20.00    -0.125 Cl
ENDROOT
BRANCH   5   8
HETATM    8  C7  UNL     1     -33.861  14.058  -4.112  1.00 20.00     0.391 C 
HETATM    9  F8  UNL     1     -34.059  14.102  -5.438  1.00 20.00    -0.171 F 
HETATM   10  F9  UNL     1     -32.846  13.221  -3.851  1.00 20.00    -0.171 F 
HETATM   11  F10 UNL     1     -34.972  13.591  -3.521  1.00 20.00    -0.171 F 
ENDBRANCH   5   8
TORSDOF 1
ENDMDL
MODEL 6
REMARK VINA RESULT:      -4.6     11.930     13.111
REMARK  1 active torsions:
REMARK  status: ('A' for Active; 'I' for Inactive)
REMARK    1  A    between atoms: C5_5  and  C7_7 
ROOT
HETATM    1  C1  UNL     1     -40.808   5.752  -0.458  1.00 20.00     0.002 C 
HETATM    2  C2  UNL     1     -40.851   4.476  -1.295  1.00 20.00     0.013 C 
HETATM    3  C3  UNL     1     -41.172   6.982  -1.286  1.00 20.00     0.020 C 
HETATM    4  C4  UNL     1     -42.570   5.535  -2.818  1.00 20.00     0.033 C 
HETATM    5  C5  UNL     1     -42.210   4.295  -1.985  1.00 20.00     0.095 C 
HETATM    6  C6  UNL     1     -42.528   6.805  -1.968  1.00 20.00     0.083 C 
HETATM    7 CL11 UNL     1     -42.885   8.229  -2.986  1.00 20.00    -0.125 Cl
ENDROOT
BRANCH   5   8
HETATM    8  C7  UNL     1     -42.210   3.041  -2.857  1.00 20.00     0.391 C 
HETATM    9  F8  UNL     1     -40.952   2.702  -3.175  1.00 20.00    -0.171 F 
HETATM   10  F9  UNL     1     -42.782   2.022  -2.197  1.00 20.00    -0.171 F 
HETATM   11  F10 UNL     1     -42.899   3.268  -3.986  1.00 20.00    -0.171 F 
ENDBRANCH   5   8
TORSDOF 1
ENDMDL
MODEL 7
REMARK VINA RESULT:      -4.6      3.351      4.325
REMARK  1 active torsions:
REMARK  status: ('A' for Active; 'I' for Inactive)
REMARK    1  A    between atoms: C5_5  and  C7_7 
ROOT
HETATM    1  C1  UNL     1     -34.068  13.805  -4.329  1.00 20.00     0.002 C 
HETATM    2  C2  UNL     1     -34.412  14.578  -3.058  1.00 20.00     0.013 C 
HETATM    3  C3  UNL     1     -34.453  14.585  -5.584  1.00 20.00     0.020 C 
HETATM    4  C4  UNL     1     -34.172  16.756  -4.320  1.00 20.00     0.033 C 
HETATM    5  C5  UNL     1     -33.780  15.977  -3.056  1.00 20.00     0.095 C 
HETATM    6  C6  UNL     1     -33.818  15.975  -5.586  1.00 20.00     0.083 C 
HETATM    7 CL11 UNL     1     -34.351  16.882  -7.029  1.00 20.00    -0.125 Cl
ENDROOT
BRANCH   5   8
HETATM    8  C7  UNL     1     -34.182  16.748  -1.800  1.00 20.00     0.391 C 
HETATM    9  F8  UNL     1     -33.091  17.243  -1.196  1.00 20.00    -0.171 F 
HETATM   10  F9  UNL     1     -34.997  17.763  -2.125  1.00 20.00    -0.171 F 
HETATM   11  F10 UNL     1     -34.821  15.934  -0.946  1.00 20.00    -0.171 F 
ENDBRANCH   5   8
TORSDOF 1
ENDMDL
MODEL 8
REMARK VINA RESULT:      -4.5      2.118      2.794
REMARK  1 active torsions:
REMARK  status: ('A' for Active; 'I' for Inactive)
REMARK    1  A    between atoms: C5_5  and  C7_7 
ROOT
HETATM    1  C1  UNL     1     -34.596  15.568  -7.206  1.00 20.00     0.002 C 
HETATM    2  C2  UNL     1     -34.790  14.608  -6.034  1.00 20.00     0.013 C 
HETATM    3  C3  UNL     1     -34.584  17.024  -6.746  1.00 20.00     0.020 C 
HETATM    4  C4  UNL     1     -33.733  16.299  -4.477  1.00 20.00     0.033 C 
HETATM    5  C5  UNL     1     -33.740  14.833  -4.937  1.00 20.00     0.095 C 
HETATM    6  C6  UNL     1     -33.534  17.250  -5.659  1.00 20.00     0.083 C 
HETATM    7 CL11 UNL     1     -33.602  18.943  -5.094  1.00 20.00    -0.125 Cl
ENDROOT
BRANCH   5   8
HETATM    8  C7  UNL     1     -33.987  13.899  -3.754  1.00 20.00     0.391 C 
HETATM    9  F8  UNL     1     -32.868  13.218  -3.464  1.00 20.00    -0.171 F 
HETATM   10  F9  UNL     1     -34.356  14.608  -2.677  1.00 20.00    -0.171 F 
HETATM   11  F10 UNL     1     -34.961  13.026  -4.054  1.00 20.00    -0.171 F 
ENDBRANCH   5   8
TORSDOF 1
ENDMDL
MODEL 9
REMARK VINA RESULT:      -4.5     11.448     12.499
REMARK  1 active torsions:
REMARK  status: ('A' for Active; 'I' for Inactive)
REMARK    1  A    between atoms: C5_5  and  C7_7 
ROOT
HETATM    1  C1  UNL     1     -35.631   5.411   3.317  1.00 20.00     0.002 C 
HETATM    2  C2  UNL     1     -34.331   5.896   2.678  1.00 20.00     0.013 C 
HETATM    3  C3  UNL     1     -35.374   4.685   4.635  1.00 20.00     0.020 C 
HETATM    4  C4  UNL     1     -33.261   6.034   4.965  1.00 20.00     0.033 C 
HETATM    5  C5  UNL     1     -33.517   6.770   3.641  1.00 20.00     0.095 C 
HETATM    6  C6  UNL     1     -34.569   5.558   5.597  1.00 20.00     0.083 C 
HETATM    7 CL11 UNL     1     -34.224   4.649   7.095  1.00 20.00    -0.125 Cl
ENDROOT
BRANCH   5   8
HETATM    8  C7  UNL     1     -32.199   7.198   2.998  1.00 20.00     0.391 C 
HETATM    9  F8  UNL     1     -32.423   8.149   2.079  1.00 20.00    -0.171 F 
HETATM   10  F9  UNL     1     -31.368   7.683   3.933  1.00 20.00    -0.171 F 
HETATM   11  F10 UNL     1     -31.616   6.146   2.403  1.00 20.00    -0.171 F 
ENDBRANCH   5   8
TORSDOF 1
ENDMDL
