MODEL 1
REMARK VINA RESULT:      -4.6      0.000      0.000
REMARK  4 active torsions:
REMARK  status: ('A' for Active; 'I' for Inactive)
REMARK    1  A    between atoms: C5_5  and  C8_8 
REMARK    2  A    between atoms: C6_6  and  C9_9 
REMARK    3  A    between atoms: C9_9  and  C10_10 
REMARK    4  A    between atoms: C10_10  and  O11_11 
ROOT
HETATM    1  C1  UNL     1     -36.029  16.728  -2.284  1.00 20.00     0.005 C 
HETATM    2  C2  UNL     1     -33.521  16.432  -2.301  1.00 20.00     0.005 C 
HETATM    3  C3  UNL     1     -36.159  15.691  -3.397  1.00 20.00     0.005 C 
HETATM    4  C4  UNL     1     -33.652  15.394  -3.415  1.00 20.00     0.005 C 
HETATM    5  C5  UNL     1     -34.779  16.486  -1.427  1.00 20.00    -0.015 C 
HETATM    6  C6  UNL     1     -34.900  15.637  -4.272  1.00 20.00    -0.013 C 
ENDROOT
BRANCH   6   7
HETATM    7  C9  UNL     1     -35.036  14.559  -5.346  1.00 20.00     0.030 C 
BRANCH   7   8
HETATM    8  C10 UNL     1     -34.416  13.248  -4.899  1.00 20.00     0.164 C 
BRANCH   8   9
HETATM    9  O11 UNL     1     -35.385  12.517  -4.161  1.00 20.00    -0.401 OA
HETATM   10  H31 UNL     1     -34.930  12.152  -3.386  1.00 20.00     0.209 HD
ENDBRANCH   8   9
ENDBRANCH   7   8
ENDBRANCH   6   7
BRANCH   5  11
HETATM   11  C8  UNL     1     -34.643  17.565  -0.353  1.00 20.00     0.000 C 
HETATM   12  C7  UNL     1     -33.281  18.177  -0.357  1.00 20.00     0.005 C 
ENDBRANCH   5  11
TORSDOF 4
ENDMDL
MODEL 2
REMARK VINA RESULT:      -4.5      1.126      1.451
REMARK  4 active torsions:
REMARK  status: ('A' for Active; 'I' for Inactive)
REMARK    1  A    between atoms: C5_5  and  C8_8 
REMARK    2  A    between atoms: C6_6  and  C9_9 
REMARK    3  A    between atoms: C9_9  and  C10_10 
REMARK    4  A    between atoms: C10_10  and  O11_11 
ROOT
HETATM    1  C1  UNL     1     -34.681  16.580  -1.066  1.00 20.00     0.005 C 
HETATM    2  C2  UNL     1     -33.722  18.191  -2.758  1.00 20.00     0.005 C 
HETATM    3  C3  UNL     1     -34.761  15.498  -2.141  1.00 20.00     0.005 C 
HETATM    4  C4  UNL     1     -33.803  17.108  -3.833  1.00 20.00     0.005 C 
HETATM    5  C5  UNL     1     -33.561  17.587  -1.358  1.00 20.00    -0.015 C 
HETATM    6  C6  UNL     1     -34.923  16.102  -3.542  1.00 20.00    -0.013 C 
ENDROOT
BRANCH   6   7
HETATM    7  C9  UNL     1     -34.952  15.003  -4.602  1.00 20.00     0.030 C 
BRANCH   7   8
HETATM    8  C10 UNL     1     -34.246  13.748  -4.122  1.00 20.00     0.164 C 
BRANCH   8   9
HETATM    9  O11 UNL     1     -35.166  12.666  -4.168  1.00 20.00    -0.401 OA
HETATM   10  H31 UNL     1     -35.189  12.358  -5.087  1.00 20.00     0.209 HD
ENDBRANCH   8   9
ENDBRANCH   7   8
ENDBRANCH   6   7
BRANCH   5  11
HETATM   11  C8  UNL     1     -33.534  18.687  -0.297  1.00 20.00     0.000 C 
HETATM   12  C7  UNL     1     -32.167  18.863   0.279  1.00 20.00     0.005 C 
ENDBRANCH   5  11
TORSDOF 4
ENDMDL
MODEL 3
REMARK VINA RESULT:      -4.4     11.080     11.907
REMARK  4 active torsions:
REMARK  status: ('A' for Active; 'I' for Inactive)
REMARK    1  A    between atoms: C5_5  and  C8_8 
REMARK    2  A    between atoms: C6_6  and  C9_9 
REMARK    3  A    between atoms: C9_9  and  C10_10 
REMARK    4  A    between atoms: C10_10  and  O11_11 
ROOT
HETATM    1  C1  UNL     1     -33.712   6.194   5.244  1.00 20.00     0.005 C 
HETATM    2  C2  UNL     1     -33.927   5.178   2.942  1.00 20.00     0.005 C 
HETATM    3  C3  UNL     1     -32.918   7.359   4.656  1.00 20.00     0.005 C 
HETATM    4  C4  UNL     1     -33.132   6.343   2.354  1.00 20.00     0.005 C 
HETATM    5  C5  UNL     1     -34.676   5.588   4.216  1.00 20.00    -0.015 C 
HETATM    6  C6  UNL     1     -32.168   6.948   3.382  1.00 20.00    -0.013 C 
ENDROOT
BRANCH   6   7
HETATM    7  C9  UNL     1     -31.423   8.141   2.787  1.00 20.00     0.030 C 
BRANCH   7   8
HETATM    8  C10 UNL     1     -32.064   8.607   1.492  1.00 20.00     0.164 C 
BRANCH   8   9
HETATM    9  O11 UNL     1     -32.571   9.919   1.685  1.00 20.00    -0.401 OA
HETATM   10  H31 UNL     1     -32.892   9.964   2.600  1.00 20.00     0.209 HD
ENDBRANCH   8   9
ENDBRANCH   7   8
ENDBRANCH   6   7
BRANCH   5  11
HETATM   11  C8  UNL     1     -35.421   4.395   4.811  1.00 20.00     0.000 C 
HETATM   12  C7  UNL     1     -35.113   4.222   6.263  1.00 20.00     0.005 C 
ENDBRANCH   5  11
TORSDOF 4
ENDMDL
MODEL 4
REMARK VINA RESULT:      -4.4      2.122      2.704
REMARK  4 active torsions:
REMARK  status: ('A' for Active; 'I' for Inactive)
REMARK    1  A    between atoms: C5_5  and  C8_8 
REMARK    2  A    between atoms: C6_6  and  C9_9 
REMARK    3  A    between atoms: C9_9  and  C10_10 
REMARK    4  A    between atoms: C10_10  and  O11_11 
ROOT
HETATM    1  C1  UNL     1     -34.685  16.608  -0.715  1.00 20.00     0.005 C 
HETATM    2  C2  UNL     1     -33.950  18.871  -1.561  1.00 20.00     0.005 C 
HETATM    3  C3  UNL     1     -34.596  16.048  -2.133  1.00 20.00     0.005 C 
HETATM    4  C4  UNL     1     -33.861  18.310  -2.980  1.00 20.00     0.005 C 
HETATM    5  C5  UNL     1     -33.719  17.782  -0.507  1.00 20.00    -0.015 C 
HETATM    6  C6  UNL     1     -34.827  17.138  -3.188  1.00 20.00    -0.013 C 
ENDROOT
BRANCH   6   7
HETATM    7  C9  UNL     1     -34.685  16.563  -4.596  1.00 20.00     0.030 C 
BRANCH   7   8
HETATM    8  C10 UNL     1     -33.334  16.901  -5.200  1.00 20.00     0.164 C 
BRANCH   8   9
HETATM    9  O11 UNL     1     -32.445  15.821  -4.955  1.00 20.00    -0.401 OA
HETATM   10  H31 UNL     1     -32.807  15.325  -4.204  1.00 20.00     0.209 HD
ENDBRANCH   8   9
ENDBRANCH   7   8
ENDBRANCH   6   7
BRANCH   5  11
HETATM   11  C8  UNL     1     -33.863  18.356   0.902  1.00 20.00     0.000 C 
HETATM   12  C7  UNL     1     -35.078  17.827   1.591  1.00 20.00     0.005 C 
ENDBRANCH   5  11
TORSDOF 4
ENDMDL
MODEL 5
REMARK VINA RESULT:      -4.3     11.071     11.860
REMARK  4 active torsions:
REMARK  status: ('A' for Active; 'I' for Inactive)
REMARK    1  A    between atoms: C5_5  and  C8_8 
REMARK    2  A    between atoms: C6_6  and  C9_9 
REMARK    3  A    between atoms: C9_9  and  C10_10 
REMARK    4  A    between atoms: C10_10  and  O11_11 
ROOT
HETATM    1  C1  UNL     1     -34.335   5.191   2.991  1.00 20.00     0.005 C 
HETATM    2  C2  UNL     1     -33.759   6.393   5.136  1.00 20.00     0.005 C 
HETATM    3  C3  UNL     1     -33.178   5.895   2.286  1.00 20.00     0.005 C 
HETATM    4  C4  UNL     1     -32.600   7.096   4.430  1.00 20.00     0.005 C 
HETATM    5  C5  UNL     1     -34.073   5.036   4.495  1.00 20.00    -0.015 C 
HETATM    6  C6  UNL     1     -32.863   7.252   2.927  1.00 20.00    -0.013 C 
ENDROOT
BRANCH   6   7
HETATM    7  C9  UNL     1     -31.672   7.912   2.236  1.00 20.00     0.030 C 
BRANCH   7   8
HETATM    8  C10 UNL     1     -32.121   8.868   1.145  1.00 20.00     0.164 C 
BRANCH   8   9
HETATM    9  O11 UNL     1     -32.559  10.075   1.753  1.00 20.00    -0.401 OA
HETATM   10  H31 UNL     1     -33.522  10.010   1.843  1.00 20.00     0.209 HD
ENDBRANCH   8   9
ENDBRANCH   7   8
ENDBRANCH   6   7
BRANCH   5  11
HETATM   11  C8  UNL     1     -35.266   4.377   5.185  1.00 20.00     0.000 C 
HETATM   12  C7  UNL     1     -35.233   4.589   6.663  1.00 20.00     0.005 C 
ENDBRANCH   5  11
TORSDOF 4
ENDMDL
MODEL 6
REMARK VINA RESULT:      -4.3      1.235      1.708
REMARK  4 active torsions:
REMARK  status: ('A' for Active; 'I' for Inactive)
REMARK    1  A    between atoms: C5_5  and  C8_8 
REMARK    2  A    between atoms: C6_6  and  C9_9 
REMARK    3  A    between atoms: C9_9  and  C10_10 
REMARK    4  A    between atoms: C10_10  and  O11_11 
ROOT
HETATM    1  C1  UNL     1     -33.655  18.281  -2.958  1.00 20.00     0.005 C 
HETATM    2  C2  UNL     1     -34.416  16.665  -1.173  1.00 20.00     0.005 C 
HETATM    3  C3  UNL     1     -33.984  17.249  -4.034  1.00 20.00     0.005 C 
HETATM    4  C4  UNL     1     -34.745  15.632  -2.250  1.00 20.00     0.005 C 
HETATM    5  C5  UNL     1     -34.527  18.097  -1.709  1.00 20.00    -0.015 C 
HETATM    6  C6  UNL     1     -33.872  15.816  -3.498  1.00 20.00    -0.013 C 
ENDROOT
BRANCH   6   7
HETATM    7  C9  UNL     1     -34.254  14.804  -4.577  1.00 20.00     0.030 C 
BRANCH   7   8
HETATM    8  C10 UNL     1     -35.486  14.009  -4.184  1.00 20.00     0.164 C 
BRANCH   8   9
HETATM    9  O11 UNL     1     -35.141  12.632  -4.141  1.00 20.00    -0.401 OA
HETATM   10  H31 UNL     1     -35.965  12.142  -3.992  1.00 20.00     0.209 HD
ENDBRANCH   8   9
ENDBRANCH   7   8
ENDBRANCH   6   7
BRANCH   5  11
HETATM   11  C8  UNL     1     -34.145  19.108  -0.630  1.00 20.00     0.000 C 
HETATM   12  C7  UNL     1     -32.996  18.626   0.195  1.00 20.00     0.005 C 
ENDBRANCH   5  11
TORSDOF 4
ENDMDL
MODEL 7
REMARK VINA RESULT:      -4.3      1.718      2.051
REMARK  4 active torsions:
REMARK  status: ('A' for Active; 'I' for Inactive)
REMARK    1  A    between atoms: C5_5  and  C8_8 
REMARK    2  A    between atoms: C6_6  and  C9_9 
REMARK    3  A    between atoms: C9_9  and  C10_10 
REMARK    4  A    between atoms: C10_10  and  O11_11 
ROOT
HETATM    1  C1  UNL     1     -34.831  15.435  -2.454  1.00 20.00     0.005 C 
HETATM    2  C2  UNL     1     -33.623  17.202  -3.795  1.00 20.00     0.005 C 
HETATM    3  C3  UNL     1     -34.790  14.495  -3.657  1.00 20.00     0.005 C 
HETATM    4  C4  UNL     1     -33.582  16.261  -4.998  1.00 20.00     0.005 C 
HETATM    5  C5  UNL     1     -33.662  16.429  -2.471  1.00 20.00    -0.015 C 
HETATM    6  C6  UNL     1     -34.751  15.269  -4.981  1.00 20.00    -0.013 C 
ENDROOT
BRANCH   6   7
HETATM    7  C9  UNL     1     -34.661  14.308  -6.165  1.00 20.00     0.030 C 
BRANCH   7   8
HETATM    8  C10 UNL     1     -35.747  14.584  -7.189  1.00 20.00     0.164 C 
BRANCH   8   9
HETATM    9  O11 UNL     1     -36.789  15.316  -6.559  1.00 20.00    -0.401 OA
HETATM   10  H31 UNL     1     -37.246  15.811  -7.257  1.00 20.00     0.209 HD
ENDBRANCH   8   9
ENDBRANCH   7   8
ENDBRANCH   6   7
BRANCH   5  11
HETATM   11  C8  UNL     1     -33.753  17.390  -1.287  1.00 20.00     0.000 C 
HETATM   12  C7  UNL     1     -34.780  16.948  -0.297  1.00 20.00     0.005 C 
ENDBRANCH   5  11
TORSDOF 4
ENDMDL
MODEL 8
REMARK VINA RESULT:      -4.2      2.534      4.874
REMARK  4 active torsions:
REMARK  status: ('A' for Active; 'I' for Inactive)
REMARK    1  A    between atoms: C5_5  and  C8_8 
REMARK    2  A    between atoms: C6_6  and  C9_9 
REMARK    3  A    between atoms: C9_9  and  C10_10 
REMARK    4  A    between atoms: C10_10  and  O11_11 
ROOT
HETATM    1  C1  UNL     1     -34.921  14.490  -3.575  1.00 20.00     0.005 C 
HETATM    2  C2  UNL     1     -33.666  16.180  -4.971  1.00 20.00     0.005 C 
HETATM    3  C3  UNL     1     -34.903  15.455  -2.391  1.00 20.00     0.005 C 
HETATM    4  C4  UNL     1     -33.648  17.144  -3.786  1.00 20.00     0.005 C 
HETATM    5  C5  UNL     1     -34.873  15.236  -4.915  1.00 20.00    -0.015 C 
HETATM    6  C6  UNL     1     -33.694  16.398  -2.447  1.00 20.00    -0.013 C 
ENDROOT
BRANCH   6   7
HETATM    7  C9  UNL     1     -33.726  17.384  -1.280  1.00 20.00     0.030 C 
BRANCH   7   8
HETATM    8  C10 UNL     1     -34.784  17.004  -0.260  1.00 20.00     0.164 C 
BRANCH   8   9
HETATM    9  O11 UNL     1     -34.562  17.757   0.924  1.00 20.00    -0.401 OA
HETATM   10  H31 UNL     1     -33.669  17.539   1.233  1.00 20.00     0.209 HD
ENDBRANCH   8   9
ENDBRANCH   7   8
ENDBRANCH   6   7
BRANCH   5  11
HETATM   11  C8  UNL     1     -34.840  14.250  -6.081  1.00 20.00     0.000 C 
HETATM   12  C7  UNL     1     -34.556  14.937  -7.377  1.00 20.00     0.005 C 
ENDBRANCH   5  11
TORSDOF 4
ENDMDL
MODEL 9
REMARK VINA RESULT:      -4.2      2.919      5.185
REMARK  4 active torsions:
REMARK  status: ('A' for Active; 'I' for Inactive)
REMARK    1  A    between atoms: C5_5  and  C8_8 
REMARK    2  A    between atoms: C6_6  and  C9_9 
REMARK    3  A    between atoms: C9_9  and  C10_10 
REMARK    4  A    between atoms: C10_10  and  O11_11 
ROOT
HETATM    1  C1  UNL     1     -34.481  15.592  -2.233  1.00 20.00     0.005 C 
HETATM    2  C2  UNL     1     -33.680  17.443  -3.752  1.00 20.00     0.005 C 
HETATM    3  C3  UNL     1     -34.592  16.586  -1.080  1.00 20.00     0.005 C 
HETATM    4  C4  UNL     1     -33.791  18.438  -2.598  1.00 20.00     0.005 C 
HETATM    5  C5  UNL     1     -34.664  16.278  -3.593  1.00 20.00    -0.015 C 
HETATM    6  C6  UNL     1     -33.607  17.752  -1.239  1.00 20.00    -0.013 C 
ENDROOT
BRANCH   6   7
HETATM    7  C9  UNL     1     -33.771  18.757  -0.100  1.00 20.00     0.030 C 
BRANCH   7   8
HETATM    8  C10 UNL     1     -32.536  18.806   0.780  1.00 20.00     0.164 C 
BRANCH   8   9
HETATM    9  O11 UNL     1     -31.441  19.262  -0.001  1.00 20.00    -0.401 OA
HETATM   10  H31 UNL     1     -31.293  18.597  -0.691  1.00 20.00     0.209 HD
ENDBRANCH   8   9
ENDBRANCH   7   8
ENDBRANCH   6   7
BRANCH   5  11
HETATM   11  C8  UNL     1     -34.498  15.272  -4.731  1.00 20.00     0.000 C 
HETATM   12  C7  UNL     1     -34.172  13.908  -4.219  1.00 20.00     0.005 C 
ENDBRANCH   5  11
TORSDOF 4
ENDMDL
