MODEL 1
REMARK VINA RESULT:      -4.4      0.000      0.000
REMARK  4 active torsions:
REMARK  status: ('A' for Active; 'I' for Inactive)
REMARK    1  A    between atoms: C1_1  and  C8_8 
REMARK    2  A    between atoms: C1_1  and  C9_9 
REMARK    3  A    between atoms: C4_4  and  C8_8 
REMARK    4  A    between atoms: C9_9  and  C10_10 
ROOT
HETATM    1  C1  UNL     1     -36.799  15.160  -4.090  1.00 20.00     0.128 C 
HETATM    2  O11 UNL     1     -37.447  14.188  -3.703  1.00 20.00    -0.298 OA
ENDROOT
BRANCH   1   3
HETATM    3  C8  UNL     1     -36.244  16.197  -3.131  1.00 20.00     0.082 C 
BRANCH   3   4
HETATM    4  C4  UNL     1     -35.078  15.712  -2.331  1.00 20.00    -0.008 A 
HETATM    5  C2  UNL     1     -33.772  16.455  -2.367  1.00 20.00     0.005 A 
HETATM    6  C3  UNL     1     -34.615  16.481  -1.124  1.00 20.00     0.005 A 
ENDBRANCH   3   4
ENDBRANCH   1   3
BRANCH   1   7
HETATM    7  C9  UNL     1     -36.534  15.388  -5.570  1.00 20.00     0.086 C 
BRANCH   7   8
HETATM    8  C10 UNL     1     -35.197  14.815  -6.092  1.00 20.00    -0.045 C 
HETATM    9  C5  UNL     1     -34.769  13.574  -5.293  1.00 20.00     0.015 C 
HETATM   10  C6  UNL     1     -34.079  15.868  -6.034  1.00 20.00     0.015 C 
HETATM   11  C7  UNL     1     -35.400  14.398  -7.562  1.00 20.00     0.015 C 
ENDBRANCH   7   8
ENDBRANCH   1   7
TORSDOF 4
ENDMDL
MODEL 2
REMARK VINA RESULT:      -4.4      1.355      1.983
REMARK  4 active torsions:
REMARK  status: ('A' for Active; 'I' for Inactive)
REMARK    1  A    between atoms: C1_1  and  C8_8 
REMARK    2  A    between atoms: C1_1  and  C9_9 
REMARK    3  A    between atoms: C4_4  and  C8_8 
REMARK    4  A    between atoms: C9_9  and  C10_10 
ROOT
HETATM    1  C1  UNL     1     -34.988  13.796  -4.449  1.00 20.00     0.128 C 
HETATM    2  O11 UNL     1     -34.742  12.657  -4.841  1.00 20.00    -0.298 OA
ENDROOT
BRANCH   1   3
HETATM    3  C8  UNL     1     -34.326  14.392  -3.220  1.00 20.00     0.082 C 
BRANCH   3   4
HETATM    4  C4  UNL     1     -34.921  15.695  -2.789  1.00 20.00    -0.008 A 
HETATM    5  C2  UNL     1     -34.559  16.290  -1.457  1.00 20.00     0.005 A 
HETATM    6  C3  UNL     1     -34.068  16.932  -2.723  1.00 20.00     0.005 A 
ENDBRANCH   3   4
ENDBRANCH   1   3
BRANCH   1   7
HETATM    7  C9  UNL     1     -35.999  14.674  -5.172  1.00 20.00     0.086 C 
BRANCH   7   8
HETATM    8  C10 UNL     1     -35.480  15.342  -6.465  1.00 20.00    -0.045 C 
HETATM    9  C5  UNL     1     -35.660  14.421  -7.682  1.00 20.00     0.015 C 
HETATM   10  C6  UNL     1     -33.999  15.731  -6.337  1.00 20.00     0.015 C 
HETATM   11  C7  UNL     1     -36.304  16.623  -6.702  1.00 20.00     0.015 C 
ENDBRANCH   7   8
ENDBRANCH   1   7
TORSDOF 4
ENDMDL
MODEL 3
REMARK VINA RESULT:      -4.3      1.512      4.253
REMARK  4 active torsions:
REMARK  status: ('A' for Active; 'I' for Inactive)
REMARK    1  A    between atoms: C1_1  and  C8_8 
REMARK    2  A    between atoms: C1_1  and  C9_9 
REMARK    3  A    between atoms: C4_4  and  C8_8 
REMARK    4  A    between atoms: C9_9  and  C10_10 
ROOT
HETATM    1  C1  UNL     1     -34.696  13.730  -3.974  1.00 20.00     0.128 C 
HETATM    2  O11 UNL     1     -33.881  13.114  -3.288  1.00 20.00    -0.298 OA
ENDROOT
BRANCH   1   3
HETATM    3  C8  UNL     1     -34.925  13.413  -5.441  1.00 20.00     0.082 C 
BRANCH   3   4
HETATM    4  C4  UNL     1     -35.355  14.596  -6.250  1.00 20.00    -0.008 A 
HETATM    5  C2  UNL     1     -34.366  15.317  -7.122  1.00 20.00     0.005 A 
HETATM    6  C3  UNL     1     -35.456  14.492  -7.747  1.00 20.00     0.005 A 
ENDBRANCH   3   4
ENDBRANCH   1   3
BRANCH   1   7
HETATM    7  C9  UNL     1     -35.515  14.869  -3.386  1.00 20.00     0.086 C 
BRANCH   7   8
HETATM    8  C10 UNL     1     -34.709  16.135  -3.019  1.00 20.00    -0.045 C 
HETATM    9  C5  UNL     1     -33.284  16.077  -3.594  1.00 20.00     0.015 C 
HETATM   10  C6  UNL     1     -34.635  16.327  -1.497  1.00 20.00     0.015 C 
HETATM   11  C7  UNL     1     -35.429  17.352  -3.632  1.00 20.00     0.015 C 
ENDBRANCH   7   8
ENDBRANCH   1   7
TORSDOF 4
ENDMDL
MODEL 4
REMARK VINA RESULT:      -4.2      1.592      2.127
REMARK  4 active torsions:
REMARK  status: ('A' for Active; 'I' for Inactive)
REMARK    1  A    between atoms: C1_1  and  C8_8 
REMARK    2  A    between atoms: C1_1  and  C9_9 
REMARK    3  A    between atoms: C4_4  and  C8_8 
REMARK    4  A    between atoms: C9_9  and  C10_10 
ROOT
HETATM    1  C1  UNL     1     -34.289  13.903  -4.035  1.00 20.00     0.128 C 
HETATM    2  O11 UNL     1     -33.208  13.362  -3.806  1.00 20.00    -0.298 OA
ENDROOT
BRANCH   1   3
HETATM    3  C8  UNL     1     -34.989  14.781  -3.014  1.00 20.00     0.082 C 
BRANCH   3   4
HETATM    4  C4  UNL     1     -34.101  15.819  -2.406  1.00 20.00    -0.008 A 
HETATM    5  C2  UNL     1     -34.462  17.275  -2.501  1.00 20.00     0.005 A 
HETATM    6  C3  UNL     1     -34.542  16.568  -1.178  1.00 20.00     0.005 A 
ENDBRANCH   3   4
ENDBRANCH   1   3
BRANCH   1   7
HETATM    7  C9  UNL     1     -35.001  13.703  -5.365  1.00 20.00     0.086 C 
BRANCH   7   8
HETATM    8  C10 UNL     1     -35.139  14.974  -6.232  1.00 20.00    -0.045 C 
HETATM    9  C5  UNL     1     -33.901  15.876  -6.105  1.00 20.00     0.015 C 
HETATM   10  C6  UNL     1     -36.393  15.776  -5.852  1.00 20.00     0.015 C 
HETATM   11  C7  UNL     1     -35.268  14.534  -7.704  1.00 20.00     0.015 C 
ENDBRANCH   7   8
ENDBRANCH   1   7
TORSDOF 4
ENDMDL
MODEL 5
REMARK VINA RESULT:      -4.2     11.075     12.346
REMARK  4 active torsions:
REMARK  status: ('A' for Active; 'I' for Inactive)
REMARK    1  A    between atoms: C1_1  and  C8_8 
REMARK    2  A    between atoms: C1_1  and  C9_9 
REMARK    3  A    between atoms: C4_4  and  C8_8 
REMARK    4  A    between atoms: C9_9  and  C10_10 
ROOT
HETATM    1  C1  UNL     1     -32.486   6.720   3.555  1.00 20.00     0.128 C 
HETATM    2  O11 UNL     1     -31.644   7.216   4.301  1.00 20.00    -0.298 OA
ENDROOT
BRANCH   1   3
HETATM    3  C8  UNL     1     -32.971   7.421   2.299  1.00 20.00     0.082 C 
BRANCH   3   4
HETATM    4  C4  UNL     1     -32.032   8.472   1.798  1.00 20.00    -0.008 A 
HETATM    5  C2  UNL     1     -32.190   9.030   0.411  1.00 20.00     0.005 A 
HETATM    6  C3  UNL     1     -32.510   9.884   1.605  1.00 20.00     0.005 A 
ENDBRANCH   3   4
ENDBRANCH   1   3
BRANCH   1   7
HETATM    7  C9  UNL     1     -33.111   5.368   3.865  1.00 20.00     0.086 C 
BRANCH   7   8
HETATM    8  C10 UNL     1     -34.331   5.411   4.813  1.00 20.00    -0.045 C 
HETATM    9  C5  UNL     1     -34.185   6.524   5.863  1.00 20.00     0.015 C 
HETATM   10  C6  UNL     1     -34.533   4.065   5.524  1.00 20.00     0.015 C 
HETATM   11  C7  UNL     1     -35.582   5.708   3.964  1.00 20.00     0.015 C 
ENDBRANCH   7   8
ENDBRANCH   1   7
TORSDOF 4
ENDMDL
MODEL 6
REMARK VINA RESULT:      -4.2      2.095      2.914
REMARK  4 active torsions:
REMARK  status: ('A' for Active; 'I' for Inactive)
REMARK    1  A    between atoms: C1_1  and  C8_8 
REMARK    2  A    between atoms: C1_1  and  C9_9 
REMARK    3  A    between atoms: C4_4  and  C8_8 
REMARK    4  A    between atoms: C9_9  and  C10_10 
ROOT
HETATM    1  C1  UNL     1     -33.596  17.022  -4.404  1.00 20.00     0.128 C 
HETATM    2  O11 UNL     1     -33.315  17.634  -5.433  1.00 20.00    -0.298 OA
ENDROOT
BRANCH   1   3
HETATM    3  C8  UNL     1     -33.985  17.731  -3.119  1.00 20.00     0.082 C 
BRANCH   3   4
HETATM    4  C4  UNL     1     -33.692  16.940  -1.884  1.00 20.00    -0.008 A 
HETATM    5  C2  UNL     1     -33.752  17.595  -0.532  1.00 20.00     0.005 A 
HETATM    6  C3  UNL     1     -34.799  16.592  -0.928  1.00 20.00     0.005 A 
ENDBRANCH   3   4
ENDBRANCH   1   3
BRANCH   1   7
HETATM    7  C9  UNL     1     -33.550  15.502  -4.356  1.00 20.00     0.086 C 
BRANCH   7   8
HETATM    8  C10 UNL     1     -34.761  14.789  -4.997  1.00 20.00    -0.045 C 
HETATM    9  C5  UNL     1     -34.609  14.690  -6.524  1.00 20.00     0.015 C 
HETATM   10  C6  UNL     1     -36.075  15.513  -4.664  1.00 20.00     0.015 C 
HETATM   11  C7  UNL     1     -34.830  13.360  -4.424  1.00 20.00     0.015 C 
ENDBRANCH   7   8
ENDBRANCH   1   7
TORSDOF 4
ENDMDL
MODEL 7
REMARK VINA RESULT:      -4.1      1.586      2.402
REMARK  4 active torsions:
REMARK  status: ('A' for Active; 'I' for Inactive)
REMARK    1  A    between atoms: C1_1  and  C8_8 
REMARK    2  A    between atoms: C1_1  and  C9_9 
REMARK    3  A    between atoms: C4_4  and  C8_8 
REMARK    4  A    between atoms: C9_9  and  C10_10 
ROOT
HETATM    1  C1  UNL     1     -35.969  16.306  -3.424  1.00 20.00     0.128 C 
HETATM    2  O11 UNL     1     -36.635  16.625  -4.409  1.00 20.00    -0.298 OA
ENDROOT
BRANCH   1   3
HETATM    3  C8  UNL     1     -35.762  17.242  -2.247  1.00 20.00     0.082 C 
BRANCH   3   4
HETATM    4  C4  UNL     1     -34.819  16.710  -1.215  1.00 20.00    -0.008 A 
HETATM    5  C2  UNL     1     -33.685  17.560  -0.714  1.00 20.00     0.005 A 
HETATM    6  C3  UNL     1     -34.847  17.252   0.187  1.00 20.00     0.005 A 
ENDBRANCH   3   4
ENDBRANCH   1   3
BRANCH   1   7
HETATM    7  C9  UNL     1     -35.292  14.946  -3.341  1.00 20.00     0.086 C 
BRANCH   7   8
HETATM    8  C10 UNL     1     -34.111  14.741  -4.315  1.00 20.00    -0.045 C 
HETATM    9  C5  UNL     1     -33.304  16.036  -4.497  1.00 20.00     0.015 C 
HETATM   10  C6  UNL     1     -34.598  14.249  -5.687  1.00 20.00     0.015 C 
HETATM   11  C7  UNL     1     -33.179  13.670  -3.714  1.00 20.00     0.015 C 
ENDBRANCH   7   8
ENDBRANCH   1   7
TORSDOF 4
ENDMDL
MODEL 8
REMARK VINA RESULT:      -4.0      0.826      3.918
REMARK  4 active torsions:
REMARK  status: ('A' for Active; 'I' for Inactive)
REMARK    1  A    between atoms: C1_1  and  C8_8 
REMARK    2  A    between atoms: C1_1  and  C9_9 
REMARK    3  A    between atoms: C4_4  and  C8_8 
REMARK    4  A    between atoms: C9_9  and  C10_10 
ROOT
HETATM    1  C1  UNL     1     -36.806  15.115  -4.235  1.00 20.00     0.128 C 
HETATM    2  O11 UNL     1     -37.336  14.078  -3.837  1.00 20.00    -0.298 OA
ENDROOT
BRANCH   1   3
HETATM    3  C8  UNL     1     -36.619  15.416  -5.711  1.00 20.00     0.082 C 
BRANCH   3   4
HETATM    4  C4  UNL     1     -35.632  14.518  -6.386  1.00 20.00    -0.008 A 
HETATM    5  C2  UNL     1     -35.501  14.526  -7.884  1.00 20.00     0.005 A 
HETATM    6  C3  UNL     1     -34.402  15.096  -7.032  1.00 20.00     0.005 A 
ENDBRANCH   3   4
ENDBRANCH   1   3
BRANCH   1   7
HETATM    7  C9  UNL     1     -36.284  16.155  -3.255  1.00 20.00     0.086 C 
BRANCH   7   8
HETATM    8  C10 UNL     1     -34.796  16.003  -2.869  1.00 20.00    -0.045 C 
HETATM    9  C5  UNL     1     -34.292  14.574  -3.131  1.00 20.00     0.015 C 
HETATM   10  C6  UNL     1     -34.563  16.360  -1.393  1.00 20.00     0.015 C 
HETATM   11  C7  UNL     1     -33.975  16.973  -3.742  1.00 20.00     0.015 C 
ENDBRANCH   7   8
ENDBRANCH   1   7
TORSDOF 4
ENDMDL
MODEL 9
REMARK VINA RESULT:      -3.9     11.200     12.526
REMARK  4 active torsions:
REMARK  status: ('A' for Active; 'I' for Inactive)
REMARK    1  A    between atoms: C1_1  and  C8_8 
REMARK    2  A    between atoms: C1_1  and  C9_9 
REMARK    3  A    between atoms: C4_4  and  C8_8 
REMARK    4  A    between atoms: C9_9  and  C10_10 
ROOT
HETATM    1  C1  UNL     1     -32.955   6.074   3.104  1.00 20.00     0.128 C 
HETATM    2  O11 UNL     1     -33.498   5.512   2.154  1.00 20.00    -0.298 OA
ENDROOT
BRANCH   1   3
HETATM    3  C8  UNL     1     -32.215   7.390   2.953  1.00 20.00     0.082 C 
BRANCH   3   4
HETATM    4  C4  UNL     1     -32.666   8.201   1.779  1.00 20.00    -0.008 A 
HETATM    5  C2  UNL     1     -32.418   9.683   1.741  1.00 20.00     0.005 A 
HETATM    6  C3  UNL     1     -31.658   8.771   0.820  1.00 20.00     0.005 A 
ENDBRANCH   3   4
ENDBRANCH   1   3
BRANCH   1   7
HETATM    7  C9  UNL     1     -32.979   5.461   4.497  1.00 20.00     0.086 C 
BRANCH   7   8
HETATM    8  C10 UNL     1     -34.362   5.451   5.185  1.00 20.00    -0.045 C 
HETATM    9  C5  UNL     1     -34.702   4.058   5.739  1.00 20.00     0.015 C 
HETATM   10  C6  UNL     1     -35.470   5.898   4.219  1.00 20.00     0.015 C 
HETATM   11  C7  UNL     1     -34.313   6.442   6.365  1.00 20.00     0.015 C 
ENDBRANCH   7   8
ENDBRANCH   1   7
TORSDOF 4
ENDMDL
