MODEL 1
REMARK VINA RESULT:      -4.8      0.000      0.000
REMARK  5 active torsions:
REMARK  status: ('A' for Active; 'I' for Inactive)
REMARK    1  A    between atoms: C3_3  and  C5_5 
REMARK    2  A    between atoms: C5_5  and  C8_8 
REMARK    3  A    between atoms: C6_6  and  C7_7 
REMARK    4  A    between atoms: C7_7  and  C8_8 
REMARK    5  A    between atoms: C8_8  and  O9_9 
ROOT
HETATM    1  C8  UNL     1     -34.815   5.539   3.913  1.00 20.00     0.118 C 
ENDROOT
BRANCH   1   2
HETATM    2  C5  UNL     1     -33.848   5.390   2.732  1.00 20.00     0.036 C 
BRANCH   2   3
HETATM    3  C3  UNL     1     -32.491   6.037   2.963  1.00 20.00    -0.012 A 
HETATM    4  C1  UNL     1     -32.234   7.443   2.500  1.00 20.00     0.005 A 
HETATM    5  C2  UNL     1     -32.342   7.143   3.969  1.00 20.00     0.005 A 
ENDBRANCH   2   3
ENDBRANCH   1   2
BRANCH   1   6
HETATM    6  C7  UNL     1     -34.948   4.258   4.746  1.00 20.00     0.031 C 
BRANCH   6   7
HETATM    7  C6  UNL     1     -34.891   4.538   6.252  1.00 20.00    -0.002 C 
HETATM    8  C4  UNL     1     -34.398   5.949   6.538  1.00 20.00     0.005 C 
ENDBRANCH   6   7
ENDBRANCH   1   6
BRANCH   1   9
HETATM    9  O9  UNL     1     -36.103   5.872   3.392  1.00 20.00    -0.396 OA
HETATM   10  H25 UNL     1     -36.695   5.147   3.644  1.00 20.00     0.210 HD
ENDBRANCH   1   9
TORSDOF 5
ENDMDL
MODEL 2
REMARK VINA RESULT:      -4.7      1.722      4.370
REMARK  5 active torsions:
REMARK  status: ('A' for Active; 'I' for Inactive)
REMARK    1  A    between atoms: C3_3  and  C5_5 
REMARK    2  A    between atoms: C5_5  and  C8_8 
REMARK    3  A    between atoms: C6_6  and  C7_7 
REMARK    4  A    between atoms: C7_7  and  C8_8 
REMARK    5  A    between atoms: C8_8  and  O9_9 
ROOT
HETATM    1  C8  UNL     1     -33.152   6.359   3.696  1.00 20.00     0.118 C 
ENDROOT
BRANCH   1   2
HETATM    2  C5  UNL     1     -34.384   5.469   3.489  1.00 20.00     0.036 C 
BRANCH   2   3
HETATM    3  C3  UNL     1     -35.179   5.213   4.759  1.00 20.00    -0.012 A 
HETATM    4  C1  UNL     1     -34.818   4.064   5.659  1.00 20.00     0.005 A 
HETATM    5  C2  UNL     1     -34.561   5.477   6.104  1.00 20.00     0.005 A 
ENDBRANCH   2   3
ENDBRANCH   1   2
BRANCH   1   6
HETATM    6  C7  UNL     1     -33.242   7.696   2.951  1.00 20.00     0.031 C 
BRANCH   6   7
HETATM    7  C6  UNL     1     -31.963   8.010   2.167  1.00 20.00    -0.002 C 
HETATM    8  C4  UNL     1     -32.188   9.133   1.164  1.00 20.00     0.005 C 
ENDBRANCH   6   7
ENDBRANCH   1   6
BRANCH   1   9
HETATM    9  O9  UNL     1     -32.008   5.651   3.214  1.00 20.00    -0.396 OA
HETATM   10  H25 UNL     1     -32.088   4.744   3.547  1.00 20.00     0.210 HD
ENDBRANCH   1   9
TORSDOF 5
ENDMDL
MODEL 3
REMARK VINA RESULT:      -4.4      1.410      4.342
REMARK  5 active torsions:
REMARK  status: ('A' for Active; 'I' for Inactive)
REMARK    1  A    between atoms: C3_3  and  C5_5 
REMARK    2  A    between atoms: C5_5  and  C8_8 
REMARK    3  A    between atoms: C6_6  and  C7_7 
REMARK    4  A    between atoms: C7_7  and  C8_8 
REMARK    5  A    between atoms: C8_8  and  O9_9 
ROOT
HETATM    1  C8  UNL     1     -32.768   6.177   3.705  1.00 20.00     0.118 C 
ENDROOT
BRANCH   1   2
HETATM    2  C5  UNL     1     -33.684   6.381   4.918  1.00 20.00     0.036 C 
BRANCH   2   3
HETATM    3  C3  UNL     1     -34.805   5.359   5.021  1.00 20.00    -0.012 A 
HETATM    4  C1  UNL     1     -34.494   3.926   5.355  1.00 20.00     0.005 A 
HETATM    5  C2  UNL     1     -35.194   4.797   6.360  1.00 20.00     0.005 A 
ENDBRANCH   2   3
ENDBRANCH   1   2
BRANCH   1   6
HETATM    6  C7  UNL     1     -31.932   7.417   3.366  1.00 20.00     0.031 C 
BRANCH   6   7
HETATM    7  C6  UNL     1     -32.041   7.803   1.887  1.00 20.00    -0.002 C 
HETATM    8  C4  UNL     1     -32.375   9.279   1.721  1.00 20.00     0.005 C 
ENDBRANCH   6   7
ENDBRANCH   1   6
BRANCH   1   9
HETATM    9  O9  UNL     1     -33.588   5.865   2.577  1.00 20.00    -0.396 OA
HETATM   10  H25 UNL     1     -33.922   6.711   2.241  1.00 20.00     0.210 HD
ENDBRANCH   1   9
TORSDOF 5
ENDMDL
MODEL 4
REMARK VINA RESULT:      -4.3      1.344      2.032
REMARK  5 active torsions:
REMARK  status: ('A' for Active; 'I' for Inactive)
REMARK    1  A    between atoms: C3_3  and  C5_5 
REMARK    2  A    between atoms: C5_5  and  C8_8 
REMARK    3  A    between atoms: C6_6  and  C7_7 
REMARK    4  A    between atoms: C7_7  and  C8_8 
REMARK    5  A    between atoms: C8_8  and  O9_9 
ROOT
HETATM    1  C8  UNL     1     -33.640   6.450   3.332  1.00 20.00     0.118 C 
ENDROOT
BRANCH   1   2
HETATM    2  C5  UNL     1     -32.136   6.604   3.075  1.00 20.00     0.036 C 
BRANCH   2   3
HETATM    3  C3  UNL     1     -31.729   7.997   2.622  1.00 20.00    -0.012 A 
HETATM    4  C1  UNL     1     -31.766   8.361   1.164  1.00 20.00     0.005 A 
HETATM    5  C2  UNL     1     -32.765   8.960   2.114  1.00 20.00     0.005 A 
ENDBRANCH   2   3
ENDBRANCH   1   2
BRANCH   1   6
HETATM    6  C7  UNL     1     -33.974   6.174   4.803  1.00 20.00     0.031 C 
BRANCH   6   7
HETATM    7  C6  UNL     1     -35.125   5.174   4.959  1.00 20.00    -0.002 C 
HETATM    8  C4  UNL     1     -34.764   4.059   5.930  1.00 20.00     0.005 C 
ENDBRANCH   6   7
ENDBRANCH   1   6
BRANCH   1   9
HETATM    9  O9  UNL     1     -34.113   5.351   2.550  1.00 20.00    -0.396 OA
HETATM   10  H25 UNL     1     -34.799   5.708   1.966  1.00 20.00     0.210 HD
ENDBRANCH   1   9
TORSDOF 5
ENDMDL
MODEL 5
REMARK VINA RESULT:      -4.2      2.195      4.679
REMARK  5 active torsions:
REMARK  status: ('A' for Active; 'I' for Inactive)
REMARK    1  A    between atoms: C3_3  and  C5_5 
REMARK    2  A    between atoms: C5_5  and  C8_8 
REMARK    3  A    between atoms: C6_6  and  C7_7 
REMARK    4  A    between atoms: C7_7  and  C8_8 
REMARK    5  A    between atoms: C8_8  and  O9_9 
ROOT
HETATM    1  C8  UNL     1     -32.375   7.547   2.944  1.00 20.00     0.118 C 
ENDROOT
BRANCH   1   2
HETATM    2  C5  UNL     1     -33.067   6.192   3.137  1.00 20.00     0.036 C 
BRANCH   2   3
HETATM    3  C3  UNL     1     -34.302   6.253   4.022  1.00 20.00    -0.012 A 
HETATM    4  C1  UNL     1     -35.058   4.997   4.354  1.00 20.00     0.005 A 
HETATM    5  C2  UNL     1     -34.260   5.698   5.418  1.00 20.00     0.005 A 
ENDBRANCH   2   3
ENDBRANCH   1   2
BRANCH   1   6
HETATM    6  C7  UNL     1     -31.819   7.743   1.528  1.00 20.00     0.031 C 
BRANCH   6   7
HETATM    7  C6  UNL     1     -32.142   9.131   0.964  1.00 20.00    -0.002 C 
HETATM    8  C4  UNL     1     -32.795  10.019   2.014  1.00 20.00     0.005 C 
ENDBRANCH   6   7
ENDBRANCH   1   6
BRANCH   1   9
HETATM    9  O9  UNL     1     -31.288   7.626   3.868  1.00 20.00    -0.396 OA
HETATM   10  H25 UNL     1     -31.409   6.895   4.493  1.00 20.00     0.210 HD
ENDBRANCH   1   9
TORSDOF 5
ENDMDL
MODEL 6
REMARK VINA RESULT:      -4.2     11.419     12.927
REMARK  5 active torsions:
REMARK  status: ('A' for Active; 'I' for Inactive)
REMARK    1  A    between atoms: C3_3  and  C5_5 
REMARK    2  A    between atoms: C5_5  and  C8_8 
REMARK    3  A    between atoms: C6_6  and  C7_7 
REMARK    4  A    between atoms: C7_7  and  C8_8 
REMARK    5  A    between atoms: C8_8  and  O9_9 
ROOT
HETATM    1  C8  UNL     1     -34.517  13.524  -4.618  1.00 20.00     0.118 C 
ENDROOT
BRANCH   1   2
HETATM    2  C5  UNL     1     -33.937  14.256  -3.402  1.00 20.00     0.036 C 
BRANCH   2   3
HETATM    3  C3  UNL     1     -34.650  15.558  -3.070  1.00 20.00    -0.012 A 
HETATM    4  C1  UNL     1     -34.487  16.185  -1.714  1.00 20.00     0.005 A 
HETATM    5  C2  UNL     1     -33.866  16.831  -2.921  1.00 20.00     0.005 A 
ENDBRANCH   2   3
ENDBRANCH   1   2
BRANCH   1   6
HETATM    6  C7  UNL     1     -35.298  14.447  -5.561  1.00 20.00     0.031 C 
BRANCH   6   7
HETATM    7  C6  UNL     1     -34.455  14.905  -6.756  1.00 20.00    -0.002 C 
HETATM    8  C4  UNL     1     -34.360  16.423  -6.821  1.00 20.00     0.005 C 
ENDBRANCH   6   7
ENDBRANCH   1   6
BRANCH   1   9
HETATM    9  O9  UNL     1     -35.406  12.511  -4.143  1.00 20.00    -0.396 OA
HETATM   10  H25 UNL     1     -36.220  12.597  -4.662  1.00 20.00     0.210 HD
ENDBRANCH   1   9
TORSDOF 5
ENDMDL
MODEL 7
REMARK VINA RESULT:      -4.1     11.586     12.850
REMARK  5 active torsions:
REMARK  status: ('A' for Active; 'I' for Inactive)
REMARK    1  A    between atoms: C3_3  and  C5_5 
REMARK    2  A    between atoms: C5_5  and  C8_8 
REMARK    3  A    between atoms: C6_6  and  C7_7 
REMARK    4  A    between atoms: C7_7  and  C8_8 
REMARK    5  A    between atoms: C8_8  and  O9_9 
ROOT
HETATM    1  C8  UNL     1     -35.222  13.965  -3.994  1.00 20.00     0.118 C 
ENDROOT
BRANCH   1   2
HETATM    2  C5  UNL     1     -35.717  14.557  -5.320  1.00 20.00     0.036 C 
BRANCH   2   3
HETATM    3  C3  UNL     1     -34.653  14.609  -6.405  1.00 20.00    -0.012 A 
HETATM    4  C1  UNL     1     -35.044  14.837  -7.838  1.00 20.00     0.005 A 
HETATM    5  C2  UNL     1     -34.321  15.912  -7.076  1.00 20.00     0.005 A 
ENDBRANCH   2   3
ENDBRANCH   1   2
BRANCH   1   6
HETATM    6  C7  UNL     1     -33.761  14.312  -3.688  1.00 20.00     0.031 C 
BRANCH   6   7
HETATM    7  C6  UNL     1     -33.613  15.707  -3.071  1.00 20.00    -0.002 C 
HETATM    8  C4  UNL     1     -34.695  15.974  -2.034  1.00 20.00     0.005 C 
ENDBRANCH   6   7
ENDBRANCH   1   6
BRANCH   1   9
HETATM    9  O9  UNL     1     -35.340  12.543  -4.072  1.00 20.00    -0.396 OA
HETATM   10  H25 UNL     1     -35.181  12.207  -3.177  1.00 20.00     0.210 HD
ENDBRANCH   1   9
TORSDOF 5
ENDMDL
MODEL 8
REMARK VINA RESULT:      -4.1     11.761     12.554
REMARK  5 active torsions:
REMARK  status: ('A' for Active; 'I' for Inactive)
REMARK    1  A    between atoms: C3_3  and  C5_5 
REMARK    2  A    between atoms: C5_5  and  C8_8 
REMARK    3  A    between atoms: C6_6  and  C7_7 
REMARK    4  A    between atoms: C7_7  and  C8_8 
REMARK    5  A    between atoms: C8_8  and  O9_9 
ROOT
HETATM    1  C8  UNL     1     -33.623  15.495  -3.957  1.00 20.00     0.118 C 
ENDROOT
BRANCH   1   2
HETATM    2  C5  UNL     1     -33.437  16.259  -2.641  1.00 20.00     0.036 C 
BRANCH   2   3
HETATM    3  C3  UNL     1     -34.644  16.197  -1.718  1.00 20.00    -0.012 A 
HETATM    4  C1  UNL     1     -34.633  16.934  -0.408  1.00 20.00     0.005 A 
HETATM    5  C2  UNL     1     -35.515  17.408  -1.530  1.00 20.00     0.005 A 
ENDBRANCH   2   3
ENDBRANCH   1   2
BRANCH   1   6
HETATM    6  C7  UNL     1     -33.571  13.973  -3.782  1.00 20.00     0.031 C 
BRANCH   6   7
HETATM    7  C6  UNL     1     -34.823  13.282  -4.334  1.00 20.00    -0.002 C 
HETATM    8  C4  UNL     1     -36.005  14.240  -4.396  1.00 20.00     0.005 C 
ENDBRANCH   6   7
ENDBRANCH   1   6
BRANCH   1   9
HETATM    9  O9  UNL     1     -32.573  15.882  -4.846  1.00 20.00    -0.396 OA
HETATM   10  H25 UNL     1     -32.988  16.029  -5.710  1.00 20.00     0.210 HD
ENDBRANCH   1   9
TORSDOF 5
ENDMDL
MODEL 9
REMARK VINA RESULT:      -4.0     11.550     12.695
REMARK  5 active torsions:
REMARK  status: ('A' for Active; 'I' for Inactive)
REMARK    1  A    between atoms: C3_3  and  C5_5 
REMARK    2  A    between atoms: C5_5  and  C8_8 
REMARK    3  A    between atoms: C6_6  and  C7_7 
REMARK    4  A    between atoms: C7_7  and  C8_8 
REMARK    5  A    between atoms: C8_8  and  O9_9 
ROOT
HETATM    1  C8  UNL     1     -33.931  13.957  -3.648  1.00 20.00     0.118 C 
ENDROOT
BRANCH   1   2
HETATM    2  C5  UNL     1     -34.440  13.465  -5.009  1.00 20.00     0.036 C 
BRANCH   2   3
HETATM    3  C3  UNL     1     -35.096  14.549  -5.849  1.00 20.00    -0.012 A 
HETATM    4  C1  UNL     1     -34.287  15.324  -6.851  1.00 20.00     0.005 A 
HETATM    5  C2  UNL     1     -35.318  14.335  -7.320  1.00 20.00     0.005 A 
ENDBRANCH   2   3
ENDBRANCH   1   2
BRANCH   1   6
HETATM    6  C7  UNL     1     -34.783  15.089  -3.060  1.00 20.00     0.031 C 
BRANCH   6   7
HETATM    7  C6  UNL     1     -33.929  16.162  -2.376  1.00 20.00    -0.002 C 
HETATM    8  C4  UNL     1     -34.538  16.595  -1.050  1.00 20.00     0.005 C 
ENDBRANCH   6   7
ENDBRANCH   1   6
BRANCH   1   9
HETATM    9  O9  UNL     1     -32.599  14.441  -3.823  1.00 20.00    -0.396 OA
HETATM   10  H25 UNL     1     -32.420  14.411  -4.775  1.00 20.00     0.210 HD
ENDBRANCH   1   9
TORSDOF 5
ENDMDL
