MODEL 1
REMARK VINA RESULT:      -5.1      0.000      0.000
REMARK  2 active torsions:
REMARK  status: ('A' for Active; 'I' for Inactive)
REMARK    1  A    between atoms: C5_5  and  C6_6 
REMARK    2  A    between atoms: C6_6  and  C7_7 
ROOT
HETATM    1  C1  UNL     1     -34.009   5.133   6.371  1.00 20.00     0.027 C 
HETATM    2  C2  UNL     1     -34.073   6.506   5.707  1.00 20.00     0.009 C 
HETATM    3  C3  UNL     1     -35.132   4.236   5.871  1.00 20.00     0.167 C 
HETATM    4  C4  UNL     1     -35.333   5.418   3.830  1.00 20.00     0.172 C 
HETATM    5  C5  UNL     1     -34.213   6.403   4.182  1.00 20.00     0.010 C 
HETATM    6  O8  UNL     1     -35.120   4.148   4.447  1.00 20.00    -0.391 OA
ENDROOT
BRANCH   5   7
HETATM    7  C6  UNL     1     -32.893   5.986   3.530  1.00 20.00     0.021 C 
BRANCH   7   8
HETATM    8  C7  UNL     1     -31.872   7.113   3.455  1.00 20.00     0.115 C 
HETATM    9 CL9  UNL     1     -32.130   8.155   2.036  1.00 20.00    -0.130 Cl
ENDBRANCH   7   8
ENDBRANCH   5   7
TORSDOF 2
ENDMDL
MODEL 2
REMARK VINA RESULT:      -4.0     11.450     12.510
REMARK  2 active torsions:
REMARK  status: ('A' for Active; 'I' for Inactive)
REMARK    1  A    between atoms: C5_5  and  C6_6 
REMARK    2  A    between atoms: C6_6  and  C7_7 
ROOT
HETATM    1  C1  UNL     1     -35.198  14.780  -5.598  1.00 20.00     0.027 C 
HETATM    2  C2  UNL     1     -33.997  15.577  -5.095  1.00 20.00     0.009 C 
HETATM    3  C3  UNL     1     -34.953  13.284  -5.458  1.00 20.00     0.167 C 
HETATM    4  C4  UNL     1     -33.396  13.579  -3.700  1.00 20.00     0.172 C 
HETATM    5  C5  UNL     1     -33.532  15.106  -3.710  1.00 20.00     0.010 C 
HETATM    6  O8  UNL     1     -34.606  12.947  -4.116  1.00 20.00    -0.391 OA
ENDROOT
BRANCH   5   7
HETATM    7  C6  UNL     1     -34.492  15.575  -2.613  1.00 20.00     0.021 C 
BRANCH   7   8
HETATM    8  C7  UNL     1     -33.954  16.744  -1.799  1.00 20.00     0.115 C 
HETATM    9 CL9  UNL     1     -34.754  16.881  -0.216  1.00 20.00    -0.130 Cl
ENDBRANCH   7   8
ENDBRANCH   5   7
TORSDOF 2
ENDMDL
MODEL 3
REMARK VINA RESULT:      -3.8     12.214     13.030
REMARK  2 active torsions:
REMARK  status: ('A' for Active; 'I' for Inactive)
REMARK    1  A    between atoms: C5_5  and  C6_6 
REMARK    2  A    between atoms: C6_6  and  C7_7 
ROOT
HETATM    1  C1  UNL     1     -33.357  16.231  -5.011  1.00 20.00     0.027 C 
HETATM    2  C2  UNL     1     -33.061  15.516  -3.694  1.00 20.00     0.009 C 
HETATM    3  C3  UNL     1     -34.323  15.420  -5.864  1.00 20.00     0.167 C 
HETATM    4  C4  UNL     1     -35.245  14.314  -3.985  1.00 20.00     0.172 C 
HETATM    5  C5  UNL     1     -34.343  15.053  -2.990  1.00 20.00     0.010 C 
HETATM    6  O8  UNL     1     -35.511  15.114  -5.137  1.00 20.00    -0.391 OA
ENDROOT
BRANCH   5   7
HETATM    7  C6  UNL     1     -35.084  16.233  -2.354  1.00 20.00     0.021 C 
BRANCH   7   8
HETATM    8  C7  UNL     1     -34.649  16.520  -0.924  1.00 20.00     0.115 C 
HETATM    9 CL9  UNL     1     -33.389  17.774  -0.848  1.00 20.00    -0.130 Cl
ENDBRANCH   7   8
ENDBRANCH   5   7
TORSDOF 2
ENDMDL
MODEL 4
REMARK VINA RESULT:      -3.7     11.902     12.774
REMARK  2 active torsions:
REMARK  status: ('A' for Active; 'I' for Inactive)
REMARK    1  A    between atoms: C5_5  and  C6_6 
REMARK    2  A    between atoms: C6_6  and  C7_7 
ROOT
HETATM    1  C1  UNL     1     -34.443  14.012  -5.291  1.00 20.00     0.027 C 
HETATM    2  C2  UNL     1     -34.472  13.663  -3.805  1.00 20.00     0.009 C 
HETATM    3  C3  UNL     1     -35.729  14.711  -5.710  1.00 20.00     0.167 C 
HETATM    4  C4  UNL     1     -36.156  15.502  -3.520  1.00 20.00     0.172 C 
HETATM    5  C5  UNL     1     -34.891  14.860  -2.941  1.00 20.00     0.010 C 
HETATM    6  O8  UNL     1     -35.978  15.853  -4.893  1.00 20.00    -0.391 OA
ENDROOT
BRANCH   5   7
HETATM    7  C6  UNL     1     -33.760  15.886  -2.829  1.00 20.00     0.021 C 
BRANCH   7   8
HETATM    8  C7  UNL     1     -34.166  17.155  -2.093  1.00 20.00     0.115 C 
HETATM    9 CL9  UNL     1     -34.611  16.833  -0.401  1.00 20.00    -0.130 Cl
ENDBRANCH   7   8
ENDBRANCH   5   7
TORSDOF 2
ENDMDL
MODEL 5
REMARK VINA RESULT:      -3.7     12.317     13.173
REMARK  2 active torsions:
REMARK  status: ('A' for Active; 'I' for Inactive)
REMARK    1  A    between atoms: C5_5  and  C6_6 
REMARK    2  A    between atoms: C6_6  and  C7_7 
ROOT
HETATM    1  C1  UNL     1     -33.065  15.161  -3.734  1.00 20.00     0.027 C 
HETATM    2  C2  UNL     1     -34.424  14.786  -3.149  1.00 20.00     0.009 C 
HETATM    3  C3  UNL     1     -33.183  16.373  -4.648  1.00 20.00     0.167 C 
HETATM    4  C4  UNL     1     -35.130  17.159  -3.555  1.00 20.00     0.172 C 
HETATM    5  C5  UNL     1     -35.149  16.000  -2.553  1.00 20.00     0.010 C 
HETATM    6  O8  UNL     1     -33.799  17.466  -3.969  1.00 20.00    -0.391 OA
ENDROOT
BRANCH   5   7
HETATM    7  C6  UNL     1     -34.525  16.421  -1.220  1.00 20.00     0.021 C 
BRANCH   7   8
HETATM    8  C7  UNL     1     -35.237  17.596  -0.563  1.00 20.00     0.115 C 
HETATM    9 CL9  UNL     1     -35.240  17.468   1.211  1.00 20.00    -0.130 Cl
ENDBRANCH   7   8
ENDBRANCH   5   7
TORSDOF 2
ENDMDL
MODEL 6
REMARK VINA RESULT:      -3.6     12.355     13.154
REMARK  2 active torsions:
REMARK  status: ('A' for Active; 'I' for Inactive)
REMARK    1  A    between atoms: C5_5  and  C6_6 
REMARK    2  A    between atoms: C6_6  and  C7_7 
ROOT
HETATM    1  C1  UNL     1     -34.966  17.279  -2.875  1.00 20.00     0.027 C 
HETATM    2  C2  UNL     1     -34.708  15.981  -2.112  1.00 20.00     0.009 C 
HETATM    3  C3  UNL     1     -33.776  17.638  -3.753  1.00 20.00     0.167 C 
HETATM    4  C4  UNL     1     -33.050  15.390  -3.900  1.00 20.00     0.172 C 
HETATM    5  C5  UNL     1     -34.198  14.864  -3.032  1.00 20.00     0.010 C 
HETATM    6  O8  UNL     1     -33.438  16.559  -4.622  1.00 20.00    -0.391 OA
ENDROOT
BRANCH   5   7
HETATM    7  C6  UNL     1     -35.326  14.302  -3.900  1.00 20.00     0.021 C 
BRANCH   7   8
HETATM    8  C7  UNL     1     -34.831  13.417  -5.036  1.00 20.00     0.115 C 
HETATM    9 CL9  UNL     1     -35.130  14.147  -6.631  1.00 20.00    -0.130 Cl
ENDBRANCH   7   8
ENDBRANCH   5   7
TORSDOF 2
ENDMDL
MODEL 7
REMARK VINA RESULT:      -3.5     11.794     12.821
REMARK  2 active torsions:
REMARK  status: ('A' for Active; 'I' for Inactive)
REMARK    1  A    between atoms: C5_5  and  C6_6 
REMARK    2  A    between atoms: C6_6  and  C7_7 
ROOT
HETATM    1  C1  UNL     1     -33.187  15.118  -3.404  1.00 20.00     0.027 C 
HETATM    2  C2  UNL     1     -34.612  15.525  -3.035  1.00 20.00     0.009 C 
HETATM    3  C3  UNL     1     -33.095  13.617  -3.641  1.00 20.00     0.167 C 
HETATM    4  C4  UNL     1     -35.389  13.442  -4.199  1.00 20.00     0.172 C 
HETATM    5  C5  UNL     1     -35.647  14.941  -4.006  1.00 20.00     0.010 C 
HETATM    6  O8  UNL     1     -34.047  13.196  -4.617  1.00 20.00    -0.391 OA
ENDROOT
BRANCH   5   7
HETATM    7  C6  UNL     1     -35.627  15.676  -5.348  1.00 20.00     0.021 C 
BRANCH   7   8
HETATM    8  C7  UNL     1     -36.467  14.998  -6.422  1.00 20.00     0.115 C 
HETATM    9 CL9  UNL     1     -35.469  14.373  -7.756  1.00 20.00    -0.130 Cl
ENDBRANCH   7   8
ENDBRANCH   5   7
TORSDOF 2
ENDMDL
MODEL 8
REMARK VINA RESULT:      -3.5      9.678     11.071
REMARK  2 active torsions:
REMARK  status: ('A' for Active; 'I' for Inactive)
REMARK    1  A    between atoms: C5_5  and  C6_6 
REMARK    2  A    between atoms: C6_6  and  C7_7 
ROOT
HETATM    1  C1  UNL     1     -42.835   6.327  -3.065  1.00 20.00     0.027 C 
HETATM    2  C2  UNL     1     -43.283   5.220  -2.114  1.00 20.00     0.009 C 
HETATM    3  C3  UNL     1     -41.923   7.317  -2.354  1.00 20.00     0.167 C 
HETATM    4  C4  UNL     1     -41.240   5.720  -0.746  1.00 20.00     0.172 C 
HETATM    5  C5  UNL     1     -42.103   4.606  -1.348  1.00 20.00     0.010 C 
HETATM    6  O8  UNL     1     -40.819   6.649  -1.745  1.00 20.00    -0.391 OA
ENDROOT
BRANCH   5   7
HETATM    7  C6  UNL     1     -41.268   3.695  -2.251  1.00 20.00     0.021 C 
BRANCH   7   8
HETATM    8  C7  UNL     1     -42.093   2.637  -2.971  1.00 20.00     0.115 C 
HETATM    9 CL9  UNL     1     -41.112   1.685  -4.109  1.00 20.00    -0.130 Cl
ENDBRANCH   7   8
ENDBRANCH   5   7
TORSDOF 2
ENDMDL
MODEL 9
REMARK VINA RESULT:      -3.5     12.208     13.397
REMARK  2 active torsions:
REMARK  status: ('A' for Active; 'I' for Inactive)
REMARK    1  A    between atoms: C5_5  and  C6_6 
REMARK    2  A    between atoms: C6_6  and  C7_7 
ROOT
HETATM    1  C1  UNL     1     -33.303  15.601  -4.262  1.00 20.00     0.027 C 
HETATM    2  C2  UNL     1     -34.747  15.844  -4.695  1.00 20.00     0.009 C 
HETATM    3  C3  UNL     1     -33.173  14.271  -3.532  1.00 20.00     0.167 C 
HETATM    4  C4  UNL     1     -35.078  13.359  -4.600  1.00 20.00     0.172 C 
HETATM    5  C5  UNL     1     -35.345  14.629  -5.416  1.00 20.00     0.010 C 
HETATM    6  O8  UNL     1     -33.686  13.202  -4.324  1.00 20.00    -0.391 OA
ENDROOT
BRANCH   5   7
HETATM    7  C6  UNL     1     -34.786  14.494  -6.835  1.00 20.00     0.021 C 
BRANCH   7   8
HETATM    8  C7  UNL     1     -35.851  14.605  -7.917  1.00 20.00     0.115 C 
HETATM    9 CL9  UNL     1     -37.427  15.098  -7.256  1.00 20.00    -0.130 Cl
ENDBRANCH   7   8
ENDBRANCH   5   7
TORSDOF 2
ENDMDL
