MODEL 1
REMARK VINA RESULT:      -4.9      0.000      0.000
REMARK  2 active torsions:
REMARK  status: ('A' for Active; 'I' for Inactive)
REMARK    1  A    between atoms: C5_5  and  C6_6 
REMARK    2  A    between atoms: C6_6  and  C7_7 
ROOT
HETATM    1  C1  UNL     1     -34.317   6.132   6.277  1.00 20.00     0.027 C 
HETATM    2  C2  UNL     1     -33.216   6.407   5.258  1.00 20.00     0.009 C 
HETATM    3  C3  UNL     1     -35.079   4.864   5.917  1.00 20.00     0.167 C 
HETATM    4  C4  UNL     1     -34.574   5.083   3.612  1.00 20.00     0.172 C 
HETATM    5  C5  UNL     1     -33.781   6.373   3.832  1.00 20.00     0.010 C 
HETATM    6  O8  UNL     1     -35.604   4.949   4.593  1.00 20.00    -0.391 OA
ENDROOT
BRANCH   5   7
HETATM    7  C6  UNL     1     -32.672   6.521   2.797  1.00 20.00     0.017 C 
BRANCH   7   8
HETATM    8  C7  UNL     1     -31.973   7.860   2.936  1.00 20.00     0.085 C 
HETATM    9 BR9  UNL     1     -32.055   8.819   1.242  1.00 20.00    -0.096 Br
ENDBRANCH   7   8
ENDBRANCH   5   7
TORSDOF 2
ENDMDL
MODEL 2
REMARK VINA RESULT:      -4.5      1.111      1.795
REMARK  2 active torsions:
REMARK  status: ('A' for Active; 'I' for Inactive)
REMARK    1  A    between atoms: C5_5  and  C6_6 
REMARK    2  A    between atoms: C6_6  and  C7_7 
ROOT
HETATM    1  C1  UNL     1     -35.088   4.052   4.866  1.00 20.00     0.027 C 
HETATM    2  C2  UNL     1     -34.838   5.148   3.836  1.00 20.00     0.009 C 
HETATM    3  C3  UNL     1     -35.205   4.644   6.265  1.00 20.00     0.167 C 
HETATM    4  C4  UNL     1     -33.866   6.516   5.703  1.00 20.00     0.172 C 
HETATM    5  C5  UNL     1     -33.662   6.034   4.265  1.00 20.00     0.010 C 
HETATM    6  O8  UNL     1     -34.045   5.409   6.588  1.00 20.00    -0.391 OA
ENDROOT
BRANCH   5   7
HETATM    7  C6  UNL     1     -33.481   7.208   3.310  1.00 20.00     0.017 C 
BRANCH   7   8
HETATM    8  C7  UNL     1     -32.047   7.300   2.825  1.00 20.00     0.085 C 
HETATM    9 BR9  UNL     1     -31.915   8.646   1.424  1.00 20.00    -0.096 Br
ENDBRANCH   7   8
ENDBRANCH   5   7
TORSDOF 2
ENDMDL
MODEL 3
REMARK VINA RESULT:      -4.0     11.314     11.794
REMARK  2 active torsions:
REMARK  status: ('A' for Active; 'I' for Inactive)
REMARK    1  A    between atoms: C5_5  and  C6_6 
REMARK    2  A    between atoms: C6_6  and  C7_7 
ROOT
HETATM    1  C1  UNL     1     -33.384  13.772  -3.900  1.00 20.00     0.027 C 
HETATM    2  C2  UNL     1     -33.527  15.144  -3.247  1.00 20.00     0.009 C 
HETATM    3  C3  UNL     1     -34.561  13.491  -4.825  1.00 20.00     0.167 C 
HETATM    4  C4  UNL     1     -36.002  14.925  -3.607  1.00 20.00     0.172 C 
HETATM    5  C5  UNL     1     -34.909  15.292  -2.600  1.00 20.00     0.010 C 
HETATM    6  O8  UNL     1     -35.796  13.607  -4.120  1.00 20.00    -0.391 OA
ENDROOT
BRANCH   5   7
HETATM    7  C6  UNL     1     -35.113  16.700  -2.054  1.00 20.00     0.017 C 
BRANCH   7   8
HETATM    8  C7  UNL     1     -34.628  16.805  -0.621  1.00 20.00     0.085 C 
HETATM    9 BR9  UNL     1     -33.316  18.236  -0.477  1.00 20.00    -0.096 Br
ENDBRANCH   7   8
ENDBRANCH   5   7
TORSDOF 2
ENDMDL
MODEL 4
REMARK VINA RESULT:      -4.0     11.089     12.290
REMARK  2 active torsions:
REMARK  status: ('A' for Active; 'I' for Inactive)
REMARK    1  A    between atoms: C5_5  and  C6_6 
REMARK    2  A    between atoms: C6_6  and  C7_7 
ROOT
HETATM    1  C1  UNL     1     -34.406  14.846  -6.166  1.00 20.00     0.027 C 
HETATM    2  C2  UNL     1     -34.317  15.861  -5.032  1.00 20.00     0.009 C 
HETATM    3  C3  UNL     1     -34.916  13.506  -5.651  1.00 20.00     0.167 C 
HETATM    4  C4  UNL     1     -34.099  13.912  -3.464  1.00 20.00     0.172 C 
HETATM    5  C5  UNL     1     -33.533  15.281  -3.849  1.00 20.00     0.010 C 
HETATM    6  O8  UNL     1     -34.094  13.029  -4.587  1.00 20.00    -0.391 OA
ENDROOT
BRANCH   5   7
HETATM    7  C6  UNL     1     -33.543  16.236  -2.660  1.00 20.00     0.017 C 
BRANCH   7   8
HETATM    8  C7  UNL     1     -34.867  16.171  -1.922  1.00 20.00     0.085 C 
HETATM    9 BR9  UNL     1     -34.733  17.164  -0.251  1.00 20.00    -0.096 Br
ENDBRANCH   7   8
ENDBRANCH   5   7
TORSDOF 2
ENDMDL
MODEL 5
REMARK VINA RESULT:      -3.8     11.638     12.559
REMARK  2 active torsions:
REMARK  status: ('A' for Active; 'I' for Inactive)
REMARK    1  A    between atoms: C5_5  and  C6_6 
REMARK    2  A    between atoms: C6_6  and  C7_7 
ROOT
HETATM    1  C1  UNL     1     -33.952  17.839  -0.044  1.00 20.00     0.027 C 
HETATM    2  C2  UNL     1     -34.643  16.667  -0.734  1.00 20.00     0.009 C 
HETATM    3  C3  UNL     1     -33.956  19.069  -0.942  1.00 20.00     0.167 C 
HETATM    4  C4  UNL     1     -34.063  17.763  -2.917  1.00 20.00     0.172 C 
HETATM    5  C5  UNL     1     -34.062  16.447  -2.136  1.00 20.00     0.010 C 
HETATM    6  O8  UNL     1     -33.353  18.777  -2.202  1.00 20.00    -0.391 OA
ENDROOT
BRANCH   5   7
HETATM    7  C6  UNL     1     -34.826  15.361  -2.884  1.00 20.00     0.017 C 
BRANCH   7   8
HETATM    8  C7  UNL     1     -33.883  14.296  -3.410  1.00 20.00     0.085 C 
HETATM    9 BR9  UNL     1     -34.722  13.357  -4.897  1.00 20.00    -0.096 Br
ENDBRANCH   7   8
ENDBRANCH   5   7
TORSDOF 2
ENDMDL
MODEL 6
REMARK VINA RESULT:      -3.6     11.519     12.273
REMARK  2 active torsions:
REMARK  status: ('A' for Active; 'I' for Inactive)
REMARK    1  A    between atoms: C5_5  and  C6_6 
REMARK    2  A    between atoms: C6_6  and  C7_7 
ROOT
HETATM    1  C1  UNL     1     -33.798  13.517  -4.110  1.00 20.00     0.027 C 
HETATM    2  C2  UNL     1     -33.310  14.867  -3.594  1.00 20.00     0.009 C 
HETATM    3  C3  UNL     1     -35.188  13.643  -4.718  1.00 20.00     0.167 C 
HETATM    4  C4  UNL     1     -35.725  15.521  -3.376  1.00 20.00     0.172 C 
HETATM    5  C5  UNL     1     -34.362  15.507  -2.679  1.00 20.00     0.010 C 
HETATM    6  O8  UNL     1     -36.102  14.203  -3.776  1.00 20.00    -0.391 OA
ENDROOT
BRANCH   5   7
HETATM    7  C6  UNL     1     -33.944  16.910  -2.257  1.00 20.00     0.017 C 
BRANCH   7   8
HETATM    8  C7  UNL     1     -34.740  17.963  -3.004  1.00 20.00     0.085 C 
HETATM    9 BR9  UNL     1     -33.727  18.574  -4.551  1.00 20.00    -0.096 Br
ENDBRANCH   7   8
ENDBRANCH   5   7
TORSDOF 2
ENDMDL
MODEL 7
REMARK VINA RESULT:      -3.6      9.827     10.958
REMARK  2 active torsions:
REMARK  status: ('A' for Active; 'I' for Inactive)
REMARK    1  A    between atoms: C5_5  and  C6_6 
REMARK    2  A    between atoms: C6_6  and  C7_7 
ROOT
HETATM    1  C1  UNL     1     -40.807   5.484  -0.341  1.00 20.00     0.027 C 
HETATM    2  C2  UNL     1     -41.906   4.518  -0.769  1.00 20.00     0.009 C 
HETATM    3  C3  UNL     1     -41.093   6.888  -0.858  1.00 20.00     0.167 C 
HETATM    4  C4  UNL     1     -42.364   6.075  -2.685  1.00 20.00     0.172 C 
HETATM    5  C5  UNL     1     -42.151   4.614  -2.280  1.00 20.00     0.010 C 
HETATM    6  O8  UNL     1     -41.257   6.880  -2.275  1.00 20.00    -0.391 OA
ENDROOT
BRANCH   5   7
HETATM    7  C6  UNL     1     -43.331   3.748  -2.703  1.00 20.00     0.017 C 
BRANCH   7   8
HETATM    8  C7  UNL     1     -42.992   2.273  -2.593  1.00 20.00     0.085 C 
HETATM    9 BR9  UNL     1     -41.515   1.851  -3.791  1.00 20.00    -0.096 Br
ENDBRANCH   7   8
ENDBRANCH   5   7
TORSDOF 2
ENDMDL
MODEL 8
REMARK VINA RESULT:      -3.6      9.692     10.516
REMARK  2 active torsions:
REMARK  status: ('A' for Active; 'I' for Inactive)
REMARK    1  A    between atoms: C5_5  and  C6_6 
REMARK    2  A    between atoms: C6_6  and  C7_7 
ROOT
HETATM    1  C1  UNL     1     -40.742   5.874  -0.164  1.00 20.00     0.027 C 
HETATM    2  C2  UNL     1     -41.166   7.111  -0.949  1.00 20.00     0.009 C 
HETATM    3  C3  UNL     1     -40.743   4.642  -1.059  1.00 20.00     0.167 C 
HETATM    4  C4  UNL     1     -42.378   5.560  -2.508  1.00 20.00     0.172 C 
HETATM    5  C5  UNL     1     -42.481   6.853  -1.695  1.00 20.00     0.010 C 
HETATM    6  O8  UNL     1     -42.020   4.461  -1.669  1.00 20.00    -0.391 OA
ENDROOT
BRANCH   5   7
HETATM    7  C6  UNL     1     -42.852   8.035  -2.583  1.00 20.00     0.017 C 
BRANCH   7   8
HETATM    8  C7  UNL     1     -42.856   7.636  -4.046  1.00 20.00     0.085 C 
HETATM    9 BR9  UNL     1     -42.113   9.082  -5.120  1.00 20.00    -0.096 Br
ENDBRANCH   7   8
ENDBRANCH   5   7
TORSDOF 2
ENDMDL
MODEL 9
REMARK VINA RESULT:      -3.6     11.718     12.776
REMARK  2 active torsions:
REMARK  status: ('A' for Active; 'I' for Inactive)
REMARK    1  A    between atoms: C5_5  and  C6_6 
REMARK    2  A    between atoms: C6_6  and  C7_7 
ROOT
HETATM    1  C1  UNL     1     -33.342  16.470  -5.183  1.00 20.00     0.027 C 
HETATM    2  C2  UNL     1     -33.800  17.010  -3.833  1.00 20.00     0.009 C 
HETATM    3  C3  UNL     1     -34.209  15.295  -5.616  1.00 20.00     0.167 C 
HETATM    4  C4  UNL     1     -34.754  14.732  -3.380  1.00 20.00     0.172 C 
HETATM    5  C5  UNL     1     -33.912  15.875  -2.807  1.00 20.00     0.010 C 
HETATM    6  O8  UNL     1     -34.211  14.274  -4.620  1.00 20.00    -0.391 OA
ENDROOT
BRANCH   5   7
HETATM    7  C6  UNL     1     -34.490  16.378  -1.490  1.00 20.00     0.017 C 
BRANCH   7   8
HETATM    8  C7  UNL     1     -34.475  17.894  -1.433  1.00 20.00     0.085 C 
HETATM    9 BR9  UNL     1     -33.019  18.491  -0.286  1.00 20.00    -0.096 Br
ENDBRANCH   7   8
ENDBRANCH   5   7
TORSDOF 2
ENDMDL
