MODEL 1
REMARK VINA RESULT:      -5.5      0.000      0.000
REMARK  4 active torsions:
REMARK  status: ('A' for Active; 'I' for Inactive)
REMARK    1  A    between atoms: C3_3  and  C4_4 
REMARK    2  A    between atoms: C4_4  and  C5_5 
REMARK    3  A    between atoms: C5_5  and  C6_6 
REMARK    4  A    between atoms: C5_5  and  O7_7 
ROOT
HETATM    1  C5  UNL     1     -34.518   5.166   4.661  1.00 20.00     0.226 C 
ENDROOT
BRANCH   1   2
HETATM    2  C4  UNL     1     -34.084   6.501   4.053  1.00 20.00     0.045 C 
BRANCH   2   3
HETATM    3  C3  UNL     1     -32.729   6.415   3.413  1.00 20.00    -0.012 A 
HETATM    4  C1  UNL     1     -32.273   7.484   2.459  1.00 20.00     0.005 A 
HETATM    5  C2  UNL     1     -31.639   7.369   3.818  1.00 20.00     0.005 A 
ENDBRANCH   2   3
ENDBRANCH   1   2
BRANCH   1   6
HETATM    6  C6  UNL     1     -34.514   5.213   6.176  1.00 20.00     0.413 C 
HETATM    7  F8  UNL     1     -34.190   6.441   6.634  1.00 20.00    -0.168 F 
HETATM    8  F9  UNL     1     -33.627   4.332   6.688  1.00 20.00    -0.168 F 
HETATM    9  F10 UNL     1     -35.731   4.894   6.669  1.00 20.00    -0.168 F 
ENDBRANCH   1   6
BRANCH   1  10
HETATM   10  O7  UNL     1     -35.842   4.871   4.221  1.00 20.00    -0.387 OA
HETATM   11  H19 UNL     1     -36.014   5.447   3.460  1.00 20.00     0.210 HD
ENDBRANCH   1  10
TORSDOF 4
ENDMDL
MODEL 2
REMARK VINA RESULT:      -5.3      1.559      1.842
REMARK  4 active torsions:
REMARK  status: ('A' for Active; 'I' for Inactive)
REMARK    1  A    between atoms: C3_3  and  C4_4 
REMARK    2  A    between atoms: C4_4  and  C5_5 
REMARK    3  A    between atoms: C5_5  and  C6_6 
REMARK    4  A    between atoms: C5_5  and  O7_7 
ROOT
HETATM    1  C5  UNL     1     -34.826   5.797   5.513  1.00 20.00     0.226 C 
ENDROOT
BRANCH   1   2
HETATM    2  C4  UNL     1     -34.410   6.154   4.084  1.00 20.00     0.045 C 
BRANCH   2   3
HETATM    3  C3  UNL     1     -32.963   6.545   3.999  1.00 20.00    -0.012 A 
HETATM    4  C1  UNL     1     -32.050   5.862   3.019  1.00 20.00     0.005 A 
HETATM    5  C2  UNL     1     -32.451   7.295   2.801  1.00 20.00     0.005 A 
ENDBRANCH   2   3
ENDBRANCH   1   2
BRANCH   1   6
HETATM    6  C6  UNL     1     -34.835   4.298   5.735  1.00 20.00     0.413 C 
HETATM    7  F8  UNL     1     -35.719   3.942   6.690  1.00 20.00    -0.168 F 
HETATM    8  F9  UNL     1     -33.616   3.855   6.113  1.00 20.00    -0.168 F 
HETATM    9  F10 UNL     1     -35.168   3.647   4.599  1.00 20.00    -0.168 F 
ENDBRANCH   1   6
BRANCH   1  10
HETATM   10  O7  UNL     1     -33.896   6.384   6.421  1.00 20.00    -0.387 OA
HETATM   11  H19 UNL     1     -33.195   6.779   5.881  1.00 20.00     0.210 HD
ENDBRANCH   1  10
TORSDOF 4
ENDMDL
MODEL 3
REMARK VINA RESULT:      -5.1      2.689      4.144
REMARK  4 active torsions:
REMARK  status: ('A' for Active; 'I' for Inactive)
REMARK    1  A    between atoms: C3_3  and  C4_4 
REMARK    2  A    between atoms: C4_4  and  C5_5 
REMARK    3  A    between atoms: C5_5  and  C6_6 
REMARK    4  A    between atoms: C5_5  and  O7_7 
ROOT
HETATM    1  C5  UNL     1     -33.733   6.565   3.544  1.00 20.00     0.226 C 
ENDROOT
BRANCH   1   2
HETATM    2  C4  UNL     1     -33.905   6.203   5.021  1.00 20.00     0.045 C 
BRANCH   2   3
HETATM    3  C3  UNL     1     -35.000   5.198   5.232  1.00 20.00    -0.012 A 
HETATM    4  C1  UNL     1     -34.666   3.754   5.480  1.00 20.00     0.005 A 
HETATM    5  C2  UNL     1     -35.224   4.597   6.592  1.00 20.00     0.005 A 
ENDBRANCH   2   3
ENDBRANCH   1   2
BRANCH   1   6
HETATM    6  C6  UNL     1     -32.278   6.806   3.193  1.00 20.00     0.413 C 
HETATM    7  F8  UNL     1     -31.637   7.483   4.169  1.00 20.00    -0.168 F 
HETATM    8  F9  UNL     1     -32.166   7.519   2.052  1.00 20.00    -0.168 F 
HETATM    9  F10 UNL     1     -31.630   5.636   3.006  1.00 20.00    -0.168 F 
ENDBRANCH   1   6
BRANCH   1  10
HETATM   10  O7  UNL     1     -34.218   5.485   2.749  1.00 20.00    -0.387 OA
HETATM   11  H19 UNL     1     -34.597   4.838   3.363  1.00 20.00     0.210 HD
ENDBRANCH   1  10
TORSDOF 4
ENDMDL
MODEL 4
REMARK VINA RESULT:      -4.7      3.267      4.470
REMARK  4 active torsions:
REMARK  status: ('A' for Active; 'I' for Inactive)
REMARK    1  A    between atoms: C3_3  and  C4_4 
REMARK    2  A    between atoms: C4_4  and  C5_5 
REMARK    3  A    between atoms: C5_5  and  C6_6 
REMARK    4  A    between atoms: C5_5  and  O7_7 
ROOT
HETATM    1  C5  UNL     1     -32.881   6.453   2.835  1.00 20.00     0.226 C 
ENDROOT
BRANCH   1   2
HETATM    2  C4  UNL     1     -34.010   6.553   3.864  1.00 20.00     0.045 C 
BRANCH   2   3
HETATM    3  C3  UNL     1     -33.885   5.515   4.940  1.00 20.00    -0.012 A 
HETATM    4  C1  UNL     1     -34.418   5.787   6.320  1.00 20.00     0.005 A 
HETATM    5  C2  UNL     1     -35.105   4.786   5.433  1.00 20.00     0.005 A 
ENDBRANCH   2   3
ENDBRANCH   1   2
BRANCH   1   6
HETATM    6  C6  UNL     1     -32.187   7.786   2.635  1.00 20.00     0.413 C 
HETATM    7  F8  UNL     1     -31.502   7.820   1.472  1.00 20.00    -0.168 F 
HETATM    8  F9  UNL     1     -31.315   8.035   3.637  1.00 20.00    -0.168 F 
HETATM    9  F10 UNL     1     -33.084   8.796   2.618  1.00 20.00    -0.168 F 
ENDBRANCH   1   6
BRANCH   1  10
HETATM   10  O7  UNL     1     -31.920   5.508   3.301  1.00 20.00    -0.387 OA
HETATM   11  H19 UNL     1     -31.302   5.359   2.568  1.00 20.00     0.210 HD
ENDBRANCH   1  10
TORSDOF 4
ENDMDL
MODEL 5
REMARK VINA RESULT:      -4.7      1.446      1.555
REMARK  4 active torsions:
REMARK  status: ('A' for Active; 'I' for Inactive)
REMARK    1  A    between atoms: C3_3  and  C4_4 
REMARK    2  A    between atoms: C4_4  and  C5_5 
REMARK    3  A    between atoms: C5_5  and  C6_6 
REMARK    4  A    between atoms: C5_5  and  O7_7 
ROOT
HETATM    1  C5  UNL     1     -33.939   5.158   3.869  1.00 20.00     0.226 C 
ENDROOT
BRANCH   1   2
HETATM    2  C4  UNL     1     -33.308   6.521   4.165  1.00 20.00     0.045 C 
BRANCH   2   3
HETATM    3  C3  UNL     1     -32.112   6.788   3.300  1.00 20.00    -0.012 A 
HETATM    4  C1  UNL     1     -32.116   7.944   2.338  1.00 20.00     0.005 A 
HETATM    5  C2  UNL     1     -31.242   7.987   3.561  1.00 20.00     0.005 A 
ENDBRANCH   2   3
ENDBRANCH   1   2
BRANCH   1   6
HETATM    6  C6  UNL     1     -35.106   4.869   4.793  1.00 20.00     0.413 C 
HETATM    7  F8  UNL     1     -35.011   5.566   5.946  1.00 20.00    -0.168 F 
HETATM    8  F9  UNL     1     -35.165   3.557   5.106  1.00 20.00    -0.168 F 
HETATM    9  F10 UNL     1     -36.276   5.199   4.205  1.00 20.00    -0.168 F 
ENDBRANCH   1   6
BRANCH   1  10
HETATM   10  O7  UNL     1     -34.416   5.156   2.525  1.00 20.00    -0.387 OA
HETATM   11  H19 UNL     1     -35.262   4.684   2.533  1.00 20.00     0.210 HD
ENDBRANCH   1  10
TORSDOF 4
ENDMDL
MODEL 6
REMARK VINA RESULT:      -4.6     12.225     12.948
REMARK  4 active torsions:
REMARK  status: ('A' for Active; 'I' for Inactive)
REMARK    1  A    between atoms: C3_3  and  C4_4 
REMARK    2  A    between atoms: C4_4  and  C5_5 
REMARK    3  A    between atoms: C5_5  and  C6_6 
REMARK    4  A    between atoms: C5_5  and  O7_7 
ROOT
HETATM    1  C5  UNL     1     -33.002  15.480  -3.723  1.00 20.00     0.226 C 
ENDROOT
BRANCH   1   2
HETATM    2  C4  UNL     1     -34.022  16.443  -3.110  1.00 20.00     0.045 C 
BRANCH   2   3
HETATM    3  C3  UNL     1     -33.680  16.800  -1.694  1.00 20.00    -0.012 A 
HETATM    4  C1  UNL     1     -34.212  18.067  -1.083  1.00 20.00     0.005 A 
HETATM    5  C2  UNL     1     -34.733  16.734  -0.621  1.00 20.00     0.005 A 
ENDBRANCH   2   3
ENDBRANCH   1   2
BRANCH   1   6
HETATM    6  C6  UNL     1     -33.585  14.093  -3.912  1.00 20.00     0.413 C 
HETATM    7  F8  UNL     1     -33.989  13.893  -5.184  1.00 20.00    -0.168 F 
HETATM    8  F9  UNL     1     -34.650  13.900  -3.104  1.00 20.00    -0.168 F 
HETATM    9  F10 UNL     1     -32.672  13.144  -3.612  1.00 20.00    -0.168 F 
ENDBRANCH   1   6
BRANCH   1  10
HETATM   10  O7  UNL     1     -32.606  15.982  -4.997  1.00 20.00    -0.387 OA
HETATM   11  H19 UNL     1     -33.127  16.785  -5.152  1.00 20.00     0.210 HD
ENDBRANCH   1  10
TORSDOF 4
ENDMDL
MODEL 7
REMARK VINA RESULT:      -4.6     12.211     12.892
REMARK  4 active torsions:
REMARK  status: ('A' for Active; 'I' for Inactive)
REMARK    1  A    between atoms: C3_3  and  C4_4 
REMARK    2  A    between atoms: C4_4  and  C5_5 
REMARK    3  A    between atoms: C5_5  and  C6_6 
REMARK    4  A    between atoms: C5_5  and  O7_7 
ROOT
HETATM    1  C5  UNL     1     -33.020  15.466  -3.689  1.00 20.00     0.226 C 
ENDROOT
BRANCH   1   2
HETATM    2  C4  UNL     1     -34.041  16.403  -3.040  1.00 20.00     0.045 C 
BRANCH   2   3
HETATM    3  C3  UNL     1     -33.700  16.704  -1.610  1.00 20.00    -0.012 A 
HETATM    4  C1  UNL     1     -34.025  18.048  -1.020  1.00 20.00     0.005 A 
HETATM    5  C2  UNL     1     -34.791  16.830  -0.582  1.00 20.00     0.005 A 
ENDBRANCH   2   3
ENDBRANCH   1   2
BRANCH   1   6
HETATM    6  C6  UNL     1     -33.588  14.075  -3.894  1.00 20.00     0.413 C 
HETATM    7  F8  UNL     1     -34.665  13.858  -3.109  1.00 20.00    -0.168 F 
HETATM    8  F9  UNL     1     -32.670  13.127  -3.607  1.00 20.00    -0.168 F 
HETATM    9  F10 UNL     1     -33.968  13.896  -5.178  1.00 20.00    -0.168 F 
ENDBRANCH   1   6
BRANCH   1  10
HETATM   10  O7  UNL     1     -32.655  15.996  -4.961  1.00 20.00    -0.387 OA
HETATM   11  H19 UNL     1     -33.398  16.545  -5.255  1.00 20.00     0.210 HD
ENDBRANCH   1  10
TORSDOF 4
ENDMDL
MODEL 8
REMARK VINA RESULT:      -4.5     12.006     13.290
REMARK  4 active torsions:
REMARK  status: ('A' for Active; 'I' for Inactive)
REMARK    1  A    between atoms: C3_3  and  C4_4 
REMARK    2  A    between atoms: C4_4  and  C5_5 
REMARK    3  A    between atoms: C5_5  and  C6_6 
REMARK    4  A    between atoms: C5_5  and  O7_7 
ROOT
HETATM    1  C5  UNL     1     -34.493  13.437  -4.846  1.00 20.00     0.226 C 
ENDROOT
BRANCH   1   2
HETATM    2  C4  UNL     1     -35.375  14.454  -5.574  1.00 20.00     0.045 C 
BRANCH   2   3
HETATM    3  C3  UNL     1     -34.838  14.794  -6.934  1.00 20.00    -0.012 A 
HETATM    4  C1  UNL     1     -35.689  15.548  -7.917  1.00 20.00     0.005 A 
HETATM    5  C2  UNL     1     -34.503  16.218  -7.281  1.00 20.00     0.005 A 
ENDBRANCH   2   3
ENDBRANCH   1   2
BRANCH   1   6
HETATM    6  C6  UNL     1     -33.581  14.108  -3.838  1.00 20.00     0.413 C 
HETATM    7  F8  UNL     1     -33.003  15.215  -4.351  1.00 20.00    -0.168 F 
HETATM    8  F9  UNL     1     -32.596  13.273  -3.442  1.00 20.00    -0.168 F 
HETATM    9  F10 UNL     1     -34.270  14.474  -2.736  1.00 20.00    -0.168 F 
ENDBRANCH   1   6
BRANCH   1  10
HETATM   10  O7  UNL     1     -35.332  12.516  -4.153  1.00 20.00    -0.387 OA
HETATM   11  H19 UNL     1     -35.999  13.045  -3.690  1.00 20.00     0.210 HD
ENDBRANCH   1  10
TORSDOF 4
ENDMDL
MODEL 9
REMARK VINA RESULT:      -4.4     12.750     13.289
REMARK  4 active torsions:
REMARK  status: ('A' for Active; 'I' for Inactive)
REMARK    1  A    between atoms: C3_3  and  C4_4 
REMARK    2  A    between atoms: C4_4  and  C5_5 
REMARK    3  A    between atoms: C5_5  and  C6_6 
REMARK    4  A    between atoms: C5_5  and  O7_7 
ROOT
HETATM    1  C5  UNL     1     -35.354  14.040  -4.152  1.00 20.00     0.226 C 
ENDROOT
BRANCH   1   2
HETATM    2  C4  UNL     1     -34.398  14.648  -3.123  1.00 20.00     0.045 C 
BRANCH   2   3
HETATM    3  C3  UNL     1     -34.878  15.980  -2.625  1.00 20.00    -0.012 A 
HETATM    4  C1  UNL     1     -34.607  16.401  -1.207  1.00 20.00     0.005 A 
HETATM    5  C2  UNL     1     -33.894  17.082  -2.343  1.00 20.00     0.005 A 
ENDBRANCH   2   3
ENDBRANCH   1   2
BRANCH   1   6
HETATM    6  C6  UNL     1     -35.126  14.615  -5.536  1.00 20.00     0.413 C 
HETATM    7  F8  UNL     1     -35.300  13.682  -6.496  1.00 20.00    -0.168 F 
HETATM    8  F9  UNL     1     -33.873  15.106  -5.657  1.00 20.00    -0.168 F 
HETATM    9  F10 UNL     1     -35.984  15.629  -5.782  1.00 20.00    -0.168 F 
ENDBRANCH   1   6
BRANCH   1  10
HETATM   10  O7  UNL     1     -35.135  12.632  -4.205  1.00 20.00    -0.387 OA
HETATM   11  H19 UNL     1     -34.199  12.490  -3.998  1.00 20.00     0.210 HD
ENDBRANCH   1  10
TORSDOF 4
ENDMDL
