MODEL 1
REMARK VINA RESULT:      -4.6      0.000      0.000
REMARK  2 active torsions:
REMARK  status: ('A' for Active; 'I' for Inactive)
REMARK    1  A    between atoms: C3_3  and  C9_9 
REMARK    2  A    between atoms: C9_9  and  C10_10 
ROOT
HETATM    1  C1  UNL     1     -34.418  13.794  -3.418  1.00 20.00     0.006 C 
HETATM    2  C2  UNL     1     -34.319  13.459  -4.898  1.00 20.00     0.016 C 
HETATM    3  C3  UNL     1     -34.521  15.318  -3.430  1.00 20.00    -0.009 C 
HETATM    4  C4  UNL     1     -35.443  15.632  -4.634  1.00 20.00    -0.000 C 
HETATM    5  C5  UNL     1     -35.341  14.387  -5.539  1.00 20.00     0.062 C 
HETATM    6  C6  UNL     1     -36.904  15.905  -4.275  1.00 20.00     0.011 C 
HETATM    7 BR11 UNL     1     -34.793  14.864  -7.342  1.00 20.00    -0.091 Br
ENDROOT
BRANCH   3   8
HETATM    8  C9  UNL     1     -34.932  15.888  -2.081  1.00 20.00     0.009 C 
BRANCH   8   9
HETATM    9  C10 UNL     1     -33.931  16.907  -1.520  1.00 20.00    -0.022 C 
HETATM   10  C7  UNL     1     -33.716  18.095  -2.460  1.00 20.00     0.009 C 
HETATM   11  C8  UNL     1     -34.417  17.408  -0.158  1.00 20.00     0.009 C 
ENDBRANCH   8   9
ENDBRANCH   3   8
TORSDOF 2
ENDMDL
MODEL 2
REMARK VINA RESULT:      -4.6      1.359      2.259
REMARK  2 active torsions:
REMARK  status: ('A' for Active; 'I' for Inactive)
REMARK    1  A    between atoms: C3_3  and  C9_9 
REMARK    2  A    between atoms: C9_9  and  C10_10 
ROOT
HETATM    1  C1  UNL     1     -33.409  16.402  -5.158  1.00 20.00     0.006 C 
HETATM    2  C2  UNL     1     -33.970  16.276  -6.565  1.00 20.00     0.016 C 
HETATM    3  C3  UNL     1     -34.504  15.762  -4.306  1.00 20.00    -0.009 C 
HETATM    4  C4  UNL     1     -34.973  14.542  -5.136  1.00 20.00    -0.000 C 
HETATM    5  C5  UNL     1     -34.562  14.873  -6.585  1.00 20.00     0.062 C 
HETATM    6  C6  UNL     1     -34.373  13.202  -4.710  1.00 20.00     0.011 C 
HETATM    7 BR11 UNL     1     -36.084  14.792  -7.792  1.00 20.00    -0.091 Br
ENDROOT
BRANCH   3   8
HETATM    8  C9  UNL     1     -34.053  15.492  -2.879  1.00 20.00     0.009 C 
BRANCH   8   9
HETATM    9  C10 UNL     1     -34.865  16.261  -1.828  1.00 20.00    -0.022 C 
HETATM   10  C7  UNL     1     -33.994  17.190  -0.980  1.00 20.00     0.009 C 
HETATM   11  C8  UNL     1     -35.964  17.072  -2.519  1.00 20.00     0.009 C 
ENDBRANCH   8   9
ENDBRANCH   3   8
TORSDOF 2
ENDMDL
MODEL 3
REMARK VINA RESULT:      -4.4      1.372      2.312
REMARK  2 active torsions:
REMARK  status: ('A' for Active; 'I' for Inactive)
REMARK    1  A    between atoms: C3_3  and  C9_9 
REMARK    2  A    between atoms: C9_9  and  C10_10 
ROOT
HETATM    1  C1  UNL     1     -33.379  17.019  -4.741  1.00 20.00     0.006 C 
HETATM    2  C2  UNL     1     -33.927  16.613  -6.099  1.00 20.00     0.016 C 
HETATM    3  C3  UNL     1     -34.326  16.310  -3.775  1.00 20.00    -0.009 C 
HETATM    4  C4  UNL     1     -34.577  14.929  -4.427  1.00 20.00    -0.000 C 
HETATM    5  C5  UNL     1     -34.253  15.136  -5.921  1.00 20.00     0.062 C 
HETATM    6  C6  UNL     1     -33.737  13.784  -3.858  1.00 20.00     0.011 C 
HETATM    7 BR11 UNL     1     -35.751  14.626  -7.049  1.00 20.00    -0.091 Br
ENDROOT
BRANCH   3   8
HETATM    8  C9  UNL     1     -33.814  16.314  -2.343  1.00 20.00     0.009 C 
BRANCH   8   9
HETATM    9  C10 UNL     1     -34.364  17.475  -1.502  1.00 20.00    -0.022 C 
HETATM   10  C7  UNL     1     -34.828  17.025  -0.116  1.00 20.00     0.009 C 
HETATM   11  C8  UNL     1     -33.293  18.559  -1.362  1.00 20.00     0.009 C 
ENDBRANCH   8   9
ENDBRANCH   3   8
TORSDOF 2
ENDMDL
MODEL 4
REMARK VINA RESULT:      -4.3      3.531      5.715
REMARK  2 active torsions:
REMARK  status: ('A' for Active; 'I' for Inactive)
REMARK    1  A    between atoms: C3_3  and  C9_9 
REMARK    2  A    between atoms: C9_9  and  C10_10 
ROOT
HETATM    1  C1  UNL     1     -32.954  18.411  -0.463  1.00 20.00     0.006 C 
HETATM    2  C2  UNL     1     -33.247  18.643   1.011  1.00 20.00     0.016 C 
HETATM    3  C3  UNL     1     -33.893  17.257  -0.810  1.00 20.00    -0.009 C 
HETATM    4  C4  UNL     1     -35.200  17.581  -0.045  1.00 20.00    -0.000 C 
HETATM    5  C5  UNL     1     -34.763  18.529   1.092  1.00 20.00     0.062 C 
HETATM    6  C6  UNL     1     -36.295  18.237  -0.887  1.00 20.00     0.011 C 
HETATM    7 BR11 UNL     1     -35.304  17.847   2.830  1.00 20.00    -0.091 Br
ENDROOT
BRANCH   3   8
HETATM    8  C9  UNL     1     -34.011  17.028  -2.309  1.00 20.00     0.009 C 
BRANCH   8   9
HETATM    9  C10 UNL     1     -34.206  15.552  -2.686  1.00 20.00    -0.022 C 
HETATM   10  C7  UNL     1     -35.585  15.280  -3.289  1.00 20.00     0.009 C 
HETATM   11  C8  UNL     1     -33.117  15.126  -3.673  1.00 20.00     0.009 C 
ENDBRANCH   8   9
ENDBRANCH   3   8
TORSDOF 2
ENDMDL
MODEL 5
REMARK VINA RESULT:      -4.3      2.060      2.269
REMARK  2 active torsions:
REMARK  status: ('A' for Active; 'I' for Inactive)
REMARK    1  A    between atoms: C3_3  and  C9_9 
REMARK    2  A    between atoms: C9_9  and  C10_10 
ROOT
HETATM    1  C1  UNL     1     -33.389  15.574  -3.394  1.00 20.00     0.006 C 
HETATM    2  C2  UNL     1     -33.090  16.190  -4.751  1.00 20.00     0.016 C 
HETATM    3  C3  UNL     1     -34.013  16.741  -2.631  1.00 20.00    -0.009 C 
HETATM    4  C4  UNL     1     -34.911  17.448  -3.677  1.00 20.00    -0.000 C 
HETATM    5  C5  UNL     1     -34.329  17.026  -5.042  1.00 20.00     0.062 C 
HETATM    6  C6  UNL     1     -36.395  17.088  -3.602  1.00 20.00     0.011 C 
HETATM    7 BR11 UNL     1     -33.871  18.572  -6.127  1.00 20.00    -0.091 Br
ENDROOT
BRANCH   3   8
HETATM    8  C9  UNL     1     -34.678  16.306  -1.335  1.00 20.00     0.009 C 
BRANCH   8   9
HETATM    9  C10 UNL     1     -34.448  17.283  -0.174  1.00 20.00    -0.022 C 
HETATM   10  C7  UNL     1     -33.268  18.223  -0.426  1.00 20.00     0.009 C 
HETATM   11  C8  UNL     1     -35.718  18.102   0.068  1.00 20.00     0.009 C 
ENDBRANCH   8   9
ENDBRANCH   3   8
TORSDOF 2
ENDMDL
MODEL 6
REMARK VINA RESULT:      -4.2      1.640      2.427
REMARK  2 active torsions:
REMARK  status: ('A' for Active; 'I' for Inactive)
REMARK    1  A    between atoms: C3_3  and  C9_9 
REMARK    2  A    between atoms: C9_9  and  C10_10 
ROOT
HETATM    1  C1  UNL     1     -35.927  16.454  -2.591  1.00 20.00     0.006 C 
HETATM    2  C2  UNL     1     -36.161  15.149  -3.335  1.00 20.00     0.016 C 
HETATM    3  C3  UNL     1     -34.411  16.462  -2.405  1.00 20.00    -0.009 C 
HETATM    4  C4  UNL     1     -33.857  15.910  -3.741  1.00 20.00    -0.000 C 
HETATM    5  C5  UNL     1     -35.029  15.115  -4.352  1.00 20.00     0.062 C 
HETATM    6  C6  UNL     1     -33.370  16.973  -4.727  1.00 20.00     0.011 C 
HETATM    7 BR11 UNL     1     -34.516  13.280  -4.740  1.00 20.00    -0.091 Br
ENDROOT
BRANCH   3   8
HETATM    8  C9  UNL     1     -33.884  17.813  -1.946  1.00 20.00     0.009 C 
BRANCH   8   9
HETATM    9  C10 UNL     1     -33.349  17.802  -0.507  1.00 20.00    -0.022 C 
HETATM   10  C7  UNL     1     -32.440  18.996  -0.212  1.00 20.00     0.009 C 
HETATM   11  C8  UNL     1     -34.522  17.789   0.476  1.00 20.00     0.009 C 
ENDBRANCH   8   9
ENDBRANCH   3   8
TORSDOF 2
ENDMDL
MODEL 7
REMARK VINA RESULT:      -4.1      1.878      2.654
REMARK  2 active torsions:
REMARK  status: ('A' for Active; 'I' for Inactive)
REMARK    1  A    between atoms: C3_3  and  C9_9 
REMARK    2  A    between atoms: C9_9  and  C10_10 
ROOT
HETATM    1  C1  UNL     1     -35.438  17.278  -4.226  1.00 20.00     0.006 C 
HETATM    2  C2  UNL     1     -36.828  16.896  -4.707  1.00 20.00     0.016 C 
HETATM    3  C3  UNL     1     -35.273  16.420  -2.972  1.00 20.00    -0.009 C 
HETATM    4  C4  UNL     1     -35.908  15.060  -3.351  1.00 20.00    -0.000 C 
HETATM    5  C5  UNL     1     -36.865  15.385  -4.516  1.00 20.00     0.062 C 
HETATM    6  C6  UNL     1     -34.913  13.978  -3.772  1.00 20.00     0.011 C 
HETATM    7 BR11 UNL     1     -38.676  14.790  -4.135  1.00 20.00    -0.091 Br
ENDROOT
BRANCH   3   8
HETATM    8  C9  UNL     1     -33.840  16.394  -2.464  1.00 20.00     0.009 C 
BRANCH   8   9
HETATM    9  C10 UNL     1     -33.632  17.219  -1.186  1.00 20.00    -0.022 C 
HETATM   10  C7  UNL     1     -33.424  18.706  -1.478  1.00 20.00     0.009 C 
HETATM   11  C8  UNL     1     -34.834  17.038  -0.256  1.00 20.00     0.009 C 
ENDBRANCH   8   9
ENDBRANCH   3   8
TORSDOF 2
ENDMDL
MODEL 8
REMARK VINA RESULT:      -4.1      2.979      4.843
REMARK  2 active torsions:
REMARK  status: ('A' for Active; 'I' for Inactive)
REMARK    1  A    between atoms: C3_3  and  C9_9 
REMARK    2  A    between atoms: C9_9  and  C10_10 
ROOT
HETATM    1  C1  UNL     1     -35.654  17.382  -4.351  1.00 20.00     0.006 C 
HETATM    2  C2  UNL     1     -36.013  17.511  -2.879  1.00 20.00     0.016 C 
HETATM    3  C3  UNL     1     -34.134  17.243  -4.311  1.00 20.00    -0.009 C 
HETATM    4  C4  UNL     1     -33.863  16.332  -3.088  1.00 20.00    -0.000 C 
HETATM    5  C5  UNL     1     -35.121  16.476  -2.206  1.00 20.00     0.062 C 
HETATM    6  C6  UNL     1     -33.618  14.860  -3.422  1.00 20.00     0.011 C 
HETATM    7 BR11 UNL     1     -34.662  17.039  -0.403  1.00 20.00    -0.091 Br
ENDROOT
BRANCH   3   8
HETATM    8  C9  UNL     1     -33.551  16.799  -5.643  1.00 20.00     0.009 C 
BRANCH   8   9
HETATM    9  C10 UNL     1     -34.618  16.447  -6.689  1.00 20.00    -0.022 C 
HETATM   10  C7  UNL     1     -34.581  17.381  -7.900  1.00 20.00     0.009 C 
HETATM   11  C8  UNL     1     -34.431  14.999  -7.147  1.00 20.00     0.009 C 
ENDBRANCH   8   9
ENDBRANCH   3   8
TORSDOF 2
ENDMDL
MODEL 9
REMARK VINA RESULT:      -4.1      1.280      2.087
REMARK  2 active torsions:
REMARK  status: ('A' for Active; 'I' for Inactive)
REMARK    1  A    between atoms: C3_3  and  C9_9 
REMARK    2  A    between atoms: C9_9  and  C10_10 
ROOT
HETATM    1  C1  UNL     1     -35.999  15.849  -3.334  1.00 20.00     0.006 C 
HETATM    2  C2  UNL     1     -36.473  15.282  -4.663  1.00 20.00     0.016 C 
HETATM    3  C3  UNL     1     -34.487  15.642  -3.406  1.00 20.00    -0.009 C 
HETATM    4  C4  UNL     1     -34.123  15.979  -4.872  1.00 20.00    -0.000 C 
HETATM    5  C5  UNL     1     -35.439  15.798  -5.655  1.00 20.00     0.062 C 
HETATM    6  C6  UNL     1     -33.568  17.387  -5.093  1.00 20.00     0.011 C 
HETATM    7 BR11 UNL     1     -35.223  14.546  -7.127  1.00 20.00    -0.091 Br
ENDROOT
BRANCH   3   8
HETATM    8  C9  UNL     1     -33.740  16.399  -2.319  1.00 20.00     0.009 C 
BRANCH   8   9
HETATM    9  C10 UNL     1     -34.619  17.407  -1.564  1.00 20.00    -0.022 C 
HETATM   10  C7  UNL     1     -34.795  17.040  -0.090  1.00 20.00     0.009 C 
HETATM   11  C8  UNL     1     -34.010  18.807  -1.680  1.00 20.00     0.009 C 
ENDBRANCH   8   9
ENDBRANCH   3   8
TORSDOF 2
ENDMDL
