MODEL 1
REMARK VINA RESULT:      -5.4      0.000      0.000
REMARK  2 active torsions:
REMARK  status: ('A' for Active; 'I' for Inactive)
REMARK    1  A    between atoms: C2_2  and  C10_10 
REMARK    2  A    between atoms: C7_7  and  C10_10 
ROOT
HETATM    1  C1  UNL     1     -32.192   8.449   1.544  1.00 20.00    -0.111 C 
HETATM    2  C2  UNL     1     -32.133   7.915   2.618  1.00 20.00    -0.107 C 
HETATM    3  C8  UNL     1     -32.263   9.099   0.236  1.00 20.00     0.112 C 
ENDROOT
BRANCH   2   4
HETATM    4  C10 UNL     1     -32.059   7.276   3.934  1.00 20.00     0.099 C 
BRANCH   4   5
HETATM    5  C7  UNL     1     -33.040   6.118   4.029  1.00 20.00     0.008 C 
HETATM    6  C5  UNL     1     -34.352   6.398   3.291  1.00 20.00     0.013 C 
HETATM    7  C4  UNL     1     -35.295   5.303   3.771  1.00 20.00     0.079 C 
HETATM    8  C3  UNL     1     -34.820   5.075   5.182  1.00 20.00     0.131 C 
HETATM    9  C6  UNL     1     -33.478   5.728   5.455  1.00 20.00     0.056 C 
HETATM   10  O11 UNL     1     -35.447   4.428   6.011  1.00 20.00    -0.298 OA
HETATM   11  C9  UNL     1     -33.659   6.877   6.436  1.00 20.00     0.018 C 
ENDBRANCH   4   5
ENDBRANCH   2   4
TORSDOF 2
ENDMDL
MODEL 2
REMARK VINA RESULT:      -5.2     10.700     11.670
REMARK  2 active torsions:
REMARK  status: ('A' for Active; 'I' for Inactive)
REMARK    1  A    between atoms: C2_2  and  C10_10 
REMARK    2  A    between atoms: C7_7  and  C10_10 
ROOT
HETATM    1  C1  UNL     1     -34.994  17.349   0.372  1.00 20.00    -0.111 C 
HETATM    2  C2  UNL     1     -34.765  17.171  -0.794  1.00 20.00    -0.107 C 
HETATM    3  C8  UNL     1     -35.273  17.565   1.792  1.00 20.00     0.112 C 
ENDROOT
BRANCH   2   4
HETATM    4  C10 UNL     1     -34.495  16.965  -2.218  1.00 20.00     0.099 C 
BRANCH   4   5
HETATM    5  C7  UNL     1     -34.246  15.494  -2.515  1.00 20.00     0.008 C 
HETATM    6  C5  UNL     1     -33.012  15.274  -3.394  1.00 20.00     0.013 C 
HETATM    7  C4  UNL     1     -33.122  13.824  -3.843  1.00 20.00     0.079 C 
HETATM    8  C3  UNL     1     -34.615  13.632  -3.922  1.00 20.00     0.131 C 
HETATM    9  C6  UNL     1     -35.381  14.759  -3.256  1.00 20.00     0.056 C 
HETATM   10  O11 UNL     1     -35.146  12.669  -4.460  1.00 20.00    -0.298 OA
HETATM   11  C9  UNL     1     -36.122  15.567  -4.311  1.00 20.00     0.018 C 
ENDBRANCH   4   5
ENDBRANCH   2   4
TORSDOF 2
ENDMDL
MODEL 3
REMARK VINA RESULT:      -5.1     11.072     12.344
REMARK  2 active torsions:
REMARK  status: ('A' for Active; 'I' for Inactive)
REMARK    1  A    between atoms: C2_2  and  C10_10 
REMARK    2  A    between atoms: C7_7  and  C10_10 
ROOT
HETATM    1  C1  UNL     1     -34.644  16.975  -0.494  1.00 20.00    -0.111 C 
HETATM    2  C2  UNL     1     -34.140  16.606  -1.520  1.00 20.00    -0.107 C 
HETATM    3  C8  UNL     1     -35.257  17.425   0.755  1.00 20.00     0.112 C 
ENDROOT
BRANCH   2   4
HETATM    4  C10 UNL     1     -33.518  16.166  -2.771  1.00 20.00     0.099 C 
BRANCH   4   5
HETATM    5  C7  UNL     1     -34.448  15.244  -3.544  1.00 20.00     0.008 C 
HETATM    6  C5  UNL     1     -33.876  13.833  -3.703  1.00 20.00     0.013 C 
HETATM    7  C4  UNL     1     -34.764  13.182  -4.754  1.00 20.00     0.079 C 
HETATM    8  C3  UNL     1     -35.132  14.356  -5.624  1.00 20.00     0.131 C 
HETATM    9  C6  UNL     1     -34.784  15.686  -4.982  1.00 20.00     0.056 C 
HETATM   10  O11 UNL     1     -35.661  14.245  -6.723  1.00 20.00    -0.298 OA
HETATM   11  C9  UNL     1     -33.654  16.347  -5.759  1.00 20.00     0.018 C 
ENDBRANCH   4   5
ENDBRANCH   2   4
TORSDOF 2
ENDMDL
MODEL 4
REMARK VINA RESULT:      -5.0     11.474     12.411
REMARK  2 active torsions:
REMARK  status: ('A' for Active; 'I' for Inactive)
REMARK    1  A    between atoms: C2_2  and  C10_10 
REMARK    2  A    between atoms: C7_7  and  C10_10 
ROOT
HETATM    1  C1  UNL     1     -33.032  18.258  -0.289  1.00 20.00    -0.111 C 
HETATM    2  C2  UNL     1     -33.739  17.432  -0.800  1.00 20.00    -0.107 C 
HETATM    3  C8  UNL     1     -32.171  19.263   0.334  1.00 20.00     0.112 C 
ENDROOT
BRANCH   2   4
HETATM    4  C10 UNL     1     -34.611  16.431  -1.417  1.00 20.00     0.099 C 
BRANCH   4   5
HETATM    5  C7  UNL     1     -33.976  15.861  -2.676  1.00 20.00     0.008 C 
HETATM    6  C5  UNL     1     -33.677  16.939  -3.722  1.00 20.00     0.013 C 
HETATM    7  C4  UNL     1     -33.370  16.157  -4.991  1.00 20.00     0.079 C 
HETATM    8  C3  UNL     1     -34.255  14.948  -4.838  1.00 20.00     0.131 C 
HETATM    9  C6  UNL     1     -34.816  14.814  -3.434  1.00 20.00     0.056 C 
HETATM   10  O11 UNL     1     -34.488  14.160  -5.745  1.00 20.00    -0.298 OA
HETATM   11  C9  UNL     1     -36.318  15.055  -3.460  1.00 20.00     0.018 C 
ENDBRANCH   4   5
ENDBRANCH   2   4
TORSDOF 2
ENDMDL
MODEL 5
REMARK VINA RESULT:      -4.8     10.677     11.738
REMARK  2 active torsions:
REMARK  status: ('A' for Active; 'I' for Inactive)
REMARK    1  A    between atoms: C2_2  and  C10_10 
REMARK    2  A    between atoms: C7_7  and  C10_10 
ROOT
HETATM    1  C1  UNL     1     -34.524  17.178  -0.754  1.00 20.00    -0.111 C 
HETATM    2  C2  UNL     1     -34.127  17.018  -1.876  1.00 20.00    -0.107 C 
HETATM    3  C8  UNL     1     -35.009  17.372   0.612  1.00 20.00     0.112 C 
ENDROOT
BRANCH   2   4
HETATM    4  C10 UNL     1     -33.631  16.832  -3.241  1.00 20.00     0.099 C 
BRANCH   4   5
HETATM    5  C7  UNL     1     -34.493  15.834  -3.999  1.00 20.00     0.008 C 
HETATM    6  C5  UNL     1     -35.716  15.386  -3.194  1.00 20.00     0.013 C 
HETATM    7  C4  UNL     1     -36.247  14.180  -3.956  1.00 20.00     0.079 C 
HETATM    8  C3  UNL     1     -34.984  13.582  -4.518  1.00 20.00     0.131 C 
HETATM    9  C6  UNL     1     -33.797  14.520  -4.403  1.00 20.00     0.056 C 
HETATM   10  O11 UNL     1     -34.928  12.465  -5.018  1.00 20.00    -0.298 OA
HETATM   11  C9  UNL     1     -32.798  13.958  -3.402  1.00 20.00     0.018 C 
ENDBRANCH   4   5
ENDBRANCH   2   4
TORSDOF 2
ENDMDL
MODEL 6
REMARK VINA RESULT:      -4.4     11.966     13.297
REMARK  2 active torsions:
REMARK  status: ('A' for Active; 'I' for Inactive)
REMARK    1  A    between atoms: C2_2  and  C10_10 
REMARK    2  A    between atoms: C7_7  and  C10_10 
ROOT
HETATM    1  C1  UNL     1     -34.477  16.618  -1.139  1.00 20.00    -0.111 C 
HETATM    2  C2  UNL     1     -34.102  16.078  -2.144  1.00 20.00    -0.107 C 
HETATM    3  C8  UNL     1     -34.934  17.276   0.085  1.00 20.00     0.112 C 
ENDROOT
BRANCH   2   4
HETATM    4  C10 UNL     1     -33.632  15.422  -3.366  1.00 20.00     0.099 C 
BRANCH   4   5
HETATM    5  C7  UNL     1     -34.731  15.381  -4.416  1.00 20.00     0.008 C 
HETATM    6  C5  UNL     1     -34.507  14.280  -5.457  1.00 20.00     0.013 C 
HETATM    7  C4  UNL     1     -35.492  14.607  -6.570  1.00 20.00     0.079 C 
HETATM    8  C3  UNL     1     -35.545  16.112  -6.511  1.00 20.00     0.131 C 
HETATM    9  C6  UNL     1     -34.909  16.665  -5.249  1.00 20.00     0.056 C 
HETATM   10  O11 UNL     1     -36.051  16.806  -7.383  1.00 20.00    -0.298 OA
HETATM   11  C9  UNL     1     -33.632  17.412  -5.606  1.00 20.00     0.018 C 
ENDBRANCH   4   5
ENDBRANCH   2   4
TORSDOF 2
ENDMDL
MODEL 7
REMARK VINA RESULT:      -4.4      9.620     10.841
REMARK  2 active torsions:
REMARK  status: ('A' for Active; 'I' for Inactive)
REMARK    1  A    between atoms: C2_2  and  C10_10 
REMARK    2  A    between atoms: C7_7  and  C10_10 
ROOT
HETATM    1  C1  UNL     1     -42.358   9.354  -4.934  1.00 20.00    -0.111 C 
HETATM    2  C2  UNL     1     -42.732   8.389  -4.325  1.00 20.00    -0.107 C 
HETATM    3  C8  UNL     1     -41.902  10.529  -5.676  1.00 20.00     0.112 C 
ENDROOT
BRANCH   2   4
HETATM    4  C10 UNL     1     -43.176   7.213  -3.574  1.00 20.00     0.099 C 
BRANCH   4   5
HETATM    5  C7  UNL     1     -42.024   6.606  -2.787  1.00 20.00     0.008 C 
HETATM    6  C5  UNL     1     -42.246   5.124  -2.472  1.00 20.00     0.013 C 
HETATM    7  C4  UNL     1     -41.187   4.797  -1.429  1.00 20.00     0.079 C 
HETATM    8  C3  UNL     1     -41.063   6.103  -0.688  1.00 20.00     0.131 C 
HETATM    9  C6  UNL     1     -41.738   7.250  -1.416  1.00 20.00     0.056 C 
HETATM   10  O11 UNL     1     -40.476   6.222   0.380  1.00 20.00    -0.298 OA
HETATM   11  C9  UNL     1     -42.955   7.711  -0.627  1.00 20.00     0.018 C 
ENDBRANCH   4   5
ENDBRANCH   2   4
TORSDOF 2
ENDMDL
MODEL 8
REMARK VINA RESULT:      -4.3     12.088     13.806
REMARK  2 active torsions:
REMARK  status: ('A' for Active; 'I' for Inactive)
REMARK    1  A    between atoms: C2_2  and  C10_10 
REMARK    2  A    between atoms: C7_7  and  C10_10 
ROOT
HETATM    1  C1  UNL     1     -34.405  16.537  -1.409  1.00 20.00    -0.111 C 
HETATM    2  C2  UNL     1     -33.969  15.962  -2.370  1.00 20.00    -0.107 C 
HETATM    3  C8  UNL     1     -34.935  17.236  -0.239  1.00 20.00     0.112 C 
ENDROOT
BRANCH   2   4
HETATM    4  C10 UNL     1     -33.446  15.251  -3.538  1.00 20.00     0.099 C 
BRANCH   4   5
HETATM    5  C7  UNL     1     -33.262  16.201  -4.712  1.00 20.00     0.008 C 
HETATM    6  C5  UNL     1     -33.678  17.636  -4.377  1.00 20.00     0.013 C 
HETATM    7  C4  UNL     1     -33.738  18.336  -5.727  1.00 20.00     0.079 C 
HETATM    8  C3  UNL     1     -34.170  17.220  -6.641  1.00 20.00     0.131 C 
HETATM    9  C6  UNL     1     -34.064  15.857  -5.983  1.00 20.00     0.056 C 
HETATM   10  O11 UNL     1     -34.558  17.396  -7.789  1.00 20.00    -0.298 OA
HETATM   11  C9  UNL     1     -35.457  15.286  -5.760  1.00 20.00     0.018 C 
ENDBRANCH   4   5
ENDBRANCH   2   4
TORSDOF 2
ENDMDL
MODEL 9
REMARK VINA RESULT:      -4.2     11.208     12.012
REMARK  2 active torsions:
REMARK  status: ('A' for Active; 'I' for Inactive)
REMARK    1  A    between atoms: C2_2  and  C10_10 
REMARK    2  A    between atoms: C7_7  and  C10_10 
ROOT
HETATM    1  C1  UNL     1     -34.328  14.400  -3.733  1.00 20.00    -0.111 C 
HETATM    2  C2  UNL     1     -34.088  15.338  -3.021  1.00 20.00    -0.107 C 
HETATM    3  C8  UNL     1     -34.621  13.259  -4.599  1.00 20.00     0.112 C 
ENDROOT
BRANCH   2   4
HETATM    4  C10 UNL     1     -33.805  16.476  -2.144  1.00 20.00     0.099 C 
BRANCH   4   5
HETATM    5  C7  UNL     1     -35.027  16.837  -1.314  1.00 20.00     0.008 C 
HETATM    6  C5  UNL     1     -35.875  17.934  -1.965  1.00 20.00     0.013 C 
HETATM    7  C4  UNL     1     -36.828  18.377  -0.863  1.00 20.00     0.079 C 
HETATM    8  C3  UNL     1     -35.991  18.181   0.374  1.00 20.00     0.131 C 
HETATM    9  C6  UNL     1     -34.740  17.366   0.105  1.00 20.00     0.056 C 
HETATM   10  O11 UNL     1     -36.294  18.626   1.474  1.00 20.00    -0.298 OA
HETATM   11  C9  UNL     1     -33.512  18.252   0.251  1.00 20.00     0.018 C 
ENDBRANCH   4   5
ENDBRANCH   2   4
TORSDOF 2
ENDMDL
