MODEL 1
REMARK VINA RESULT:      -4.9      0.000      0.000
REMARK  1 active torsions:
REMARK  status: ('A' for Active; 'I' for Inactive)
REMARK    1  A    between atoms: C4_4  and  C7_7 
ROOT
HETATM    1  C5  UNL     1     -33.764  17.430  -3.679  1.00 20.00     0.011 C 
HETATM    2  C6  UNL     1     -35.040  18.237  -3.414  1.00 20.00     0.021 C 
HETATM    3  C7  UNL     1     -33.939  16.064  -2.985  1.00 20.00     0.025 C 
HETATM    4  C8  UNL     1     -35.057  16.308  -1.940  1.00 20.00     0.008 C 
HETATM    5  C9  UNL     1     -35.981  17.289  -2.677  1.00 20.00     0.086 C 
HETATM    6  C10 UNL     1     -34.462  16.845  -0.633  1.00 20.00     0.012 C 
HETATM    7 CL12 UNL     1     -37.136  18.154  -1.648  1.00 20.00    -0.125 Cl
ENDROOT
BRANCH   3   8
HETATM    8  C4  UNL     1     -34.270  14.892  -3.897  1.00 20.00    -0.029 A 
HETATM    9  C1  UNL     1     -34.598  14.949  -5.272  1.00 20.00     0.034 A 
HETATM   10  C2  UNL     1     -34.813  13.649  -5.667  1.00 20.00     0.142 A 
HETATM   11  O11 UNL     1     -34.639  12.797  -4.623  1.00 20.00    -0.334 OA
HETATM   12  C3  UNL     1     -34.308  13.562  -3.550  1.00 20.00     0.148 A 
ENDBRANCH   3   8
TORSDOF 1
ENDMDL
MODEL 2
REMARK VINA RESULT:      -4.7      2.862      4.520
REMARK  1 active torsions:
REMARK  status: ('A' for Active; 'I' for Inactive)
REMARK    1  A    between atoms: C4_4  and  C7_7 
ROOT
HETATM    1  C5  UNL     1     -36.357  15.165  -3.421  1.00 20.00     0.011 C 
HETATM    2  C6  UNL     1     -36.245  15.387  -4.933  1.00 20.00     0.021 C 
HETATM    3  C7  UNL     1     -34.920  15.108  -2.863  1.00 20.00     0.025 C 
HETATM    4  C8  UNL     1     -34.043  14.793  -4.100  1.00 20.00     0.008 C 
HETATM    5  C9  UNL     1     -34.757  15.576  -5.212  1.00 20.00     0.086 C 
HETATM    6  C10 UNL     1     -33.965  13.279  -4.331  1.00 20.00     0.012 C 
HETATM    7 CL12 UNL     1     -34.317  15.109  -6.864  1.00 20.00    -0.125 Cl
ENDROOT
BRANCH   3   8
HETATM    8  C4  UNL     1     -34.439  16.356  -2.137  1.00 20.00    -0.029 A 
HETATM    9  C1  UNL     1     -34.593  16.654  -0.762  1.00 20.00     0.034 A 
HETATM   10  C2  UNL     1     -34.002  17.880  -0.569  1.00 20.00     0.142 A 
HETATM   11  O11 UNL     1     -33.495  18.356  -1.737  1.00 20.00    -0.334 OA
HETATM   12  C3  UNL     1     -33.765  17.421  -2.686  1.00 20.00     0.148 A 
ENDBRANCH   3   8
TORSDOF 1
ENDMDL
MODEL 3
REMARK VINA RESULT:      -4.7      1.541      2.020
REMARK  1 active torsions:
REMARK  status: ('A' for Active; 'I' for Inactive)
REMARK    1  A    between atoms: C4_4  and  C7_7 
ROOT
HETATM    1  C5  UNL     1     -35.316  17.773  -2.884  1.00 20.00     0.011 C 
HETATM    2  C6  UNL     1     -35.964  17.846  -1.496  1.00 20.00     0.021 C 
HETATM    3  C7  UNL     1     -33.981  17.018  -2.722  1.00 20.00     0.025 C 
HETATM    4  C8  UNL     1     -33.662  17.127  -1.209  1.00 20.00     0.008 C 
HETATM    5  C9  UNL     1     -35.059  17.032  -0.577  1.00 20.00     0.086 C 
HETATM    6  C10 UNL     1     -32.911  18.430  -0.912  1.00 20.00     0.012 C 
HETATM    7 CL12 UNL     1     -35.159  17.566   1.110  1.00 20.00    -0.125 Cl
ENDROOT
BRANCH   3   8
HETATM    8  C4  UNL     1     -33.973  15.572  -3.194  1.00 20.00    -0.029 A 
HETATM    9  C1  UNL     1     -35.098  14.747  -3.433  1.00 20.00     0.034 A 
HETATM   10  C2  UNL     1     -34.601  13.533  -3.845  1.00 20.00     0.142 A 
HETATM   11  O11 UNL     1     -33.243  13.558  -3.874  1.00 20.00    -0.334 OA
HETATM   12  C3  UNL     1     -32.869  14.803  -3.477  1.00 20.00     0.148 A 
ENDBRANCH   3   8
TORSDOF 1
ENDMDL
MODEL 4
REMARK VINA RESULT:      -4.6      2.718      4.442
REMARK  1 active torsions:
REMARK  status: ('A' for Active; 'I' for Inactive)
REMARK    1  A    between atoms: C4_4  and  C7_7 
ROOT
HETATM    1  C5  UNL     1     -34.177  14.249  -3.467  1.00 20.00     0.011 C 
HETATM    2  C6  UNL     1     -35.526  13.985  -4.145  1.00 20.00     0.021 C 
HETATM    3  C7  UNL     1     -33.842  15.737  -3.689  1.00 20.00     0.025 C 
HETATM    4  C8  UNL     1     -34.728  16.154  -4.890  1.00 20.00     0.008 C 
HETATM    5  C9  UNL     1     -36.009  15.344  -4.642  1.00 20.00     0.086 C 
HETATM    6  C10 UNL     1     -34.018  15.842  -6.213  1.00 20.00     0.012 C 
HETATM    7 CL12 UNL     1     -37.092  15.203  -6.038  1.00 20.00    -0.125 Cl
ENDROOT
BRANCH   3   8
HETATM    8  C4  UNL     1     -34.053  16.652  -2.492  1.00 20.00    -0.029 A 
HETATM    9  C1  UNL     1     -34.622  16.304  -1.244  1.00 20.00     0.034 A 
HETATM   10  C2  UNL     1     -34.604  17.450  -0.483  1.00 20.00     0.142 A 
HETATM   11  O11 UNL     1     -34.062  18.480  -1.184  1.00 20.00    -0.334 OA
HETATM   12  C3  UNL     1     -33.729  17.985  -2.405  1.00 20.00     0.148 A 
ENDBRANCH   3   8
TORSDOF 1
ENDMDL
MODEL 5
REMARK VINA RESULT:      -4.6      3.254      4.842
REMARK  1 active torsions:
REMARK  status: ('A' for Active; 'I' for Inactive)
REMARK    1  A    between atoms: C4_4  and  C7_7 
ROOT
HETATM    1  C5  UNL     1     -34.073  17.486  -4.010  1.00 20.00     0.011 C 
HETATM    2  C6  UNL     1     -33.228  16.268  -4.399  1.00 20.00     0.021 C 
HETATM    3  C7  UNL     1     -34.817  17.124  -2.708  1.00 20.00     0.025 C 
HETATM    4  C8  UNL     1     -34.782  15.576  -2.665  1.00 20.00     0.008 C 
HETATM    5  C9  UNL     1     -33.399  15.268  -3.260  1.00 20.00     0.086 C 
HETATM    6  C10 UNL     1     -35.962  14.991  -3.450  1.00 20.00     0.012 C 
HETATM    7 CL12 UNL     1     -33.165  13.594  -3.793  1.00 20.00    -0.125 Cl
ENDROOT
BRANCH   3   8
HETATM    8  C4  UNL     1     -34.258  17.734  -1.431  1.00 20.00    -0.029 A 
HETATM    9  C1  UNL     1     -34.607  17.395  -0.102  1.00 20.00     0.034 A 
HETATM   10  C2  UNL     1     -33.846  18.204   0.710  1.00 20.00     0.142 A 
HETATM   11  O11 UNL     1     -33.053  19.018  -0.034  1.00 20.00    -0.334 OA
HETATM   12  C3  UNL     1     -33.310  18.725  -1.336  1.00 20.00     0.148 A 
ENDBRANCH   3   8
TORSDOF 1
ENDMDL
MODEL 6
REMARK VINA RESULT:      -4.6      1.615      2.263
REMARK  1 active torsions:
REMARK  status: ('A' for Active; 'I' for Inactive)
REMARK    1  A    between atoms: C4_4  and  C7_7 
ROOT
HETATM    1  C5  UNL     1     -34.798  16.146  -1.554  1.00 20.00     0.011 C 
HETATM    2  C6  UNL     1     -33.787  17.282  -1.743  1.00 20.00     0.021 C 
HETATM    3  C7  UNL     1     -35.457  15.893  -2.926  1.00 20.00     0.025 C 
HETATM    4  C8  UNL     1     -35.188  17.194  -3.724  1.00 20.00     0.008 C 
HETATM    5  C9  UNL     1     -33.786  17.588  -3.238  1.00 20.00     0.086 C 
HETATM    6  C10 UNL     1     -36.281  18.232  -3.440  1.00 20.00     0.012 C 
HETATM    7 CL12 UNL     1     -33.312  19.261  -3.582  1.00 20.00    -0.125 Cl
ENDROOT
BRANCH   3   8
HETATM    8  C4  UNL     1     -34.974  14.663  -3.679  1.00 20.00    -0.029 A 
HETATM    9  C1  UNL     1     -35.596  14.045  -4.789  1.00 20.00     0.034 A 
HETATM   10  C2  UNL     1     -34.800  12.976  -5.128  1.00 20.00     0.142 A 
HETATM   11  O11 UNL     1     -33.728  12.896  -4.296  1.00 20.00    -0.334 OA
HETATM   12  C3  UNL     1     -33.842  13.928  -3.418  1.00 20.00     0.148 A 
ENDBRANCH   3   8
TORSDOF 1
ENDMDL
MODEL 7
REMARK VINA RESULT:      -4.4     12.264     13.537
REMARK  1 active torsions:
REMARK  status: ('A' for Active; 'I' for Inactive)
REMARK    1  A    between atoms: C4_4  and  C7_7 
ROOT
HETATM    1  C5  UNL     1     -40.726   5.188  -0.811  1.00 20.00     0.011 C 
HETATM    2  C6  UNL     1     -41.089   6.677  -0.852  1.00 20.00     0.021 C 
HETATM    3  C7  UNL     1     -42.046   4.397  -0.907  1.00 20.00     0.025 C 
HETATM    4  C8  UNL     1     -43.135   5.419  -0.493  1.00 20.00     0.008 C 
HETATM    5  C9  UNL     1     -42.594   6.727  -1.092  1.00 20.00     0.086 C 
HETATM    6  C10 UNL     1     -43.305   5.434   1.031  1.00 20.00     0.012 C 
HETATM    7 CL12 UNL     1     -43.329   8.208  -0.451  1.00 20.00    -0.125 Cl
ENDROOT
BRANCH   3   8
HETATM    8  C4  UNL     1     -42.350   3.771  -2.260  1.00 20.00    -0.029 A 
HETATM    9  C1  UNL     1     -41.594   2.778  -2.928  1.00 20.00     0.034 A 
HETATM   10  C2  UNL     1     -42.253   2.527  -4.108  1.00 20.00     0.142 A 
HETATM   11  O11 UNL     1     -43.364   3.301  -4.209  1.00 20.00    -0.334 OA
HETATM   12  C3  UNL     1     -43.416   4.055  -3.079  1.00 20.00     0.148 A 
ENDBRANCH   3   8
TORSDOF 1
ENDMDL
MODEL 8
REMARK VINA RESULT:      -4.3      2.822      4.117
REMARK  1 active torsions:
REMARK  status: ('A' for Active; 'I' for Inactive)
REMARK    1  A    between atoms: C4_4  and  C7_7 
ROOT
HETATM    1  C5  UNL     1     -35.384  14.658  -7.905  1.00 20.00     0.011 C 
HETATM    2  C6  UNL     1     -36.768  15.317  -7.918  1.00 20.00     0.021 C 
HETATM    3  C7  UNL     1     -34.585  15.304  -6.754  1.00 20.00     0.025 C 
HETATM    4  C8  UNL     1     -35.327  16.635  -6.474  1.00 20.00     0.008 C 
HETATM    5  C9  UNL     1     -36.794  16.243  -6.705  1.00 20.00     0.086 C 
HETATM    6  C10 UNL     1     -34.806  17.743  -7.398  1.00 20.00     0.012 C 
HETATM    7 CL12 UNL     1     -37.911  17.602  -6.921  1.00 20.00    -0.125 Cl
ENDROOT
BRANCH   3   8
HETATM    8  C4  UNL     1     -34.442  14.466  -5.493  1.00 20.00    -0.029 A 
HETATM    9  C1  UNL     1     -33.696  14.791  -4.335  1.00 20.00     0.034 A 
HETATM   10  C2  UNL     1     -33.864  13.739  -3.465  1.00 20.00     0.142 A 
HETATM   11  O11 UNL     1     -34.665  12.788  -4.013  1.00 20.00    -0.334 OA
HETATM   12  C3  UNL     1     -35.012  13.239  -5.248  1.00 20.00     0.148 A 
ENDBRANCH   3   8
TORSDOF 1
ENDMDL
MODEL 9
REMARK VINA RESULT:      -4.3      2.847      4.566
REMARK  1 active torsions:
REMARK  status: ('A' for Active; 'I' for Inactive)
REMARK    1  A    between atoms: C4_4  and  C7_7 
ROOT
HETATM    1  C5  UNL     1     -33.302  15.426  -3.224  1.00 20.00     0.011 C 
HETATM    2  C6  UNL     1     -34.443  14.416  -3.395  1.00 20.00     0.021 C 
HETATM    3  C7  UNL     1     -33.948  16.820  -3.088  1.00 20.00     0.025 C 
HETATM    4  C8  UNL     1     -35.368  16.643  -3.682  1.00 20.00     0.008 C 
HETATM    5  C9  UNL     1     -35.730  15.219  -3.234  1.00 20.00     0.086 C 
HETATM    6  C10 UNL     1     -35.344  16.851  -5.201  1.00 20.00     0.012 C 
HETATM    7 CL12 UNL     1     -37.093  14.482  -4.095  1.00 20.00    -0.125 Cl
ENDROOT
BRANCH   3   8
HETATM    8  C4  UNL     1     -33.996  17.396  -1.681  1.00 20.00    -0.029 A 
HETATM    9  C1  UNL     1     -34.664  16.850  -0.559  1.00 20.00     0.034 A 
HETATM   10  C2  UNL     1     -34.425  17.713   0.485  1.00 20.00     0.142 A 
HETATM   11  O11 UNL     1     -33.654  18.754   0.077  1.00 20.00    -0.334 OA
HETATM   12  C3  UNL     1     -33.397  18.553  -1.242  1.00 20.00     0.148 A 
ENDBRANCH   3   8
TORSDOF 1
ENDMDL
