MODEL 1
REMARK VINA RESULT:      -5.7      0.000      0.000
REMARK  1 active torsions:
REMARK  status: ('A' for Active; 'I' for Inactive)
REMARK    1  A    between atoms: C7_7  and  C9_9 
ROOT
HETATM    1  C1  UNL     1     -31.869   8.230   1.886  1.00 20.00     0.012 C 
HETATM    2  C2  UNL     1     -32.170   7.404   2.704  1.00 20.00    -0.117 C 
HETATM    3  C9  UNL     1     -32.531   6.392   3.703  1.00 20.00     0.098 C 
ENDROOT
BRANCH   3   4
HETATM    4  C7  UNL     1     -33.968   6.587   4.194  1.00 20.00     0.008 C 
HETATM    5  C5  UNL     1     -34.039   6.618   5.724  1.00 20.00     0.013 C 
HETATM    6  C4  UNL     1     -34.064   5.158   6.161  1.00 20.00     0.079 C 
HETATM    7  C3  UNL     1     -34.758   4.494   5.000  1.00 20.00     0.131 C 
HETATM    8  C6  UNL     1     -34.869   5.403   3.792  1.00 20.00     0.056 C 
HETATM    9  O10 UNL     1     -35.179   3.345   5.032  1.00 20.00    -0.298 OA
HETATM   10  C8  UNL     1     -36.321   5.809   3.586  1.00 20.00     0.018 C 
ENDBRANCH   3   4
TORSDOF 1
ENDMDL
MODEL 2
REMARK VINA RESULT:      -4.7     11.161     12.507
REMARK  1 active torsions:
REMARK  status: ('A' for Active; 'I' for Inactive)
REMARK    1  A    between atoms: C7_7  and  C9_9 
ROOT
HETATM    1  C1  UNL     1     -34.718  16.737  -0.595  1.00 20.00     0.012 C 
HETATM    2  C2  UNL     1     -34.822  16.709  -1.791  1.00 20.00    -0.117 C 
HETATM    3  C9  UNL     1     -34.954  16.680  -3.252  1.00 20.00     0.098 C 
ENDROOT
BRANCH   3   4
HETATM    4  C7  UNL     1     -33.835  15.855  -3.892  1.00 20.00     0.008 C 
HETATM    5  C5  UNL     1     -33.985  15.793  -5.416  1.00 20.00     0.013 C 
HETATM    6  C4  UNL     1     -34.989  14.678  -5.681  1.00 20.00     0.079 C 
HETATM    7  C3  UNL     1     -34.743  13.750  -4.521  1.00 20.00     0.131 C 
HETATM    8  C6  UNL     1     -33.888  14.383  -3.441  1.00 20.00     0.056 C 
HETATM    9  O10 UNL     1     -35.190  12.612  -4.458  1.00 20.00    -0.298 OA
HETATM   10  C8  UNL     1     -32.516  13.723  -3.420  1.00 20.00     0.018 C 
ENDBRANCH   3   4
TORSDOF 1
ENDMDL
MODEL 3
REMARK VINA RESULT:      -4.7     12.149     12.936
REMARK  1 active torsions:
REMARK  status: ('A' for Active; 'I' for Inactive)
REMARK    1  A    between atoms: C7_7  and  C9_9 
ROOT
HETATM    1  C1  UNL     1     -34.421  17.057  -0.385  1.00 20.00     0.012 C 
HETATM    2  C2  UNL     1     -34.874  16.591  -1.394  1.00 20.00    -0.117 C 
HETATM    3  C9  UNL     1     -35.433  16.026  -2.628  1.00 20.00     0.098 C 
ENDROOT
BRANCH   3   4
HETATM    4  C7  UNL     1     -34.506  14.961  -3.219  1.00 20.00     0.008 C 
HETATM    5  C5  UNL     1     -33.096  15.514  -3.455  1.00 20.00     0.013 C 
HETATM    6  C4  UNL     1     -33.161  16.235  -4.796  1.00 20.00     0.079 C 
HETATM    7  C3  UNL     1     -34.213  15.445  -5.529  1.00 20.00     0.131 C 
HETATM    8  C6  UNL     1     -34.980  14.510  -4.614  1.00 20.00     0.056 C 
HETATM    9  O10 UNL     1     -34.426  15.553  -6.730  1.00 20.00    -0.298 OA
HETATM   10  C8  UNL     1     -34.607  13.067  -4.926  1.00 20.00     0.018 C 
ENDBRANCH   3   4
TORSDOF 1
ENDMDL
MODEL 4
REMARK VINA RESULT:      -4.7     11.601     12.468
REMARK  1 active torsions:
REMARK  status: ('A' for Active; 'I' for Inactive)
REMARK    1  A    between atoms: C7_7  and  C9_9 
ROOT
HETATM    1  C1  UNL     1     -33.317  18.224  -0.272  1.00 20.00     0.012 C 
HETATM    2  C2  UNL     1     -33.957  17.348  -0.787  1.00 20.00    -0.117 C 
HETATM    3  C9  UNL     1     -34.742  16.276  -1.409  1.00 20.00     0.098 C 
ENDROOT
BRANCH   3   4
HETATM    4  C7  UNL     1     -34.698  16.372  -2.936  1.00 20.00     0.008 C 
HETATM    5  C5  UNL     1     -35.942  15.743  -3.574  1.00 20.00     0.013 C 
HETATM    6  C4  UNL     1     -35.655  14.248  -3.637  1.00 20.00     0.079 C 
HETATM    7  C3  UNL     1     -34.157  14.220  -3.791  1.00 20.00     0.131 C 
HETATM    8  C6  UNL     1     -33.520  15.569  -3.520  1.00 20.00     0.056 C 
HETATM    9  O10 UNL     1     -33.527  13.216  -4.097  1.00 20.00    -0.298 OA
HETATM   10  C8  UNL     1     -32.991  16.158  -4.820  1.00 20.00     0.018 C 
ENDBRANCH   3   4
TORSDOF 1
ENDMDL
MODEL 5
REMARK VINA RESULT:      -4.7     11.544     12.891
REMARK  1 active torsions:
REMARK  status: ('A' for Active; 'I' for Inactive)
REMARK    1  A    between atoms: C7_7  and  C9_9 
ROOT
HETATM    1  C1  UNL     1     -33.669  18.807  -5.333  1.00 20.00     0.012 C 
HETATM    2  C2  UNL     1     -33.518  17.617  -5.284  1.00 20.00    -0.117 C 
HETATM    3  C9  UNL     1     -33.330  16.163  -5.230  1.00 20.00     0.098 C 
ENDROOT
BRANCH   3   4
HETATM    4  C7  UNL     1     -33.435  15.644  -3.794  1.00 20.00     0.008 C 
HETATM    5  C5  UNL     1     -33.391  14.113  -3.746  1.00 20.00     0.013 C 
HETATM    6  C4  UNL     1     -34.815  13.655  -4.040  1.00 20.00     0.079 C 
HETATM    7  C3  UNL     1     -35.633  14.790  -3.482  1.00 20.00     0.131 C 
HETATM    8  C6  UNL     1     -34.791  16.008  -3.158  1.00 20.00     0.056 C 
HETATM    9  O10 UNL     1     -36.844  14.733  -3.315  1.00 20.00    -0.298 OA
HETATM   10  C8  UNL     1     -34.706  16.188  -1.649  1.00 20.00     0.018 C 
ENDBRANCH   3   4
TORSDOF 1
ENDMDL
MODEL 6
REMARK VINA RESULT:      -4.6     11.888     12.726
REMARK  1 active torsions:
REMARK  status: ('A' for Active; 'I' for Inactive)
REMARK    1  A    between atoms: C7_7  and  C9_9 
ROOT
HETATM    1  C1  UNL     1     -34.705  16.933  -0.391  1.00 20.00     0.012 C 
HETATM    2  C2  UNL     1     -34.449  16.416  -1.445  1.00 20.00    -0.117 C 
HETATM    3  C9  UNL     1     -34.130  15.787  -2.731  1.00 20.00     0.098 C 
ENDROOT
BRANCH   3   4
HETATM    4  C7  UNL     1     -35.216  14.790  -3.145  1.00 20.00     0.008 C 
HETATM    5  C5  UNL     1     -34.638  13.646  -3.984  1.00 20.00     0.013 C 
HETATM    6  C4  UNL     1     -34.558  14.185  -5.407  1.00 20.00     0.079 C 
HETATM    7  C3  UNL     1     -35.709  15.156  -5.442  1.00 20.00     0.131 C 
HETATM    8  C6  UNL     1     -36.266  15.447  -4.062  1.00 20.00     0.056 C 
HETATM    9  O10 UNL     1     -36.142  15.656  -6.472  1.00 20.00    -0.298 OA
HETATM   10  C8  UNL     1     -37.646  14.820  -3.922  1.00 20.00     0.018 C 
ENDBRANCH   3   4
TORSDOF 1
ENDMDL
MODEL 7
REMARK VINA RESULT:      -4.6     11.399     13.005
REMARK  1 active torsions:
REMARK  status: ('A' for Active; 'I' for Inactive)
REMARK    1  A    between atoms: C7_7  and  C9_9 
ROOT
HETATM    1  C1  UNL     1     -35.104  16.938  -7.689  1.00 20.00     0.012 C 
HETATM    2  C2  UNL     1     -34.411  16.703  -6.737  1.00 20.00    -0.117 C 
HETATM    3  C9  UNL     1     -33.559  16.418  -5.577  1.00 20.00     0.098 C 
ENDROOT
BRANCH   3   4
HETATM    4  C7  UNL     1     -34.392  15.964  -4.376  1.00 20.00     0.008 C 
HETATM    5  C5  UNL     1     -33.510  15.358  -3.278  1.00 20.00     0.013 C 
HETATM    6  C4  UNL     1     -33.280  13.910  -3.695  1.00 20.00     0.079 C 
HETATM    7  C3  UNL     1     -34.547  13.592  -4.445  1.00 20.00     0.131 C 
HETATM    8  C6  UNL     1     -35.364  14.830  -4.757  1.00 20.00     0.056 C 
HETATM    9  O10 UNL     1     -34.875  12.458  -4.770  1.00 20.00    -0.298 OA
HETATM   10  C8  UNL     1     -36.633  14.834  -3.917  1.00 20.00     0.018 C 
ENDBRANCH   3   4
TORSDOF 1
ENDMDL
MODEL 8
REMARK VINA RESULT:      -4.5     11.752     12.871
REMARK  1 active torsions:
REMARK  status: ('A' for Active; 'I' for Inactive)
REMARK    1  A    between atoms: C7_7  and  C9_9 
ROOT
HETATM    1  C1  UNL     1     -33.209  18.423  -0.577  1.00 20.00     0.012 C 
HETATM    2  C2  UNL     1     -33.819  17.482  -1.007  1.00 20.00    -0.117 C 
HETATM    3  C9  UNL     1     -34.569  16.333  -1.527  1.00 20.00     0.098 C 
ENDROOT
BRANCH   3   4
HETATM    4  C7  UNL     1     -33.896  15.752  -2.774  1.00 20.00     0.008 C 
HETATM    5  C5  UNL     1     -33.726  16.813  -3.866  1.00 20.00     0.013 C 
HETATM    6  C4  UNL     1     -35.066  16.873  -4.589  1.00 20.00     0.079 C 
HETATM    7  C3  UNL     1     -35.568  15.461  -4.440  1.00 20.00     0.131 C 
HETATM    8  C6  UNL     1     -34.766  14.663  -3.430  1.00 20.00     0.056 C 
HETATM    9  O10 UNL     1     -36.520  15.012  -5.064  1.00 20.00    -0.298 OA
HETATM   10  C8  UNL     1     -33.943  13.603  -4.149  1.00 20.00     0.018 C 
ENDBRANCH   3   4
TORSDOF 1
ENDMDL
MODEL 9
REMARK VINA RESULT:      -4.4     11.940     13.314
REMARK  1 active torsions:
REMARK  status: ('A' for Active; 'I' for Inactive)
REMARK    1  A    between atoms: C7_7  and  C9_9 
ROOT
HETATM    1  C1  UNL     1     -38.701  14.754  -4.332  1.00 20.00     0.012 C 
HETATM    2  C2  UNL     1     -37.568  14.772  -3.933  1.00 20.00    -0.117 C 
HETATM    3  C9  UNL     1     -36.187  14.796  -3.438  1.00 20.00     0.098 C 
ENDROOT
BRANCH   3   4
HETATM    4  C7  UNL     1     -35.210  14.285  -4.501  1.00 20.00     0.008 C 
HETATM    5  C5  UNL     1     -33.890  13.823  -3.873  1.00 20.00     0.013 C 
HETATM    6  C4  UNL     1     -33.062  15.088  -3.688  1.00 20.00     0.079 C 
HETATM    7  C3  UNL     1     -33.544  15.950  -4.826  1.00 20.00     0.131 C 
HETATM    8  C6  UNL     1     -34.799  15.404  -5.477  1.00 20.00     0.056 C 
HETATM    9  O10 UNL     1     -32.983  16.979  -5.180  1.00 20.00    -0.298 OA
HETATM   10  C8  UNL     1     -34.471  14.882  -6.869  1.00 20.00     0.018 C 
ENDBRANCH   3   4
TORSDOF 1
ENDMDL
