MODEL 1
REMARK VINA RESULT:      -5.8      0.000      0.000
REMARK  2 active torsions:
REMARK  status: ('A' for Active; 'I' for Inactive)
REMARK    1  A    between atoms: C7_7  and  C10_10 
REMARK    2  A    between atoms: C9_9  and  C10_10 
ROOT
HETATM    1  C1  UNL     1     -32.183   8.732   1.185  1.00 20.00     0.012 C 
HETATM    2  C2  UNL     1     -31.925   8.235   2.248  1.00 20.00    -0.117 C 
HETATM    3  C9  UNL     1     -31.606   7.632   3.548  1.00 20.00     0.093 C 
ENDROOT
BRANCH   3   4
HETATM    4  C10 UNL     1     -32.410   6.362   3.744  1.00 20.00     0.017 C 
BRANCH   4   5
HETATM    5  C7  UNL     1     -33.827   6.685   4.221  1.00 20.00    -0.002 C 
HETATM    6  C5  UNL     1     -33.916   6.675   5.753  1.00 20.00     0.013 C 
HETATM    7  C4  UNL     1     -34.101   5.210   6.135  1.00 20.00     0.079 C 
HETATM    8  C3  UNL     1     -34.839   4.663   4.940  1.00 20.00     0.131 C 
HETATM    9  C6  UNL     1     -34.903   5.664   3.803  1.00 20.00     0.055 C 
HETATM   10  O11 UNL     1     -35.331   3.542   4.907  1.00 20.00    -0.298 OA
HETATM   11  C8  UNL     1     -34.722   5.021   2.440  1.00 20.00     0.018 C 
ENDBRANCH   4   5
ENDBRANCH   3   4
TORSDOF 2
ENDMDL
MODEL 2
REMARK VINA RESULT:      -5.0     11.121     11.924
REMARK  2 active torsions:
REMARK  status: ('A' for Active; 'I' for Inactive)
REMARK    1  A    between atoms: C7_7  and  C10_10 
REMARK    2  A    between atoms: C9_9  and  C10_10 
ROOT
HETATM    1  C1  UNL     1     -35.085  17.695   0.993  1.00 20.00     0.012 C 
HETATM    2  C2  UNL     1     -34.589  17.384  -0.057  1.00 20.00    -0.117 C 
HETATM    3  C9  UNL     1     -33.979  17.008  -1.338  1.00 20.00     0.093 C 
ENDROOT
BRANCH   3   4
HETATM    4  C10 UNL     1     -34.711  15.823  -1.935  1.00 20.00     0.017 C 
BRANCH   4   5
HETATM    5  C7  UNL     1     -34.742  15.918  -3.462  1.00 20.00    -0.002 C 
HETATM    6  C5  UNL     1     -36.178  15.844  -3.997  1.00 20.00     0.013 C 
HETATM    7  C4  UNL     1     -36.506  14.356  -4.064  1.00 20.00     0.079 C 
HETATM    8  C3  UNL     1     -35.152  13.746  -4.324  1.00 20.00     0.131 C 
HETATM    9  C6  UNL     1     -34.035  14.764  -4.200  1.00 20.00     0.055 C 
HETATM   10  O11 UNL     1     -34.988  12.566  -4.610  1.00 20.00    -0.298 OA
HETATM   11  C8  UNL     1     -32.796  14.201  -3.529  1.00 20.00     0.018 C 
ENDBRANCH   4   5
ENDBRANCH   3   4
TORSDOF 2
ENDMDL
MODEL 3
REMARK VINA RESULT:      -4.7     11.470     12.755
REMARK  2 active torsions:
REMARK  status: ('A' for Active; 'I' for Inactive)
REMARK    1  A    between atoms: C7_7  and  C10_10 
REMARK    2  A    between atoms: C9_9  and  C10_10 
ROOT
HETATM    1  C1  UNL     1     -35.014  17.252   0.305  1.00 20.00     0.012 C 
HETATM    2  C2  UNL     1     -34.438  17.040  -0.727  1.00 20.00    -0.117 C 
HETATM    3  C9  UNL     1     -33.730  16.783  -1.988  1.00 20.00     0.093 C 
ENDROOT
BRANCH   3   4
HETATM    4  C10 UNL     1     -34.374  15.622  -2.719  1.00 20.00     0.017 C 
BRANCH   4   5
HETATM    5  C7  UNL     1     -33.521  15.197  -3.916  1.00 20.00    -0.002 C 
HETATM    6  C5  UNL     1     -33.172  16.396  -4.807  1.00 20.00     0.013 C 
HETATM    7  C4  UNL     1     -34.383  16.590  -5.714  1.00 20.00     0.079 C 
HETATM    8  C3  UNL     1     -34.912  15.184  -5.839  1.00 20.00     0.131 C 
HETATM    9  C6  UNL     1     -34.212  14.226  -4.894  1.00 20.00     0.055 C 
HETATM   10  O11 UNL     1     -35.797  14.864  -6.622  1.00 20.00    -0.298 OA
HETATM   11  C8  UNL     1     -35.156  13.212  -4.276  1.00 20.00     0.018 C 
ENDBRANCH   4   5
ENDBRANCH   3   4
TORSDOF 2
ENDMDL
MODEL 4
REMARK VINA RESULT:      -4.7     11.730     12.530
REMARK  2 active torsions:
REMARK  status: ('A' for Active; 'I' for Inactive)
REMARK    1  A    between atoms: C7_7  and  C10_10 
REMARK    2  A    between atoms: C9_9  and  C10_10 
ROOT
HETATM    1  C1  UNL     1     -35.191  17.480   0.893  1.00 20.00     0.012 C 
HETATM    2  C2  UNL     1     -34.681  17.182  -0.153  1.00 20.00    -0.117 C 
HETATM    3  C9  UNL     1     -34.053  16.820  -1.429  1.00 20.00     0.093 C 
ENDROOT
BRANCH   3   4
HETATM    4  C10 UNL     1     -35.049  16.096  -2.313  1.00 20.00     0.017 C 
BRANCH   4   5
HETATM    5  C7  UNL     1     -34.374  14.942  -3.057  1.00 20.00    -0.002 C 
HETATM    6  C5  UNL     1     -33.047  15.383  -3.687  1.00 20.00     0.013 C 
HETATM    7  C4  UNL     1     -33.429  16.039  -5.011  1.00 20.00     0.079 C 
HETATM    8  C3  UNL     1     -34.682  15.289  -5.384  1.00 20.00     0.131 C 
HETATM    9  C6  UNL     1     -35.166  14.392  -4.260  1.00 20.00     0.055 C 
HETATM   10  O11 UNL     1     -35.232  15.394  -6.473  1.00 20.00    -0.298 OA
HETATM   11  C8  UNL     1     -36.677  14.385  -4.120  1.00 20.00     0.018 C 
ENDBRANCH   4   5
ENDBRANCH   3   4
TORSDOF 2
ENDMDL
MODEL 5
REMARK VINA RESULT:      -4.5     11.743     12.684
REMARK  2 active torsions:
REMARK  status: ('A' for Active; 'I' for Inactive)
REMARK    1  A    between atoms: C7_7  and  C10_10 
REMARK    2  A    between atoms: C9_9  and  C10_10 
ROOT
HETATM    1  C1  UNL     1     -32.936  18.584  -0.453  1.00 20.00     0.012 C 
HETATM    2  C2  UNL     1     -33.698  17.678  -0.661  1.00 20.00    -0.117 C 
HETATM    3  C9  UNL     1     -34.631  16.573  -0.912  1.00 20.00     0.093 C 
ENDROOT
BRANCH   3   4
HETATM    4  C10 UNL     1     -34.295  15.896  -2.226  1.00 20.00     0.017 C 
BRANCH   4   5
HETATM    5  C7  UNL     1     -35.345  16.226  -3.289  1.00 20.00    -0.002 C 
HETATM    6  C5  UNL     1     -36.417  15.132  -3.374  1.00 20.00     0.013 C 
HETATM    7  C4  UNL     1     -35.820  14.052  -4.271  1.00 20.00     0.079 C 
HETATM    8  C3  UNL     1     -34.928  14.857  -5.182  1.00 20.00     0.131 C 
HETATM    9  C6  UNL     1     -34.809  16.300  -4.732  1.00 20.00     0.055 C 
HETATM   10  O11 UNL     1     -34.377  14.390  -6.171  1.00 20.00    -0.298 OA
HETATM   11  C8  UNL     1     -33.406  16.855  -4.897  1.00 20.00     0.018 C 
ENDBRANCH   4   5
ENDBRANCH   3   4
TORSDOF 2
ENDMDL
MODEL 6
REMARK VINA RESULT:      -4.3     11.065     13.358
REMARK  2 active torsions:
REMARK  status: ('A' for Active; 'I' for Inactive)
REMARK    1  A    between atoms: C7_7  and  C10_10 
REMARK    2  A    between atoms: C9_9  and  C10_10 
ROOT
HETATM    1  C1  UNL     1     -34.171  18.861  -7.719  1.00 20.00     0.012 C 
HETATM    2  C2  UNL     1     -33.864  18.519  -6.609  1.00 20.00    -0.117 C 
HETATM    3  C9  UNL     1     -33.488  18.104  -5.252  1.00 20.00     0.093 C 
ENDROOT
BRANCH   3   4
HETATM    4  C10 UNL     1     -33.495  16.592  -5.148  1.00 20.00     0.017 C 
BRANCH   4   5
HETATM    5  C7  UNL     1     -34.897  16.079  -4.813  1.00 20.00    -0.002 C 
HETATM    6  C5  UNL     1     -35.001  15.657  -3.342  1.00 20.00     0.013 C 
HETATM    7  C4  UNL     1     -34.447  14.236  -3.292  1.00 20.00     0.079 C 
HETATM    8  C3  UNL     1     -34.796  13.713  -4.662  1.00 20.00     0.131 C 
HETATM    9  C6  UNL     1     -35.322  14.807  -5.572  1.00 20.00     0.055 C 
HETATM   10  O11 UNL     1     -34.671  12.539  -4.988  1.00 20.00    -0.298 OA
HETATM   11  C8  UNL     1     -34.821  14.679  -6.999  1.00 20.00     0.018 C 
ENDBRANCH   4   5
ENDBRANCH   3   4
TORSDOF 2
ENDMDL
MODEL 7
REMARK VINA RESULT:      -4.2     11.042     13.061
REMARK  2 active torsions:
REMARK  status: ('A' for Active; 'I' for Inactive)
REMARK    1  A    between atoms: C7_7  and  C10_10 
REMARK    2  A    between atoms: C9_9  and  C10_10 
ROOT
HETATM    1  C1  UNL     1     -36.050  19.019  -5.738  1.00 20.00     0.012 C 
HETATM    2  C2  UNL     1     -34.952  18.534  -5.706  1.00 20.00    -0.117 C 
HETATM    3  C9  UNL     1     -33.607  17.944  -5.667  1.00 20.00     0.093 C 
ENDROOT
BRANCH   3   4
HETATM    4  C10 UNL     1     -33.703  16.437  -5.544  1.00 20.00     0.017 C 
BRANCH   4   5
HETATM    5  C7  UNL     1     -34.333  16.041  -4.207  1.00 20.00    -0.002 C 
HETATM    6  C5  UNL     1     -33.302  15.393  -3.274  1.00 20.00     0.013 C 
HETATM    7  C4  UNL     1     -33.239  13.929  -3.700  1.00 20.00     0.079 C 
HETATM    8  C3  UNL     1     -34.638  13.688  -4.207  1.00 20.00     0.131 C 
HETATM    9  C6  UNL     1     -35.439  14.973  -4.300  1.00 20.00     0.055 C 
HETATM   10  O11 UNL     1     -35.068  12.579  -4.499  1.00 20.00    -0.298 OA
HETATM   11  C8  UNL     1     -36.322  15.029  -5.533  1.00 20.00     0.018 C 
ENDBRANCH   4   5
ENDBRANCH   3   4
TORSDOF 2
ENDMDL
MODEL 8
REMARK VINA RESULT:      -4.2      9.637     11.017
REMARK  2 active torsions:
REMARK  status: ('A' for Active; 'I' for Inactive)
REMARK    1  A    between atoms: C7_7  and  C10_10 
REMARK    2  A    between atoms: C9_9  and  C10_10 
ROOT
HETATM    1  C1  UNL     1     -41.177   1.757  -4.066  1.00 20.00     0.012 C 
HETATM    2  C2  UNL     1     -41.833   2.373  -3.270  1.00 20.00    -0.117 C 
HETATM    3  C9  UNL     1     -42.636   3.123  -2.296  1.00 20.00     0.093 C 
ENDROOT
BRANCH   3   4
HETATM    4  C10 UNL     1     -42.655   4.594  -2.658  1.00 20.00     0.017 C 
BRANCH   4   5
HETATM    5  C7  UNL     1     -41.553   5.350  -1.914  1.00 20.00    -0.002 C 
HETATM    6  C5  UNL     1     -41.546   4.999  -0.420  1.00 20.00     0.013 C 
HETATM    7  C4  UNL     1     -42.610   5.893   0.208  1.00 20.00     0.079 C 
HETATM    8  C3  UNL     1     -42.569   7.107  -0.685  1.00 20.00     0.131 C 
HETATM    9  C6  UNL     1     -41.703   6.884  -1.910  1.00 20.00     0.055 C 
HETATM   10  O11 UNL     1     -43.163   8.148  -0.435  1.00 20.00    -0.298 OA
HETATM   11  C8  UNL     1     -42.290   7.501  -3.166  1.00 20.00     0.018 C 
ENDBRANCH   4   5
ENDBRANCH   3   4
TORSDOF 2
ENDMDL
MODEL 9
REMARK VINA RESULT:      -4.2      1.006      2.274
REMARK  2 active torsions:
REMARK  status: ('A' for Active; 'I' for Inactive)
REMARK    1  A    between atoms: C7_7  and  C10_10 
REMARK    2  A    between atoms: C9_9  and  C10_10 
ROOT
HETATM    1  C1  UNL     1     -32.570   9.485   0.604  1.00 20.00     0.012 C 
HETATM    2  C2  UNL     1     -32.108   8.806   1.481  1.00 20.00    -0.117 C 
HETATM    3  C9  UNL     1     -31.538   7.978   2.552  1.00 20.00     0.093 C 
ENDROOT
BRANCH   3   4
HETATM    4  C10 UNL     1     -32.618   7.596   3.545  1.00 20.00     0.017 C 
BRANCH   4   5
HETATM    5  C7  UNL     1     -32.623   6.085   3.785  1.00 20.00    -0.002 C 
HETATM    6  C5  UNL     1     -32.961   5.316   2.501  1.00 20.00     0.013 C 
HETATM    7  C4  UNL     1     -34.484   5.328   2.415  1.00 20.00     0.079 C 
HETATM    8  C3  UNL     1     -34.882   5.363   3.869  1.00 20.00     0.131 C 
HETATM    9  C6  UNL     1     -33.691   5.589   4.780  1.00 20.00     0.055 C 
HETATM   10  O11 UNL     1     -36.034   5.218   4.256  1.00 20.00    -0.298 OA
HETATM   11  C8  UNL     1     -34.004   6.513   5.942  1.00 20.00     0.018 C 
ENDBRANCH   4   5
ENDBRANCH   3   4
TORSDOF 2
ENDMDL
