MODEL 1
REMARK VINA RESULT:      -5.5      0.000      0.000
REMARK  1 active torsions:
REMARK  status: ('A' for Active; 'I' for Inactive)
REMARK    1  A    between atoms: C5_5  and  C8_8 
ROOT
HETATM    1  C1  UNL     1     -34.492  17.783  -0.727  1.00 20.00     0.018 A 
HETATM    2  C2  UNL     1     -33.686  17.008  -1.556  1.00 20.00     0.010 A 
HETATM    3  C3  UNL     1     -35.866  17.762  -0.923  1.00 20.00     0.087 A 
HETATM    4  C4  UNL     1     -35.643  16.251  -2.705  1.00 20.00     0.095 A 
HETATM    5  C5  UNL     1     -34.263  16.233  -2.557  1.00 20.00    -0.038 A 
HETATM    6  N12 UNL     1     -36.396  17.006  -1.894  1.00 20.00    -0.375 N 
HETATM    7  H28 UNL     1     -37.408  17.006  -2.020  1.00 20.00     0.164 HD
ENDROOT
BRANCH   5   8
HETATM    8  C8  UNL     1     -33.400  15.379  -3.472  1.00 20.00     0.025 C 
HETATM    9  C6  UNL     1     -33.821  13.897  -3.540  1.00 20.00     0.011 C 
HETATM   10  C7  UNL     1     -34.582  13.707  -4.860  1.00 20.00     0.021 C 
HETATM   11  C10 UNL     1     -34.594  15.073  -5.543  1.00 20.00     0.086 C 
HETATM   12  C9  UNL     1     -33.381  15.799  -4.960  1.00 20.00     0.008 C 
HETATM   13 CL13 UNL     1     -34.526  14.925  -7.312  1.00 20.00    -0.125 Cl
HETATM   14  C11 UNL     1     -33.366  17.297  -5.232  1.00 20.00     0.012 C 
ENDBRANCH   5   8
TORSDOF 1
ENDMDL
MODEL 2
REMARK VINA RESULT:      -5.1      1.195      1.356
REMARK  1 active torsions:
REMARK  status: ('A' for Active; 'I' for Inactive)
REMARK    1  A    between atoms: C5_5  and  C8_8 
ROOT
HETATM    1  C1  UNL     1     -34.987  16.848  -0.930  1.00 20.00     0.018 A 
HETATM    2  C2  UNL     1     -34.410  16.039  -1.904  1.00 20.00     0.010 A 
HETATM    3  C3  UNL     1     -34.907  18.226  -1.073  1.00 20.00     0.087 A 
HETATM    4  C4  UNL     1     -33.721  18.002  -3.087  1.00 20.00     0.095 A 
HETATM    5  C5  UNL     1     -33.769  16.617  -2.995  1.00 20.00    -0.038 A 
HETATM    6  N12 UNL     1     -34.285  18.757  -2.134  1.00 20.00    -0.375 N 
HETATM    7  H28 UNL     1     -34.238  19.772  -2.220  1.00 20.00     0.164 HD
ENDROOT
BRANCH   5   8
HETATM    8  C8  UNL     1     -33.134  15.751  -4.071  1.00 20.00     0.025 C 
HETATM    9  C6  UNL     1     -33.137  14.242  -3.755  1.00 20.00     0.011 C 
HETATM   10  C7  UNL     1     -34.268  13.613  -4.580  1.00 20.00     0.021 C 
HETATM   11  C10 UNL     1     -34.907  14.756  -5.366  1.00 20.00     0.086 C 
HETATM   12  C9  UNL     1     -33.804  15.811  -5.463  1.00 20.00     0.008 C 
HETATM   13 CL13 UNL     1     -35.491  14.218  -6.955  1.00 20.00    -0.125 Cl
HETATM   14  C11 UNL     1     -34.295  17.182  -5.911  1.00 20.00     0.012 C 
ENDBRANCH   5   8
TORSDOF 1
ENDMDL
MODEL 3
REMARK VINA RESULT:      -5.0      2.939      4.898
REMARK  1 active torsions:
REMARK  status: ('A' for Active; 'I' for Inactive)
REMARK    1  A    between atoms: C5_5  and  C8_8 
ROOT
HETATM    1  C1  UNL     1     -36.956  15.813  -6.863  1.00 20.00     0.018 A 
HETATM    2  C2  UNL     1     -35.969  16.228  -5.974  1.00 20.00     0.010 A 
HETATM    3  C3  UNL     1     -36.627  14.883  -7.840  1.00 20.00     0.087 A 
HETATM    4  C4  UNL     1     -34.410  14.783  -7.073  1.00 20.00     0.095 A 
HETATM    5  C5  UNL     1     -34.682  15.710  -6.076  1.00 20.00    -0.038 A 
HETATM    6  N12 UNL     1     -35.379  14.401  -7.916  1.00 20.00    -0.375 N 
HETATM    7  H28 UNL     1     -35.159  13.719  -8.641  1.00 20.00     0.164 HD
ENDROOT
BRANCH   5   8
HETATM    8  C8  UNL     1     -33.590  16.150  -5.114  1.00 20.00     0.025 C 
HETATM    9  C6  UNL     1     -33.558  17.666  -4.839  1.00 20.00     0.011 C 
HETATM   10  C7  UNL     1     -34.205  17.888  -3.465  1.00 20.00     0.021 C 
HETATM   11  C10 UNL     1     -34.602  16.504  -2.955  1.00 20.00     0.086 C 
HETATM   12  C9  UNL     1     -33.666  15.546  -3.692  1.00 20.00     0.008 C 
HETATM   13 CL13 UNL     1     -34.460  16.387  -1.188  1.00 20.00    -0.125 Cl
HETATM   14  C11 UNL     1     -34.083  14.084  -3.608  1.00 20.00     0.012 C 
ENDBRANCH   5   8
TORSDOF 1
ENDMDL
MODEL 4
REMARK VINA RESULT:      -4.9      1.496      2.133
REMARK  1 active torsions:
REMARK  status: ('A' for Active; 'I' for Inactive)
REMARK    1  A    between atoms: C5_5  and  C8_8 
ROOT
HETATM    1  C1  UNL     1     -33.938  17.764  -0.221  1.00 20.00     0.018 A 
HETATM    2  C2  UNL     1     -34.509  16.641  -0.812  1.00 20.00     0.010 A 
HETATM    3  C3  UNL     1     -33.542  18.819  -1.032  1.00 20.00     0.087 A 
HETATM    4  C4  UNL     1     -34.259  17.677  -2.955  1.00 20.00     0.095 A 
HETATM    5  C5  UNL     1     -34.673  16.592  -2.193  1.00 20.00    -0.038 A 
HETATM    6  N12 UNL     1     -33.712  18.746  -2.359  1.00 20.00    -0.375 N 
HETATM    7  H28 UNL     1     -33.414  19.531  -2.937  1.00 20.00     0.164 HD
ENDROOT
BRANCH   5   8
HETATM    8  C8  UNL     1     -35.295  15.376  -2.859  1.00 20.00     0.025 C 
HETATM    9  C6  UNL     1     -36.632  15.657  -3.572  1.00 20.00     0.011 C 
HETATM   10  C7  UNL     1     -36.332  15.739  -5.075  1.00 20.00     0.021 C 
HETATM   11  C10 UNL     1     -34.829  15.503  -5.221  1.00 20.00     0.086 C 
HETATM   12  C9  UNL     1     -34.447  14.712  -3.969  1.00 20.00     0.008 C 
HETATM   13 CL13 UNL     1     -34.440  14.645  -6.726  1.00 20.00    -0.125 Cl
HETATM   14  C11 UNL     1     -32.947  14.641  -3.714  1.00 20.00     0.012 C 
ENDBRANCH   5   8
TORSDOF 1
ENDMDL
MODEL 5
REMARK VINA RESULT:      -4.9      1.557      2.397
REMARK  1 active torsions:
REMARK  status: ('A' for Active; 'I' for Inactive)
REMARK    1  A    between atoms: C5_5  and  C8_8 
ROOT
HETATM    1  C1  UNL     1     -34.765  17.168   0.150  1.00 20.00     0.018 A 
HETATM    2  C2  UNL     1     -34.484  16.851  -1.176  1.00 20.00     0.010 A 
HETATM    3  C3  UNL     1     -35.920  17.885   0.435  1.00 20.00     0.087 A 
HETATM    4  C4  UNL     1     -36.494  17.967  -1.840  1.00 20.00     0.095 A 
HETATM    5  C5  UNL     1     -35.354  17.252  -2.185  1.00 20.00    -0.038 A 
HETATM    6  N12 UNL     1     -36.740  18.259  -0.556  1.00 20.00    -0.375 N 
HETATM    7  H28 UNL     1     -37.583  18.784  -0.324  1.00 20.00     0.164 HD
ENDROOT
BRANCH   5   8
HETATM    8  C8  UNL     1     -35.066  16.915  -3.638  1.00 20.00     0.025 C 
HETATM    9  C6  UNL     1     -33.571  16.949  -4.014  1.00 20.00     0.011 C 
HETATM   10  C7  UNL     1     -33.088  15.493  -4.071  1.00 20.00     0.021 C 
HETATM   11  C10 UNL     1     -34.303  14.631  -3.733  1.00 20.00     0.086 C 
HETATM   12  C9  UNL     1     -35.503  15.505  -4.100  1.00 20.00     0.008 C 
HETATM   13 CL13 UNL     1     -34.280  13.087  -4.611  1.00 20.00    -0.125 Cl
HETATM   14  C11 UNL     1     -36.829  15.002  -3.546  1.00 20.00     0.012 C 
ENDBRANCH   5   8
TORSDOF 1
ENDMDL
MODEL 6
REMARK VINA RESULT:      -4.8      2.708      4.604
REMARK  1 active torsions:
REMARK  status: ('A' for Active; 'I' for Inactive)
REMARK    1  A    between atoms: C5_5  and  C8_8 
ROOT
HETATM    1  C1  UNL     1     -35.161  14.043  -5.507  1.00 20.00     0.018 A 
HETATM    2  C2  UNL     1     -34.853  15.350  -5.143  1.00 20.00     0.010 A 
HETATM    3  C3  UNL     1     -34.438  13.003  -4.940  1.00 20.00     0.087 A 
HETATM    4  C4  UNL     1     -33.146  14.514  -3.689  1.00 20.00     0.095 A 
HETATM    5  C5  UNL     1     -33.836  15.593  -4.225  1.00 20.00    -0.038 A 
HETATM    6  N12 UNL     1     -33.463  13.265  -4.058  1.00 20.00    -0.375 N 
HETATM    7  H28 UNL     1     -32.944  12.486  -3.654  1.00 20.00     0.164 HD
ENDROOT
BRANCH   5   8
HETATM    8  C8  UNL     1     -33.484  17.013  -3.812  1.00 20.00     0.025 C 
HETATM    9  C6  UNL     1     -33.802  18.081  -4.878  1.00 20.00     0.011 C 
HETATM   10  C7  UNL     1     -35.099  18.778  -4.445  1.00 20.00     0.021 C 
HETATM   11  C10 UNL     1     -35.519  18.114  -3.135  1.00 20.00     0.086 C 
HETATM   12  C9  UNL     1     -34.218  17.549  -2.561  1.00 20.00     0.008 C 
HETATM   13 CL13 UNL     1     -36.316  19.263  -2.040  1.00 20.00    -0.125 Cl
HETATM   14  C11 UNL     1     -34.422  16.554  -1.427  1.00 20.00     0.012 C 
ENDBRANCH   5   8
TORSDOF 1
ENDMDL
MODEL 7
REMARK VINA RESULT:      -4.7      2.760      4.626
REMARK  1 active torsions:
REMARK  status: ('A' for Active; 'I' for Inactive)
REMARK    1  A    between atoms: C5_5  and  C8_8 
ROOT
HETATM    1  C1  UNL     1     -35.328  14.773  -7.728  1.00 20.00     0.018 A 
HETATM    2  C2  UNL     1     -34.891  14.479  -6.440  1.00 20.00     0.010 A 
HETATM    3  C3  UNL     1     -36.654  15.139  -7.917  1.00 20.00     0.087 A 
HETATM    4  C4  UNL     1     -37.093  14.930  -5.620  1.00 20.00     0.095 A 
HETATM    5  C5  UNL     1     -35.779  14.558  -5.372  1.00 20.00    -0.038 A 
HETATM    6  N12 UNL     1     -37.488  15.207  -6.870  1.00 20.00    -0.375 N 
HETATM    7  H28 UNL     1     -38.457  15.478  -7.031  1.00 20.00     0.164 HD
ENDROOT
BRANCH   5   8
HETATM    8  C8  UNL     1     -35.321  14.243  -3.957  1.00 20.00     0.025 C 
HETATM    9  C6  UNL     1     -33.878  13.709  -3.861  1.00 20.00     0.011 C 
HETATM   10  C7  UNL     1     -32.999  14.873  -3.382  1.00 20.00     0.021 C 
HETATM   11  C10 UNL     1     -33.936  16.066  -3.203  1.00 20.00     0.086 C 
HETATM   12  C9  UNL     1     -35.311  15.436  -2.974  1.00 20.00     0.008 C 
HETATM   13 CL13 UNL     1     -33.423  17.111  -1.861  1.00 20.00    -0.125 Cl
HETATM   14  C11 UNL     1     -36.470  16.416  -3.099  1.00 20.00     0.012 C 
ENDBRANCH   5   8
TORSDOF 1
ENDMDL
MODEL 8
REMARK VINA RESULT:      -4.5      2.950      4.734
REMARK  1 active torsions:
REMARK  status: ('A' for Active; 'I' for Inactive)
REMARK    1  A    between atoms: C5_5  and  C8_8 
ROOT
HETATM    1  C1  UNL     1     -35.159  13.925  -3.897  1.00 20.00     0.018 A 
HETATM    2  C2  UNL     1     -35.313  15.263  -3.544  1.00 20.00     0.010 A 
HETATM    3  C3  UNL     1     -33.876  13.425  -4.074  1.00 20.00     0.087 A 
HETATM    4  C4  UNL     1     -32.934  15.515  -3.565  1.00 20.00     0.095 A 
HETATM    5  C5  UNL     1     -34.192  16.069  -3.375  1.00 20.00    -0.038 A 
HETATM    6  N12 UNL     1     -32.814  14.224  -3.905  1.00 20.00    -0.375 N 
HETATM    7  H28 UNL     1     -31.881  13.836  -4.040  1.00 20.00     0.164 HD
ENDROOT
BRANCH   5   8
HETATM    8  C8  UNL     1     -34.339  17.532  -2.988  1.00 20.00     0.025 C 
HETATM    9  C6  UNL     1     -35.209  18.360  -3.955  1.00 20.00     0.011 C 
HETATM   10  C7  UNL     1     -36.581  18.534  -3.289  1.00 20.00     0.021 C 
HETATM   11  C10 UNL     1     -36.495  17.810  -1.946  1.00 20.00     0.086 C 
HETATM   12  C9  UNL     1     -35.002  17.800  -1.616  1.00 20.00     0.008 C 
HETATM   13 CL13 UNL     1     -37.472  18.616  -0.700  1.00 20.00    -0.125 Cl
HETATM   14  C11 UNL     1     -34.622  16.845  -0.492  1.00 20.00     0.012 C 
ENDBRANCH   5   8
TORSDOF 1
ENDMDL
MODEL 9
REMARK VINA RESULT:      -4.5      2.921      4.178
REMARK  1 active torsions:
REMARK  status: ('A' for Active; 'I' for Inactive)
REMARK    1  A    between atoms: C5_5  and  C8_8 
ROOT
HETATM    1  C1  UNL     1     -34.036  13.296  -4.165  1.00 20.00     0.018 A 
HETATM    2  C2  UNL     1     -34.652  13.996  -5.197  1.00 20.00     0.010 A 
HETATM    3  C3  UNL     1     -32.994  13.901  -3.476  1.00 20.00     0.087 A 
HETATM    4  C4  UNL     1     -33.173  15.834  -4.797  1.00 20.00     0.095 A 
HETATM    5  C5  UNL     1     -34.220  15.278  -5.520  1.00 20.00    -0.038 A 
HETATM    6  N12 UNL     1     -32.598  15.137  -3.807  1.00 20.00    -0.375 N 
HETATM    7  H28 UNL     1     -31.830  15.564  -3.288  1.00 20.00     0.164 HD
ENDROOT
BRANCH   5   8
HETATM    8  C8  UNL     1     -34.880  16.060  -6.644  1.00 20.00     0.025 C 
HETATM    9  C6  UNL     1     -35.151  15.235  -7.918  1.00 20.00     0.011 C 
HETATM   10  C7  UNL     1     -36.646  14.885  -7.918  1.00 20.00     0.021 C 
HETATM   11  C10 UNL     1     -37.227  15.510  -6.651  1.00 20.00     0.086 C 
HETATM   12  C9  UNL     1     -36.270  16.656  -6.320  1.00 20.00     0.008 C 
HETATM   13 CL13 UNL     1     -38.900  16.055  -6.894  1.00 20.00    -0.125 Cl
HETATM   14  C11 UNL     1     -36.444  17.224  -4.918  1.00 20.00     0.012 C 
ENDBRANCH   5   8
TORSDOF 1
ENDMDL
