MODEL 1
REMARK VINA RESULT:      -4.9      0.000      0.000
REMARK  1 active torsions:
REMARK  status: ('A' for Active; 'I' for Inactive)
REMARK    1  A    between atoms: C6_6  and  N9_9 
ROOT
HETATM    1  C1  UNL     1     -32.342   7.174   2.866  1.00 20.00     0.158 C 
HETATM    2  N9  UNL     1     -32.611   6.306   3.609  1.00 20.00    -0.270 NA
HETATM    3  S10 UNL     1     -31.952   8.337   1.849  1.00 20.00    -0.055 SA
ENDROOT
BRANCH   2   4
HETATM    4  C6  UNL     1     -33.866   6.491   4.343  1.00 20.00     0.113 C 
HETATM    5  C3  UNL     1     -33.589   6.504   5.847  1.00 20.00     0.028 C 
HETATM    6  C2  UNL     1     -34.737   5.716   6.456  1.00 20.00     0.007 C 
HETATM    7  C4  UNL     1     -35.015   4.611   5.438  1.00 20.00    -0.013 C 
HETATM    8  C5  UNL     1     -34.821   5.307   4.075  1.00 20.00     0.010 C 
HETATM    9  C7  UNL     1     -34.057   3.430   5.608  1.00 20.00     0.010 C 
HETATM   10  C8  UNL     1     -36.155   5.809   3.516  1.00 20.00     0.012 C 
ENDBRANCH   2   4
TORSDOF 1
ENDMDL
MODEL 2
REMARK VINA RESULT:      -4.4     11.705     12.641
REMARK  1 active torsions:
REMARK  status: ('A' for Active; 'I' for Inactive)
REMARK    1  A    between atoms: C6_6  and  N9_9 
ROOT
HETATM    1  C1  UNL     1     -34.251  16.472  -1.745  1.00 20.00     0.158 C 
HETATM    2  N9  UNL     1     -33.912  15.986  -2.758  1.00 20.00    -0.270 NA
HETATM    3  S10 UNL     1     -34.691  17.152  -0.373  1.00 20.00    -0.055 SA
ENDROOT
BRANCH   2   4
HETATM    4  C6  UNL     1     -34.680  14.804  -3.162  1.00 20.00     0.113 C 
HETATM    5  C3  UNL     1     -33.742  13.759  -3.766  1.00 20.00     0.028 C 
HETATM    6  C2  UNL     1     -34.512  13.188  -4.946  1.00 20.00     0.007 C 
HETATM    7  C4  UNL     1     -35.272  14.386  -5.513  1.00 20.00    -0.013 C 
HETATM    8  C5  UNL     1     -35.698  15.179  -4.260  1.00 20.00     0.010 C 
HETATM    9  C7  UNL     1     -34.393  15.228  -6.440  1.00 20.00     0.010 C 
HETATM   10  C8  UNL     1     -37.118  14.805  -3.826  1.00 20.00     0.012 C 
ENDBRANCH   2   4
TORSDOF 1
ENDMDL
MODEL 3
REMARK VINA RESULT:      -4.2      9.383     10.648
REMARK  1 active torsions:
REMARK  status: ('A' for Active; 'I' for Inactive)
REMARK    1  A    between atoms: C6_6  and  N9_9 
ROOT
HETATM    1  C1  UNL     1     -42.123   2.707  -3.031  1.00 20.00     0.158 C 
HETATM    2  N9  UNL     1     -42.587   3.551  -2.361  1.00 20.00    -0.270 NA
HETATM    3  S10 UNL     1     -41.518   1.545  -3.938  1.00 20.00    -0.055 SA
ENDROOT
BRANCH   2   4
HETATM    4  C6  UNL     1     -41.751   4.746  -2.210  1.00 20.00     0.113 C 
HETATM    5  C3  UNL     1     -40.755   4.540  -1.068  1.00 20.00     0.028 C 
HETATM    6  C2  UNL     1     -40.713   5.878  -0.348  1.00 20.00     0.007 C 
HETATM    7  C4  UNL     1     -42.151   6.388  -0.421  1.00 20.00    -0.013 C 
HETATM    8  C5  UNL     1     -42.622   5.962  -1.828  1.00 20.00     0.010 C 
HETATM    9  C7  UNL     1     -43.026   5.777   0.675  1.00 20.00     0.010 C 
HETATM   10  C8  UNL     1     -42.435   7.096  -2.840  1.00 20.00     0.012 C 
ENDBRANCH   2   4
TORSDOF 1
ENDMDL
MODEL 4
REMARK VINA RESULT:      -4.2     11.992     12.979
REMARK  1 active torsions:
REMARK  status: ('A' for Active; 'I' for Inactive)
REMARK    1  A    between atoms: C6_6  and  N9_9 
ROOT
HETATM    1  C1  UNL     1     -37.976  14.859  -4.059  1.00 20.00     0.158 C 
HETATM    2  N9  UNL     1     -37.011  14.648  -3.425  1.00 20.00    -0.270 NA
HETATM    3  S10 UNL     1     -39.297  15.118  -4.911  1.00 20.00    -0.055 SA
ENDROOT
BRANCH   2   4
HETATM    4  C6  UNL     1     -36.014  15.723  -3.446  1.00 20.00     0.113 C 
HETATM    5  C3  UNL     1     -35.419  15.849  -4.849  1.00 20.00     0.028 C 
HETATM    6  C2  UNL     1     -33.938  16.101  -4.616  1.00 20.00     0.007 C 
HETATM    7  C4  UNL     1     -33.600  15.250  -3.393  1.00 20.00    -0.013 C 
HETATM    8  C5  UNL     1     -34.847  15.386  -2.494  1.00 20.00     0.010 C 
HETATM    9  C7  UNL     1     -33.336  13.791  -3.772  1.00 20.00     0.010 C 
HETATM   10  C8  UNL     1     -34.661  16.497  -1.457  1.00 20.00     0.012 C 
ENDBRANCH   2   4
TORSDOF 1
ENDMDL
MODEL 5
REMARK VINA RESULT:      -4.1     11.907     13.059
REMARK  1 active torsions:
REMARK  status: ('A' for Active; 'I' for Inactive)
REMARK    1  A    between atoms: C6_6  and  N9_9 
ROOT
HETATM    1  C1  UNL     1     -37.850  14.756  -4.173  1.00 20.00     0.158 C 
HETATM    2  N9  UNL     1     -36.923  14.142  -3.796  1.00 20.00    -0.270 NA
HETATM    3  S10 UNL     1     -39.125  15.573  -4.665  1.00 20.00    -0.055 SA
ENDROOT
BRANCH   2   4
HETATM    4  C6  UNL     1     -35.647  14.509  -4.417  1.00 20.00     0.113 C 
HETATM    5  C3  UNL     1     -34.508  13.731  -3.758  1.00 20.00     0.028 C 
HETATM    6  C2  UNL     1     -33.374  14.737  -3.640  1.00 20.00     0.007 C 
HETATM    7  C4  UNL     1     -34.076  16.058  -3.329  1.00 20.00    -0.013 C 
HETATM    8  C5  UNL     1     -35.355  16.008  -4.190  1.00 20.00     0.010 C 
HETATM    9  C7  UNL     1     -34.404  16.189  -1.840  1.00 20.00     0.010 C 
HETATM   10  C8  UNL     1     -35.149  16.724  -5.528  1.00 20.00     0.012 C 
ENDBRANCH   2   4
TORSDOF 1
ENDMDL
MODEL 6
REMARK VINA RESULT:      -4.1     11.817     12.940
REMARK  1 active torsions:
REMARK  status: ('A' for Active; 'I' for Inactive)
REMARK    1  A    between atoms: C6_6  and  N9_9 
ROOT
HETATM    1  C1  UNL     1     -34.921  16.799  -2.870  1.00 20.00     0.158 C 
HETATM    2  N9  UNL     1     -35.161  16.975  -4.005  1.00 20.00    -0.270 NA
HETATM    3  S10 UNL     1     -34.592  16.590  -1.325  1.00 20.00    -0.055 SA
ENDROOT
BRANCH   2   4
HETATM    4  C6  UNL     1     -35.542  15.769  -4.747  1.00 20.00     0.113 C 
HETATM    5  C3  UNL     1     -36.097  14.721  -3.782  1.00 20.00     0.028 C 
HETATM    6  C2  UNL     1     -35.529  13.402  -4.279  1.00 20.00     0.007 C 
HETATM    7  C4  UNL     1     -34.125  13.758  -4.765  1.00 20.00    -0.013 C 
HETATM    8  C5  UNL     1     -34.302  15.143  -5.421  1.00 20.00     0.010 C 
HETATM    9  C7  UNL     1     -33.121  13.805  -3.612  1.00 20.00     0.010 C 
HETATM   10  C8  UNL     1     -34.519  15.015  -6.932  1.00 20.00     0.012 C 
ENDBRANCH   2   4
TORSDOF 1
ENDMDL
MODEL 7
REMARK VINA RESULT:      -4.0     12.221     13.265
REMARK  1 active torsions:
REMARK  status: ('A' for Active; 'I' for Inactive)
REMARK    1  A    between atoms: C6_6  and  N9_9 
ROOT
HETATM    1  C1  UNL     1     -35.525  16.592  -5.798  1.00 20.00     0.158 C 
HETATM    2  N9  UNL     1     -35.493  17.209  -4.800  1.00 20.00    -0.270 NA
HETATM    3  S10 UNL     1     -35.592  15.770  -7.161  1.00 20.00    -0.055 SA
ENDROOT
BRANCH   2   4
HETATM    4  C6  UNL     1     -34.410  16.842  -3.883  1.00 20.00     0.113 C 
HETATM    5  C3  UNL     1     -33.276  16.176  -4.663  1.00 20.00     0.028 C 
HETATM    6  C2  UNL     1     -32.810  15.039  -3.769  1.00 20.00     0.007 C 
HETATM    7  C4  UNL     1     -34.093  14.525  -3.117  1.00 20.00    -0.013 C 
HETATM    8  C5  UNL     1     -34.911  15.807  -2.853  1.00 20.00     0.010 C 
HETATM    9  C7  UNL     1     -34.845  13.556  -4.031  1.00 20.00     0.010 C 
HETATM   10  C8  UNL     1     -34.692  16.318  -1.427  1.00 20.00     0.012 C 
ENDBRANCH   2   4
TORSDOF 1
ENDMDL
MODEL 8
REMARK VINA RESULT:      -4.0     12.275     13.330
REMARK  1 active torsions:
REMARK  status: ('A' for Active; 'I' for Inactive)
REMARK    1  A    between atoms: C6_6  and  N9_9 
ROOT
HETATM    1  C1  UNL     1     -36.455  17.640  -4.304  1.00 20.00     0.158 C 
HETATM    2  N9  UNL     1     -35.503  17.187  -4.819  1.00 20.00    -0.270 NA
HETATM    3  S10 UNL     1     -37.761  18.258  -3.633  1.00 20.00    -0.055 SA
ENDROOT
BRANCH   2   4
HETATM    4  C6  UNL     1     -34.417  16.833  -3.900  1.00 20.00     0.113 C 
HETATM    5  C3  UNL     1     -33.273  16.182  -4.677  1.00 20.00     0.028 C 
HETATM    6  C2  UNL     1     -32.794  15.051  -3.781  1.00 20.00     0.007 C 
HETATM    7  C4  UNL     1     -34.072  14.521  -3.131  1.00 20.00    -0.013 C 
HETATM    8  C5  UNL     1     -34.906  15.792  -2.870  1.00 20.00     0.010 C 
HETATM    9  C7  UNL     1     -34.809  13.542  -4.046  1.00 20.00     0.010 C 
HETATM   10  C8  UNL     1     -34.695  16.308  -1.443  1.00 20.00     0.012 C 
ENDBRANCH   2   4
TORSDOF 1
ENDMDL
MODEL 9
REMARK VINA RESULT:      -4.0     11.780     13.428
REMARK  1 active torsions:
REMARK  status: ('A' for Active; 'I' for Inactive)
REMARK    1  A    between atoms: C6_6  and  N9_9 
ROOT
HETATM    1  C1  UNL     1     -34.013  16.962  -2.676  1.00 20.00     0.158 C 
HETATM    2  N9  UNL     1     -33.690  17.189  -3.781  1.00 20.00    -0.270 NA
HETATM    3  S10 UNL     1     -34.456  16.684  -1.171  1.00 20.00    -0.055 SA
ENDROOT
BRANCH   2   4
HETATM    4  C6  UNL     1     -33.409  16.003  -4.596  1.00 20.00     0.113 C 
HETATM    5  C3  UNL     1     -33.787  16.275  -6.053  1.00 20.00     0.028 C 
HETATM    6  C2  UNL     1     -34.428  14.983  -6.531  1.00 20.00     0.007 C 
HETATM    7  C4  UNL     1     -35.197  14.472  -5.312  1.00 20.00    -0.013 C 
HETATM    8  C5  UNL     1     -34.274  14.815  -4.124  1.00 20.00     0.010 C 
HETATM    9  C7  UNL     1     -36.562  15.150  -5.178  1.00 20.00     0.010 C 
HETATM   10  C8  UNL     1     -33.389  13.622  -3.750  1.00 20.00     0.012 C 
ENDBRANCH   2   4
TORSDOF 1
ENDMDL
