MODEL 1
REMARK VINA RESULT:      -5.2      0.000      0.000
REMARK  1 active torsions:
REMARK  status: ('A' for Active; 'I' for Inactive)
REMARK    1  A    between atoms: C5_5  and  C9_9 
ROOT
HETATM    1  C1  UNL     1     -31.991   8.288   1.862  1.00 20.00     0.012 C 
HETATM    2  C2  UNL     1     -32.192   7.449   2.697  1.00 20.00    -0.117 C 
HETATM    3  C9  UNL     1     -32.430   6.418   3.714  1.00 20.00     0.098 C 
ENDROOT
BRANCH   3   4
HETATM    4  C5  UNL     1     -33.717   6.695   4.484  1.00 20.00     0.002 C 
HETATM    5  C3  UNL     1     -33.506   6.533   6.003  1.00 20.00     0.007 C 
HETATM    6  C4  UNL     1     -34.719   5.759   6.509  1.00 20.00     0.021 C 
HETATM    7  C7  UNL     1     -35.101   4.856   5.342  1.00 20.00     0.086 C 
HETATM    8  C6  UNL     1     -34.931   5.797   4.138  1.00 20.00     0.005 C 
HETATM    9 CL10 UNL     1     -34.029   3.428   5.286  1.00 20.00    -0.125 Cl
HETATM   10  C8  UNL     1     -34.925   5.127   2.770  1.00 20.00     0.012 C 
ENDBRANCH   3   4
TORSDOF 1
ENDMDL
MODEL 2
REMARK VINA RESULT:      -4.9     11.711     12.726
REMARK  1 active torsions:
REMARK  status: ('A' for Active; 'I' for Inactive)
REMARK    1  A    between atoms: C5_5  and  C9_9 
ROOT
HETATM    1  C1  UNL     1     -34.737  16.964  -0.297  1.00 20.00     0.012 C 
HETATM    2  C2  UNL     1     -34.401  16.566  -1.379  1.00 20.00    -0.117 C 
HETATM    3  C9  UNL     1     -33.984  16.085  -2.700  1.00 20.00     0.098 C 
ENDROOT
BRANCH   3   4
HETATM    4  C5  UNL     1     -34.806  14.874  -3.128  1.00 20.00     0.002 C 
HETATM    5  C3  UNL     1     -33.902  13.745  -3.664  1.00 20.00     0.007 C 
HETATM    6  C4  UNL     1     -34.593  13.222  -4.920  1.00 20.00     0.021 C 
HETATM    7  C7  UNL     1     -35.296  14.446  -5.497  1.00 20.00     0.086 C 
HETATM    8  C6  UNL     1     -35.863  15.116  -4.235  1.00 20.00     0.005 C 
HETATM    9 CL10 UNL     1     -34.132  15.469  -6.385  1.00 20.00    -0.125 Cl
HETATM   10  C8  UNL     1     -36.361  16.544  -4.410  1.00 20.00     0.012 C 
ENDBRANCH   3   4
TORSDOF 1
ENDMDL
MODEL 3
REMARK VINA RESULT:      -4.8     11.803     13.222
REMARK  1 active torsions:
REMARK  status: ('A' for Active; 'I' for Inactive)
REMARK    1  A    between atoms: C5_5  and  C9_9 
ROOT
HETATM    1  C1  UNL     1     -34.766  17.390   0.285  1.00 20.00     0.012 C 
HETATM    2  C2  UNL     1     -34.756  16.730  -0.718  1.00 20.00    -0.117 C 
HETATM    3  C9  UNL     1     -34.751  15.920  -1.941  1.00 20.00     0.098 C 
ENDROOT
BRANCH   3   4
HETATM    4  C5  UNL     1     -33.600  16.321  -2.859  1.00 20.00     0.002 C 
HETATM    5  C3  UNL     1     -33.894  17.654  -3.575  1.00 20.00     0.007 C 
HETATM    6  C4  UNL     1     -33.469  17.447  -5.026  1.00 20.00     0.021 C 
HETATM    7  C7  UNL     1     -33.734  15.969  -5.287  1.00 20.00     0.086 C 
HETATM    8  C6  UNL     1     -33.239  15.319  -3.984  1.00 20.00     0.005 C 
HETATM    9 CL10 UNL     1     -35.471  15.697  -5.603  1.00 20.00    -0.125 Cl
HETATM   10  C8  UNL     1     -33.648  13.867  -3.772  1.00 20.00     0.012 C 
ENDBRANCH   3   4
TORSDOF 1
ENDMDL
MODEL 4
REMARK VINA RESULT:      -4.7     11.882     13.096
REMARK  1 active torsions:
REMARK  status: ('A' for Active; 'I' for Inactive)
REMARK    1  A    between atoms: C5_5  and  C9_9 
ROOT
HETATM    1  C1  UNL     1     -34.150  17.434  -0.483  1.00 20.00     0.012 C 
HETATM    2  C2  UNL     1     -34.454  16.610  -1.301  1.00 20.00    -0.117 C 
HETATM    3  C9  UNL     1     -34.833  15.602  -2.297  1.00 20.00     0.098 C 
ENDROOT
BRANCH   3   4
HETATM    4  C5  UNL     1     -33.765  15.469  -3.377  1.00 20.00     0.002 C 
HETATM    5  C3  UNL     1     -33.517  16.814  -4.088  1.00 20.00     0.007 C 
HETATM    6  C4  UNL     1     -33.435  16.487  -5.576  1.00 20.00     0.021 C 
HETATM    7  C7  UNL     1     -34.375  15.299  -5.750  1.00 20.00     0.086 C 
HETATM    8  C6  UNL     1     -34.054  14.451  -4.508  1.00 20.00     0.005 C 
HETATM    9 CL10 UNL     1     -36.071  15.853  -5.815  1.00 20.00    -0.125 Cl
HETATM   10  C8  UNL     1     -35.043  13.336  -4.195  1.00 20.00     0.012 C 
ENDBRANCH   3   4
TORSDOF 1
ENDMDL
MODEL 5
REMARK VINA RESULT:      -4.4      8.921     10.752
REMARK  1 active torsions:
REMARK  status: ('A' for Active; 'I' for Inactive)
REMARK    1  A    between atoms: C5_5  and  C9_9 
ROOT
HETATM    1  C1  UNL     1     -41.723   1.720  -3.555  1.00 20.00     0.012 C 
HETATM    2  C2  UNL     1     -42.099   2.681  -2.942  1.00 20.00    -0.117 C 
HETATM    3  C9  UNL     1     -42.567   3.852  -2.192  1.00 20.00     0.098 C 
ENDROOT
BRANCH   3   4
HETATM    4  C5  UNL     1     -41.439   4.856  -1.983  1.00 20.00     0.002 C 
HETATM    5  C3  UNL     1     -40.907   4.808  -0.537  1.00 20.00     0.007 C 
HETATM    6  C4  UNL     1     -40.741   6.263  -0.108  1.00 20.00     0.021 C 
HETATM    7  C7  UNL     1     -41.843   7.002  -0.858  1.00 20.00     0.086 C 
HETATM    8  C6  UNL     1     -41.785   6.343  -2.246  1.00 20.00     0.005 C 
HETATM    9 CL10 UNL     1     -43.412   6.783  -0.032  1.00 20.00    -0.125 Cl
HETATM   10  C8  UNL     1     -42.969   6.623  -3.162  1.00 20.00     0.012 C 
ENDBRANCH   3   4
TORSDOF 1
ENDMDL
MODEL 6
REMARK VINA RESULT:      -4.3     11.489     13.174
REMARK  1 active torsions:
REMARK  status: ('A' for Active; 'I' for Inactive)
REMARK    1  A    between atoms: C5_5  and  C9_9 
ROOT
HETATM    1  C1  UNL     1     -37.503  14.737  -3.939  1.00 20.00     0.012 C 
HETATM    2  C2  UNL     1     -36.732  15.100  -4.784  1.00 20.00    -0.117 C 
HETATM    3  C9  UNL     1     -35.795  15.548  -5.820  1.00 20.00     0.098 C 
ENDROOT
BRANCH   3   4
HETATM    4  C5  UNL     1     -34.413  14.937  -5.612  1.00 20.00     0.002 C 
HETATM    5  C3  UNL     1     -34.489  13.665  -4.743  1.00 20.00     0.007 C 
HETATM    6  C4  UNL     1     -33.334  13.771  -3.752  1.00 20.00     0.021 C 
HETATM    7  C7  UNL     1     -33.184  15.268  -3.511  1.00 20.00     0.086 C 
HETATM    8  C6  UNL     1     -33.358  15.841  -4.927  1.00 20.00     0.005 C 
HETATM    9 CL10 UNL     1     -34.421  15.838  -2.355  1.00 20.00    -0.125 Cl
HETATM   10  C8  UNL     1     -33.583  17.345  -5.010  1.00 20.00     0.012 C 
ENDBRANCH   3   4
TORSDOF 1
ENDMDL
MODEL 7
REMARK VINA RESULT:      -4.3     11.910     12.795
REMARK  1 active torsions:
REMARK  status: ('A' for Active; 'I' for Inactive)
REMARK    1  A    between atoms: C5_5  and  C9_9 
ROOT
HETATM    1  C1  UNL     1     -39.154  15.230  -3.419  1.00 20.00     0.012 C 
HETATM    2  C2  UNL     1     -38.027  15.149  -3.824  1.00 20.00    -0.117 C 
HETATM    3  C9  UNL     1     -36.652  15.050  -4.328  1.00 20.00     0.098 C 
ENDROOT
BRANCH   3   4
HETATM    4  C5  UNL     1     -35.655  14.931  -3.181  1.00 20.00     0.002 C 
HETATM    5  C3  UNL     1     -35.303  16.315  -2.599  1.00 20.00     0.007 C 
HETATM    6  C4  UNL     1     -33.790  16.308  -2.400  1.00 20.00     0.021 C 
HETATM    7  C7  UNL     1     -33.270  15.412  -3.519  1.00 20.00     0.086 C 
HETATM    8  C6  UNL     1     -34.296  14.267  -3.518  1.00 20.00     0.005 C 
HETATM    9 CL10 UNL     1     -33.211  16.315  -5.060  1.00 20.00    -0.125 Cl
HETATM   10  C8  UNL     1     -34.261  13.346  -4.730  1.00 20.00     0.012 C 
ENDBRANCH   3   4
TORSDOF 1
ENDMDL
MODEL 8
REMARK VINA RESULT:      -4.2     11.690     12.949
REMARK  1 active torsions:
REMARK  status: ('A' for Active; 'I' for Inactive)
REMARK    1  A    between atoms: C5_5  and  C9_9 
ROOT
HETATM    1  C1  UNL     1     -34.571  16.445  -1.107  1.00 20.00     0.012 C 
HETATM    2  C2  UNL     1     -34.910  16.791  -2.205  1.00 20.00    -0.117 C 
HETATM    3  C9  UNL     1     -35.324  17.222  -3.545  1.00 20.00     0.098 C 
ENDROOT
BRANCH   3   4
HETATM    4  C5  UNL     1     -35.747  16.031  -4.398  1.00 20.00     0.002 C 
HETATM    5  C3  UNL     1     -36.093  14.810  -3.523  1.00 20.00     0.007 C 
HETATM    6  C4  UNL     1     -35.445  13.611  -4.208  1.00 20.00     0.021 C 
HETATM    7  C7  UNL     1     -34.193  14.186  -4.861  1.00 20.00     0.086 C 
HETATM    8  C6  UNL     1     -34.709  15.519  -5.428  1.00 20.00     0.005 C 
HETATM    9 CL10 UNL     1     -32.895  14.382  -3.650  1.00 20.00    -0.125 Cl
HETATM   10  C8  UNL     1     -33.639  16.506  -5.876  1.00 20.00     0.012 C 
ENDBRANCH   3   4
TORSDOF 1
ENDMDL
MODEL 9
REMARK VINA RESULT:      -4.1     11.724     12.873
REMARK  1 active torsions:
REMARK  status: ('A' for Active; 'I' for Inactive)
REMARK    1  A    between atoms: C5_5  and  C9_9 
ROOT
HETATM    1  C1  UNL     1     -33.551  17.696  -5.511  1.00 20.00     0.012 C 
HETATM    2  C2  UNL     1     -34.325  17.347  -4.663  1.00 20.00    -0.117 C 
HETATM    3  C9  UNL     1     -35.276  16.929  -3.626  1.00 20.00     0.098 C 
ENDROOT
BRANCH   3   4
HETATM    4  C5  UNL     1     -34.941  15.535  -3.105  1.00 20.00     0.002 C 
HETATM    5  C3  UNL     1     -33.480  15.156  -3.421  1.00 20.00     0.007 C 
HETATM    6  C4  UNL     1     -33.524  13.713  -3.916  1.00 20.00     0.021 C 
HETATM    7  C7  UNL     1     -34.873  13.600  -4.616  1.00 20.00     0.086 C 
HETATM    8  C6  UNL     1     -35.798  14.370  -3.660  1.00 20.00     0.005 C 
HETATM    9 CL10 UNL     1     -34.786  14.313  -6.251  1.00 20.00    -0.125 Cl
HETATM   10  C8  UNL     1     -37.172  14.728  -4.212  1.00 20.00     0.012 C 
ENDBRANCH   3   4
TORSDOF 1
ENDMDL
