MODEL 1
REMARK VINA RESULT:      -4.3      0.000      0.000
REMARK  3 active torsions:
REMARK  status: ('A' for Active; 'I' for Inactive)
REMARK    1  A    between atoms: C1_1  and  C4_4 
REMARK    2  A    between atoms: C1_1  and  C6_6 
REMARK    3  A    between atoms: N7_7  and  O8_8 
ROOT
HETATM    1  C1  UNL     1     -33.912   6.163   5.123  1.00 20.00     0.043 C 
HETATM    2  N7  UNL     1     -33.994   6.500   6.374  1.00 20.00    -0.145 NA
ENDROOT
BRANCH   1   3
HETATM    3  C4  UNL     1     -32.791   6.756   4.305  1.00 20.00     0.036 A 
HETATM    4  C2  UNL     1     -32.213   5.931   3.213  1.00 20.00     0.011 A 
HETATM    5  C3  UNL     1     -33.075   7.115   2.893  1.00 20.00     0.011 A 
ENDBRANCH   1   3
BRANCH   1   6
HETATM    6  C6  UNL     1     -34.882   5.244   4.404  1.00 20.00     0.053 C 
HETATM    7  C5  UNL     1     -35.114   3.977   5.206  1.00 20.00     0.011 C 
ENDBRANCH   1   6
BRANCH   2   8
HETATM    8  O8  UNL     1     -32.978   7.388   6.731  1.00 20.00    -0.266 OA
HETATM    9  H19 UNL     1     -33.318   8.227   6.378  1.00 20.00     0.247 HD
ENDBRANCH   2   8
TORSDOF 3
ENDMDL
MODEL 2
REMARK VINA RESULT:      -4.2      0.941      2.974
REMARK  3 active torsions:
REMARK  status: ('A' for Active; 'I' for Inactive)
REMARK    1  A    between atoms: C1_1  and  C4_4 
REMARK    2  A    between atoms: C1_1  and  C6_6 
REMARK    3  A    between atoms: N7_7  and  O8_8 
ROOT
HETATM    1  C1  UNL     1     -33.801   6.224   4.847  1.00 20.00     0.043 C 
HETATM    2  N7  UNL     1     -33.238   7.111   5.609  1.00 20.00    -0.145 NA
ENDROOT
BRANCH   1   3
HETATM    3  C4  UNL     1     -34.887   5.365   5.447  1.00 20.00     0.036 A 
HETATM    4  C2  UNL     1     -35.355   4.189   4.670  1.00 20.00     0.011 A 
HETATM    5  C3  UNL     1     -34.521   4.000   5.902  1.00 20.00     0.011 A 
ENDBRANCH   1   3
BRANCH   1   6
HETATM    6  C6  UNL     1     -33.426   5.955   3.401  1.00 20.00     0.053 C 
HETATM    7  C5  UNL     1     -32.262   6.832   2.979  1.00 20.00     0.011 C 
ENDBRANCH   1   6
BRANCH   2   8
HETATM    8  O8  UNL     1     -33.776   7.093   6.897  1.00 20.00    -0.266 OA
HETATM    9  H19 UNL     1     -34.229   6.233   6.907  1.00 20.00     0.247 HD
ENDBRANCH   2   8
TORSDOF 3
ENDMDL
MODEL 3
REMARK VINA RESULT:      -4.1      2.443      2.648
REMARK  3 active torsions:
REMARK  status: ('A' for Active; 'I' for Inactive)
REMARK    1  A    between atoms: C1_1  and  C4_4 
REMARK    2  A    between atoms: C1_1  and  C6_6 
REMARK    3  A    between atoms: N7_7  and  O8_8 
ROOT
HETATM    1  C1  UNL     1     -33.710   6.046   4.037  1.00 20.00     0.043 C 
HETATM    2  N7  UNL     1     -34.653   5.369   3.456  1.00 20.00    -0.145 NA
ENDROOT
BRANCH   1   3
HETATM    3  C4  UNL     1     -32.460   6.337   3.243  1.00 20.00     0.036 A 
HETATM    4  C2  UNL     1     -32.369   7.641   2.538  1.00 20.00     0.011 A 
HETATM    5  C3  UNL     1     -31.537   7.379   3.757  1.00 20.00     0.011 A 
ENDBRANCH   1   3
BRANCH   1   6
HETATM    6  C6  UNL     1     -33.749   6.539   5.472  1.00 20.00     0.053 C 
HETATM    7  C5  UNL     1     -34.529   5.575   6.347  1.00 20.00     0.011 C 
ENDBRANCH   1   6
BRANCH   2   8
HETATM    8  O8  UNL     1     -34.307   5.028   2.148  1.00 20.00    -0.266 OA
HETATM    9  H19 UNL     1     -34.432   4.064   2.158  1.00 20.00     0.247 HD
ENDBRANCH   2   8
TORSDOF 3
ENDMDL
MODEL 4
REMARK VINA RESULT:      -4.1      2.330      3.582
REMARK  3 active torsions:
REMARK  status: ('A' for Active; 'I' for Inactive)
REMARK    1  A    between atoms: C1_1  and  C4_4 
REMARK    2  A    between atoms: C1_1  and  C6_6 
REMARK    3  A    between atoms: N7_7  and  O8_8 
ROOT
HETATM    1  C1  UNL     1     -33.827   6.080   3.973  1.00 20.00     0.043 C 
HETATM    2  N7  UNL     1     -34.592   5.487   3.108  1.00 20.00    -0.145 NA
ENDROOT
BRANCH   1   3
HETATM    3  C4  UNL     1     -34.428   6.458   5.304  1.00 20.00     0.036 A 
HETATM    4  C2  UNL     1     -34.301   5.493   6.426  1.00 20.00     0.011 A 
HETATM    5  C3  UNL     1     -33.502   6.762   6.424  1.00 20.00     0.011 A 
ENDBRANCH   1   3
BRANCH   1   6
HETATM    6  C6  UNL     1     -32.377   6.460   3.735  1.00 20.00     0.053 C 
HETATM    7  C5  UNL     1     -32.271   7.501   2.636  1.00 20.00     0.011 C 
ENDBRANCH   1   6
BRANCH   2   8
HETATM    8  O8  UNL     1     -35.883   5.307   3.607  1.00 20.00    -0.266 OA
HETATM    9  H19 UNL     1     -36.335   4.913   2.842  1.00 20.00     0.247 HD
ENDBRANCH   2   8
TORSDOF 3
ENDMDL
MODEL 5
REMARK VINA RESULT:      -4.1     12.178     13.050
REMARK  3 active torsions:
REMARK  status: ('A' for Active; 'I' for Inactive)
REMARK    1  A    between atoms: C1_1  and  C4_4 
REMARK    2  A    between atoms: C1_1  and  C6_6 
REMARK    3  A    between atoms: N7_7  and  O8_8 
ROOT
HETATM    1  C1  UNL     1     -34.064  14.376  -4.319  1.00 20.00     0.043 C 
HETATM    2  N7  UNL     1     -34.406  13.368  -3.576  1.00 20.00    -0.145 NA
ENDROOT
BRANCH   1   3
HETATM    3  C4  UNL     1     -34.632  14.448  -5.715  1.00 20.00     0.036 A 
HETATM    4  C2  UNL     1     -35.544  15.573  -6.040  1.00 20.00     0.011 A 
HETATM    5  C3  UNL     1     -34.156  15.537  -6.604  1.00 20.00     0.011 A 
ENDBRANCH   1   3
BRANCH   1   6
HETATM    6  C6  UNL     1     -33.101  15.475  -3.906  1.00 20.00     0.053 C 
HETATM    7  C5  UNL     1     -33.650  16.248  -2.721  1.00 20.00     0.011 C 
ENDBRANCH   1   6
BRANCH   2   8
HETATM    8  O8  UNL     1     -35.276  12.509  -4.249  1.00 20.00    -0.266 OA
HETATM    9  H19 UNL     1     -36.129  12.956  -4.122  1.00 20.00     0.247 HD
ENDBRANCH   2   8
TORSDOF 3
ENDMDL
MODEL 6
REMARK VINA RESULT:      -4.0      2.054      3.087
REMARK  3 active torsions:
REMARK  status: ('A' for Active; 'I' for Inactive)
REMARK    1  A    between atoms: C1_1  and  C4_4 
REMARK    2  A    between atoms: C1_1  and  C6_6 
REMARK    3  A    between atoms: N7_7  and  O8_8 
ROOT
HETATM    1  C1  UNL     1     -33.584   6.249   4.778  1.00 20.00     0.043 C 
HETATM    2  N7  UNL     1     -32.614   6.918   4.234  1.00 20.00    -0.145 NA
ENDROOT
BRANCH   1   3
HETATM    3  C4  UNL     1     -34.356   5.290   3.906  1.00 20.00     0.036 A 
HETATM    4  C2  UNL     1     -35.250   4.308   4.570  1.00 20.00     0.011 A 
HETATM    5  C3  UNL     1     -35.826   5.465   3.811  1.00 20.00     0.011 A 
ENDBRANCH   1   3
BRANCH   1   6
HETATM    6  C6  UNL     1     -34.032   6.385   6.222  1.00 20.00     0.053 C 
HETATM    7  C5  UNL     1     -33.267   7.496   6.917  1.00 20.00     0.011 C 
ENDBRANCH   1   6
BRANCH   2   8
HETATM    8  O8  UNL     1     -32.469   6.601   2.883  1.00 20.00    -0.266 OA
HETATM    9  H19 UNL     1     -31.935   7.347   2.563  1.00 20.00     0.247 HD
ENDBRANCH   2   8
TORSDOF 3
ENDMDL
MODEL 7
REMARK VINA RESULT:      -3.9     12.027     13.060
REMARK  3 active torsions:
REMARK  status: ('A' for Active; 'I' for Inactive)
REMARK    1  A    between atoms: C1_1  and  C4_4 
REMARK    2  A    between atoms: C1_1  and  C6_6 
REMARK    3  A    between atoms: N7_7  and  O8_8 
ROOT
HETATM    1  C1  UNL     1     -34.396  14.545  -4.748  1.00 20.00     0.043 C 
HETATM    2  N7  UNL     1     -34.847  13.403  -5.167  1.00 20.00    -0.145 NA
ENDROOT
BRANCH   1   3
HETATM    3  C4  UNL     1     -34.273  14.752  -3.258  1.00 20.00     0.036 A 
HETATM    4  C2  UNL     1     -33.694  16.031  -2.776  1.00 20.00     0.011 A 
HETATM    5  C3  UNL     1     -35.159  15.757  -2.620  1.00 20.00     0.011 A 
ENDBRANCH   1   3
BRANCH   1   6
HETATM    6  C6  UNL     1     -34.014  15.711  -5.641  1.00 20.00     0.053 C 
HETATM    7  C5  UNL     1     -34.317  15.392  -7.094  1.00 20.00     0.011 C 
ENDBRANCH   1   6
BRANCH   2   8
HETATM    8  O8  UNL     1     -35.144  12.549  -4.103  1.00 20.00    -0.266 OA
HETATM    9  H19 UNL     1     -35.596  11.819  -4.559  1.00 20.00     0.247 HD
ENDBRANCH   2   8
TORSDOF 3
ENDMDL
MODEL 8
REMARK VINA RESULT:      -3.8     11.890     12.415
REMARK  3 active torsions:
REMARK  status: ('A' for Active; 'I' for Inactive)
REMARK    1  A    between atoms: C1_1  and  C4_4 
REMARK    2  A    between atoms: C1_1  and  C6_6 
REMARK    3  A    between atoms: N7_7  and  O8_8 
ROOT
HETATM    1  C1  UNL     1     -35.675  15.149  -3.367  1.00 20.00     0.043 C 
HETATM    2  N7  UNL     1     -36.963  15.305  -3.312  1.00 20.00    -0.145 NA
ENDROOT
BRANCH   1   3
HETATM    3  C4  UNL     1     -35.146  13.833  -3.882  1.00 20.00     0.036 A 
HETATM    4  C2  UNL     1     -34.430  13.829  -5.183  1.00 20.00     0.011 A 
HETATM    5  C3  UNL     1     -33.675  13.635  -3.902  1.00 20.00     0.011 A 
ENDBRANCH   1   3
BRANCH   1   6
HETATM    6  C6  UNL     1     -34.653  16.177  -2.917  1.00 20.00     0.053 C 
HETATM    7  C5  UNL     1     -34.684  16.334  -1.408  1.00 20.00     0.011 C 
ENDBRANCH   1   6
BRANCH   2   8
HETATM    8  O8  UNL     1     -37.635  14.169  -3.763  1.00 20.00    -0.266 OA
HETATM    9  H19 UNL     1     -38.541  14.505  -3.865  1.00 20.00     0.247 HD
ENDBRANCH   2   8
TORSDOF 3
ENDMDL
MODEL 9
REMARK VINA RESULT:      -3.8     11.887     12.432
REMARK  3 active torsions:
REMARK  status: ('A' for Active; 'I' for Inactive)
REMARK    1  A    between atoms: C1_1  and  C4_4 
REMARK    2  A    between atoms: C1_1  and  C6_6 
REMARK    3  A    between atoms: N7_7  and  O8_8 
ROOT
HETATM    1  C1  UNL     1     -35.095  14.032  -3.934  1.00 20.00     0.043 C 
HETATM    2  N7  UNL     1     -34.623  12.996  -4.557  1.00 20.00    -0.145 NA
ENDROOT
BRANCH   1   3
HETATM    3  C4  UNL     1     -34.139  14.849  -3.099  1.00 20.00     0.036 A 
HETATM    4  C2  UNL     1     -33.934  16.272  -3.467  1.00 20.00     0.011 A 
HETATM    5  C3  UNL     1     -34.706  15.912  -2.233  1.00 20.00     0.011 A 
ENDBRANCH   1   3
BRANCH   1   6
HETATM    6  C6  UNL     1     -36.549  14.468  -3.946  1.00 20.00     0.053 C 
HETATM    7  C5  UNL     1     -36.909  15.086  -5.284  1.00 20.00     0.011 C 
ENDBRANCH   1   6
BRANCH   2   8
HETATM    8  O8  UNL     1     -33.257  12.835  -4.321  1.00 20.00    -0.266 OA
HETATM    9  H19 UNL     1     -32.881  13.562  -4.846  1.00 20.00     0.247 HD
ENDBRANCH   2   8
TORSDOF 3
ENDMDL
