MODEL 1
REMARK VINA RESULT:      -4.1      0.000      0.000
REMARK  2 active torsions:
REMARK  status: ('A' for Active; 'I' for Inactive)
REMARK    1  A    between atoms: C4_4  and  C5_5 
REMARK    2  A    between atoms: C5_5  and  C7_7 
ROOT
HETATM    1  C3  UNL     1     -34.489   3.880   5.154  1.00 20.00     0.207 A 
HETATM    2  C5  UNL     1     -34.445   5.388   5.226  1.00 20.00     0.085 A 
HETATM    3  O8  UNL     1     -35.667   4.681   4.969  1.00 20.00    -0.375 OA
ENDROOT
BRANCH   2   4
HETATM    4  C4  UNL     1     -33.937   6.233   4.066  1.00 20.00     0.022 A 
HETATM    5  C1  UNL     1     -32.579   6.036   3.452  1.00 20.00     0.008 A 
HETATM    6  C2  UNL     1     -33.814   5.699   2.665  1.00 20.00     0.008 A 
ENDBRANCH   2   4
BRANCH   2   7
HETATM    7  C7  UNL     1     -34.412   6.026   6.582  1.00 20.00     0.036 C 
HETATM    8  C6  UNL     1     -33.504   7.224   6.637  1.00 20.00     0.008 C 
ENDBRANCH   2   7
TORSDOF 2
ENDMDL
MODEL 2
REMARK VINA RESULT:      -4.1      1.341      3.034
REMARK  2 active torsions:
REMARK  status: ('A' for Active; 'I' for Inactive)
REMARK    1  A    between atoms: C4_4  and  C5_5 
REMARK    2  A    between atoms: C5_5  and  C7_7 
ROOT
HETATM    1  C3  UNL     1     -35.599   5.822   3.254  1.00 20.00     0.207 A 
HETATM    2  C5  UNL     1     -34.246   5.829   3.926  1.00 20.00     0.085 A 
HETATM    3  O8  UNL     1     -34.527   4.977   2.806  1.00 20.00    -0.375 OA
ENDROOT
BRANCH   2   4
HETATM    4  C4  UNL     1     -33.997   5.100   5.240  1.00 20.00     0.022 A 
HETATM    5  C1  UNL     1     -34.596   5.550   6.543  1.00 20.00     0.008 A 
HETATM    6  C2  UNL     1     -35.047   4.261   5.914  1.00 20.00     0.008 A 
ENDBRANCH   2   4
BRANCH   2   7
HETATM    7  C7  UNL     1     -33.301   6.943   3.591  1.00 20.00     0.036 C 
HETATM    8  C6  UNL     1     -31.961   6.446   3.123  1.00 20.00     0.008 C 
ENDBRANCH   2   7
TORSDOF 2
ENDMDL
MODEL 3
REMARK VINA RESULT:      -4.0      1.036      1.059
REMARK  2 active torsions:
REMARK  status: ('A' for Active; 'I' for Inactive)
REMARK    1  A    between atoms: C4_4  and  C5_5 
REMARK    2  A    between atoms: C5_5  and  C7_7 
ROOT
HETATM    1  C3  UNL     1     -34.842   4.556   4.132  1.00 20.00     0.207 A 
HETATM    2  C5  UNL     1     -34.177   5.748   4.781  1.00 20.00     0.085 A 
HETATM    3  O8  UNL     1     -35.365   5.886   3.988  1.00 20.00    -0.375 OA
ENDROOT
BRANCH   2   4
HETATM    4  C4  UNL     1     -32.933   6.395   4.189  1.00 20.00     0.022 A 
HETATM    5  C1  UNL     1     -32.208   5.825   3.001  1.00 20.00     0.008 A 
HETATM    6  C2  UNL     1     -32.945   7.129   2.877  1.00 20.00     0.008 A 
ENDBRANCH   2   4
BRANCH   2   7
HETATM    7  C7  UNL     1     -34.420   5.979   6.242  1.00 20.00     0.036 C 
HETATM    8  C6  UNL     1     -33.645   7.150   6.781  1.00 20.00     0.008 C 
ENDBRANCH   2   7
TORSDOF 2
ENDMDL
MODEL 4
REMARK VINA RESULT:      -3.8     12.436     13.126
REMARK  2 active torsions:
REMARK  status: ('A' for Active; 'I' for Inactive)
REMARK    1  A    between atoms: C4_4  and  C5_5 
REMARK    2  A    between atoms: C5_5  and  C7_7 
ROOT
HETATM    1  C3  UNL     1     -33.779  16.490  -4.979  1.00 20.00     0.207 A 
HETATM    2  C5  UNL     1     -33.755  15.774  -3.649  1.00 20.00     0.085 A 
HETATM    3  O8  UNL     1     -32.589  15.860  -4.481  1.00 20.00    -0.375 OA
ENDROOT
BRANCH   2   4
HETATM    4  C4  UNL     1     -34.321  14.371  -3.480  1.00 20.00     0.022 A 
HETATM    5  C1  UNL     1     -35.586  13.921  -4.156  1.00 20.00     0.008 A 
HETATM    6  C2  UNL     1     -34.265  13.337  -4.570  1.00 20.00     0.008 A 
ENDBRANCH   2   4
BRANCH   2   7
HETATM    7  C7  UNL     1     -33.648  16.606  -2.406  1.00 20.00     0.036 C 
HETATM    8  C6  UNL     1     -34.733  16.301  -1.410  1.00 20.00     0.008 C 
ENDBRANCH   2   7
TORSDOF 2
ENDMDL
MODEL 5
REMARK VINA RESULT:      -3.8      1.684      3.364
REMARK  2 active torsions:
REMARK  status: ('A' for Active; 'I' for Inactive)
REMARK    1  A    between atoms: C4_4  and  C5_5 
REMARK    2  A    between atoms: C5_5  and  C7_7 
ROOT
HETATM    1  C3  UNL     1     -32.277   6.359   3.233  1.00 20.00     0.207 A 
HETATM    2  C5  UNL     1     -33.497   5.896   3.994  1.00 20.00     0.085 A 
HETATM    3  O8  UNL     1     -33.326   7.267   3.607  1.00 20.00    -0.375 OA
ENDROOT
BRANCH   2   4
HETATM    4  C4  UNL     1     -33.461   5.644   5.495  1.00 20.00     0.022 A 
HETATM    5  C1  UNL     1     -34.183   6.518   6.482  1.00 20.00     0.008 A 
HETATM    6  C2  UNL     1     -34.640   5.104   6.256  1.00 20.00     0.008 A 
ENDBRANCH   2   4
BRANCH   2   7
HETATM    7  C7  UNL     1     -34.582   5.202   3.226  1.00 20.00     0.036 C 
HETATM    8  C6  UNL     1     -35.896   5.930   3.294  1.00 20.00     0.008 C 
ENDBRANCH   2   7
TORSDOF 2
ENDMDL
MODEL 6
REMARK VINA RESULT:      -3.7      1.214      2.239
REMARK  2 active torsions:
REMARK  status: ('A' for Active; 'I' for Inactive)
REMARK    1  A    between atoms: C4_4  and  C5_5 
REMARK    2  A    between atoms: C5_5  and  C7_7 
ROOT
HETATM    1  C3  UNL     1     -34.105   6.928   6.509  1.00 20.00     0.207 A 
HETATM    2  C5  UNL     1     -34.180   6.116   5.237  1.00 20.00     0.085 A 
HETATM    3  O8  UNL     1     -33.212   5.831   6.256  1.00 20.00    -0.375 OA
ENDROOT
BRANCH   2   4
HETATM    4  C4  UNL     1     -33.599   6.623   3.924  1.00 20.00     0.022 A 
HETATM    5  C1  UNL     1     -32.266   6.169   3.397  1.00 20.00     0.008 A 
HETATM    6  C2  UNL     1     -33.530   5.774   2.685  1.00 20.00     0.008 A 
ENDBRANCH   2   4
BRANCH   2   7
HETATM    7  C7  UNL     1     -35.247   5.068   5.135  1.00 20.00     0.036 C 
HETATM    8  C6  UNL     1     -34.777   3.716   5.596  1.00 20.00     0.008 C 
ENDBRANCH   2   7
TORSDOF 2
ENDMDL
MODEL 7
REMARK VINA RESULT:      -3.7     12.237     13.422
REMARK  2 active torsions:
REMARK  status: ('A' for Active; 'I' for Inactive)
REMARK    1  A    between atoms: C4_4  and  C5_5 
REMARK    2  A    between atoms: C5_5  and  C7_7 
ROOT
HETATM    1  C3  UNL     1     -35.737  13.561  -4.211  1.00 20.00     0.207 A 
HETATM    2  C5  UNL     1     -34.691  14.197  -5.097  1.00 20.00     0.085 A 
HETATM    3  O8  UNL     1     -34.587  12.832  -4.668  1.00 20.00    -0.375 OA
ENDROOT
BRANCH   2   4
HETATM    4  C4  UNL     1     -33.624  15.128  -4.540  1.00 20.00     0.022 A 
HETATM    5  C1  UNL     1     -33.655  15.646  -3.129  1.00 20.00     0.008 A 
HETATM    6  C2  UNL     1     -32.588  14.674  -3.549  1.00 20.00     0.008 A 
ENDBRANCH   2   4
BRANCH   2   7
HETATM    7  C7  UNL     1     -34.995  14.328  -6.560  1.00 20.00     0.036 C 
HETATM    8  C6  UNL     1     -34.364  15.546  -7.176  1.00 20.00     0.008 C 
ENDBRANCH   2   7
TORSDOF 2
ENDMDL
MODEL 8
REMARK VINA RESULT:      -3.6     12.421     13.585
REMARK  2 active torsions:
REMARK  status: ('A' for Active; 'I' for Inactive)
REMARK    1  A    between atoms: C4_4  and  C5_5 
REMARK    2  A    between atoms: C5_5  and  C7_7 
ROOT
HETATM    1  C3  UNL     1     -33.828  16.946  -5.671  1.00 20.00     0.207 A 
HETATM    2  C5  UNL     1     -34.135  15.934  -4.592  1.00 20.00     0.085 A 
HETATM    3  O8  UNL     1     -32.824  16.496  -4.748  1.00 20.00    -0.375 OA
ENDROOT
BRANCH   2   4
HETATM    4  C4  UNL     1     -34.235  14.445  -4.892  1.00 20.00     0.022 A 
HETATM    5  C1  UNL     1     -33.674  13.393  -3.975  1.00 20.00     0.008 A 
HETATM    6  C2  UNL     1     -35.161  13.527  -4.144  1.00 20.00     0.008 A 
ENDBRANCH   2   4
BRANCH   2   7
HETATM    7  C7  UNL     1     -34.834  16.415  -3.356  1.00 20.00     0.036 C 
HETATM    8  C6  UNL     1     -33.916  16.501  -2.167  1.00 20.00     0.008 C 
ENDBRANCH   2   7
TORSDOF 2
ENDMDL
MODEL 9
REMARK VINA RESULT:      -3.6     12.237     13.392
REMARK  2 active torsions:
REMARK  status: ('A' for Active; 'I' for Inactive)
REMARK    1  A    between atoms: C4_4  and  C5_5 
REMARK    2  A    between atoms: C5_5  and  C7_7 
ROOT
HETATM    1  C3  UNL     1     -33.609  13.808  -3.861  1.00 20.00     0.207 A 
HETATM    2  C5  UNL     1     -34.061  15.230  -3.625  1.00 20.00     0.085 A 
HETATM    3  O8  UNL     1     -32.673  14.868  -3.611  1.00 20.00    -0.375 OA
ENDROOT
BRANCH   2   4
HETATM    4  C4  UNL     1     -34.619  15.685  -2.283  1.00 20.00     0.022 A 
HETATM    5  C1  UNL     1     -34.024  16.822  -1.500  1.00 20.00     0.008 A 
HETATM    6  C2  UNL     1     -35.387  16.966  -2.115  1.00 20.00     0.008 A 
ENDBRANCH   2   4
BRANCH   2   7
HETATM    7  C7  UNL     1     -34.439  16.054  -4.819  1.00 20.00     0.036 C 
HETATM    8  C6  UNL     1     -33.380  17.056  -5.191  1.00 20.00     0.008 C 
ENDBRANCH   2   7
TORSDOF 2
ENDMDL
