MODEL 1
REMARK VINA RESULT:      -5.2      0.000      0.000
REMARK  1 active torsions:
REMARK  status: ('A' for Active; 'I' for Inactive)
REMARK    1  A    between atoms: C7_7  and  C9_9 
ROOT
HETATM    1  C1  UNL     1     -34.985  17.331   0.509  1.00 20.00     0.012 C 
HETATM    2  C2  UNL     1     -34.612  17.014  -0.588  1.00 20.00    -0.117 C 
HETATM    3  C9  UNL     1     -34.147  16.640  -1.925  1.00 20.00     0.098 C 
ENDROOT
BRANCH   3   4
HETATM    4  C7  UNL     1     -34.903  15.426  -2.442  1.00 20.00     0.008 C 
HETATM    5  C5  UNL     1     -35.983  15.798  -3.462  1.00 20.00     0.013 C 
HETATM    6  C4  UNL     1     -36.381  14.469  -4.089  1.00 20.00     0.079 C 
HETATM    7  C3  UNL     1     -35.087  13.698  -4.043  1.00 20.00     0.131 C 
HETATM    8  C6  UNL     1     -34.049  14.361  -3.157  1.00 20.00     0.056 C 
HETATM    9  O10 UNL     1     -34.901  12.651  -4.651  1.00 20.00    -0.298 OA
HETATM   10  C8  UNL     1     -32.907  14.887  -4.015  1.00 20.00     0.018 C 
ENDBRANCH   3   4
TORSDOF 1
ENDMDL
MODEL 2
REMARK VINA RESULT:      -4.7     11.396     12.175
REMARK  1 active torsions:
REMARK  status: ('A' for Active; 'I' for Inactive)
REMARK    1  A    between atoms: C7_7  and  C9_9 
ROOT
HETATM    1  C1  UNL     1     -31.796   8.389   2.355  1.00 20.00     0.012 C 
HETATM    2  C2  UNL     1     -32.382   7.354   2.529  1.00 20.00    -0.117 C 
HETATM    3  C9  UNL     1     -33.096   6.092   2.724  1.00 20.00     0.098 C 
ENDROOT
BRANCH   3   4
HETATM    4  C7  UNL     1     -33.263   5.787   4.205  1.00 20.00     0.008 C 
HETATM    5  C5  UNL     1     -33.334   7.055   5.061  1.00 20.00     0.013 C 
HETATM    6  C4  UNL     1     -33.823   6.566   6.417  1.00 20.00     0.079 C 
HETATM    7  C3  UNL     1     -34.709   5.409   6.035  1.00 20.00     0.131 C 
HETATM    8  C6  UNL     1     -34.527   4.993   4.587  1.00 20.00     0.056 C 
HETATM    9  O10 UNL     1     -35.483   4.864   6.812  1.00 20.00    -0.298 OA
HETATM   10  C8  UNL     1     -35.786   5.325   3.800  1.00 20.00     0.018 C 
ENDBRANCH   3   4
TORSDOF 1
ENDMDL
MODEL 3
REMARK VINA RESULT:      -4.5      1.998      2.501
REMARK  1 active torsions:
REMARK  status: ('A' for Active; 'I' for Inactive)
REMARK    1  A    between atoms: C7_7  and  C9_9 
ROOT
HETATM    1  C1  UNL     1     -34.790  16.836  -0.950  1.00 20.00     0.012 C 
HETATM    2  C2  UNL     1     -34.265  16.271  -1.871  1.00 20.00    -0.117 C 
HETATM    3  C9  UNL     1     -33.615  15.577  -2.983  1.00 20.00     0.098 C 
ENDROOT
BRANCH   3   4
HETATM    4  C7  UNL     1     -34.357  15.827  -4.287  1.00 20.00     0.008 C 
HETATM    5  C5  UNL     1     -33.429  16.309  -5.407  1.00 20.00     0.013 C 
HETATM    6  C4  UNL     1     -34.268  16.181  -6.671  1.00 20.00     0.079 C 
HETATM    7  C3  UNL     1     -35.136  14.990  -6.355  1.00 20.00     0.131 C 
HETATM    8  C6  UNL     1     -35.084  14.609  -4.887  1.00 20.00     0.056 C 
HETATM    9  O10 UNL     1     -35.811  14.404  -7.192  1.00 20.00    -0.298 OA
HETATM   10  C8  UNL     1     -34.379  13.268  -4.734  1.00 20.00     0.018 C 
ENDBRANCH   3   4
TORSDOF 1
ENDMDL
MODEL 4
REMARK VINA RESULT:      -4.5      2.592      3.529
REMARK  1 active torsions:
REMARK  status: ('A' for Active; 'I' for Inactive)
REMARK    1  A    between atoms: C7_7  and  C9_9 
ROOT
HETATM    1  C1  UNL     1     -33.743  19.039  -6.767  1.00 20.00     0.012 C 
HETATM    2  C2  UNL     1     -33.630  18.236  -5.881  1.00 20.00    -0.117 C 
HETATM    3  C9  UNL     1     -33.481  17.266  -4.795  1.00 20.00     0.098 C 
ENDROOT
BRANCH   3   4
HETATM    4  C7  UNL     1     -34.415  16.081  -4.994  1.00 20.00     0.008 C 
HETATM    5  C5  UNL     1     -34.285  15.461  -6.388  1.00 20.00     0.013 C 
HETATM    6  C4  UNL     1     -35.024  14.134  -6.278  1.00 20.00     0.079 C 
HETATM    7  C3  UNL     1     -34.774  13.751  -4.842  1.00 20.00     0.131 C 
HETATM    8  C6  UNL     1     -34.212  14.900  -4.026  1.00 20.00     0.056 C 
HETATM    9  O10 UNL     1     -35.006  12.638  -4.389  1.00 20.00    -0.298 OA
HETATM   10  C8  UNL     1     -32.772  14.594  -3.639  1.00 20.00     0.018 C 
ENDBRANCH   3   4
TORSDOF 1
ENDMDL
MODEL 5
REMARK VINA RESULT:      -4.4     11.444     13.280
REMARK  1 active torsions:
REMARK  status: ('A' for Active; 'I' for Inactive)
REMARK    1  A    between atoms: C7_7  and  C9_9 
ROOT
HETATM    1  C1  UNL     1     -41.409   1.513  -4.080  1.00 20.00     0.012 C 
HETATM    2  C2  UNL     1     -41.850   2.261  -3.250  1.00 20.00    -0.117 C 
HETATM    3  C9  UNL     1     -42.396   3.161  -2.233  1.00 20.00     0.098 C 
ENDROOT
BRANCH   3   4
HETATM    4  C7  UNL     1     -41.802   4.555  -2.366  1.00 20.00     0.008 C 
HETATM    5  C5  UNL     1     -42.823   5.583  -2.862  1.00 20.00     0.013 C 
HETATM    6  C4  UNL     1     -42.154   6.927  -2.614  1.00 20.00     0.079 C 
HETATM    7  C3  UNL     1     -41.337   6.650  -1.379  1.00 20.00     0.131 C 
HETATM    8  C6  UNL     1     -41.237   5.168  -1.070  1.00 20.00     0.056 C 
HETATM    9  O10 UNL     1     -40.810   7.527  -0.705  1.00 20.00    -0.298 OA
HETATM   10  C8  UNL     1     -42.008   4.859   0.205  1.00 20.00     0.018 C 
ENDBRANCH   3   4
TORSDOF 1
ENDMDL
MODEL 6
REMARK VINA RESULT:      -4.4      1.924      2.683
REMARK  1 active torsions:
REMARK  status: ('A' for Active; 'I' for Inactive)
REMARK    1  A    between atoms: C7_7  and  C9_9 
ROOT
HETATM    1  C1  UNL     1     -33.446  18.508   0.740  1.00 20.00     0.012 C 
HETATM    2  C2  UNL     1     -34.096  17.808   0.012  1.00 20.00    -0.117 C 
HETATM    3  C9  UNL     1     -34.900  16.959  -0.868  1.00 20.00     0.098 C 
ENDROOT
BRANCH   3   4
HETATM    4  C7  UNL     1     -34.046  16.362  -1.976  1.00 20.00     0.008 C 
HETATM    5  C5  UNL     1     -34.726  15.175  -2.666  1.00 20.00     0.013 C 
HETATM    6  C4  UNL     1     -33.893  14.941  -3.918  1.00 20.00     0.079 C 
HETATM    7  C3  UNL     1     -33.434  16.336  -4.258  1.00 20.00     0.131 C 
HETATM    8  C6  UNL     1     -33.678  17.318  -3.127  1.00 20.00     0.056 C 
HETATM    9  O10 UNL     1     -32.918  16.637  -5.326  1.00 20.00    -0.298 OA
HETATM   10  C8  UNL     1     -34.755  18.312  -3.537  1.00 20.00     0.018 C 
ENDBRANCH   3   4
TORSDOF 1
ENDMDL
MODEL 7
REMARK VINA RESULT:      -4.3      1.030      2.139
REMARK  1 active torsions:
REMARK  status: ('A' for Active; 'I' for Inactive)
REMARK    1  A    between atoms: C7_7  and  C9_9 
ROOT
HETATM    1  C1  UNL     1     -34.520  16.979  -0.726  1.00 20.00     0.012 C 
HETATM    2  C2  UNL     1     -34.530  17.056  -1.924  1.00 20.00    -0.117 C 
HETATM    3  C9  UNL     1     -34.548  17.165  -3.384  1.00 20.00     0.098 C 
ENDROOT
BRANCH   3   4
HETATM    4  C7  UNL     1     -34.100  15.863  -4.030  1.00 20.00     0.008 C 
HETATM    5  C5  UNL     1     -33.229  15.015  -3.098  1.00 20.00     0.013 C 
HETATM    6  C4  UNL     1     -33.167  13.654  -3.778  1.00 20.00     0.079 C 
HETATM    7  C3  UNL     1     -34.513  13.575  -4.451  1.00 20.00     0.131 C 
HETATM    8  C6  UNL     1     -35.229  14.913  -4.473  1.00 20.00     0.056 C 
HETATM    9  O10 UNL     1     -34.971  12.545  -4.929  1.00 20.00    -0.298 OA
HETATM   10  C8  UNL     1     -36.448  14.855  -3.563  1.00 20.00     0.018 C 
ENDBRANCH   3   4
TORSDOF 1
ENDMDL
MODEL 8
REMARK VINA RESULT:      -4.3      2.126      3.387
REMARK  1 active torsions:
REMARK  status: ('A' for Active; 'I' for Inactive)
REMARK    1  A    between atoms: C7_7  and  C9_9 
ROOT
HETATM    1  C1  UNL     1     -33.648  18.743  -5.589  1.00 20.00     0.012 C 
HETATM    2  C2  UNL     1     -33.441  17.666  -5.101  1.00 20.00    -0.117 C 
HETATM    3  C9  UNL     1     -33.176  16.358  -4.500  1.00 20.00     0.098 C 
ENDROOT
BRANCH   3   4
HETATM    4  C7  UNL     1     -34.312  15.388  -4.788  1.00 20.00     0.008 C 
HETATM    5  C5  UNL     1     -33.979  13.953  -4.368  1.00 20.00     0.013 C 
HETATM    6  C4  UNL     1     -35.315  13.226  -4.422  1.00 20.00     0.079 C 
HETATM    7  C3  UNL     1     -36.285  14.318  -4.048  1.00 20.00     0.131 C 
HETATM    8  C6  UNL     1     -35.648  15.695  -4.084  1.00 20.00     0.056 C 
HETATM    9  O10 UNL     1     -37.455  14.111  -3.754  1.00 20.00    -0.298 OA
HETATM   10  C8  UNL     1     -35.546  16.246  -2.669  1.00 20.00     0.018 C 
ENDBRANCH   3   4
TORSDOF 1
ENDMDL
MODEL 9
REMARK VINA RESULT:      -4.2      2.296      3.258
REMARK  1 active torsions:
REMARK  status: ('A' for Active; 'I' for Inactive)
REMARK    1  A    between atoms: C7_7  and  C9_9 
ROOT
HETATM    1  C1  UNL     1     -33.357  19.262  -4.246  1.00 20.00     0.012 C 
HETATM    2  C2  UNL     1     -33.628  18.345  -4.972  1.00 20.00    -0.117 C 
HETATM    3  C9  UNL     1     -33.962  17.237  -5.868  1.00 20.00     0.098 C 
ENDROOT
BRANCH   3   4
HETATM    4  C7  UNL     1     -33.759  15.898  -5.175  1.00 20.00     0.008 C 
HETATM    5  C5  UNL     1     -34.319  15.886  -3.749  1.00 20.00     0.013 C 
HETATM    6  C4  UNL     1     -34.323  14.414  -3.361  1.00 20.00     0.079 C 
HETATM    7  C3  UNL     1     -34.581  13.739  -4.683  1.00 20.00     0.131 C 
HETATM    8  C6  UNL     1     -34.418  14.685  -5.858  1.00 20.00     0.056 C 
HETATM    9  O10 UNL     1     -34.883  12.557  -4.792  1.00 20.00    -0.298 OA
HETATM   10  C8  UNL     1     -35.774  14.936  -6.502  1.00 20.00     0.018 C 
ENDBRANCH   3   4
TORSDOF 1
ENDMDL
