MODEL 1
REMARK VINA RESULT:      -4.4      0.000      0.000
REMARK  2 active torsions:
REMARK  status: ('A' for Active; 'I' for Inactive)
REMARK    1  A    between atoms: C4_4  and  C9_9 
REMARK    2  A    between atoms: C6_6  and  N10_10 
ROOT
HETATM    1  C1  UNL     1     -36.449  14.766  -7.222  1.00 20.00     0.158 C 
HETATM    2  N10 UNL     1     -35.422  14.485  -6.731  1.00 20.00    -0.270 NA
HETATM    3  S11 UNL     1     -37.830  15.144  -7.918  1.00 20.00    -0.055 SA
ENDROOT
BRANCH   2   4
HETATM    4  C6  UNL     1     -35.429  14.453  -5.272  1.00 20.00     0.113 C 
HETATM    5  C3  UNL     1     -34.495  13.367  -4.741  1.00 20.00     0.028 C 
HETATM    6  C2  UNL     1     -33.927  13.911  -3.427  1.00 20.00     0.007 C 
HETATM    7  C4  UNL     1     -34.589  15.280  -3.220  1.00 20.00    -0.009 C 
HETATM    8  C5  UNL     1     -34.918  15.759  -4.647  1.00 20.00     0.010 C 
HETATM    9  C7  UNL     1     -33.728  16.377  -5.387  1.00 20.00     0.012 C 
BRANCH   7  10
HETATM   10  C9  UNL     1     -33.748  16.223  -2.373  1.00 20.00     0.000 C 
HETATM   11  C8  UNL     1     -34.458  16.622  -1.120  1.00 20.00     0.005 C 
ENDBRANCH   7  10
ENDBRANCH   2   4
TORSDOF 2
ENDMDL
MODEL 2
REMARK VINA RESULT:      -4.4      3.535      5.008
REMARK  2 active torsions:
REMARK  status: ('A' for Active; 'I' for Inactive)
REMARK    1  A    between atoms: C4_4  and  C9_9 
REMARK    2  A    between atoms: C6_6  and  N10_10 
ROOT
HETATM    1  C1  UNL     1     -34.571  17.040  -0.495  1.00 20.00     0.158 C 
HETATM    2  N10 UNL     1     -34.101  16.610  -1.480  1.00 20.00    -0.270 NA
HETATM    3  S11 UNL     1     -35.182  17.638   0.849  1.00 20.00    -0.055 SA
ENDROOT
BRANCH   2   4
HETATM    4  C6  UNL     1     -35.005  15.793  -2.284  1.00 20.00     0.113 C 
HETATM    5  C3  UNL     1     -35.778  16.650  -3.284  1.00 20.00     0.028 C 
HETATM    6  C2  UNL     1     -35.980  15.770  -4.521  1.00 20.00     0.007 C 
HETATM    7  C4  UNL     1     -35.351  14.413  -4.175  1.00 20.00    -0.009 C 
HETATM    8  C5  UNL     1     -34.264  14.755  -3.138  1.00 20.00     0.010 C 
HETATM    9  C7  UNL     1     -32.959  15.273  -3.751  1.00 20.00     0.012 C 
BRANCH   7  10
HETATM   10  C9  UNL     1     -34.890  13.643  -5.402  1.00 20.00     0.000 C 
HETATM   11  C8  UNL     1     -35.164  14.397  -6.663  1.00 20.00     0.005 C 
ENDBRANCH   7  10
ENDBRANCH   2   4
TORSDOF 2
ENDMDL
MODEL 3
REMARK VINA RESULT:      -4.3      1.362      2.148
REMARK  2 active torsions:
REMARK  status: ('A' for Active; 'I' for Inactive)
REMARK    1  A    between atoms: C4_4  and  C9_9 
REMARK    2  A    between atoms: C6_6  and  N10_10 
ROOT
HETATM    1  C1  UNL     1     -34.958  14.387  -6.535  1.00 20.00     0.158 C 
HETATM    2  N10 UNL     1     -34.796  13.815  -5.524  1.00 20.00    -0.270 NA
HETATM    3  S11 UNL     1     -35.195  15.140  -7.918  1.00 20.00    -0.055 SA
ENDROOT
BRANCH   2   4
HETATM    4  C6  UNL     1     -34.005  14.535  -4.532  1.00 20.00     0.113 C 
HETATM    5  C3  UNL     1     -33.681  15.950  -5.007  1.00 20.00     0.028 C 
HETATM    6  C2  UNL     1     -33.658  16.819  -3.746  1.00 20.00     0.007 C 
HETATM    7  C4  UNL     1     -33.927  15.864  -2.575  1.00 20.00    -0.009 C 
HETATM    8  C5  UNL     1     -34.749  14.721  -3.202  1.00 20.00     0.010 C 
HETATM    9  C7  UNL     1     -36.238  15.041  -3.363  1.00 20.00     0.012 C 
BRANCH   7  10
HETATM   10  C9  UNL     1     -34.550  16.558  -1.374  1.00 20.00     0.000 C 
HETATM   11  C8  UNL     1     -33.661  17.630  -0.832  1.00 20.00     0.005 C 
ENDBRANCH   7  10
ENDBRANCH   2   4
TORSDOF 2
ENDMDL
MODEL 4
REMARK VINA RESULT:      -4.3      3.169      4.876
REMARK  2 active torsions:
REMARK  status: ('A' for Active; 'I' for Inactive)
REMARK    1  A    between atoms: C4_4  and  C9_9 
REMARK    2  A    between atoms: C6_6  and  N10_10 
ROOT
HETATM    1  C1  UNL     1     -34.665  16.410  -1.342  1.00 20.00     0.158 C 
HETATM    2  N10 UNL     1     -34.767  15.601  -2.184  1.00 20.00    -0.270 NA
HETATM    3  S11 UNL     1     -34.524  17.487  -0.177  1.00 20.00    -0.055 SA
ENDROOT
BRANCH   2   4
HETATM    4  C6  UNL     1     -34.871  16.134  -3.538  1.00 20.00     0.113 C 
HETATM    5  C3  UNL     1     -33.610  16.905  -3.924  1.00 20.00     0.028 C 
HETATM    6  C2  UNL     1     -33.426  16.678  -5.427  1.00 20.00     0.007 C 
HETATM    7  C4  UNL     1     -34.616  15.816  -5.869  1.00 20.00    -0.009 C 
HETATM    8  C5  UNL     1     -35.007  15.034  -4.600  1.00 20.00     0.010 C 
HETATM    9  C7  UNL     1     -34.135  13.803  -4.334  1.00 20.00     0.012 C 
BRANCH   7  10
HETATM   10  C9  UNL     1     -34.318  14.983  -7.106  1.00 20.00     0.000 C 
HETATM   11  C8  UNL     1     -35.568  14.600  -7.830  1.00 20.00     0.005 C 
ENDBRANCH   7  10
ENDBRANCH   2   4
TORSDOF 2
ENDMDL
MODEL 5
REMARK VINA RESULT:      -4.2      3.212      4.660
REMARK  2 active torsions:
REMARK  status: ('A' for Active; 'I' for Inactive)
REMARK    1  A    between atoms: C4_4  and  C9_9 
REMARK    2  A    between atoms: C6_6  and  N10_10 
ROOT
HETATM    1  C1  UNL     1     -34.306  16.717  -1.416  1.00 20.00     0.158 C 
HETATM    2  N10 UNL     1     -34.824  15.851  -2.013  1.00 20.00    -0.270 NA
HETATM    3  S11 UNL     1     -33.626  17.892  -0.583  1.00 20.00    -0.055 SA
ENDROOT
BRANCH   2   4
HETATM    4  C6  UNL     1     -34.124  15.437  -3.224  1.00 20.00     0.113 C 
HETATM    5  C3  UNL     1     -34.420  13.977  -3.560  1.00 20.00     0.028 C 
HETATM    6  C2  UNL     1     -34.410  13.891  -5.089  1.00 20.00     0.007 C 
HETATM    7  C4  UNL     1     -34.062  15.300  -5.586  1.00 20.00    -0.009 C 
HETATM    8  C5  UNL     1     -34.564  16.229  -4.463  1.00 20.00     0.010 C 
HETATM    9  C7  UNL     1     -36.068  16.514  -4.516  1.00 20.00     0.012 C 
BRANCH   7  10
HETATM   10  C9  UNL     1     -34.596  15.585  -6.981  1.00 20.00     0.000 C 
HETATM   11  C8  UNL     1     -35.352  14.421  -7.533  1.00 20.00     0.005 C 
ENDBRANCH   7  10
ENDBRANCH   2   4
TORSDOF 2
ENDMDL
MODEL 6
REMARK VINA RESULT:      -4.0      2.126      2.212
REMARK  2 active torsions:
REMARK  status: ('A' for Active; 'I' for Inactive)
REMARK    1  A    between atoms: C4_4  and  C9_9 
REMARK    2  A    between atoms: C6_6  and  N10_10 
ROOT
HETATM    1  C1  UNL     1     -38.686  14.921  -4.855  1.00 20.00     0.158 C 
HETATM    2  N10 UNL     1     -37.539  15.110  -5.011  1.00 20.00    -0.270 NA
HETATM    3  S11 UNL     1     -40.248  14.672  -4.675  1.00 20.00    -0.055 SA
ENDROOT
BRANCH   2   4
HETATM    4  C6  UNL     1     -36.709  14.842  -3.841  1.00 20.00     0.113 C 
HETATM    5  C3  UNL     1     -35.454  14.061  -4.223  1.00 20.00     0.028 C 
HETATM    6  C2  UNL     1     -34.356  14.544  -3.271  1.00 20.00     0.007 C 
HETATM    7  C4  UNL     1     -35.028  15.560  -2.338  1.00 20.00    -0.009 C 
HETATM    8  C5  UNL     1     -36.193  16.125  -3.174  1.00 20.00     0.010 C 
HETATM    9  C7  UNL     1     -35.778  17.216  -4.165  1.00 20.00     0.012 C 
BRANCH   7  10
HETATM   10  C9  UNL     1     -34.053  16.580  -1.772  1.00 20.00     0.000 C 
HETATM   11  C8  UNL     1     -34.537  17.150  -0.478  1.00 20.00     0.005 C 
ENDBRANCH   7  10
ENDBRANCH   2   4
TORSDOF 2
ENDMDL
MODEL 7
REMARK VINA RESULT:      -3.9     12.545     13.490
REMARK  2 active torsions:
REMARK  status: ('A' for Active; 'I' for Inactive)
REMARK    1  A    between atoms: C4_4  and  C9_9 
REMARK    2  A    between atoms: C6_6  and  N10_10 
ROOT
HETATM    1  C1  UNL     1     -42.361   1.607  -3.090  1.00 20.00     0.158 C 
HETATM    2  N10 UNL     1     -42.708   2.466  -2.372  1.00 20.00    -0.270 NA
HETATM    3  S11 UNL     1     -41.907   0.419  -4.049  1.00 20.00    -0.055 SA
ENDROOT
BRANCH   2   4
HETATM    4  C6  UNL     1     -42.168   3.784  -2.687  1.00 20.00     0.113 C 
HETATM    5  C3  UNL     1     -43.259   4.715  -3.214  1.00 20.00     0.028 C 
HETATM    6  C2  UNL     1     -42.885   6.116  -2.723  1.00 20.00     0.007 C 
HETATM    7  C4  UNL     1     -41.561   5.954  -1.964  1.00 20.00    -0.009 C 
HETATM    8  C5  UNL     1     -41.594   4.500  -1.456  1.00 20.00     0.010 C 
HETATM    9  C7  UNL     1     -42.421   4.303  -0.182  1.00 20.00     0.012 C 
BRANCH   7  10
HETATM   10  C9  UNL     1     -41.348   7.029  -0.909  1.00 20.00     0.000 C 
HETATM   11  C8  UNL     1     -42.475   8.009  -0.882  1.00 20.00     0.005 C 
ENDBRANCH   7  10
ENDBRANCH   2   4
TORSDOF 2
ENDMDL
MODEL 8
REMARK VINA RESULT:      -3.9     10.748     11.648
REMARK  2 active torsions:
REMARK  status: ('A' for Active; 'I' for Inactive)
REMARK    1  A    between atoms: C4_4  and  C9_9 
REMARK    2  A    between atoms: C6_6  and  N10_10 
ROOT
HETATM    1  C1  UNL     1     -42.446   8.486  -4.757  1.00 20.00     0.158 C 
HETATM    2  N10 UNL     1     -42.835   7.620  -4.069  1.00 20.00    -0.270 NA
HETATM    3  S11 UNL     1     -41.934   9.650  -5.716  1.00 20.00    -0.055 SA
ENDROOT
BRANCH   2   4
HETATM    4  C6  UNL     1     -42.323   7.646  -2.703  1.00 20.00     0.113 C 
HETATM    5  C3  UNL     1     -43.417   8.041  -1.712  1.00 20.00     0.028 C 
HETATM    6  C2  UNL     1     -43.113   7.270  -0.425  1.00 20.00     0.007 C 
HETATM    7  C4  UNL     1     -41.822   6.487  -0.701  1.00 20.00    -0.009 C 
HETATM    8  C5  UNL     1     -41.832   6.272  -2.227  1.00 20.00     0.010 C 
HETATM    9  C7  UNL     1     -42.712   5.105  -2.686  1.00 20.00     0.012 C 
BRANCH   7  10
HETATM   10  C9  UNL     1     -41.694   5.235   0.152  1.00 20.00     0.000 C 
HETATM   11  C8  UNL     1     -42.885   5.043   1.035  1.00 20.00     0.005 C 
ENDBRANCH   7  10
ENDBRANCH   2   4
TORSDOF 2
ENDMDL
MODEL 9
REMARK VINA RESULT:      -3.8      2.159      3.174
REMARK  2 active torsions:
REMARK  status: ('A' for Active; 'I' for Inactive)
REMARK    1  A    between atoms: C4_4  and  C9_9 
REMARK    2  A    between atoms: C6_6  and  N10_10 
ROOT
HETATM    1  C1  UNL     1     -34.125  16.793  -6.369  1.00 20.00     0.158 C 
HETATM    2  N10 UNL     1     -33.644  16.280  -5.431  1.00 20.00    -0.270 NA
HETATM    3  S11 UNL     1     -34.772  17.465  -7.660  1.00 20.00    -0.055 SA
ENDROOT
BRANCH   2   4
HETATM    4  C6  UNL     1     -33.694  17.072  -4.206  1.00 20.00     0.113 C 
HETATM    5  C3  UNL     1     -34.977  17.897  -4.136  1.00 20.00     0.028 C 
HETATM    6  C2  UNL     1     -35.345  17.972  -2.651  1.00 20.00     0.007 C 
HETATM    7  C4  UNL     1     -34.233  17.221  -1.907  1.00 20.00    -0.009 C 
HETATM    8  C5  UNL     1     -33.708  16.204  -2.940  1.00 20.00     0.010 C 
HETATM    9  C7  UNL     1     -34.565  14.941  -3.062  1.00 20.00     0.012 C 
BRANCH   7  10
HETATM   10  C9  UNL     1     -34.693  16.647  -0.576  1.00 20.00     0.000 C 
HETATM   11  C8  UNL     1     -34.737  17.692   0.492  1.00 20.00     0.005 C 
ENDBRANCH   7  10
ENDBRANCH   2   4
TORSDOF 2
ENDMDL
