MODEL 1
REMARK VINA RESULT:      -4.7      0.000      0.000
REMARK  2 active torsions:
REMARK  status: ('A' for Active; 'I' for Inactive)
REMARK    1  A    between atoms: C3_3  and  C8_8 
REMARK    2  A    between atoms: C8_8  and  C9_9 
ROOT
HETATM    1  C1  UNL     1     -33.300  16.638  -4.514  1.00 20.00     0.006 C 
HETATM    2  C2  UNL     1     -33.696  16.380  -5.964  1.00 20.00     0.021 C 
HETATM    3  C3  UNL     1     -33.568  15.322  -3.750  1.00 20.00    -0.009 C 
HETATM    4  C4  UNL     1     -34.164  14.355  -4.803  1.00 20.00     0.004 C 
HETATM    5  C5  UNL     1     -34.758  15.297  -5.855  1.00 20.00     0.086 C 
HETATM    6  C6  UNL     1     -35.151  13.320  -4.280  1.00 20.00     0.012 C 
HETATM    7 CL10 UNL     1     -35.049  14.505  -7.413  1.00 20.00    -0.125 Cl
ENDROOT
BRANCH   3   8
HETATM    8  C8  UNL     1     -34.442  15.580  -2.525  1.00 20.00     0.005 C 
BRANCH   8   9
HETATM    9  C9  UNL     1     -33.955  16.797  -1.745  1.00 20.00    -0.004 C 
HETATM   10  C7  UNL     1     -34.677  16.924  -0.414  1.00 20.00     0.005 C 
ENDBRANCH   8   9
ENDBRANCH   3   8
TORSDOF 2
ENDMDL
MODEL 2
REMARK VINA RESULT:      -4.5     11.680     12.893
REMARK  2 active torsions:
REMARK  status: ('A' for Active; 'I' for Inactive)
REMARK    1  A    between atoms: C3_3  and  C8_8 
REMARK    2  A    between atoms: C8_8  and  C9_9 
ROOT
HETATM    1  C1  UNL     1     -33.224   7.168   5.608  1.00 20.00     0.006 C 
HETATM    2  C2  UNL     1     -34.061   6.109   6.319  1.00 20.00     0.021 C 
HETATM    3  C3  UNL     1     -33.497   6.996   4.098  1.00 20.00    -0.009 C 
HETATM    4  C4  UNL     1     -34.463   5.789   3.994  1.00 20.00     0.004 C 
HETATM    5  C5  UNL     1     -34.190   5.004   5.281  1.00 20.00     0.086 C 
HETATM    6  C6  UNL     1     -34.351   4.948   2.729  1.00 20.00     0.012 C 
HETATM    7 CL10 UNL     1     -35.487   3.869   5.691  1.00 20.00    -0.125 Cl
ENDROOT
BRANCH   3   8
HETATM    8  C8  UNL     1     -32.186   6.857   3.327  1.00 20.00     0.005 C 
BRANCH   8   9
HETATM    9  C9  UNL     1     -31.670   8.216   2.866  1.00 20.00    -0.004 C 
HETATM   10  C7  UNL     1     -32.066   8.496   1.426  1.00 20.00     0.005 C 
ENDBRANCH   8   9
ENDBRANCH   3   8
TORSDOF 2
ENDMDL
MODEL 3
REMARK VINA RESULT:      -4.5      1.220      2.089
REMARK  2 active torsions:
REMARK  status: ('A' for Active; 'I' for Inactive)
REMARK    1  A    between atoms: C3_3  and  C8_8 
REMARK    2  A    between atoms: C8_8  and  C9_9 
ROOT
HETATM    1  C1  UNL     1     -34.266  13.701  -3.445  1.00 20.00     0.006 C 
HETATM    2  C2  UNL     1     -34.416  13.333  -4.918  1.00 20.00     0.021 C 
HETATM    3  C3  UNL     1     -34.986  15.054  -3.259  1.00 20.00    -0.009 C 
HETATM    4  C4  UNL     1     -35.492  15.442  -4.671  1.00 20.00     0.004 C 
HETATM    5  C5  UNL     1     -34.549  14.682  -5.608  1.00 20.00     0.086 C 
HETATM    6  C6  UNL     1     -35.577  16.935  -4.966  1.00 20.00     0.012 C 
HETATM    7 CL10 UNL     1     -35.188  14.517  -7.253  1.00 20.00    -0.125 Cl
ENDROOT
BRANCH   3   8
HETATM    8  C8  UNL     1     -34.062  16.068  -2.590  1.00 20.00     0.005 C 
BRANCH   8   9
HETATM    9  C9  UNL     1     -34.596  16.485  -1.223  1.00 20.00    -0.004 C 
HETATM   10  C7  UNL     1     -33.810  17.656  -0.658  1.00 20.00     0.005 C 
ENDBRANCH   8   9
ENDBRANCH   3   8
TORSDOF 2
ENDMDL
MODEL 4
REMARK VINA RESULT:      -4.5      2.515      4.253
REMARK  2 active torsions:
REMARK  status: ('A' for Active; 'I' for Inactive)
REMARK    1  A    between atoms: C3_3  and  C8_8 
REMARK    2  A    between atoms: C8_8  and  C9_9 
ROOT
HETATM    1  C1  UNL     1     -36.565  14.469  -4.159  1.00 20.00     0.006 C 
HETATM    2  C2  UNL     1     -36.282  15.530  -3.101  1.00 20.00     0.021 C 
HETATM    3  C3  UNL     1     -35.306  13.578  -4.229  1.00 20.00    -0.009 C 
HETATM    4  C4  UNL     1     -34.309  14.203  -3.221  1.00 20.00     0.004 C 
HETATM    5  C5  UNL     1     -34.767  15.662  -3.127  1.00 20.00     0.086 C 
HETATM    6  C6  UNL     1     -32.831  14.045  -3.554  1.00 20.00     0.012 C 
HETATM    7 CL10 UNL     1     -34.156  16.491  -1.685  1.00 20.00    -0.125 Cl
ENDROOT
BRANCH   3   8
HETATM    8  C8  UNL     1     -34.804  13.467  -5.667  1.00 20.00     0.005 C 
BRANCH   8   9
HETATM    9  C9  UNL     1     -35.373  14.582  -6.538  1.00 20.00    -0.004 C 
HETATM   10  C7  UNL     1     -34.286  15.551  -6.972  1.00 20.00     0.005 C 
ENDBRANCH   8   9
ENDBRANCH   3   8
TORSDOF 2
ENDMDL
MODEL 5
REMARK VINA RESULT:      -4.2     11.552     12.829
REMARK  2 active torsions:
REMARK  status: ('A' for Active; 'I' for Inactive)
REMARK    1  A    between atoms: C3_3  and  C8_8 
REMARK    2  A    between atoms: C8_8  and  C9_9 
ROOT
HETATM    1  C1  UNL     1     -33.960   5.387   2.880  1.00 20.00     0.006 C 
HETATM    2  C2  UNL     1     -34.831   4.613   3.864  1.00 20.00     0.021 C 
HETATM    3  C3  UNL     1     -33.013   6.260   3.731  1.00 20.00    -0.009 C 
HETATM    4  C4  UNL     1     -33.416   5.983   5.201  1.00 20.00     0.004 C 
HETATM    5  C5  UNL     1     -34.870   5.515   5.088  1.00 20.00     0.086 C 
HETATM    6  C6  UNL     1     -33.217   7.134   6.179  1.00 20.00     0.012 C 
HETATM    7 CL10 UNL     1     -35.434   4.645   6.525  1.00 20.00    -0.125 Cl
ENDROOT
BRANCH   3   8
HETATM    8  C8  UNL     1     -33.087   7.721   3.293  1.00 20.00     0.005 C 
BRANCH   8   9
HETATM    9  C9  UNL     1     -32.069   8.021   2.197  1.00 20.00    -0.004 C 
HETATM   10  C7  UNL     1     -32.379   9.337   1.502  1.00 20.00     0.005 C 
ENDBRANCH   8   9
ENDBRANCH   3   8
TORSDOF 2
ENDMDL
MODEL 6
REMARK VINA RESULT:      -4.1      2.028      3.701
REMARK  2 active torsions:
REMARK  status: ('A' for Active; 'I' for Inactive)
REMARK    1  A    between atoms: C3_3  and  C8_8 
REMARK    2  A    between atoms: C8_8  and  C9_9 
ROOT
HETATM    1  C1  UNL     1     -34.750  15.879  -2.088  1.00 20.00     0.006 C 
HETATM    2  C2  UNL     1     -35.834  16.867  -2.507  1.00 20.00     0.021 C 
HETATM    3  C3  UNL     1     -33.562  16.105  -3.049  1.00 20.00    -0.009 C 
HETATM    4  C4  UNL     1     -34.037  17.204  -4.032  1.00 20.00     0.004 C 
HETATM    5  C5  UNL     1     -35.564  17.084  -3.988  1.00 20.00     0.086 C 
HETATM    6  C6  UNL     1     -33.458  17.141  -5.439  1.00 20.00     0.012 C 
HETATM    7 CL10 UNL     1     -36.392  18.525  -4.601  1.00 20.00    -0.125 Cl
ENDROOT
BRANCH   3   8
HETATM    8  C8  UNL     1     -33.132  14.788  -3.692  1.00 20.00     0.005 C 
BRANCH   8   9
HETATM    9  C9  UNL     1     -34.224  13.731  -3.567  1.00 20.00    -0.004 C 
HETATM   10  C7  UNL     1     -34.769  13.338  -4.931  1.00 20.00     0.005 C 
ENDBRANCH   8   9
ENDBRANCH   3   8
TORSDOF 2
ENDMDL
MODEL 7
REMARK VINA RESULT:      -4.1      1.298      1.547
REMARK  2 active torsions:
REMARK  status: ('A' for Active; 'I' for Inactive)
REMARK    1  A    between atoms: C3_3  and  C8_8 
REMARK    2  A    between atoms: C8_8  and  C9_9 
ROOT
HETATM    1  C1  UNL     1     -33.363  15.835  -3.299  1.00 20.00     0.006 C 
HETATM    2  C2  UNL     1     -33.517  15.485  -4.776  1.00 20.00     0.021 C 
HETATM    3  C3  UNL     1     -34.675  15.402  -2.611  1.00 20.00    -0.009 C 
HETATM    4  C4  UNL     1     -35.570  14.852  -3.750  1.00 20.00     0.004 C 
HETATM    5  C5  UNL     1     -35.020  15.546  -4.999  1.00 20.00     0.086 C 
HETATM    6  C6  UNL     1     -37.072  15.023  -3.565  1.00 20.00     0.012 C 
HETATM    7 CL10 UNL     1     -35.491  14.742  -6.506  1.00 20.00    -0.125 Cl
ENDROOT
BRANCH   3   8
HETATM    8  C8  UNL     1     -35.269  16.558  -1.808  1.00 20.00     0.005 C 
BRANCH   8   9
HETATM    9  C9  UNL     1     -34.303  17.032  -0.727  1.00 20.00    -0.004 C 
HETATM   10  C7  UNL     1     -35.042  17.389   0.553  1.00 20.00     0.005 C 
ENDBRANCH   8   9
ENDBRANCH   3   8
TORSDOF 2
ENDMDL
MODEL 8
REMARK VINA RESULT:      -4.1      5.172      7.669
REMARK  2 active torsions:
REMARK  status: ('A' for Active; 'I' for Inactive)
REMARK    1  A    between atoms: C3_3  and  C8_8 
REMARK    2  A    between atoms: C8_8  and  C9_9 
ROOT
HETATM    1  C1  UNL     1     -32.295  19.145   0.558  1.00 20.00     0.006 C 
HETATM    2  C2  UNL     1     -31.411  19.263   1.796  1.00 20.00     0.021 C 
HETATM    3  C3  UNL     1     -33.748  19.044   1.069  1.00 20.00    -0.009 C 
HETATM    4  C4  UNL     1     -33.638  19.060   2.614  1.00 20.00     0.004 C 
HETATM    5  C5  UNL     1     -32.216  18.553   2.874  1.00 20.00     0.086 C 
HETATM    6  C6  UNL     1     -34.711  18.289   3.372  1.00 20.00     0.012 C 
HETATM    7 CL10 UNL     1     -31.624  18.944   4.497  1.00 20.00    -0.125 Cl
ENDROOT
BRANCH   3   8
HETATM    8  C8  UNL     1     -34.445  17.824   0.472  1.00 20.00     0.005 C 
BRANCH   8   9
HETATM    9  C9  UNL     1     -33.812  17.421  -0.856  1.00 20.00    -0.004 C 
HETATM   10  C7  UNL     1     -34.595  16.302  -1.523  1.00 20.00     0.005 C 
ENDBRANCH   8   9
ENDBRANCH   3   8
TORSDOF 2
ENDMDL
MODEL 9
REMARK VINA RESULT:      -4.0      2.009      3.468
REMARK  2 active torsions:
REMARK  status: ('A' for Active; 'I' for Inactive)
REMARK    1  A    between atoms: C3_3  and  C8_8 
REMARK    2  A    between atoms: C8_8  and  C9_9 
ROOT
HETATM    1  C1  UNL     1     -34.130  14.106  -3.851  1.00 20.00     0.006 C 
HETATM    2  C2  UNL     1     -35.540  13.630  -4.186  1.00 20.00     0.021 C 
HETATM    3  C3  UNL     1     -34.296  15.373  -2.983  1.00 20.00    -0.009 C 
HETATM    4  C4  UNL     1     -35.824  15.607  -2.891  1.00 20.00     0.004 C 
HETATM    5  C5  UNL     1     -36.366  14.906  -4.140  1.00 20.00     0.086 C 
HETATM    6  C6  UNL     1     -36.274  17.056  -2.758  1.00 20.00     0.012 C 
HETATM    7 CL10 UNL     1     -38.101  14.559  -4.046  1.00 20.00    -0.125 Cl
ENDROOT
BRANCH   3   8
HETATM    8  C8  UNL     1     -33.486  16.531  -3.562  1.00 20.00     0.005 C 
BRANCH   8   9
HETATM    9  C9  UNL     1     -33.162  16.297  -5.034  1.00 20.00    -0.004 C 
HETATM   10  C7  UNL     1     -33.944  17.243  -5.929  1.00 20.00     0.005 C 
ENDBRANCH   8   9
ENDBRANCH   3   8
TORSDOF 2
ENDMDL
