MODEL 1
REMARK VINA RESULT:      -4.9      0.000      0.000
REMARK  2 active torsions:
REMARK  status: ('A' for Active; 'I' for Inactive)
REMARK    1  A    between atoms: C5_5  and  C9_9 
REMARK    2  A    between atoms: C9_9  and  C10_10 
ROOT
HETATM    1  C1  UNL     1     -34.865   4.538   4.999  1.00 20.00     0.131 C 
HETATM    2  C2  UNL     1     -34.114   5.234   6.105  1.00 20.00     0.079 C 
HETATM    3  C3  UNL     1     -33.931   6.634   5.534  1.00 20.00     0.013 C 
HETATM    4  C4  UNL     1     -34.870   5.334   3.710  1.00 20.00     0.055 C 
HETATM    5  C5  UNL     1     -33.853   6.449   4.015  1.00 20.00    -0.003 C 
HETATM    6  C6  UNL     1     -36.269   5.869   3.442  1.00 20.00     0.018 C 
HETATM    7  O11 UNL     1     -35.407   3.447   5.132  1.00 20.00    -0.298 OA
ENDROOT
BRANCH   5   8
HETATM    8  C9  UNL     1     -32.440   6.060   3.569  1.00 20.00     0.009 C 
BRANCH   8   9
HETATM    9  C10 UNL     1     -31.604   7.247   3.062  1.00 20.00    -0.022 C 
HETATM   10  C7  UNL     1     -32.408   8.179   2.153  1.00 20.00     0.009 C 
HETATM   11  C8  UNL     1     -31.048   8.036   4.249  1.00 20.00     0.009 C 
ENDBRANCH   8   9
ENDBRANCH   5   8
TORSDOF 2
ENDMDL
MODEL 2
REMARK VINA RESULT:      -4.8     11.565     12.382
REMARK  2 active torsions:
REMARK  status: ('A' for Active; 'I' for Inactive)
REMARK    1  A    between atoms: C5_5  and  C9_9 
REMARK    2  A    between atoms: C9_9  and  C10_10 
ROOT
HETATM    1  C1  UNL     1     -34.273  14.247  -3.810  1.00 20.00     0.131 C 
HETATM    2  C2  UNL     1     -35.768  14.344  -3.649  1.00 20.00     0.079 C 
HETATM    3  C3  UNL     1     -35.980  15.848  -3.530  1.00 20.00     0.013 C 
HETATM    4  C4  UNL     1     -33.570  15.552  -3.493  1.00 20.00     0.055 C 
HETATM    5  C5  UNL     1     -34.705  16.390  -2.875  1.00 20.00    -0.003 C 
HETATM    6  C6  UNL     1     -33.017  16.161  -4.773  1.00 20.00     0.018 C 
HETATM    7  O11 UNL     1     -33.694  13.225  -4.155  1.00 20.00    -0.298 OA
ENDROOT
BRANCH   5   8
HETATM    8  C9  UNL     1     -34.749  16.241  -1.352  1.00 20.00     0.009 C 
BRANCH   8   9
HETATM    9  C10 UNL     1     -34.661  17.580  -0.599  1.00 20.00    -0.022 C 
HETATM   10  C7  UNL     1     -35.104  17.457   0.860  1.00 20.00     0.009 C 
HETATM   11  C8  UNL     1     -33.230  18.118  -0.662  1.00 20.00     0.009 C 
ENDBRANCH   8   9
ENDBRANCH   5   8
TORSDOF 2
ENDMDL
MODEL 3
REMARK VINA RESULT:      -4.7     11.287     13.155
REMARK  2 active torsions:
REMARK  status: ('A' for Active; 'I' for Inactive)
REMARK    1  A    between atoms: C5_5  and  C9_9 
REMARK    2  A    between atoms: C9_9  and  C10_10 
ROOT
HETATM    1  C1  UNL     1     -34.678  13.657  -4.196  1.00 20.00     0.131 C 
HETATM    2  C2  UNL     1     -33.260  13.900  -3.749  1.00 20.00     0.079 C 
HETATM    3  C3  UNL     1     -33.274  15.391  -3.438  1.00 20.00     0.013 C 
HETATM    4  C4  UNL     1     -35.434  14.945  -4.456  1.00 20.00     0.055 C 
HETATM    5  C5  UNL     1     -34.311  15.997  -4.390  1.00 20.00    -0.003 C 
HETATM    6  C6  UNL     1     -36.494  15.144  -3.383  1.00 20.00     0.018 C 
HETATM    7  O11 UNL     1     -35.162  12.540  -4.336  1.00 20.00    -0.298 OA
ENDROOT
BRANCH   5   8
HETATM    8  C9  UNL     1     -33.712  16.269  -5.773  1.00 20.00     0.009 C 
BRANCH   8   9
HETATM    9  C10 UNL     1     -34.751  16.255  -6.908  1.00 20.00    -0.022 C 
HETATM   10  C7  UNL     1     -34.630  17.475  -7.822  1.00 20.00     0.009 C 
HETATM   11  C8  UNL     1     -34.603  14.974  -7.733  1.00 20.00     0.009 C 
ENDBRANCH   8   9
ENDBRANCH   5   8
TORSDOF 2
ENDMDL
MODEL 4
REMARK VINA RESULT:      -4.7     11.816     12.784
REMARK  2 active torsions:
REMARK  status: ('A' for Active; 'I' for Inactive)
REMARK    1  A    between atoms: C5_5  and  C9_9 
REMARK    2  A    between atoms: C9_9  and  C10_10 
ROOT
HETATM    1  C1  UNL     1     -34.544  15.484  -5.266  1.00 20.00     0.131 C 
HETATM    2  C2  UNL     1     -33.265  16.162  -4.844  1.00 20.00     0.079 C 
HETATM    3  C3  UNL     1     -32.988  15.508  -3.496  1.00 20.00     0.013 C 
HETATM    4  C4  UNL     1     -35.190  14.709  -4.135  1.00 20.00     0.055 C 
HETATM    5  C5  UNL     1     -34.365  15.163  -2.917  1.00 20.00    -0.003 C 
HETATM    6  C6  UNL     1     -35.073  13.215  -4.403  1.00 20.00     0.018 C 
HETATM    7  O11 UNL     1     -35.007  15.557  -6.397  1.00 20.00    -0.298 OA
ENDROOT
BRANCH   5   8
HETATM    8  C9  UNL     1     -35.001  16.372  -2.226  1.00 20.00     0.009 C 
BRANCH   8   9
HETATM    9  C10 UNL     1     -34.093  17.028  -1.171  1.00 20.00    -0.022 C 
HETATM   10  C7  UNL     1     -33.585  18.401  -1.614  1.00 20.00     0.009 C 
HETATM   11  C8  UNL     1     -34.845  17.158   0.155  1.00 20.00     0.009 C 
ENDBRANCH   8   9
ENDBRANCH   5   8
TORSDOF 2
ENDMDL
MODEL 5
REMARK VINA RESULT:      -4.6     11.445     12.568
REMARK  2 active torsions:
REMARK  status: ('A' for Active; 'I' for Inactive)
REMARK    1  A    between atoms: C5_5  and  C9_9 
REMARK    2  A    between atoms: C9_9  and  C10_10 
ROOT
HETATM    1  C1  UNL     1     -35.529  14.658  -5.339  1.00 20.00     0.131 C 
HETATM    2  C2  UNL     1     -34.377  13.732  -5.043  1.00 20.00     0.079 C 
HETATM    3  C3  UNL     1     -34.350  13.734  -3.519  1.00 20.00     0.013 C 
HETATM    4  C4  UNL     1     -35.981  15.432  -4.116  1.00 20.00     0.055 C 
HETATM    5  C5  UNL     1     -34.865  15.116  -3.103  1.00 20.00    -0.003 C 
HETATM    6  C6  UNL     1     -37.346  14.931  -3.667  1.00 20.00     0.018 C 
HETATM    7  O11 UNL     1     -36.038  14.771  -6.447  1.00 20.00    -0.298 OA
ENDROOT
BRANCH   5   8
HETATM    8  C9  UNL     1     -33.752  16.166  -3.147  1.00 20.00     0.009 C 
BRANCH   8   9
HETATM    9  C10 UNL     1     -33.634  16.993  -1.855  1.00 20.00    -0.022 C 
HETATM   10  C7  UNL     1     -33.745  18.496  -2.114  1.00 20.00     0.009 C 
HETATM   11  C8  UNL     1     -34.712  16.559  -0.859  1.00 20.00     0.009 C 
ENDBRANCH   8   9
ENDBRANCH   5   8
TORSDOF 2
ENDMDL
MODEL 6
REMARK VINA RESULT:      -4.6     11.046     12.620
REMARK  2 active torsions:
REMARK  status: ('A' for Active; 'I' for Inactive)
REMARK    1  A    between atoms: C5_5  and  C9_9 
REMARK    2  A    between atoms: C9_9  and  C10_10 
ROOT
HETATM    1  C1  UNL     1     -34.572  13.696  -4.778  1.00 20.00     0.131 C 
HETATM    2  C2  UNL     1     -34.739  14.718  -5.873  1.00 20.00     0.079 C 
HETATM    3  C3  UNL     1     -33.878  15.869  -5.370  1.00 20.00     0.013 C 
HETATM    4  C4  UNL     1     -33.925  14.276  -3.537  1.00 20.00     0.055 C 
HETATM    5  C5  UNL     1     -33.938  15.786  -3.840  1.00 20.00    -0.003 C 
HETATM    6  C6  UNL     1     -32.518  13.718  -3.382  1.00 20.00     0.018 C 
HETATM    7  O11 UNL     1     -34.925  12.527  -4.884  1.00 20.00    -0.298 OA
ENDROOT
BRANCH   5   8
HETATM    8  C9  UNL     1     -35.199  16.458  -3.291  1.00 20.00     0.009 C 
BRANCH   8   9
HETATM    9  C10 UNL     1     -34.928  17.402  -2.106  1.00 20.00    -0.022 C 
HETATM   10  C7  UNL     1     -34.646  16.642  -0.809  1.00 20.00     0.009 C 
HETATM   11  C8  UNL     1     -33.749  18.322  -2.434  1.00 20.00     0.009 C 
ENDBRANCH   8   9
ENDBRANCH   5   8
TORSDOF 2
ENDMDL
MODEL 7
REMARK VINA RESULT:      -4.4     12.053     13.096
REMARK  2 active torsions:
REMARK  status: ('A' for Active; 'I' for Inactive)
REMARK    1  A    between atoms: C5_5  and  C9_9 
REMARK    2  A    between atoms: C9_9  and  C10_10 
ROOT
HETATM    1  C1  UNL     1     -33.723  16.330  -4.314  1.00 20.00     0.131 C 
HETATM    2  C2  UNL     1     -33.870  14.876  -3.946  1.00 20.00     0.079 C 
HETATM    3  C3  UNL     1     -35.193  14.869  -3.192  1.00 20.00     0.013 C 
HETATM    4  C4  UNL     1     -34.705  17.218  -3.575  1.00 20.00     0.055 C 
HETATM    5  C5  UNL     1     -35.295  16.250  -2.532  1.00 20.00    -0.003 C 
HETATM    6  C6  UNL     1     -35.750  17.748  -4.545  1.00 20.00     0.018 C 
HETATM    7  O11 UNL     1     -32.899  16.745  -5.119  1.00 20.00    -0.298 OA
ENDROOT
BRANCH   5   8
HETATM    8  C9  UNL     1     -34.517  16.300  -1.214  1.00 20.00     0.009 C 
BRANCH   8   9
HETATM    9  C10 UNL     1     -34.579  17.669  -0.514  1.00 20.00    -0.022 C 
HETATM   10  C7  UNL     1     -35.214  17.585   0.874  1.00 20.00     0.009 C 
HETATM   11  C8  UNL     1     -33.172  18.261  -0.405  1.00 20.00     0.009 C 
ENDBRANCH   8   9
ENDBRANCH   5   8
TORSDOF 2
ENDMDL
MODEL 8
REMARK VINA RESULT:      -4.4     11.860     13.211
REMARK  2 active torsions:
REMARK  status: ('A' for Active; 'I' for Inactive)
REMARK    1  A    between atoms: C5_5  and  C9_9 
REMARK    2  A    between atoms: C9_9  and  C10_10 
ROOT
HETATM    1  C1  UNL     1     -33.666  18.343  -1.915  1.00 20.00     0.131 C 
HETATM    2  C2  UNL     1     -34.525  18.491  -3.144  1.00 20.00     0.079 C 
HETATM    3  C3  UNL     1     -35.578  17.411  -2.929  1.00 20.00     0.013 C 
HETATM    4  C4  UNL     1     -33.959  17.067  -1.151  1.00 20.00     0.055 C 
HETATM    5  C5  UNL     1     -34.875  16.308  -2.129  1.00 20.00    -0.003 C 
HETATM    6  C6  UNL     1     -34.649  17.403   0.164  1.00 20.00     0.018 C 
HETATM    7  O11 UNL     1     -32.824  19.165  -1.576  1.00 20.00    -0.298 OA
ENDROOT
BRANCH   5   8
HETATM    8  C9  UNL     1     -34.073  15.377  -3.042  1.00 20.00     0.009 C 
BRANCH   8   9
HETATM    9  C10 UNL     1     -34.864  14.883  -4.266  1.00 20.00    -0.022 C 
HETATM   10  C7  UNL     1     -34.195  15.269  -5.586  1.00 20.00     0.009 C 
HETATM   11  C8  UNL     1     -35.034  13.364  -4.197  1.00 20.00     0.009 C 
ENDBRANCH   8   9
ENDBRANCH   5   8
TORSDOF 2
ENDMDL
MODEL 9
REMARK VINA RESULT:      -4.3     11.625     13.162
REMARK  2 active torsions:
REMARK  status: ('A' for Active; 'I' for Inactive)
REMARK    1  A    between atoms: C5_5  and  C9_9 
REMARK    2  A    between atoms: C9_9  and  C10_10 
ROOT
HETATM    1  C1  UNL     1     -33.564  16.159  -4.046  1.00 20.00     0.131 C 
HETATM    2  C2  UNL     1     -33.826  17.023  -2.840  1.00 20.00     0.079 C 
HETATM    3  C3  UNL     1     -34.665  16.102  -1.964  1.00 20.00     0.013 C 
HETATM    4  C4  UNL     1     -34.433  14.918  -4.072  1.00 20.00     0.055 C 
HETATM    5  C5  UNL     1     -35.434  15.201  -2.936  1.00 20.00    -0.003 C 
HETATM    6  C6  UNL     1     -33.579  13.686  -3.811  1.00 20.00     0.018 C 
HETATM    7  O11 UNL     1     -32.740  16.434  -4.910  1.00 20.00    -0.298 OA
ENDROOT
BRANCH   5   8
HETATM    8  C9  UNL     1     -36.698  15.891  -3.459  1.00 20.00     0.009 C 
BRANCH   8   9
HETATM    9  C10 UNL     1     -37.461  15.065  -4.509  1.00 20.00    -0.022 C 
HETATM   10  C7  UNL     1     -38.867  14.685  -4.042  1.00 20.00     0.009 C 
HETATM   11  C8  UNL     1     -37.545  15.845  -5.823  1.00 20.00     0.009 C 
ENDBRANCH   8   9
ENDBRANCH   5   8
TORSDOF 2
ENDMDL
