MODEL 1
REMARK VINA RESULT:      -5.4      0.000      0.000
REMARK  1 active torsions:
REMARK  status: ('A' for Active; 'I' for Inactive)
REMARK    1  A    between atoms: C5_5  and  C9_9 
ROOT
HETATM    1  C1  UNL     1     -32.137   8.824   1.345  1.00 20.00     0.012 C 
HETATM    2  C2  UNL     1     -32.035   8.068   2.272  1.00 20.00    -0.117 C 
HETATM    3  C9  UNL     1     -31.903   7.144   3.404  1.00 20.00     0.098 C 
ENDROOT
BRANCH   3   4
HETATM    4  C5  UNL     1     -33.238   6.935   4.104  1.00 20.00     0.002 C 
HETATM    5  C3  UNL     1     -33.162   7.218   5.613  1.00 20.00     0.007 C 
HETATM    6  C4  UNL     1     -34.015   6.145   6.297  1.00 20.00     0.021 C 
HETATM    7  C7  UNL     1     -34.767   5.456   5.165  1.00 20.00     0.086 C 
HETATM    8  C6  UNL     1     -33.769   5.495   4.006  1.00 20.00     0.005 C 
HETATM    9 CL10 UNL     1     -35.257   3.811   5.605  1.00 20.00    -0.125 Cl
HETATM   10  C8  UNL     1     -34.397   5.176   2.654  1.00 20.00     0.012 C 
ENDBRANCH   3   4
TORSDOF 1
ENDMDL
MODEL 2
REMARK VINA RESULT:      -4.8     11.251     12.538
REMARK  1 active torsions:
REMARK  status: ('A' for Active; 'I' for Inactive)
REMARK    1  A    between atoms: C5_5  and  C9_9 
ROOT
HETATM    1  C1  UNL     1     -34.784  16.954  -0.380  1.00 20.00     0.012 C 
HETATM    2  C2  UNL     1     -34.311  16.567  -1.414  1.00 20.00    -0.117 C 
HETATM    3  C9  UNL     1     -33.727  16.098  -2.675  1.00 20.00     0.098 C 
ENDROOT
BRANCH   3   4
HETATM    4  C5  UNL     1     -34.703  15.214  -3.439  1.00 20.00     0.002 C 
HETATM    5  C3  UNL     1     -34.234  13.752  -3.518  1.00 20.00     0.007 C 
HETATM    6  C4  UNL     1     -34.575  13.266  -4.930  1.00 20.00     0.021 C 
HETATM    7  C7  UNL     1     -35.464  14.353  -5.520  1.00 20.00     0.086 C 
HETATM    8  C6  UNL     1     -34.903  15.637  -4.904  1.00 20.00     0.005 C 
HETATM    9 CL10 UNL     1     -35.416  14.355  -7.292  1.00 20.00    -0.125 Cl
HETATM   10  C8  UNL     1     -35.826  16.839  -5.062  1.00 20.00     0.012 C 
ENDBRANCH   3   4
TORSDOF 1
ENDMDL
MODEL 3
REMARK VINA RESULT:      -4.7     11.498     12.891
REMARK  1 active torsions:
REMARK  status: ('A' for Active; 'I' for Inactive)
REMARK    1  A    between atoms: C5_5  and  C9_9 
ROOT
HETATM    1  C1  UNL     1     -34.149  17.939   0.324  1.00 20.00     0.012 C 
HETATM    2  C2  UNL     1     -34.426  17.141  -0.530  1.00 20.00    -0.117 C 
HETATM    3  C9  UNL     1     -34.771  16.164  -1.569  1.00 20.00     0.098 C 
ENDROOT
BRANCH   3   4
HETATM    4  C5  UNL     1     -33.810  16.250  -2.747  1.00 20.00     0.002 C 
HETATM    5  C3  UNL     1     -33.715  17.671  -3.326  1.00 20.00     0.007 C 
HETATM    6  C4  UNL     1     -33.651  17.513  -4.848  1.00 20.00     0.021 C 
HETATM    7  C7  UNL     1     -33.436  16.023  -5.083  1.00 20.00     0.086 C 
HETATM    8  C6  UNL     1     -34.218  15.371  -3.941  1.00 20.00     0.005 C 
HETATM    9 CL10 UNL     1     -33.998  15.521  -6.686  1.00 20.00    -0.125 Cl
HETATM   10  C8  UNL     1     -33.887  13.897  -3.743  1.00 20.00     0.012 C 
ENDBRANCH   3   4
TORSDOF 1
ENDMDL
MODEL 4
REMARK VINA RESULT:      -4.6     11.612     12.776
REMARK  1 active torsions:
REMARK  status: ('A' for Active; 'I' for Inactive)
REMARK    1  A    between atoms: C5_5  and  C9_9 
ROOT
HETATM    1  C1  UNL     1     -33.868  17.519  -0.529  1.00 20.00     0.012 C 
HETATM    2  C2  UNL     1     -34.367  16.713  -1.266  1.00 20.00    -0.117 C 
HETATM    3  C9  UNL     1     -34.984  15.727  -2.161  1.00 20.00     0.098 C 
ENDROOT
BRANCH   3   4
HETATM    4  C5  UNL     1     -34.128  15.498  -3.400  1.00 20.00     0.002 C 
HETATM    5  C3  UNL     1     -33.630  16.813  -4.022  1.00 20.00     0.007 C 
HETATM    6  C4  UNL     1     -33.723  16.634  -5.540  1.00 20.00     0.021 C 
HETATM    7  C7  UNL     1     -34.006  15.152  -5.748  1.00 20.00     0.086 C 
HETATM    8  C6  UNL     1     -34.874  14.787  -4.542  1.00 20.00     0.005 C 
HETATM    9 CL10 UNL     1     -34.808  14.844  -7.299  1.00 20.00    -0.125 Cl
HETATM   10  C8  UNL     1     -35.012  13.285  -4.326  1.00 20.00     0.012 C 
ENDBRANCH   3   4
TORSDOF 1
ENDMDL
MODEL 5
REMARK VINA RESULT:      -4.4      9.291     11.086
REMARK  1 active torsions:
REMARK  status: ('A' for Active; 'I' for Inactive)
REMARK    1  A    between atoms: C5_5  and  C9_9 
ROOT
HETATM    1  C1  UNL     1     -41.335   1.597  -4.141  1.00 20.00     0.012 C 
HETATM    2  C2  UNL     1     -41.800   2.320  -3.302  1.00 20.00    -0.117 C 
HETATM    3  C9  UNL     1     -42.374   3.196  -2.275  1.00 20.00     0.098 C 
ENDROOT
BRANCH   3   4
HETATM    4  C5  UNL     1     -41.615   4.514  -2.189  1.00 20.00     0.002 C 
HETATM    5  C3  UNL     1     -40.695   4.583  -0.959  1.00 20.00     0.007 C 
HETATM    6  C4  UNL     1     -40.807   6.011  -0.416  1.00 20.00     0.021 C 
HETATM    7  C7  UNL     1     -41.561   6.785  -1.490  1.00 20.00     0.086 C 
HETATM    8  C6  UNL     1     -42.528   5.745  -2.060  1.00 20.00     0.005 C 
HETATM    9 CL10 UNL     1     -42.384   8.206  -0.824  1.00 20.00    -0.125 Cl
HETATM   10  C8  UNL     1     -43.162   6.164  -3.381  1.00 20.00     0.012 C 
ENDBRANCH   3   4
TORSDOF 1
ENDMDL
MODEL 6
REMARK VINA RESULT:      -4.4     11.418     12.127
REMARK  1 active torsions:
REMARK  status: ('A' for Active; 'I' for Inactive)
REMARK    1  A    between atoms: C5_5  and  C9_9 
ROOT
HETATM    1  C1  UNL     1     -33.090  18.507  -0.678  1.00 20.00     0.012 C 
HETATM    2  C2  UNL     1     -33.782  17.552  -0.900  1.00 20.00    -0.117 C 
HETATM    3  C9  UNL     1     -34.630  16.384  -1.164  1.00 20.00     0.098 C 
ENDROOT
BRANCH   3   4
HETATM    4  C5  UNL     1     -34.875  16.206  -2.656  1.00 20.00     0.002 C 
HETATM    5  C3  UNL     1     -36.368  16.076  -2.996  1.00 20.00     0.007 C 
HETATM    6  C4  UNL     1     -36.471  15.005  -4.086  1.00 20.00     0.021 C 
HETATM    7  C7  UNL     1     -35.036  14.752  -4.529  1.00 20.00     0.086 C 
HETATM    8  C6  UNL     1     -34.232  14.937  -3.241  1.00 20.00     0.005 C 
HETATM    9 CL10 UNL     1     -34.841  13.143  -5.245  1.00 20.00    -0.125 Cl
HETATM   10  C8  UNL     1     -32.733  15.076  -3.475  1.00 20.00     0.012 C 
ENDBRANCH   3   4
TORSDOF 1
ENDMDL
MODEL 7
REMARK VINA RESULT:      -4.4     12.062     13.275
REMARK  1 active torsions:
REMARK  status: ('A' for Active; 'I' for Inactive)
REMARK    1  A    between atoms: C5_5  and  C9_9 
ROOT
HETATM    1  C1  UNL     1     -37.611  14.949  -3.780  1.00 20.00     0.012 C 
HETATM    2  C2  UNL     1     -36.609  14.334  -4.022  1.00 20.00    -0.117 C 
HETATM    3  C9  UNL     1     -35.389  13.574  -4.318  1.00 20.00     0.098 C 
ENDROOT
BRANCH   3   4
HETATM    4  C5  UNL     1     -34.202  14.502  -4.538  1.00 20.00     0.002 C 
HETATM    5  C3  UNL     1     -33.834  15.296  -3.273  1.00 20.00     0.007 C 
HETATM    6  C4  UNL     1     -33.474  16.709  -3.741  1.00 20.00     0.021 C 
HETATM    7  C7  UNL     1     -33.380  16.613  -5.258  1.00 20.00     0.086 C 
HETATM    8  C6  UNL     1     -34.449  15.576  -5.611  1.00 20.00     0.005 C 
HETATM    9 CL10 UNL     1     -33.651  18.182  -6.036  1.00 20.00    -0.125 Cl
HETATM   10  C8  UNL     1     -34.329  15.042  -7.033  1.00 20.00     0.012 C 
ENDBRANCH   3   4
TORSDOF 1
ENDMDL
MODEL 8
REMARK VINA RESULT:      -4.4      1.089      2.287
REMARK  1 active torsions:
REMARK  status: ('A' for Active; 'I' for Inactive)
REMARK    1  A    between atoms: C5_5  and  C9_9 
ROOT
HETATM    1  C1  UNL     1     -32.207   8.917   1.247  1.00 20.00     0.012 C 
HETATM    2  C2  UNL     1     -31.935   8.370   2.281  1.00 20.00    -0.117 C 
HETATM    3  C9  UNL     1     -31.599   7.707   3.546  1.00 20.00     0.098 C 
ENDROOT
BRANCH   3   4
HETATM    4  C5  UNL     1     -32.349   6.391   3.695  1.00 20.00     0.002 C 
HETATM    5  C3  UNL     1     -32.627   5.716   2.342  1.00 20.00     0.007 C 
HETATM    6  C4  UNL     1     -34.040   5.132   2.432  1.00 20.00     0.021 C 
HETATM    7  C7  UNL     1     -34.423   5.246   3.903  1.00 20.00     0.086 C 
HETATM    8  C6  UNL     1     -33.735   6.540   4.345  1.00 20.00     0.005 C 
HETATM    9 CL10 UNL     1     -36.180   5.281   4.126  1.00 20.00    -0.125 Cl
HETATM   10  C8  UNL     1     -33.674   6.708   5.859  1.00 20.00     0.012 C 
ENDBRANCH   3   4
TORSDOF 1
ENDMDL
MODEL 9
REMARK VINA RESULT:      -4.4     11.372     12.304
REMARK  1 active torsions:
REMARK  status: ('A' for Active; 'I' for Inactive)
REMARK    1  A    between atoms: C5_5  and  C9_9 
ROOT
HETATM    1  C1  UNL     1     -34.936  15.247  -7.310  1.00 20.00     0.012 C 
HETATM    2  C2  UNL     1     -34.872  14.388  -6.473  1.00 20.00    -0.117 C 
HETATM    3  C9  UNL     1     -34.793  13.333  -5.456  1.00 20.00     0.098 C 
ENDROOT
BRANCH   3   4
HETATM    4  C5  UNL     1     -34.898  13.913  -4.052  1.00 20.00     0.002 C 
HETATM    5  C3  UNL     1     -36.236  14.632  -3.812  1.00 20.00     0.007 C 
HETATM    6  C4  UNL     1     -35.910  15.884  -2.992  1.00 20.00     0.021 C 
HETATM    7  C7  UNL     1     -34.461  15.709  -2.558  1.00 20.00     0.086 C 
HETATM    8  C6  UNL     1     -33.827  14.971  -3.739  1.00 20.00     0.005 C 
HETATM    9 CL10 UNL     1     -33.683  17.262  -2.210  1.00 20.00    -0.125 Cl
HETATM   10  C8  UNL     1     -32.464  14.370  -3.418  1.00 20.00     0.012 C 
ENDBRANCH   3   4
TORSDOF 1
ENDMDL
