MODEL 1
REMARK VINA RESULT:      -5.0      0.000      0.000
REMARK  3 active torsions:
REMARK  status: ('A' for Active; 'I' for Inactive)
REMARK    1  A    between atoms: C1_1  and  C2_2 
REMARK    2  A    between atoms: C1_1  and  C3_3 
REMARK    3  A    between atoms: C2_2  and  C4_4 
ROOT
HETATM    1  C2  UNL     1     -33.965   6.362   4.978  1.00 20.00     0.196 C 
ENDROOT
BRANCH   1   2
HETATM    2  C1  UNL     1     -33.442   6.038   3.587  1.00 20.00     0.148 C 
HETATM    3  O5  UNL     1     -34.112   5.405   2.772  1.00 20.00    -0.296 OA
BRANCH   2   4
HETATM    4  C3  UNL     1     -32.052   6.557   3.286  1.00 20.00     0.193 C 
HETATM    5 CL9  UNL     1     -32.124   7.960   2.210  1.00 20.00    -0.123 Cl
ENDBRANCH   2   4
ENDBRANCH   1   2
BRANCH   1   6
HETATM    6  C4  UNL     1     -34.715   5.215   5.613  1.00 20.00     0.394 C 
HETATM    7  F6  UNL     1     -35.821   4.896   4.909  1.00 20.00    -0.171 F 
HETATM    8  F7  UNL     1     -35.109   5.544   6.864  1.00 20.00    -0.171 F 
HETATM    9  F8  UNL     1     -33.944   4.111   5.708  1.00 20.00    -0.171 F 
ENDBRANCH   1   6
TORSDOF 3
ENDMDL
MODEL 2
REMARK VINA RESULT:      -5.0      0.017      1.260
REMARK  3 active torsions:
REMARK  status: ('A' for Active; 'I' for Inactive)
REMARK    1  A    between atoms: C1_1  and  C2_2 
REMARK    2  A    between atoms: C1_1  and  C3_3 
REMARK    3  A    between atoms: C2_2  and  C4_4 
ROOT
HETATM    1  C2  UNL     1     -33.966   6.361   4.989  1.00 20.00     0.196 C 
ENDROOT
BRANCH   1   2
HETATM    2  C1  UNL     1     -33.451   6.032   3.596  1.00 20.00     0.148 C 
HETATM    3  O5  UNL     1     -34.129   5.403   2.784  1.00 20.00    -0.296 OA
BRANCH   2   4
HETATM    4  C3  UNL     1     -32.058   6.539   3.290  1.00 20.00     0.193 C 
HETATM    5 CL9  UNL     1     -32.124   7.955   2.228  1.00 20.00    -0.123 Cl
ENDBRANCH   2   4
ENDBRANCH   1   2
BRANCH   1   6
HETATM    6  C4  UNL     1     -34.724   5.221   5.627  1.00 20.00     0.394 C 
HETATM    7  F6  UNL     1     -35.118   5.528   6.880  1.00 20.00    -0.171 F 
HETATM    8  F7  UNL     1     -33.943   4.120   5.704  1.00 20.00    -0.171 F 
HETATM    9  F8  UNL     1     -35.819   4.891   4.910  1.00 20.00    -0.171 F 
ENDBRANCH   1   6
TORSDOF 3
ENDMDL
MODEL 3
REMARK VINA RESULT:      -5.0      0.033      1.259
REMARK  3 active torsions:
REMARK  status: ('A' for Active; 'I' for Inactive)
REMARK    1  A    between atoms: C1_1  and  C2_2 
REMARK    2  A    between atoms: C1_1  and  C3_3 
REMARK    3  A    between atoms: C2_2  and  C4_4 
ROOT
HETATM    1  C2  UNL     1     -33.971   6.361   4.953  1.00 20.00     0.196 C 
ENDROOT
BRANCH   1   2
HETATM    2  C1  UNL     1     -33.443   6.038   3.563  1.00 20.00     0.148 C 
HETATM    3  O5  UNL     1     -34.111   5.409   2.744  1.00 20.00    -0.296 OA
BRANCH   2   4
HETATM    4  C3  UNL     1     -32.049   6.551   3.271  1.00 20.00     0.193 C 
HETATM    5 CL9  UNL     1     -32.109   7.945   2.181  1.00 20.00    -0.123 Cl
ENDBRANCH   2   4
ENDBRANCH   1   2
BRANCH   1   6
HETATM    6  C4  UNL     1     -34.705   5.207   5.593  1.00 20.00     0.394 C 
HETATM    7  F6  UNL     1     -33.931   4.103   5.658  1.00 20.00    -0.171 F 
HETATM    8  F7  UNL     1     -35.805   4.890   4.872  1.00 20.00    -0.171 F 
HETATM    9  F8  UNL     1     -35.113   5.510   6.843  1.00 20.00    -0.171 F 
ENDBRANCH   1   6
TORSDOF 3
ENDMDL
MODEL 4
REMARK VINA RESULT:      -4.9      3.225      3.843
REMARK  3 active torsions:
REMARK  status: ('A' for Active; 'I' for Inactive)
REMARK    1  A    between atoms: C1_1  and  C2_2 
REMARK    2  A    between atoms: C1_1  and  C3_3 
REMARK    3  A    between atoms: C2_2  and  C4_4 
ROOT
HETATM    1  C2  UNL     1     -33.591   6.733   4.128  1.00 20.00     0.196 C 
ENDROOT
BRANCH   1   2
HETATM    2  C1  UNL     1     -34.422   5.527   3.716  1.00 20.00     0.148 C 
HETATM    3  O5  UNL     1     -34.517   5.174   2.542  1.00 20.00    -0.296 OA
BRANCH   2   4
HETATM    4  C3  UNL     1     -35.108   4.801   4.854  1.00 20.00     0.193 C 
HETATM    5 CL9  UNL     1     -34.605   5.464   6.416  1.00 20.00    -0.123 Cl
ENDBRANCH   2   4
ENDBRANCH   1   2
BRANCH   1   6
HETATM    6  C4  UNL     1     -32.288   6.843   3.371  1.00 20.00     0.394 C 
HETATM    7  F6  UNL     1     -31.710   5.636   3.201  1.00 20.00    -0.171 F 
HETATM    8  F7  UNL     1     -31.414   7.620   4.049  1.00 20.00    -0.171 F 
HETATM    9  F8  UNL     1     -32.467   7.400   2.155  1.00 20.00    -0.171 F 
ENDBRANCH   1   6
TORSDOF 3
ENDMDL
MODEL 5
REMARK VINA RESULT:      -4.7      2.862      3.562
REMARK  3 active torsions:
REMARK  status: ('A' for Active; 'I' for Inactive)
REMARK    1  A    between atoms: C1_1  and  C2_2 
REMARK    2  A    between atoms: C1_1  and  C3_3 
REMARK    3  A    between atoms: C2_2  and  C4_4 
ROOT
HETATM    1  C2  UNL     1     -34.381   6.404   4.023  1.00 20.00     0.196 C 
ENDROOT
BRANCH   1   2
HETATM    2  C1  UNL     1     -34.732   5.237   4.933  1.00 20.00     0.148 C 
HETATM    3  O5  UNL     1     -35.186   4.182   4.491  1.00 20.00    -0.296 OA
BRANCH   2   4
HETATM    4  C3  UNL     1     -34.473   5.471   6.406  1.00 20.00     0.193 C 
HETATM    5 CL9  UNL     1     -33.676   7.030   6.664  1.00 20.00    -0.123 Cl
ENDBRANCH   2   4
ENDBRANCH   1   2
BRANCH   1   6
HETATM    6  C4  UNL     1     -33.203   6.121   3.121  1.00 20.00     0.394 C 
HETATM    7  F6  UNL     1     -32.792   7.236   2.480  1.00 20.00    -0.171 F 
HETATM    8  F7  UNL     1     -33.539   5.211   2.179  1.00 20.00    -0.171 F 
HETATM    9  F8  UNL     1     -32.157   5.623   3.813  1.00 20.00    -0.171 F 
ENDBRANCH   1   6
TORSDOF 3
ENDMDL
MODEL 6
REMARK VINA RESULT:      -4.7      3.583      4.205
REMARK  3 active torsions:
REMARK  status: ('A' for Active; 'I' for Inactive)
REMARK    1  A    between atoms: C1_1  and  C2_2 
REMARK    2  A    between atoms: C1_1  and  C3_3 
REMARK    3  A    between atoms: C2_2  and  C4_4 
ROOT
HETATM    1  C2  UNL     1     -33.657   6.997   3.536  1.00 20.00     0.196 C 
ENDROOT
BRANCH   1   2
HETATM    2  C1  UNL     1     -34.051   6.197   4.769  1.00 20.00     0.148 C 
HETATM    3  O5  UNL     1     -33.687   6.522   5.898  1.00 20.00    -0.296 OA
BRANCH   2   4
HETATM    4  C3  UNL     1     -34.921   4.988   4.499  1.00 20.00     0.193 C 
HETATM    5 CL9  UNL     1     -35.073   3.986   5.950  1.00 20.00    -0.123 Cl
ENDBRANCH   2   4
ENDBRANCH   1   2
BRANCH   1   6
HETATM    6  C4  UNL     1     -32.180   6.924   3.228  1.00 20.00     0.394 C 
HETATM    7  F6  UNL     1     -31.455   7.651   4.104  1.00 20.00    -0.171 F 
HETATM    8  F7  UNL     1     -31.932   7.413   1.992  1.00 20.00    -0.171 F 
HETATM    9  F8  UNL     1     -31.728   5.653   3.260  1.00 20.00    -0.171 F 
ENDBRANCH   1   6
TORSDOF 3
ENDMDL
MODEL 7
REMARK VINA RESULT:      -4.7      3.581      4.168
REMARK  3 active torsions:
REMARK  status: ('A' for Active; 'I' for Inactive)
REMARK    1  A    between atoms: C1_1  and  C2_2 
REMARK    2  A    between atoms: C1_1  and  C3_3 
REMARK    3  A    between atoms: C2_2  and  C4_4 
ROOT
HETATM    1  C2  UNL     1     -33.654   7.056   3.566  1.00 20.00     0.196 C 
ENDROOT
BRANCH   1   2
HETATM    2  C1  UNL     1     -34.045   6.227   4.780  1.00 20.00     0.148 C 
HETATM    3  O5  UNL     1     -33.690   6.534   5.917  1.00 20.00    -0.296 OA
BRANCH   2   4
HETATM    4  C3  UNL     1     -34.900   5.015   4.482  1.00 20.00     0.193 C 
HETATM    5 CL9  UNL     1     -35.032   3.973   5.907  1.00 20.00    -0.123 Cl
ENDBRANCH   2   4
ENDBRANCH   1   2
BRANCH   1   6
HETATM    6  C4  UNL     1     -32.187   6.953   3.223  1.00 20.00     0.394 C 
HETATM    7  F6  UNL     1     -31.932   7.432   1.987  1.00 20.00    -0.171 F 
HETATM    8  F7  UNL     1     -31.788   5.661   3.247  1.00 20.00    -0.171 F 
HETATM    9  F8  UNL     1     -31.422   7.631   4.104  1.00 20.00    -0.171 F 
ENDBRANCH   1   6
TORSDOF 3
ENDMDL
MODEL 8
REMARK VINA RESULT:      -4.6      1.341      1.848
REMARK  3 active torsions:
REMARK  status: ('A' for Active; 'I' for Inactive)
REMARK    1  A    between atoms: C1_1  and  C2_2 
REMARK    2  A    between atoms: C1_1  and  C3_3 
REMARK    3  A    between atoms: C2_2  and  C4_4 
ROOT
HETATM    1  C2  UNL     1     -34.704   5.219   4.654  1.00 20.00     0.196 C 
ENDROOT
BRANCH   1   2
HETATM    2  C1  UNL     1     -33.557   6.174   4.359  1.00 20.00     0.148 C 
HETATM    3  O5  UNL     1     -33.108   6.935   5.215  1.00 20.00    -0.296 OA
BRANCH   2   4
HETATM    4  C3  UNL     1     -33.014   6.108   2.947  1.00 20.00     0.193 C 
HETATM    5 CL9  UNL     1     -32.095   7.570   2.559  1.00 20.00    -0.123 Cl
ENDBRANCH   2   4
ENDBRANCH   1   2
BRANCH   1   6
HETATM    6  C4  UNL     1     -34.763   4.791   6.102  1.00 20.00     0.394 C 
HETATM    7  F6  UNL     1     -33.611   4.205   6.492  1.00 20.00    -0.171 F 
HETATM    8  F7  UNL     1     -35.758   3.895   6.288  1.00 20.00    -0.171 F 
HETATM    9  F8  UNL     1     -35.001   5.838   6.919  1.00 20.00    -0.171 F 
ENDBRANCH   1   6
TORSDOF 3
ENDMDL
MODEL 9
REMARK VINA RESULT:      -4.3      2.153      2.582
REMARK  3 active torsions:
REMARK  status: ('A' for Active; 'I' for Inactive)
REMARK    1  A    between atoms: C1_1  and  C2_2 
REMARK    2  A    between atoms: C1_1  and  C3_3 
REMARK    3  A    between atoms: C2_2  and  C4_4 
ROOT
HETATM    1  C2  UNL     1     -32.578   6.060   2.952  1.00 20.00     0.196 C 
ENDROOT
BRANCH   1   2
HETATM    2  C1  UNL     1     -31.896   7.419   2.956  1.00 20.00     0.148 C 
HETATM    3  O5  UNL     1     -31.337   7.863   3.959  1.00 20.00    -0.296 OA
BRANCH   2   4
HETATM    4  C3  UNL     1     -31.953   8.171   1.644  1.00 20.00     0.193 C 
HETATM    5 CL9  UNL     1     -32.640   9.786   1.874  1.00 20.00    -0.123 Cl
ENDBRANCH   2   4
ENDBRANCH   1   2
BRANCH   1   6
HETATM    6  C4  UNL     1     -33.855   6.032   3.758  1.00 20.00     0.394 C 
HETATM    7  F6  UNL     1     -34.739   5.144   3.257  1.00 20.00    -0.171 F 
HETATM    8  F7  UNL     1     -34.447   7.248   3.744  1.00 20.00    -0.171 F 
HETATM    9  F8  UNL     1     -33.620   5.711   5.048  1.00 20.00    -0.171 F 
ENDBRANCH   1   6
TORSDOF 3
ENDMDL
