MODEL 1
REMARK VINA RESULT:      -4.1      0.000      0.000
REMARK  1 active torsions:
REMARK  status: ('A' for Active; 'I' for Inactive)
REMARK    1  A    between atoms: C1_1  and  N8_8 
ROOT
HETATM    1  C2  UNL     1     -34.690  16.185  -1.873  1.00 20.00     0.022 C 
HETATM    2  C3  UNL     1     -33.731  16.779  -2.900  1.00 20.00     0.032 C 
HETATM    3  C4  UNL     1     -35.650  15.384  -2.736  1.00 20.00     0.126 C 
HETATM    4  C5  UNL     1     -33.562  15.652  -3.945  1.00 20.00     0.027 C 
HETATM    5  C6  UNL     1     -33.353  16.255  -5.339  1.00 20.00     0.038 C 
HETATM    6  C7  UNL     1     -32.378  14.745  -3.582  1.00 20.00     0.038 C 
HETATM    7  N8  UNL     1     -34.833  14.911  -3.841  1.00 20.00    -0.351 N 
ENDROOT
BRANCH   7   8
HETATM    8  C1  UNL     1     -35.219  13.864  -4.649  1.00 20.00     0.351 C 
HETATM    9  O9  UNL     1     -35.060  12.668  -4.434  1.00 20.00    -0.284 OA
ENDBRANCH   7   8
TORSDOF 1
ENDMDL
MODEL 2
REMARK VINA RESULT:      -4.1      1.637      2.780
REMARK  1 active torsions:
REMARK  status: ('A' for Active; 'I' for Inactive)
REMARK    1  A    between atoms: C1_1  and  N8_8 
ROOT
HETATM    1  C2  UNL     1     -33.881  13.648  -4.422  1.00 20.00     0.022 C 
HETATM    2  C3  UNL     1     -33.487  14.701  -3.391  1.00 20.00     0.032 C 
HETATM    3  C4  UNL     1     -35.350  13.414  -4.117  1.00 20.00     0.126 C 
HETATM    4  C5  UNL     1     -34.731  15.615  -3.301  1.00 20.00     0.027 C 
HETATM    5  C6  UNL     1     -34.875  16.165  -1.878  1.00 20.00     0.038 C 
HETATM    6  C7  UNL     1     -34.631  16.772  -4.305  1.00 20.00     0.038 C 
HETATM    7  N8  UNL     1     -35.835  14.708  -3.665  1.00 20.00    -0.351 N 
ENDROOT
BRANCH   7   8
HETATM    8  C1  UNL     1     -37.176  15.023  -3.632  1.00 20.00     0.351 C 
HETATM    9  O9  UNL     1     -38.118  14.239  -3.675  1.00 20.00    -0.284 OA
ENDBRANCH   7   8
TORSDOF 1
ENDMDL
MODEL 3
REMARK VINA RESULT:      -4.0      1.578      1.776
REMARK  1 active torsions:
REMARK  status: ('A' for Active; 'I' for Inactive)
REMARK    1  A    between atoms: C1_1  and  N8_8 
ROOT
HETATM    1  C2  UNL     1     -34.060  16.020  -2.431  1.00 20.00     0.022 C 
HETATM    2  C3  UNL     1     -33.422  15.806  -3.801  1.00 20.00     0.032 C 
HETATM    3  C4  UNL     1     -35.531  16.183  -2.770  1.00 20.00     0.126 C 
HETATM    4  C5  UNL     1     -34.458  14.946  -4.561  1.00 20.00     0.027 C 
HETATM    5  C6  UNL     1     -34.429  15.289  -6.055  1.00 20.00     0.038 C 
HETATM    6  C7  UNL     1     -34.178  13.450  -4.360  1.00 20.00     0.038 C 
HETATM    7  N8  UNL     1     -35.733  15.325  -3.925  1.00 20.00    -0.351 N 
ENDROOT
BRANCH   7   8
HETATM    8  C1  UNL     1     -36.984  14.906  -4.323  1.00 20.00     0.351 C 
HETATM    9  O9  UNL     1     -37.749  14.176  -3.702  1.00 20.00    -0.284 OA
ENDBRANCH   7   8
TORSDOF 1
ENDMDL
MODEL 4
REMARK VINA RESULT:      -4.0      0.941      2.194
REMARK  1 active torsions:
REMARK  status: ('A' for Active; 'I' for Inactive)
REMARK    1  A    between atoms: C1_1  and  N8_8 
ROOT
HETATM    1  C2  UNL     1     -34.558  16.905  -5.724  1.00 20.00     0.022 C 
HETATM    2  C3  UNL     1     -33.287  16.696  -4.907  1.00 20.00     0.032 C 
HETATM    3  C4  UNL     1     -35.098  15.494  -5.869  1.00 20.00     0.126 C 
HETATM    4  C5  UNL     1     -33.667  15.577  -3.910  1.00 20.00     0.027 C 
HETATM    5  C6  UNL     1     -32.442  14.709  -3.603  1.00 20.00     0.038 C 
HETATM    6  C7  UNL     1     -34.230  16.171  -2.611  1.00 20.00     0.038 C 
HETATM    7  N8  UNL     1     -34.714  14.831  -4.633  1.00 20.00    -0.351 N 
ENDROOT
BRANCH   7   8
HETATM    8  C1  UNL     1     -35.309  13.665  -4.205  1.00 20.00     0.351 C 
HETATM    9  O9  UNL     1     -35.021  12.522  -4.545  1.00 20.00    -0.284 OA
ENDBRANCH   7   8
TORSDOF 1
ENDMDL
MODEL 5
REMARK VINA RESULT:      -3.8     11.593     12.954
REMARK  1 active torsions:
REMARK  status: ('A' for Active; 'I' for Inactive)
REMARK    1  A    between atoms: C1_1  and  N8_8 
ROOT
HETATM    1  C2  UNL     1     -40.773   6.144  -0.440  1.00 20.00     0.022 C 
HETATM    2  C3  UNL     1     -40.680   4.667  -0.812  1.00 20.00     0.032 C 
HETATM    3  C4  UNL     1     -41.407   6.760  -1.675  1.00 20.00     0.126 C 
HETATM    4  C5  UNL     1     -41.981   4.403  -1.605  1.00 20.00     0.027 C 
HETATM    5  C6  UNL     1     -41.732   3.342  -2.683  1.00 20.00     0.038 C 
HETATM    6  C7  UNL     1     -43.108   3.946  -0.668  1.00 20.00     0.038 C 
HETATM    7  N8  UNL     1     -42.292   5.724  -2.182  1.00 20.00    -0.351 N 
ENDROOT
BRANCH   7   8
HETATM    8  C1  UNL     1     -43.312   5.993  -3.067  1.00 20.00     0.351 C 
HETATM    9  O9  UNL     1     -43.282   6.773  -4.012  1.00 20.00    -0.284 OA
ENDBRANCH   7   8
TORSDOF 1
ENDMDL
MODEL 6
REMARK VINA RESULT:      -3.8      2.426      3.475
REMARK  1 active torsions:
REMARK  status: ('A' for Active; 'I' for Inactive)
REMARK    1  A    between atoms: C1_1  and  N8_8 
ROOT
HETATM    1  C2  UNL     1     -34.240  13.741  -3.612  1.00 20.00     0.022 C 
HETATM    2  C3  UNL     1     -34.730  13.496  -5.036  1.00 20.00     0.032 C 
HETATM    3  C4  UNL     1     -33.236  14.866  -3.792  1.00 20.00     0.126 C 
HETATM    4  C5  UNL     1     -34.794  14.912  -5.654  1.00 20.00     0.027 C 
HETATM    5  C6  UNL     1     -34.472  14.846  -7.151  1.00 20.00     0.038 C 
HETATM    6  C7  UNL     1     -36.179  15.539  -5.441  1.00 20.00     0.038 C 
HETATM    7  N8  UNL     1     -33.768  15.652  -4.894  1.00 20.00    -0.351 N 
ENDROOT
BRANCH   7   8
HETATM    8  C1  UNL     1     -33.364  16.945  -5.141  1.00 20.00     0.351 C 
HETATM    9  O9  UNL     1     -33.544  17.923  -4.424  1.00 20.00    -0.284 OA
ENDBRANCH   7   8
TORSDOF 1
ENDMDL
MODEL 7
REMARK VINA RESULT:      -3.8      1.620      2.699
REMARK  1 active torsions:
REMARK  status: ('A' for Active; 'I' for Inactive)
REMARK    1  A    between atoms: C1_1  and  N8_8 
ROOT
HETATM    1  C2  UNL     1     -33.248  16.617  -5.035  1.00 20.00     0.022 C 
HETATM    2  C3  UNL     1     -34.433  16.929  -5.943  1.00 20.00     0.032 C 
HETATM    3  C4  UNL     1     -33.853  15.680  -4.004  1.00 20.00     0.126 C 
HETATM    4  C5  UNL     1     -35.204  15.590  -6.019  1.00 20.00     0.027 C 
HETATM    5  C6  UNL     1     -36.707  15.857  -6.156  1.00 20.00     0.038 C 
HETATM    6  C7  UNL     1     -34.710  14.743  -7.200  1.00 20.00     0.038 C 
HETATM    7  N8  UNL     1     -34.866  14.940  -4.739  1.00 20.00    -0.351 N 
ENDROOT
BRANCH   7   8
HETATM    8  C1  UNL     1     -35.394  13.755  -4.277  1.00 20.00     0.351 C 
HETATM    9  O9  UNL     1     -34.956  12.627  -4.472  1.00 20.00    -0.284 OA
ENDBRANCH   7   8
TORSDOF 1
ENDMDL
MODEL 8
REMARK VINA RESULT:      -3.7      1.535      2.477
REMARK  1 active torsions:
REMARK  status: ('A' for Active; 'I' for Inactive)
REMARK    1  A    between atoms: C1_1  and  N8_8 
ROOT
HETATM    1  C2  UNL     1     -34.336  17.174  -5.530  1.00 20.00     0.022 C 
HETATM    2  C3  UNL     1     -33.371  16.126  -4.985  1.00 20.00     0.032 C 
HETATM    3  C4  UNL     1     -35.684  16.486  -5.402  1.00 20.00     0.126 C 
HETATM    4  C5  UNL     1     -34.147  15.480  -3.814  1.00 20.00     0.027 C 
HETATM    5  C6  UNL     1     -33.765  14.001  -3.684  1.00 20.00     0.038 C 
HETATM    6  C7  UNL     1     -33.861  16.216  -2.498  1.00 20.00     0.038 C 
HETATM    7  N8  UNL     1     -35.556  15.660  -4.212  1.00 20.00    -0.351 N 
ENDROOT
BRANCH   7   8
HETATM    8  C1  UNL     1     -36.649  15.156  -3.543  1.00 20.00     0.351 C 
HETATM    9  O9  UNL     1     -37.270  14.133  -3.810  1.00 20.00    -0.284 OA
ENDBRANCH   7   8
TORSDOF 1
ENDMDL
MODEL 9
REMARK VINA RESULT:      -3.7      1.540      1.937
REMARK  1 active torsions:
REMARK  status: ('A' for Active; 'I' for Inactive)
REMARK    1  A    between atoms: C1_1  and  N8_8 
ROOT
HETATM    1  C2  UNL     1     -36.252  16.918  -4.071  1.00 20.00     0.022 C 
HETATM    2  C3  UNL     1     -35.636  16.961  -5.465  1.00 20.00     0.032 C 
HETATM    3  C4  UNL     1     -36.271  15.431  -3.759  1.00 20.00     0.126 C 
HETATM    4  C5  UNL     1     -34.559  15.851  -5.429  1.00 20.00     0.027 C 
HETATM    5  C6  UNL     1     -34.420  15.210  -6.815  1.00 20.00     0.038 C 
HETATM    6  C7  UNL     1     -33.207  16.417  -4.973  1.00 20.00     0.038 C 
HETATM    7  N8  UNL     1     -35.090  14.908  -4.427  1.00 20.00    -0.351 N 
ENDROOT
BRANCH   7   8
HETATM    8  C1  UNL     1     -34.542  13.686  -4.106  1.00 20.00     0.351 C 
HETATM    9  O9  UNL     1     -34.990  12.580  -4.386  1.00 20.00    -0.284 OA
ENDBRANCH   7   8
TORSDOF 1
ENDMDL
