MODEL 1
REMARK VINA RESULT:      -4.1      0.000      0.000
REMARK  1 active torsions:
REMARK  status: ('A' for Active; 'I' for Inactive)
REMARK    1  A    between atoms: C1_1  and  N8_8 
ROOT
HETATM    1  C2  UNL     1     -33.355  15.998  -4.670  1.00 20.00     0.008 C 
HETATM    2  C3  UNL     1     -34.358  15.268  -5.588  1.00 20.00     0.026 C 
HETATM    3  C4  UNL     1     -33.759  13.820  -3.806  1.00 20.00     0.031 C 
HETATM    4  C5  UNL     1     -34.881  15.605  -2.719  1.00 20.00     0.130 C 
HETATM    5  C6  UNL     1     -33.510  15.256  -3.325  1.00 20.00     0.006 C 
HETATM    6  C7  UNL     1     -34.973  14.220  -4.645  1.00 20.00     0.087 C 
HETATM    7  N8  UNL     1     -35.776  14.949  -3.661  1.00 20.00    -0.354 N 
ENDROOT
BRANCH   7   8
HETATM    8  C1  UNL     1     -37.142  15.058  -3.665  1.00 20.00     0.351 C 
HETATM    9  O9  UNL     1     -37.955  14.143  -3.725  1.00 20.00    -0.284 OA
ENDBRANCH   7   8
TORSDOF 1
ENDMDL
MODEL 2
REMARK VINA RESULT:      -4.0      1.702      2.902
REMARK  1 active torsions:
REMARK  status: ('A' for Active; 'I' for Inactive)
REMARK    1  A    between atoms: C1_1  and  N8_8 
ROOT
HETATM    1  C2  UNL     1     -33.727  17.191  -2.042  1.00 20.00     0.008 C 
HETATM    2  C3  UNL     1     -34.771  16.129  -1.635  1.00 20.00     0.026 C 
HETATM    3  C4  UNL     1     -35.325  16.964  -3.787  1.00 20.00     0.031 C 
HETATM    4  C5  UNL     1     -33.239  15.888  -4.129  1.00 20.00     0.130 C 
HETATM    5  C6  UNL     1     -33.823  17.203  -3.582  1.00 20.00     0.006 C 
HETATM    6  C7  UNL     1     -35.312  15.655  -2.995  1.00 20.00     0.087 C 
HETATM    7  N8  UNL     1     -34.228  14.928  -3.658  1.00 20.00    -0.354 N 
ENDROOT
BRANCH   7   8
HETATM    8  C1  UNL     1     -34.120  13.566  -3.756  1.00 20.00     0.351 C 
HETATM    9  O9  UNL     1     -34.951  12.792  -4.218  1.00 20.00    -0.284 OA
ENDBRANCH   7   8
TORSDOF 1
ENDMDL
MODEL 3
REMARK VINA RESULT:      -4.0      1.655      2.645
REMARK  1 active torsions:
REMARK  status: ('A' for Active; 'I' for Inactive)
REMARK    1  A    between atoms: C1_1  and  N8_8 
ROOT
HETATM    1  C2  UNL     1     -35.090  17.519  -3.686  1.00 20.00     0.008 C 
HETATM    2  C3  UNL     1     -33.676  16.914  -3.819  1.00 20.00     0.026 C 
HETATM    3  C4  UNL     1     -34.582  16.291  -1.715  1.00 20.00     0.031 C 
HETATM    4  C5  UNL     1     -36.016  15.225  -3.275  1.00 20.00     0.130 C 
HETATM    5  C6  UNL     1     -35.765  16.605  -2.642  1.00 20.00     0.006 C 
HETATM    6  C7  UNL     1     -33.733  15.719  -2.852  1.00 20.00     0.087 C 
HETATM    7  N8  UNL     1     -34.652  14.740  -3.434  1.00 20.00    -0.354 N 
ENDROOT
BRANCH   7   8
HETATM    8  C1  UNL     1     -34.290  13.591  -4.086  1.00 20.00     0.351 C 
HETATM    9  O9  UNL     1     -35.021  12.656  -4.394  1.00 20.00    -0.284 OA
ENDBRANCH   7   8
TORSDOF 1
ENDMDL
MODEL 4
REMARK VINA RESULT:      -3.9      1.916      2.870
REMARK  1 active torsions:
REMARK  status: ('A' for Active; 'I' for Inactive)
REMARK    1  A    between atoms: C1_1  and  N8_8 
ROOT
HETATM    1  C2  UNL     1     -34.806  13.277  -4.215  1.00 20.00     0.008 C 
HETATM    2  C3  UNL     1     -33.411  13.763  -3.767  1.00 20.00     0.026 C 
HETATM    3  C4  UNL     1     -34.323  15.345  -5.283  1.00 20.00     0.031 C 
HETATM    4  C5  UNL     1     -35.796  15.442  -3.426  1.00 20.00     0.130 C 
HETATM    5  C6  UNL     1     -35.502  14.579  -4.666  1.00 20.00     0.006 C 
HETATM    6  C7  UNL     1     -33.497  15.281  -3.997  1.00 20.00     0.087 C 
HETATM    7  N8  UNL     1     -34.447  15.810  -3.017  1.00 20.00    -0.354 N 
ENDROOT
BRANCH   7   8
HETATM    8  C1  UNL     1     -34.122  16.478  -1.866  1.00 20.00     0.351 C 
HETATM    9  O9  UNL     1     -34.663  16.367  -0.771  1.00 20.00    -0.284 OA
ENDBRANCH   7   8
TORSDOF 1
ENDMDL
MODEL 5
REMARK VINA RESULT:      -3.8      2.278      3.349
REMARK  1 active torsions:
REMARK  status: ('A' for Active; 'I' for Inactive)
REMARK    1  A    between atoms: C1_1  and  N8_8 
ROOT
HETATM    1  C2  UNL     1     -35.970  14.141  -3.924  1.00 20.00     0.008 C 
HETATM    2  C3  UNL     1     -35.229  15.201  -3.081  1.00 20.00     0.026 C 
HETATM    3  C4  UNL     1     -33.656  13.603  -3.857  1.00 20.00     0.031 C 
HETATM    4  C5  UNL     1     -34.438  14.626  -5.849  1.00 20.00     0.130 C 
HETATM    5  C6  UNL     1     -34.852  13.562  -4.818  1.00 20.00     0.006 C 
HETATM    6  C7  UNL     1     -33.791  15.107  -3.616  1.00 20.00     0.087 C 
HETATM    7  N8  UNL     1     -33.810  15.619  -4.988  1.00 20.00    -0.354 N 
ENDROOT
BRANCH   7   8
HETATM    8  C1  UNL     1     -33.377  16.855  -5.388  1.00 20.00     0.351 C 
HETATM    9  O9  UNL     1     -33.455  17.904  -4.756  1.00 20.00    -0.284 OA
ENDBRANCH   7   8
TORSDOF 1
ENDMDL
MODEL 6
REMARK VINA RESULT:      -3.8     10.613     11.767
REMARK  1 active torsions:
REMARK  status: ('A' for Active; 'I' for Inactive)
REMARK    1  A    between atoms: C1_1  and  N8_8 
ROOT
HETATM    1  C2  UNL     1     -40.610   4.615  -0.972  1.00 20.00     0.008 C 
HETATM    2  C3  UNL     1     -41.849   4.305  -1.839  1.00 20.00     0.026 C 
HETATM    3  C4  UNL     1     -42.525   5.613   0.022  1.00 20.00     0.031 C 
HETATM    4  C5  UNL     1     -41.093   7.067  -1.187  1.00 20.00     0.130 C 
HETATM    5  C6  UNL     1     -41.032   5.886  -0.203  1.00 20.00     0.006 C 
HETATM    6  C7  UNL     1     -42.808   5.450  -1.473  1.00 20.00     0.087 C 
HETATM    7  N8  UNL     1     -42.231   6.682  -2.012  1.00 20.00    -0.354 N 
ENDROOT
BRANCH   7   8
HETATM    8  C1  UNL     1     -42.643   7.330  -3.146  1.00 20.00     0.351 C 
HETATM    9  O9  UNL     1     -43.315   6.864  -4.059  1.00 20.00    -0.284 OA
ENDBRANCH   7   8
TORSDOF 1
ENDMDL
MODEL 7
REMARK VINA RESULT:      -3.8      1.719      2.498
REMARK  1 active torsions:
REMARK  status: ('A' for Active; 'I' for Inactive)
REMARK    1  A    between atoms: C1_1  and  N8_8 
ROOT
HETATM    1  C2  UNL     1     -35.255  17.113  -3.884  1.00 20.00     0.008 C 
HETATM    2  C3  UNL     1     -35.692  16.261  -5.094  1.00 20.00     0.026 C 
HETATM    3  C4  UNL     1     -33.386  16.777  -5.314  1.00 20.00     0.031 C 
HETATM    4  C5  UNL     1     -33.471  15.429  -3.364  1.00 20.00     0.130 C 
HETATM    5  C6  UNL     1     -33.731  16.874  -3.822  1.00 20.00     0.006 C 
HETATM    6  C7  UNL     1     -34.368  15.628  -5.553  1.00 20.00     0.087 C 
HETATM    7  N8  UNL     1     -33.962  14.681  -4.514  1.00 20.00    -0.354 N 
ENDROOT
BRANCH   7   8
HETATM    8  C1  UNL     1     -34.090  13.319  -4.577  1.00 20.00     0.351 C 
HETATM    9  O9  UNL     1     -35.098  12.661  -4.342  1.00 20.00    -0.284 OA
ENDBRANCH   7   8
TORSDOF 1
ENDMDL
MODEL 8
REMARK VINA RESULT:      -3.8      1.535      2.303
REMARK  1 active torsions:
REMARK  status: ('A' for Active; 'I' for Inactive)
REMARK    1  A    between atoms: C1_1  and  N8_8 
ROOT
HETATM    1  C2  UNL     1     -33.325  13.777  -3.768  1.00 20.00     0.008 C 
HETATM    2  C3  UNL     1     -34.843  13.566  -3.950  1.00 20.00     0.026 C 
HETATM    3  C4  UNL     1     -34.491  15.544  -2.687  1.00 20.00     0.031 C 
HETATM    4  C5  UNL     1     -33.535  16.055  -4.797  1.00 20.00     0.130 C 
HETATM    5  C6  UNL     1     -33.213  15.293  -3.500  1.00 20.00     0.006 C 
HETATM    6  C7  UNL     1     -35.400  14.990  -3.785  1.00 20.00     0.087 C 
HETATM    7  N8  UNL     1     -34.954  15.762  -4.946  1.00 20.00    -0.354 N 
ENDROOT
BRANCH   7   8
HETATM    8  C1  UNL     1     -35.723  16.094  -6.030  1.00 20.00     0.351 C 
HETATM    9  O9  UNL     1     -36.542  15.381  -6.600  1.00 20.00    -0.284 OA
ENDBRANCH   7   8
TORSDOF 1
ENDMDL
MODEL 9
REMARK VINA RESULT:      -3.7     11.181     12.236
REMARK  1 active torsions:
REMARK  status: ('A' for Active; 'I' for Inactive)
REMARK    1  A    between atoms: C1_1  and  N8_8 
ROOT
HETATM    1  C2  UNL     1     -42.103   4.588   0.499  1.00 20.00     0.008 C 
HETATM    2  C3  UNL     1     -43.001   5.831   0.314  1.00 20.00     0.026 C 
HETATM    3  C4  UNL     1     -40.825   6.331  -0.493  1.00 20.00     0.031 C 
HETATM    4  C5  UNL     1     -41.580   4.621  -1.953  1.00 20.00     0.130 C 
HETATM    5  C6  UNL     1     -40.987   4.805  -0.546  1.00 20.00     0.006 C 
HETATM    6  C7  UNL     1     -42.296   6.584  -0.827  1.00 20.00     0.087 C 
HETATM    7  N8  UNL     1     -42.460   5.779  -2.038  1.00 20.00    -0.354 N 
ENDROOT
BRANCH   7   8
HETATM    8  C1  UNL     1     -43.346   6.028  -3.052  1.00 20.00     0.351 C 
HETATM    9  O9  UNL     1     -43.202   6.815  -3.981  1.00 20.00    -0.284 OA
ENDBRANCH   7   8
TORSDOF 1
ENDMDL
