MODEL 1
REMARK VINA RESULT:      -4.8      0.000      0.000
REMARK  2 active torsions:
REMARK  status: ('A' for Active; 'I' for Inactive)
REMARK    1  A    between atoms: C1_1  and  N11_11 
REMARK    2  A    between atoms: C7_7  and  C10_10 
ROOT
HETATM    1  C2  UNL     1     -34.363  17.334  -5.047  1.00 20.00     0.020 C 
HETATM    2  C3  UNL     1     -33.641  17.306  -3.699  1.00 20.00     0.006 C 
HETATM    3  C4  UNL     1     -35.173  15.630  -2.467  1.00 20.00     0.025 C 
HETATM    4  C5  UNL     1     -34.538  15.965  -5.697  1.00 20.00     0.125 C 
HETATM    5  C6  UNL     1     -35.924  15.216  -3.730  1.00 20.00     0.125 C 
HETATM    6  C7  UNL     1     -34.580  17.048  -2.508  1.00 20.00    -0.010 C 
HETATM    7  N11 UNL     1     -35.003  14.900  -4.817  1.00 20.00    -0.359 N 
ENDROOT
BRANCH   6   8
HETATM    8  C10 UNL     1     -33.835  17.320  -1.196  1.00 20.00    -0.019 C 
HETATM    9  C8  UNL     1     -33.233  18.721  -1.210  1.00 20.00     0.010 C 
HETATM   10  C9  UNL     1     -34.774  17.145  -0.006  1.00 20.00     0.010 C 
ENDBRANCH   6   8
BRANCH   7  11
HETATM   11  C1  UNL     1     -34.606  13.588  -5.041  1.00 20.00     0.350 C 
HETATM   12  O12 UNL     1     -34.972  12.585  -4.437  1.00 20.00    -0.284 OA
ENDBRANCH   7  11
TORSDOF 2
ENDMDL
MODEL 2
REMARK VINA RESULT:      -4.7      1.697      2.222
REMARK  2 active torsions:
REMARK  status: ('A' for Active; 'I' for Inactive)
REMARK    1  A    between atoms: C1_1  and  N11_11 
REMARK    2  A    between atoms: C7_7  and  C10_10 
ROOT
HETATM    1  C2  UNL     1     -37.031  15.255  -3.633  1.00 20.00     0.020 C 
HETATM    2  C3  UNL     1     -36.028  16.269  -3.082  1.00 20.00     0.006 C 
HETATM    3  C4  UNL     1     -33.867  14.883  -3.371  1.00 20.00     0.025 C 
HETATM    4  C5  UNL     1     -36.720  14.764  -5.044  1.00 20.00     0.125 C 
HETATM    5  C6  UNL     1     -34.538  13.808  -4.222  1.00 20.00     0.125 C 
HETATM    6  C7  UNL     1     -34.809  15.618  -2.405  1.00 20.00    -0.010 C 
HETATM    7  N11 UNL     1     -35.332  14.396  -5.295  1.00 20.00    -0.359 N 
ENDROOT
BRANCH   6   8
HETATM    8  C10 UNL     1     -34.015  16.682  -1.639  1.00 20.00    -0.019 C 
HETATM    9  C8  UNL     1     -33.861  17.940  -2.486  1.00 20.00     0.010 C 
HETATM   10  C9  UNL     1     -34.698  17.001  -0.313  1.00 20.00     0.010 C 
ENDBRANCH   6   8
BRANCH   7  11
HETATM   11  C1  UNL     1     -34.785  14.565  -6.561  1.00 20.00     0.350 C 
HETATM   12  O12 UNL     1     -34.038  15.462  -6.937  1.00 20.00    -0.284 OA
ENDBRANCH   7  11
TORSDOF 2
ENDMDL
MODEL 3
REMARK VINA RESULT:      -4.6      1.448      1.840
REMARK  2 active torsions:
REMARK  status: ('A' for Active; 'I' for Inactive)
REMARK    1  A    between atoms: C1_1  and  N11_11 
REMARK    2  A    between atoms: C7_7  and  C10_10 
ROOT
HETATM    1  C2  UNL     1     -33.964  18.011  -4.109  1.00 20.00     0.020 C 
HETATM    2  C3  UNL     1     -33.631  18.305  -2.645  1.00 20.00     0.006 C 
HETATM    3  C4  UNL     1     -34.712  16.219  -1.571  1.00 20.00     0.025 C 
HETATM    4  C5  UNL     1     -33.471  16.656  -4.607  1.00 20.00     0.125 C 
HETATM    5  C6  UNL     1     -34.932  15.509  -2.903  1.00 20.00     0.125 C 
HETATM    6  C7  UNL     1     -34.675  17.753  -1.659  1.00 20.00    -0.010 C 
HETATM    7  N11 UNL     1     -33.724  15.526  -3.721  1.00 20.00    -0.359 N 
ENDROOT
BRANCH   6   8
HETATM    8  C10 UNL     1     -34.422  18.332  -0.262  1.00 20.00    -0.019 C 
HETATM    9  C8  UNL     1     -35.050  17.440   0.803  1.00 20.00     0.010 C 
HETATM   10  C9  UNL     1     -32.926  18.497  -0.019  1.00 20.00     0.010 C 
ENDBRANCH   6   8
BRANCH   7  11
HETATM   11  C1  UNL     1     -32.841  14.454  -3.692  1.00 20.00     0.350 C 
HETATM   12  O12 UNL     1     -33.120  13.259  -3.668  1.00 20.00    -0.284 OA
ENDBRANCH   7  11
TORSDOF 2
ENDMDL
MODEL 4
REMARK VINA RESULT:      -4.6      1.649      2.553
REMARK  2 active torsions:
REMARK  status: ('A' for Active; 'I' for Inactive)
REMARK    1  A    between atoms: C1_1  and  N11_11 
REMARK    2  A    between atoms: C7_7  and  C10_10 
ROOT
HETATM    1  C2  UNL     1     -34.074  13.647  -4.038  1.00 20.00     0.020 C 
HETATM    2  C3  UNL     1     -34.364  14.760  -3.031  1.00 20.00     0.006 C 
HETATM    3  C4  UNL     1     -33.848  16.795  -4.537  1.00 20.00     0.025 C 
HETATM    4  C5  UNL     1     -34.867  13.751  -5.338  1.00 20.00     0.125 C 
HETATM    5  C6  UNL     1     -33.773  15.969  -5.818  1.00 20.00     0.125 C 
HETATM    6  C7  UNL     1     -33.511  16.021  -3.253  1.00 20.00    -0.010 C 
HETATM    7  N11 UNL     1     -34.919  15.076  -5.944  1.00 20.00    -0.359 N 
ENDROOT
BRANCH   6   8
HETATM    8  C10 UNL     1     -33.653  16.958  -2.048  1.00 20.00    -0.019 C 
HETATM    9  C8  UNL     1     -33.960  18.378  -2.513  1.00 20.00     0.010 C 
HETATM   10  C9  UNL     1     -34.739  16.450  -1.105  1.00 20.00     0.010 C 
ENDBRANCH   6   8
BRANCH   7  11
HETATM   11  C1  UNL     1     -36.035  15.464  -6.674  1.00 20.00     0.350 C 
HETATM   12  O12 UNL     1     -36.706  14.774  -7.434  1.00 20.00    -0.284 OA
ENDBRANCH   7  11
TORSDOF 2
ENDMDL
MODEL 5
REMARK VINA RESULT:      -4.5      1.559      1.978
REMARK  2 active torsions:
REMARK  status: ('A' for Active; 'I' for Inactive)
REMARK    1  A    between atoms: C1_1  and  N11_11 
REMARK    2  A    between atoms: C7_7  and  C10_10 
ROOT
HETATM    1  C2  UNL     1     -33.844  14.901  -4.551  1.00 20.00     0.020 C 
HETATM    2  C3  UNL     1     -33.772  15.314  -3.080  1.00 20.00     0.006 C 
HETATM    3  C4  UNL     1     -35.479  17.252  -3.132  1.00 20.00     0.025 C 
HETATM    4  C5  UNL     1     -35.248  14.560  -5.042  1.00 20.00     0.125 C 
HETATM    5  C6  UNL     1     -35.991  16.913  -4.529  1.00 20.00     0.125 C 
HETATM    6  C7  UNL     1     -34.033  16.813  -2.853  1.00 20.00    -0.010 C 
HETATM    7  N11 UNL     1     -36.299  15.493  -4.653  1.00 20.00    -0.359 N 
ENDROOT
BRANCH   6   8
HETATM    8  C10 UNL     1     -33.661  17.189  -1.414  1.00 20.00    -0.019 C 
HETATM    9  C8  UNL     1     -33.332  18.675  -1.322  1.00 20.00     0.010 C 
HETATM   10  C9  UNL     1     -34.794  16.824  -0.460  1.00 20.00     0.010 C 
ENDBRANCH   6   8
BRANCH   7  11
HETATM   11  C1  UNL     1     -37.594  15.035  -4.447  1.00 20.00     0.350 C 
HETATM   12  O12 UNL     1     -37.968  14.194  -3.636  1.00 20.00    -0.284 OA
ENDBRANCH   7  11
TORSDOF 2
ENDMDL
MODEL 6
REMARK VINA RESULT:      -4.2      1.565      1.806
REMARK  2 active torsions:
REMARK  status: ('A' for Active; 'I' for Inactive)
REMARK    1  A    between atoms: C1_1  and  N11_11 
REMARK    2  A    between atoms: C7_7  and  C10_10 
ROOT
HETATM    1  C2  UNL     1     -36.619  17.531  -3.731  1.00 20.00     0.020 C 
HETATM    2  C3  UNL     1     -35.521  17.795  -2.699  1.00 20.00     0.006 C 
HETATM    3  C4  UNL     1     -34.445  15.446  -2.663  1.00 20.00     0.025 C 
HETATM    4  C5  UNL     1     -36.112  16.993  -5.066  1.00 20.00     0.125 C 
HETATM    5  C6  UNL     1     -35.206  14.956  -3.892  1.00 20.00     0.125 C 
HETATM    6  C7  UNL     1     -35.155  16.553  -1.867  1.00 20.00    -0.010 C 
HETATM    7  N11 UNL     1     -35.130  15.920  -4.985  1.00 20.00    -0.359 N 
ENDROOT
BRANCH   6   8
HETATM    8  C10 UNL     1     -34.272  16.968  -0.684  1.00 20.00    -0.019 C 
HETATM    9  C8  UNL     1     -33.330  18.094  -1.095  1.00 20.00     0.010 C 
HETATM   10  C9  UNL     1     -35.136  17.389   0.501  1.00 20.00     0.010 C 
ENDBRANCH   6   8
BRANCH   7  11
HETATM   11  C1  UNL     1     -34.156  15.791  -5.967  1.00 20.00     0.350 C 
HETATM   12  O12 UNL     1     -34.171  15.042  -6.938  1.00 20.00    -0.284 OA
ENDBRANCH   7  11
TORSDOF 2
ENDMDL
MODEL 7
REMARK VINA RESULT:      -4.1      2.423      3.544
REMARK  2 active torsions:
REMARK  status: ('A' for Active; 'I' for Inactive)
REMARK    1  A    between atoms: C1_1  and  N11_11 
REMARK    2  A    between atoms: C7_7  and  C10_10 
ROOT
HETATM    1  C2  UNL     1     -33.384  14.768  -3.848  1.00 20.00     0.020 C 
HETATM    2  C3  UNL     1     -33.360  16.272  -4.126  1.00 20.00     0.006 C 
HETATM    3  C4  UNL     1     -35.226  16.372  -5.910  1.00 20.00     0.025 C 
HETATM    4  C5  UNL     1     -34.750  14.226  -3.437  1.00 20.00     0.125 C 
HETATM    5  C6  UNL     1     -35.695  14.941  -5.660  1.00 20.00     0.125 C 
HETATM    6  C7  UNL     1     -33.750  16.632  -5.570  1.00 20.00    -0.010 C 
HETATM    7  N11 UNL     1     -35.880  14.682  -4.237  1.00 20.00    -0.359 N 
ENDROOT
BRANCH   6   8
HETATM    8  C10 UNL     1     -33.423  18.105  -5.840  1.00 20.00    -0.019 C 
HETATM    9  C8  UNL     1     -34.286  18.640  -6.979  1.00 20.00     0.010 C 
HETATM   10  C9  UNL     1     -33.622  18.934  -4.575  1.00 20.00     0.010 C 
ENDBRANCH   6   8
BRANCH   7  11
HETATM   11  C1  UNL     1     -37.133  14.824  -3.654  1.00 20.00     0.350 C 
HETATM   12  O12 UNL     1     -38.111  14.099  -3.804  1.00 20.00    -0.284 OA
ENDBRANCH   7  11
TORSDOF 2
ENDMDL
MODEL 8
REMARK VINA RESULT:      -4.1      1.978      2.548
REMARK  2 active torsions:
REMARK  status: ('A' for Active; 'I' for Inactive)
REMARK    1  A    between atoms: C1_1  and  N11_11 
REMARK    2  A    between atoms: C7_7  and  C10_10 
ROOT
HETATM    1  C2  UNL     1     -33.810  15.857  -2.687  1.00 20.00     0.020 C 
HETATM    2  C3  UNL     1     -34.524  16.411  -1.452  1.00 20.00     0.006 C 
HETATM    3  C4  UNL     1     -36.518  17.554  -2.632  1.00 20.00     0.025 C 
HETATM    4  C5  UNL     1     -34.680  14.968  -3.571  1.00 20.00     0.125 C 
HETATM    5  C6  UNL     1     -36.230  16.911  -3.985  1.00 20.00     0.125 C 
HETATM    6  C7  UNL     1     -35.288  17.718  -1.724  1.00 20.00    -0.010 C 
HETATM    7  N11 UNL     1     -36.017  15.473  -3.857  1.00 20.00    -0.359 N 
ENDROOT
BRANCH   6   8
HETATM    8  C10 UNL     1     -35.723  18.347  -0.396  1.00 20.00    -0.019 C 
HETATM    9  C8  UNL     1     -37.236  18.539  -0.370  1.00 20.00     0.010 C 
HETATM   10  C9  UNL     1     -35.266  17.483   0.775  1.00 20.00     0.010 C 
ENDBRANCH   6   8
BRANCH   7  11
HETATM   11  C1  UNL     1     -37.069  14.587  -4.050  1.00 20.00     0.350 C 
HETATM   12  O12 UNL     1     -38.065  14.448  -3.348  1.00 20.00    -0.284 OA
ENDBRANCH   7  11
TORSDOF 2
ENDMDL
MODEL 9
REMARK VINA RESULT:      -4.1      2.304      4.799
REMARK  2 active torsions:
REMARK  status: ('A' for Active; 'I' for Inactive)
REMARK    1  A    between atoms: C1_1  and  N11_11 
REMARK    2  A    between atoms: C7_7  and  C10_10 
ROOT
HETATM    1  C2  UNL     1     -34.594  13.243  -4.881  1.00 20.00     0.020 C 
HETATM    2  C3  UNL     1     -34.685  14.283  -5.999  1.00 20.00     0.006 C 
HETATM    3  C4  UNL     1     -36.467  15.831  -4.951  1.00 20.00     0.025 C 
HETATM    4  C5  UNL     1     -34.271  13.822  -3.507  1.00 20.00     0.125 C 
HETATM    5  C6  UNL     1     -36.402  15.164  -3.580  1.00 20.00     0.125 C 
HETATM    6  C7  UNL     1     -36.079  14.921  -6.127  1.00 20.00    -0.010 C 
HETATM    7  N11 UNL     1     -35.024  15.011  -3.127  1.00 20.00    -0.359 N 
ENDROOT
BRANCH   6   8
HETATM    8  C10 UNL     1     -36.161  15.722  -7.432  1.00 20.00    -0.019 C 
HETATM    9  C8  UNL     1     -37.462  16.515  -7.487  1.00 20.00     0.010 C 
HETATM   10  C9  UNL     1     -34.956  16.648  -7.564  1.00 20.00     0.010 C 
ENDBRANCH   6   8
BRANCH   7  11
HETATM   11  C1  UNL     1     -34.445  15.968  -2.303  1.00 20.00     0.350 C 
HETATM   12  O12 UNL     1     -34.707  16.196  -1.127  1.00 20.00    -0.284 OA
ENDBRANCH   7  11
TORSDOF 2
ENDMDL
