MODEL 1
REMARK VINA RESULT:      -4.5      0.000      0.000
REMARK  1 active torsions:
REMARK  status: ('A' for Active; 'I' for Inactive)
REMARK    1  A    between atoms: C6_6  and  C7_7 
ROOT
HETATM    1  C1  UNL     1     -32.541  19.153  -0.270  1.00 20.00     0.065 C 
HETATM    2  C7  UNL     1     -33.916  19.015  -0.773  1.00 20.00     0.186 C 
HETATM    3  N8  UNL     1     -31.457  19.263   0.130  1.00 20.00    -0.197 NA
ENDROOT
BRANCH   2   4
HETATM    4  C6  UNL     1     -33.989  17.946  -1.812  1.00 20.00     0.085 A 
HETATM    5  C4  UNL     1     -34.405  16.674  -1.453  1.00 20.00     0.143 A 
HETATM    6  C2  UNL     1     -34.462  15.703  -2.446  1.00 20.00     0.069 A 
HETATM    7  F10 UNL     1     -34.747  16.380  -0.193  1.00 20.00    -0.204 F 
HETATM    8  C5  UNL     1     -34.104  16.028  -3.750  1.00 20.00     0.054 A 
HETATM    9  C3  UNL     1     -33.701  17.329  -4.007  1.00 20.00     0.141 A 
HETATM   10 CL11 UNL     1     -34.161  14.857  -5.000  1.00 20.00    -0.083 Cl
HETATM   11  N9  UNL     1     -33.633  18.299  -3.067  1.00 20.00    -0.260 NA
ENDBRANCH   2   4
TORSDOF 1
ENDMDL
MODEL 2
REMARK VINA RESULT:      -4.4      3.737      5.677
REMARK  1 active torsions:
REMARK  status: ('A' for Active; 'I' for Inactive)
REMARK    1  A    between atoms: C6_6  and  C7_7 
ROOT
HETATM    1  C1  UNL     1     -35.790  14.784  -7.490  1.00 20.00     0.065 C 
HETATM    2  C7  UNL     1     -34.423  14.808  -6.952  1.00 20.00     0.186 C 
HETATM    3  N8  UNL     1     -36.869  14.763  -7.918  1.00 20.00    -0.197 NA
ENDROOT
BRANCH   2   4
HETATM    4  C6  UNL     1     -34.437  15.157  -5.500  1.00 20.00     0.085 A 
HETATM    5  C4  UNL     1     -34.248  14.159  -4.557  1.00 20.00     0.143 A 
HETATM    6  C2  UNL     1     -34.267  14.519  -3.215  1.00 20.00     0.069 A 
HETATM    7  F10 UNL     1     -34.050  12.885  -4.918  1.00 20.00    -0.204 F 
HETATM    8  C5  UNL     1     -34.472  15.849  -2.861  1.00 20.00     0.054 A 
HETATM    9  C3  UNL     1     -34.652  16.771  -3.879  1.00 20.00     0.141 A 
HETATM   10 CL11 UNL     1     -34.503  16.330  -1.216  1.00 20.00    -0.083 Cl
HETATM   11  N9  UNL     1     -34.639  16.458  -5.194  1.00 20.00    -0.260 NA
ENDBRANCH   2   4
TORSDOF 1
ENDMDL
MODEL 3
REMARK VINA RESULT:      -4.2      3.382      4.860
REMARK  1 active torsions:
REMARK  status: ('A' for Active; 'I' for Inactive)
REMARK    1  A    between atoms: C6_6  and  C7_7 
ROOT
HETATM    1  C1  UNL     1     -34.679  13.771  -5.017  1.00 20.00     0.065 C 
HETATM    2  C7  UNL     1     -34.537  15.224  -5.190  1.00 20.00     0.186 C 
HETATM    3  N8  UNL     1     -34.789  12.624  -4.883  1.00 20.00    -0.197 NA
ENDROOT
BRANCH   2   4
HETATM    4  C6  UNL     1     -34.788  15.933  -3.900  1.00 20.00     0.085 A 
HETATM    5  C4  UNL     1     -33.811  15.927  -2.917  1.00 20.00     0.143 A 
HETATM    6  C2  UNL     1     -34.078  16.596  -1.729  1.00 20.00     0.069 A 
HETATM    7  F10 UNL     1     -32.642  15.300  -3.098  1.00 20.00    -0.204 F 
HETATM    8  C5  UNL     1     -35.298  17.243  -1.561  1.00 20.00     0.054 A 
HETATM    9  C3  UNL     1     -36.209  17.190  -2.604  1.00 20.00     0.141 A 
HETATM   10 CL11 UNL     1     -35.663  18.078  -0.110  1.00 20.00    -0.083 Cl
HETATM   11  N9  UNL     1     -35.984  16.549  -3.773  1.00 20.00    -0.260 NA
ENDBRANCH   2   4
TORSDOF 1
ENDMDL
MODEL 4
REMARK VINA RESULT:      -4.2     11.900     12.819
REMARK  1 active torsions:
REMARK  status: ('A' for Active; 'I' for Inactive)
REMARK    1  A    between atoms: C6_6  and  C7_7 
ROOT
HETATM    1  C1  UNL     1     -32.373   8.391   2.057  1.00 20.00     0.065 C 
HETATM    2  C7  UNL     1     -32.152   6.948   2.231  1.00 20.00     0.186 C 
HETATM    3  N8  UNL     1     -32.546   9.530   1.917  1.00 20.00    -0.197 NA
ENDROOT
BRANCH   2   4
HETATM    4  C6  UNL     1     -33.002   6.418   3.338  1.00 20.00     0.085 A 
HETATM    5  C4  UNL     1     -33.980   5.478   3.055  1.00 20.00     0.143 A 
HETATM    6  C2  UNL     1     -34.753   5.006   4.109  1.00 20.00     0.069 A 
HETATM    7  F10 UNL     1     -34.182   5.032   1.810  1.00 20.00    -0.204 F 
HETATM    8  C5  UNL     1     -34.527   5.481   5.397  1.00 20.00     0.054 A 
HETATM    9  C3  UNL     1     -33.524   6.420   5.575  1.00 20.00     0.141 A 
HETATM   10 CL11 UNL     1     -35.460   4.921   6.722  1.00 20.00    -0.083 Cl
HETATM   11  N9  UNL     1     -32.753   6.903   4.574  1.00 20.00    -0.260 NA
ENDBRANCH   2   4
TORSDOF 1
ENDMDL
MODEL 5
REMARK VINA RESULT:      -4.2      3.294      4.973
REMARK  1 active torsions:
REMARK  status: ('A' for Active; 'I' for Inactive)
REMARK    1  A    between atoms: C6_6  and  C7_7 
ROOT
HETATM    1  C1  UNL     1     -34.650  13.864  -4.839  1.00 20.00     0.065 C 
HETATM    2  C7  UNL     1     -34.417  15.289  -5.112  1.00 20.00     0.186 C 
HETATM    3  N8  UNL     1     -34.833  12.738  -4.626  1.00 20.00    -0.197 NA
ENDROOT
BRANCH   2   4
HETATM    4  C6  UNL     1     -34.310  16.057  -3.836  1.00 20.00     0.085 A 
HETATM    5  C4  UNL     1     -33.720  17.311  -3.842  1.00 20.00     0.143 A 
HETATM    6  C2  UNL     1     -33.637  17.998  -2.637  1.00 20.00     0.069 A 
HETATM    7  F10 UNL     1     -33.242  17.853  -4.969  1.00 20.00    -0.204 F 
HETATM    8  C5  UNL     1     -34.139  17.418  -1.477  1.00 20.00     0.054 A 
HETATM    9  C3  UNL     1     -34.710  16.159  -1.576  1.00 20.00     0.141 A 
HETATM   10 CL11 UNL     1     -34.055  18.234   0.028  1.00 20.00    -0.083 Cl
HETATM   11  N9  UNL     1     -34.809  15.462  -2.730  1.00 20.00    -0.260 NA
ENDBRANCH   2   4
TORSDOF 1
ENDMDL
MODEL 6
REMARK VINA RESULT:      -4.1      3.513      4.981
REMARK  1 active torsions:
REMARK  status: ('A' for Active; 'I' for Inactive)
REMARK    1  A    between atoms: C6_6  and  C7_7 
ROOT
HETATM    1  C1  UNL     1     -37.388  15.171  -3.845  1.00 20.00     0.065 C 
HETATM    2  C7  UNL     1     -36.441  16.284  -4.008  1.00 20.00     0.186 C 
HETATM    3  N8  UNL     1     -38.136  14.292  -3.719  1.00 20.00    -0.197 NA
ENDROOT
BRANCH   2   4
HETATM    4  C6  UNL     1     -35.974  16.773  -2.677  1.00 20.00     0.085 A 
HETATM    5  C4  UNL     1     -34.931  16.121  -2.038  1.00 20.00     0.143 A 
HETATM    6  C2  UNL     1     -34.522  16.604  -0.801  1.00 20.00     0.069 A 
HETATM    7  F10 UNL     1     -34.330  15.059  -2.588  1.00 20.00    -0.204 F 
HETATM    8  C5  UNL     1     -35.158  17.709  -0.247  1.00 20.00     0.054 A 
HETATM    9  C3  UNL     1     -36.191  18.291  -0.966  1.00 20.00     0.141 A 
HETATM   10 CL11 UNL     1     -34.681  18.333   1.276  1.00 20.00    -0.083 Cl
HETATM   11  N9  UNL     1     -36.616  17.849  -2.171  1.00 20.00    -0.260 NA
ENDBRANCH   2   4
TORSDOF 1
ENDMDL
MODEL 7
REMARK VINA RESULT:      -4.1      1.921      2.479
REMARK  1 active torsions:
REMARK  status: ('A' for Active; 'I' for Inactive)
REMARK    1  A    between atoms: C6_6  and  C7_7 
ROOT
HETATM    1  C1  UNL     1     -33.871  17.361  -1.011  1.00 20.00     0.065 C 
HETATM    2  C7  UNL     1     -34.743  16.241  -1.395  1.00 20.00     0.186 C 
HETATM    3  N8  UNL     1     -33.183  18.244  -0.705  1.00 20.00    -0.197 NA
ENDROOT
BRANCH   2   4
HETATM    4  C6  UNL     1     -34.621  15.959  -2.856  1.00 20.00     0.085 A 
HETATM    5  C4  UNL     1     -35.668  15.341  -3.520  1.00 20.00     0.143 A 
HETATM    6  C2  UNL     1     -35.522  15.093  -4.879  1.00 20.00     0.069 A 
HETATM    7  F10 UNL     1     -36.791  14.990  -2.881  1.00 20.00    -0.204 F 
HETATM    8  C5  UNL     1     -34.348  15.466  -5.526  1.00 20.00     0.054 A 
HETATM    9  C3  UNL     1     -33.359  16.079  -4.772  1.00 20.00     0.141 A 
HETATM   10 CL11 UNL     1     -34.131  15.177  -7.201  1.00 20.00    -0.083 Cl
HETATM   11  N9  UNL     1     -33.467  16.336  -3.449  1.00 20.00    -0.260 NA
ENDBRANCH   2   4
TORSDOF 1
ENDMDL
MODEL 8
REMARK VINA RESULT:      -4.1      2.299      3.103
REMARK  1 active torsions:
REMARK  status: ('A' for Active; 'I' for Inactive)
REMARK    1  A    between atoms: C6_6  and  C7_7 
ROOT
HETATM    1  C1  UNL     1     -34.039  17.175  -1.785  1.00 20.00     0.065 C 
HETATM    2  C7  UNL     1     -34.746  15.911  -2.035  1.00 20.00     0.186 C 
HETATM    3  N8  UNL     1     -33.480  18.172  -1.584  1.00 20.00    -0.197 NA
ENDROOT
BRANCH   2   4
HETATM    4  C6  UNL     1     -34.767  15.602  -3.496  1.00 20.00     0.085 A 
HETATM    5  C4  UNL     1     -34.453  14.323  -3.927  1.00 20.00     0.143 A 
HETATM    6  C2  UNL     1     -34.483  14.071  -5.293  1.00 20.00     0.069 A 
HETATM    7  F10 UNL     1     -34.132  13.353  -3.062  1.00 20.00    -0.204 F 
HETATM    8  C5  UNL     1     -34.820  15.091  -6.175  1.00 20.00     0.054 A 
HETATM    9  C3  UNL     1     -35.118  16.336  -5.644  1.00 20.00     0.141 A 
HETATM   10 CL11 UNL     1     -34.867  14.818  -7.867  1.00 20.00    -0.083 Cl
HETATM   11  N9  UNL     1     -35.099  16.618  -4.322  1.00 20.00    -0.260 NA
ENDBRANCH   2   4
TORSDOF 1
ENDMDL
MODEL 9
REMARK VINA RESULT:      -4.0     13.597     14.928
REMARK  1 active torsions:
REMARK  status: ('A' for Active; 'I' for Inactive)
REMARK    1  A    between atoms: C6_6  and  C7_7 
ROOT
HETATM    1  C1  UNL     1     -42.422   8.021  -3.641  1.00 20.00     0.065 C 
HETATM    2  C7  UNL     1     -42.549   7.340  -2.345  1.00 20.00     0.186 C 
HETATM    3  N8  UNL     1     -42.320   8.561  -4.664  1.00 20.00    -0.197 NA
ENDROOT
BRANCH   2   4
HETATM    4  C6  UNL     1     -42.431   5.862  -2.515  1.00 20.00     0.085 A 
HETATM    5  C4  UNL     1     -41.450   5.172  -1.822  1.00 20.00     0.143 A 
HETATM    6  C2  UNL     1     -41.369   3.796  -2.004  1.00 20.00     0.069 A 
HETATM    7  F10 UNL     1     -40.603   5.801  -0.998  1.00 20.00    -0.204 F 
HETATM    8  C5  UNL     1     -42.259   3.161  -2.863  1.00 20.00     0.054 A 
HETATM    9  C3  UNL     1     -43.204   3.941  -3.510  1.00 20.00     0.141 A 
HETATM   10 CL11 UNL     1     -42.190   1.466  -3.113  1.00 20.00    -0.083 Cl
HETATM   11  N9  UNL     1     -43.313   5.280  -3.358  1.00 20.00    -0.260 NA
ENDBRANCH   2   4
TORSDOF 1
ENDMDL
