MODEL 1
REMARK VINA RESULT:      -4.5      0.000      0.000
REMARK  4 active torsions:
REMARK  status: ('A' for Active; 'I' for Inactive)
REMARK    1  A    between atoms: C3_3  and  C5_5 
REMARK    2  A    between atoms: C5_5  and  N8_8 
REMARK    3  A    between atoms: C6_6  and  C7_7 
REMARK    4  A    between atoms: C7_7  and  N8_8 
ROOT
HETATM    1  N8  UNL     1     -32.439   6.223   3.517  1.00 20.00     0.089 N 
HETATM    2  H23 UNL     1     -31.869   5.768   4.234  1.00 20.00     0.316 HD
ENDROOT
BRANCH   1   3
HETATM    3  C5  UNL     1     -31.826   7.501   3.168  1.00 20.00     0.274 C 
BRANCH   3   4
HETATM    4  C3  UNL     1     -32.494   8.113   1.985  1.00 20.00     0.014 A 
HETATM    5  C1  UNL     1     -32.454   9.602   1.776  1.00 20.00     0.007 A 
HETATM    6  C2  UNL     1     -31.673   8.693   0.868  1.00 20.00     0.007 A 
ENDBRANCH   3   4
ENDBRANCH   1   3
BRANCH   1   7
HETATM    7  C7  UNL     1     -33.788   6.406   4.013  1.00 20.00     0.230 C 
HETATM    8  C4  UNL     1     -34.710   5.385   3.357  1.00 20.00     0.043 C 
BRANCH   7   9
HETATM    9  C6  UNL     1     -33.797   6.351   5.542  1.00 20.00     0.149 C 
HETATM   10 CL9  UNL     1     -34.832   5.055   6.197  1.00 20.00    -0.128 Cl
ENDBRANCH   7   9
ENDBRANCH   1   7
TORSDOF 4
ENDMDL
MODEL 2
REMARK VINA RESULT:      -4.4      2.613      4.751
REMARK  4 active torsions:
REMARK  status: ('A' for Active; 'I' for Inactive)
REMARK    1  A    between atoms: C3_3  and  C5_5 
REMARK    2  A    between atoms: C5_5  and  N8_8 
REMARK    3  A    between atoms: C6_6  and  C7_7 
REMARK    4  A    between atoms: C7_7  and  N8_8 
ROOT
HETATM    1  N8  UNL     1     -33.867   6.699   3.838  1.00 20.00     0.089 N 
HETATM    2  H23 UNL     1     -33.982   7.021   4.802  1.00 20.00     0.316 HD
ENDROOT
BRANCH   1   3
HETATM    3  C5  UNL     1     -34.634   5.471   3.657  1.00 20.00     0.274 C 
BRANCH   3   4
HETATM    4  C3  UNL     1     -35.303   5.062   4.924  1.00 20.00     0.014 A 
HETATM    5  C1  UNL     1     -34.760   3.917   5.734  1.00 20.00     0.007 A 
HETATM    6  C2  UNL     1     -34.642   5.325   6.248  1.00 20.00     0.007 A 
ENDBRANCH   3   4
ENDBRANCH   1   3
BRANCH   1   7
HETATM    7  C7  UNL     1     -32.462   6.487   3.560  1.00 20.00     0.230 C 
HETATM    8  C4  UNL     1     -32.316   5.458   2.444  1.00 20.00     0.043 C 
BRANCH   7   9
HETATM    9  C6  UNL     1     -31.778   7.822   3.258  1.00 20.00     0.149 C 
HETATM   10 CL9  UNL     1     -32.014   8.373   1.578  1.00 20.00    -0.128 Cl
ENDBRANCH   7   9
ENDBRANCH   1   7
TORSDOF 4
ENDMDL
MODEL 3
REMARK VINA RESULT:      -4.1      0.960      1.671
REMARK  4 active torsions:
REMARK  status: ('A' for Active; 'I' for Inactive)
REMARK    1  A    between atoms: C3_3  and  C5_5 
REMARK    2  A    between atoms: C5_5  and  N8_8 
REMARK    3  A    between atoms: C6_6  and  C7_7 
REMARK    4  A    between atoms: C7_7  and  N8_8 
ROOT
HETATM    1  N8  UNL     1     -33.665   7.053   3.748  1.00 20.00     0.089 N 
HETATM    2  H23 UNL     1     -34.540   7.055   3.218  1.00 20.00     0.316 HD
ENDROOT
BRANCH   1   3
HETATM    3  C5  UNL     1     -32.559   6.810   2.828  1.00 20.00     0.274 C 
BRANCH   3   4
HETATM    4  C3  UNL     1     -31.874   8.083   2.462  1.00 20.00     0.014 A 
HETATM    5  C1  UNL     1     -31.746   8.487   1.019  1.00 20.00     0.007 A 
HETATM    6  C2  UNL     1     -32.668   9.244   1.934  1.00 20.00     0.007 A 
ENDBRANCH   3   4
ENDBRANCH   1   3
BRANCH   1   7
HETATM    7  C7  UNL     1     -33.724   6.037   4.779  1.00 20.00     0.230 C 
HETATM    8  C4  UNL     1     -33.790   6.706   6.146  1.00 20.00     0.043 C 
BRANCH   7   9
HETATM    9  C6  UNL     1     -34.885   5.078   4.505  1.00 20.00     0.149 C 
HETATM   10 CL9  UNL     1     -35.234   3.984   5.870  1.00 20.00    -0.128 Cl
ENDBRANCH   7   9
ENDBRANCH   1   7
TORSDOF 4
ENDMDL
MODEL 4
REMARK VINA RESULT:      -4.1      1.545      2.079
REMARK  4 active torsions:
REMARK  status: ('A' for Active; 'I' for Inactive)
REMARK    1  A    between atoms: C3_3  and  C5_5 
REMARK    2  A    between atoms: C5_5  and  N8_8 
REMARK    3  A    between atoms: C6_6  and  C7_7 
REMARK    4  A    between atoms: C7_7  and  N8_8 
ROOT
HETATM    1  N8  UNL     1     -33.422   5.430   4.485  1.00 20.00     0.089 N 
HETATM    2  H23 UNL     1     -32.727   5.897   5.071  1.00 20.00     0.316 HD
ENDROOT
BRANCH   1   3
HETATM    3  C5  UNL     1     -33.580   6.186   3.247  1.00 20.00     0.274 C 
BRANCH   3   4
HETATM    4  C3  UNL     1     -32.266   6.684   2.749  1.00 20.00     0.014 A 
HETATM    5  C1  UNL     1     -32.136   8.087   2.223  1.00 20.00     0.007 A 
HETATM    6  C2  UNL     1     -31.500   7.713   3.533  1.00 20.00     0.007 A 
ENDBRANCH   3   4
ENDBRANCH   1   3
BRANCH   1   7
HETATM    7  C7  UNL     1     -34.676   5.330   5.203  1.00 20.00     0.230 C 
HETATM    8  C4  UNL     1     -35.169   3.888   5.164  1.00 20.00     0.043 C 
BRANCH   7   9
HETATM    9  C6  UNL     1     -34.516   5.888   6.619  1.00 20.00     0.149 C 
HETATM   10 CL9  UNL     1     -33.366   7.247   6.717  1.00 20.00    -0.128 Cl
ENDBRANCH   7   9
ENDBRANCH   1   7
TORSDOF 4
ENDMDL
MODEL 5
REMARK VINA RESULT:      -3.9     10.562     11.295
REMARK  4 active torsions:
REMARK  status: ('A' for Active; 'I' for Inactive)
REMARK    1  A    between atoms: C3_3  and  C5_5 
REMARK    2  A    between atoms: C5_5  and  N8_8 
REMARK    3  A    between atoms: C6_6  and  C7_7 
REMARK    4  A    between atoms: C7_7  and  N8_8 
ROOT
HETATM    1  N8  UNL     1     -36.232  15.130  -2.923  1.00 20.00     0.089 N 
HETATM    2  H23 UNL     1     -37.235  15.236  -2.757  1.00 20.00     0.316 HD
ENDROOT
BRANCH   1   3
HETATM    3  C5  UNL     1     -35.571  16.399  -2.639  1.00 20.00     0.274 C 
BRANCH   3   4
HETATM    4  C3  UNL     1     -34.620  16.267  -1.498  1.00 20.00     0.014 A 
HETATM    5  C1  UNL     1     -33.658  17.378  -1.180  1.00 20.00     0.007 A 
HETATM    6  C2  UNL     1     -34.809  17.093  -0.256  1.00 20.00     0.007 A 
ENDBRANCH   3   4
ENDBRANCH   1   3
BRANCH   1   7
HETATM    7  C7  UNL     1     -36.006  14.716  -4.293  1.00 20.00     0.230 C 
HETATM    8  C4  UNL     1     -35.376  15.864  -5.072  1.00 20.00     0.043 C 
BRANCH   7   9
HETATM    9  C6  UNL     1     -35.182  13.427  -4.322  1.00 20.00     0.149 C 
HETATM   10 CL9  UNL     1     -33.478  13.667  -3.855  1.00 20.00    -0.128 Cl
ENDBRANCH   7   9
ENDBRANCH   1   7
TORSDOF 4
ENDMDL
MODEL 6
REMARK VINA RESULT:      -3.8     10.913     11.751
REMARK  4 active torsions:
REMARK  status: ('A' for Active; 'I' for Inactive)
REMARK    1  A    between atoms: C3_3  and  C5_5 
REMARK    2  A    between atoms: C5_5  and  N8_8 
REMARK    3  A    between atoms: C6_6  and  C7_7 
REMARK    4  A    between atoms: C7_7  and  N8_8 
ROOT
HETATM    1  N8  UNL     1     -33.236  15.784  -4.856  1.00 20.00     0.089 N 
HETATM    2  H23 UNL     1     -32.677  15.098  -4.343  1.00 20.00     0.316 HD
ENDROOT
BRANCH   1   3
HETATM    3  C5  UNL     1     -33.655  16.834  -3.933  1.00 20.00     0.274 C 
BRANCH   3   4
HETATM    4  C3  UNL     1     -33.550  16.380  -2.517  1.00 20.00     0.014 A 
HETATM    5  C1  UNL     1     -33.788  17.347  -1.390  1.00 20.00     0.007 A 
HETATM    6  C2  UNL     1     -34.785  16.256  -1.668  1.00 20.00     0.007 A 
ENDBRANCH   3   4
ENDBRANCH   1   3
BRANCH   1   7
HETATM    7  C7  UNL     1     -34.377  15.129  -5.460  1.00 20.00     0.230 C 
HETATM    8  C4  UNL     1     -34.295  15.262  -6.976  1.00 20.00     0.043 C 
BRANCH   7   9
HETATM    9  C6  UNL     1     -34.469  13.681  -4.973  1.00 20.00     0.149 C 
HETATM   10 CL9  UNL     1     -33.206  13.251  -3.790  1.00 20.00    -0.128 Cl
ENDBRANCH   7   9
ENDBRANCH   1   7
TORSDOF 4
ENDMDL
MODEL 7
REMARK VINA RESULT:      -3.7     10.986     11.719
REMARK  4 active torsions:
REMARK  status: ('A' for Active; 'I' for Inactive)
REMARK    1  A    between atoms: C3_3  and  C5_5 
REMARK    2  A    between atoms: C5_5  and  N8_8 
REMARK    3  A    between atoms: C6_6  and  C7_7 
REMARK    4  A    between atoms: C7_7  and  N8_8 
ROOT
HETATM    1  N8  UNL     1     -35.932  15.138  -3.355  1.00 20.00     0.089 N 
HETATM    2  H23 UNL     1     -36.705  15.267  -4.011  1.00 20.00     0.316 HD
ENDROOT
BRANCH   1   3
HETATM    3  C5  UNL     1     -35.742  16.373  -2.601  1.00 20.00     0.274 C 
BRANCH   3   4
HETATM    4  C3  UNL     1     -34.644  16.231  -1.603  1.00 20.00     0.014 A 
HETATM    5  C1  UNL     1     -33.690  17.367  -1.357  1.00 20.00     0.007 A 
HETATM    6  C2  UNL     1     -34.697  16.989  -0.306  1.00 20.00     0.007 A 
ENDBRANCH   3   4
ENDBRANCH   1   3
BRANCH   1   7
HETATM    7  C7  UNL     1     -34.732  14.776  -4.082  1.00 20.00     0.230 C 
HETATM    8  C4  UNL     1     -34.759  13.285  -4.395  1.00 20.00     0.043 C 
BRANCH   7   9
HETATM    9  C6  UNL     1     -34.581  15.663  -5.320  1.00 20.00     0.149 C 
HETATM   10 CL9  UNL     1     -33.258  16.850  -5.183  1.00 20.00    -0.128 Cl
ENDBRANCH   7   9
ENDBRANCH   1   7
TORSDOF 4
ENDMDL
MODEL 8
REMARK VINA RESULT:      -3.7     10.737     11.550
REMARK  4 active torsions:
REMARK  status: ('A' for Active; 'I' for Inactive)
REMARK    1  A    between atoms: C3_3  and  C5_5 
REMARK    2  A    between atoms: C5_5  and  N8_8 
REMARK    3  A    between atoms: C6_6  and  C7_7 
REMARK    4  A    between atoms: C7_7  and  N8_8 
ROOT
HETATM    1  N8  UNL     1     -33.370  15.496  -4.797  1.00 20.00     0.089 N 
HETATM    2  H23 UNL     1     -32.692  14.949  -4.262  1.00 20.00     0.316 HD
ENDROOT
BRANCH   1   3
HETATM    3  C5  UNL     1     -33.921  16.537  -3.935  1.00 20.00     0.274 C 
BRANCH   3   4
HETATM    4  C3  UNL     1     -33.648  16.247  -2.499  1.00 20.00     0.014 A 
HETATM    5  C1  UNL     1     -33.734  17.344  -1.474  1.00 20.00     0.007 A 
HETATM    6  C2  UNL     1     -34.770  16.255  -1.499  1.00 20.00     0.007 A 
ENDBRANCH   3   4
ENDBRANCH   1   3
BRANCH   1   7
HETATM    7  C7  UNL     1     -34.411  14.624  -5.299  1.00 20.00     0.230 C 
HETATM    8  C4  UNL     1     -34.322  13.273  -4.599  1.00 20.00     0.043 C 
BRANCH   7   9
HETATM    9  C6  UNL     1     -35.776  15.301  -5.158  1.00 20.00     0.149 C 
HETATM   10 CL9  UNL     1     -36.869  14.461  -4.026  1.00 20.00    -0.128 Cl
ENDBRANCH   7   9
ENDBRANCH   1   7
TORSDOF 4
ENDMDL
MODEL 9
REMARK VINA RESULT:      -3.6     10.453     12.100
REMARK  4 active torsions:
REMARK  status: ('A' for Active; 'I' for Inactive)
REMARK    1  A    between atoms: C3_3  and  C5_5 
REMARK    2  A    between atoms: C5_5  and  N8_8 
REMARK    3  A    between atoms: C6_6  and  C7_7 
REMARK    4  A    between atoms: C7_7  and  N8_8 
ROOT
HETATM    1  N8  UNL     1     -32.846  15.827  -4.872  1.00 20.00     0.089 N 
HETATM    2  H23 UNL     1     -32.269  16.650  -4.686  1.00 20.00     0.316 HD
ENDROOT
BRANCH   1   3
HETATM    3  C5  UNL     1     -34.047  16.244  -5.587  1.00 20.00     0.274 C 
BRANCH   3   4
HETATM    4  C3  UNL     1     -34.126  15.599  -6.929  1.00 20.00     0.014 A 
HETATM    5  C1  UNL     1     -35.271  14.683  -7.264  1.00 20.00     0.007 A 
HETATM    6  C2  UNL     1     -35.173  16.033  -7.917  1.00 20.00     0.007 A 
ENDBRANCH   3   4
ENDBRANCH   1   3
BRANCH   1   7
HETATM    7  C7  UNL     1     -33.179  15.175  -3.622  1.00 20.00     0.230 C 
HETATM    8  C4  UNL     1     -34.366  15.883  -2.982  1.00 20.00     0.043 C 
BRANCH   7   9
HETATM    9  C6  UNL     1     -33.406  13.679  -3.855  1.00 20.00     0.149 C 
HETATM   10 CL9  UNL     1     -35.127  13.246  -4.034  1.00 20.00    -0.128 Cl
ENDBRANCH   7   9
ENDBRANCH   1   7
TORSDOF 4
ENDMDL
