MODEL 1
REMARK VINA RESULT:      -4.1      0.000      0.000
REMARK  1 active torsions:
REMARK  status: ('A' for Active; 'I' for Inactive)
REMARK    1  A    between atoms: C2_2  and  C3_3 
ROOT
HETATM    1  C1  UNL     1     -32.913   6.572   4.153  1.00 20.00     0.112 C 
HETATM    2  C2  UNL     1     -33.840   6.222   5.051  1.00 20.00     0.090 C 
HETATM    3 CL6  UNL     1     -32.768   5.926   2.568  1.00 20.00    -0.095 Cl
HETATM    4 CL7  UNL     1     -33.917   6.925   6.631  1.00 20.00    -0.080 Cl
ENDROOT
BRANCH   2   5
HETATM    5  C3  UNL     1     -34.885   5.191   4.747  1.00 20.00     0.167 C 
HETATM    6  C4  UNL     1     -34.924   3.919   5.557  1.00 20.00     0.097 C 
HETATM    7  O5  UNL     1     -35.705   5.376   3.847  1.00 20.00    -0.292 OA
ENDBRANCH   2   5
TORSDOF 1
ENDMDL
MODEL 2
REMARK VINA RESULT:      -3.8      1.913      2.669
REMARK  1 active torsions:
REMARK  status: ('A' for Active; 'I' for Inactive)
REMARK    1  A    between atoms: C2_2  and  C3_3 
ROOT
HETATM    1  C1  UNL     1     -34.516   4.999   6.250  1.00 20.00     0.112 C 
HETATM    2  C2  UNL     1     -33.966   6.105   5.736  1.00 20.00     0.090 C 
HETATM    3 CL6  UNL     1     -35.126   3.677   5.339  1.00 20.00    -0.095 Cl
HETATM    4 CL7  UNL     1     -33.373   7.395   6.727  1.00 20.00    -0.080 Cl
ENDROOT
BRANCH   2   5
HETATM    5  C3  UNL     1     -33.822   6.303   4.258  1.00 20.00     0.167 C 
HETATM    6  C4  UNL     1     -32.464   6.625   3.684  1.00 20.00     0.097 C 
HETATM    7  O5  UNL     1     -34.799   6.206   3.514  1.00 20.00    -0.292 OA
ENDBRANCH   2   5
TORSDOF 1
ENDMDL
MODEL 3
REMARK VINA RESULT:      -3.7      0.534      2.392
REMARK  1 active torsions:
REMARK  status: ('A' for Active; 'I' for Inactive)
REMARK    1  A    between atoms: C2_2  and  C3_3 
ROOT
HETATM    1  C1  UNL     1     -33.271   6.768   5.248  1.00 20.00     0.112 C 
HETATM    2  C2  UNL     1     -33.712   5.985   4.258  1.00 20.00     0.090 C 
HETATM    3 CL6  UNL     1     -34.017   6.943   6.785  1.00 20.00    -0.095 Cl
HETATM    4 CL7  UNL     1     -32.898   5.864   2.734  1.00 20.00    -0.080 Cl
ENDROOT
BRANCH   2   5
HETATM    5  C3  UNL     1     -34.949   5.150   4.400  1.00 20.00     0.167 C 
HETATM    6  C4  UNL     1     -34.936   3.964   5.332  1.00 20.00     0.097 C 
HETATM    7  O5  UNL     1     -35.968   5.427   3.766  1.00 20.00    -0.292 OA
ENDBRANCH   2   5
TORSDOF 1
ENDMDL
MODEL 4
REMARK VINA RESULT:      -3.7      2.105      2.246
REMARK  1 active torsions:
REMARK  status: ('A' for Active; 'I' for Inactive)
REMARK    1  A    between atoms: C2_2  and  C3_3 
ROOT
HETATM    1  C1  UNL     1     -33.429   6.518   3.293  1.00 20.00     0.112 C 
HETATM    2  C2  UNL     1     -34.389   6.033   4.088  1.00 20.00     0.090 C 
HETATM    3 CL6  UNL     1     -31.848   6.961   3.796  1.00 20.00    -0.095 Cl
HETATM    4 CL7  UNL     1     -35.961   5.610   3.499  1.00 20.00    -0.080 Cl
ENDROOT
BRANCH   2   5
HETATM    5  C3  UNL     1     -34.167   5.820   5.555  1.00 20.00     0.167 C 
HETATM    6  C4  UNL     1     -34.414   4.455   6.149  1.00 20.00     0.097 C 
HETATM    7  O5  UNL     1     -33.786   6.746   6.273  1.00 20.00    -0.292 OA
ENDBRANCH   2   5
TORSDOF 1
ENDMDL
MODEL 5
REMARK VINA RESULT:      -3.5      1.824      2.944
REMARK  1 active torsions:
REMARK  status: ('A' for Active; 'I' for Inactive)
REMARK    1  A    between atoms: C2_2  and  C3_3 
ROOT
HETATM    1  C1  UNL     1     -34.249   5.798   6.509  1.00 20.00     0.112 C 
HETATM    2  C2  UNL     1     -34.453   5.194   5.334  1.00 20.00     0.090 C 
HETATM    3 CL6  UNL     1     -33.681   7.406   6.715  1.00 20.00    -0.095 Cl
HETATM    4 CL7  UNL     1     -35.030   3.566   5.213  1.00 20.00    -0.080 Cl
ENDROOT
BRANCH   2   5
HETATM    5  C3  UNL     1     -34.196   5.889   4.032  1.00 20.00     0.167 C 
HETATM    6  C4  UNL     1     -32.784   6.273   3.665  1.00 20.00     0.097 C 
HETATM    7  O5  UNL     1     -35.125   6.147   3.265  1.00 20.00    -0.292 OA
ENDBRANCH   2   5
TORSDOF 1
ENDMDL
MODEL 6
REMARK VINA RESULT:      -3.5     12.354     13.096
REMARK  1 active torsions:
REMARK  status: ('A' for Active; 'I' for Inactive)
REMARK    1  A    between atoms: C2_2  and  C3_3 
ROOT
HETATM    1  C1  UNL     1     -33.629  15.698  -4.507  1.00 20.00     0.112 C 
HETATM    2  C2  UNL     1     -34.404  14.854  -5.197  1.00 20.00     0.090 C 
HETATM    3 CL6  UNL     1     -33.579  15.830  -2.796  1.00 20.00    -0.095 Cl
HETATM    4 CL7  UNL     1     -34.392  14.784  -6.927  1.00 20.00    -0.080 Cl
ENDROOT
BRANCH   2   5
HETATM    5  C3  UNL     1     -35.341  13.904  -4.515  1.00 20.00     0.167 C 
HETATM    6  C4  UNL     1     -36.674  14.408  -4.021  1.00 20.00     0.097 C 
HETATM    7  O5  UNL     1     -35.030  12.723  -4.358  1.00 20.00    -0.292 OA
ENDBRANCH   2   5
TORSDOF 1
ENDMDL
MODEL 7
REMARK VINA RESULT:      -3.5     12.547     13.248
REMARK  1 active torsions:
REMARK  status: ('A' for Active; 'I' for Inactive)
REMARK    1  A    between atoms: C2_2  and  C3_3 
ROOT
HETATM    1  C1  UNL     1     -34.362  15.046  -6.518  1.00 20.00     0.112 C 
HETATM    2  C2  UNL     1     -34.320  14.815  -5.202  1.00 20.00     0.090 C 
HETATM    3 CL6  UNL     1     -35.472  14.334  -7.619  1.00 20.00    -0.095 Cl
HETATM    4 CL7  UNL     1     -33.166  15.577  -4.160  1.00 20.00    -0.080 Cl
ENDROOT
BRANCH   2   5
HETATM    5  C3  UNL     1     -35.276  13.874  -4.533  1.00 20.00     0.167 C 
HETATM    6  C4  UNL     1     -36.588  14.404  -4.008  1.00 20.00     0.097 C 
HETATM    7  O5  UNL     1     -34.999  12.680  -4.411  1.00 20.00    -0.292 OA
ENDBRANCH   2   5
TORSDOF 1
ENDMDL
MODEL 8
REMARK VINA RESULT:      -3.4     12.326     12.678
REMARK  1 active torsions:
REMARK  status: ('A' for Active; 'I' for Inactive)
REMARK    1  A    between atoms: C2_2  and  C3_3 
ROOT
HETATM    1  C1  UNL     1     -34.281  15.194  -3.208  1.00 20.00     0.112 C 
HETATM    2  C2  UNL     1     -35.291  14.636  -3.885  1.00 20.00     0.090 C 
HETATM    3 CL6  UNL     1     -32.613  14.959  -3.539  1.00 20.00    -0.095 Cl
HETATM    4 CL7  UNL     1     -36.951  14.927  -3.487  1.00 20.00    -0.080 Cl
ENDROOT
BRANCH   2   5
HETATM    5  C3  UNL     1     -35.054  13.716  -5.044  1.00 20.00     0.167 C 
HETATM    6  C4  UNL     1     -35.138  14.261  -6.449  1.00 20.00     0.097 C 
HETATM    7  O5  UNL     1     -34.792  12.527  -4.858  1.00 20.00    -0.292 OA
ENDBRANCH   2   5
TORSDOF 1
ENDMDL
MODEL 9
REMARK VINA RESULT:      -3.4     12.273     13.228
REMARK  1 active torsions:
REMARK  status: ('A' for Active; 'I' for Inactive)
REMARK    1  A    between atoms: C2_2  and  C3_3 
ROOT
HETATM    1  C1  UNL     1     -36.419  15.132  -5.261  1.00 20.00     0.112 C 
HETATM    2  C2  UNL     1     -35.234  14.588  -5.557  1.00 20.00     0.090 C 
HETATM    3 CL6  UNL     1     -37.321  14.834  -3.831  1.00 20.00    -0.095 Cl
HETATM    4 CL7  UNL     1     -34.388  14.944  -7.026  1.00 20.00    -0.080 Cl
ENDROOT
BRANCH   2   5
HETATM    5  C3  UNL     1     -34.551  13.627  -4.632  1.00 20.00     0.167 C 
HETATM    6  C4  UNL     1     -33.401  14.110  -3.783  1.00 20.00     0.097 C 
HETATM    7  O5  UNL     1     -34.922  12.455  -4.561  1.00 20.00    -0.292 OA
ENDBRANCH   2   5
TORSDOF 1
ENDMDL
