MODEL 1
REMARK VINA RESULT:      -4.8      0.000      0.000
REMARK  2 active torsions:
REMARK  status: ('A' for Active; 'I' for Inactive)
REMARK    1  A    between atoms: C1_1  and  C3_3 
REMARK    2  A    between atoms: C2_2  and  C5_5 
ROOT
HETATM    1  C1  UNL     1     -32.882   6.161   3.881  1.00 20.00     0.004 C 
HETATM    2  C2  UNL     1     -34.146   6.116   4.321  1.00 20.00     0.049 C 
ENDROOT
BRANCH   1   3
HETATM    3  C3  UNL     1     -32.518   6.741   2.607  1.00 20.00     0.007 C 
HETATM    4  C4  UNL     1     -32.240   8.041   2.455  1.00 20.00     0.056 C 
HETATM    5 BR8  UNL     1     -31.770   8.821   0.838  1.00 20.00    -0.064 Br
ENDBRANCH   1   3
BRANCH   2   6
HETATM    6  C5  UNL     1     -34.467   5.509   5.643  1.00 20.00     0.145 C 
HETATM    7  C6  UNL     1     -34.904   4.067   5.634  1.00 20.00     0.096 C 
HETATM    8  O7  UNL     1     -34.409   6.149   6.691  1.00 20.00    -0.294 OA
ENDBRANCH   2   6
TORSDOF 2
ENDMDL
MODEL 2
REMARK VINA RESULT:      -4.4      3.748      5.262
REMARK  2 active torsions:
REMARK  status: ('A' for Active; 'I' for Inactive)
REMARK    1  A    between atoms: C1_1  and  C3_3 
REMARK    2  A    between atoms: C2_2  and  C5_5 
ROOT
HETATM    1  C1  UNL     1     -33.183   6.928   2.898  1.00 20.00     0.004 C 
HETATM    2  C2  UNL     1     -32.063   7.641   2.718  1.00 20.00     0.049 C 
ENDROOT
BRANCH   1   3
HETATM    3  C3  UNL     1     -33.343   5.984   3.982  1.00 20.00     0.007 C 
HETATM    4  C4  UNL     1     -34.539   5.567   4.410  1.00 20.00     0.056 C 
HETATM    5 BR8  UNL     1     -34.785   4.359   5.797  1.00 20.00    -0.064 Br
ENDBRANCH   1   3
BRANCH   2   6
HETATM    6  C5  UNL     1     -31.950   8.602   1.585  1.00 20.00     0.145 C 
HETATM    7  C6  UNL     1     -32.651   9.924   1.751  1.00 20.00     0.096 C 
HETATM    8  O7  UNL     1     -31.341   8.330   0.552  1.00 20.00    -0.294 OA
ENDBRANCH   2   6
TORSDOF 2
ENDMDL
MODEL 3
REMARK VINA RESULT:      -4.2     11.551     12.011
REMARK  2 active torsions:
REMARK  status: ('A' for Active; 'I' for Inactive)
REMARK    1  A    between atoms: C1_1  and  C3_3 
REMARK    2  A    between atoms: C2_2  and  C5_5 
ROOT
HETATM    1  C1  UNL     1     -33.842  15.602  -3.282  1.00 20.00     0.004 C 
HETATM    2  C2  UNL     1     -34.791  14.669  -3.436  1.00 20.00     0.049 C 
ENDROOT
BRANCH   1   3
HETATM    3  C3  UNL     1     -33.803  16.497  -2.146  1.00 20.00     0.007 C 
HETATM    4  C4  UNL     1     -34.722  16.476  -1.174  1.00 20.00     0.056 C 
HETATM    5 BR8  UNL     1     -34.706  17.607   0.297  1.00 20.00    -0.064 Br
ENDBRANCH   1   3
BRANCH   2   6
HETATM    6  C5  UNL     1     -34.784  13.771  -4.624  1.00 20.00     0.145 C 
HETATM    7  C6  UNL     1     -34.619  14.432  -5.967  1.00 20.00     0.096 C 
HETATM    8  O7  UNL     1     -34.933  12.555  -4.528  1.00 20.00    -0.294 OA
ENDBRANCH   2   6
TORSDOF 2
ENDMDL
MODEL 4
REMARK VINA RESULT:      -3.9     11.735     11.929
REMARK  2 active torsions:
REMARK  status: ('A' for Active; 'I' for Inactive)
REMARK    1  A    between atoms: C1_1  and  C3_3 
REMARK    2  A    between atoms: C2_2  and  C5_5 
ROOT
HETATM    1  C1  UNL     1     -34.651  15.560  -2.454  1.00 20.00     0.004 C 
HETATM    2  C2  UNL     1     -35.874  15.569  -3.001  1.00 20.00     0.049 C 
ENDROOT
BRANCH   1   3
HETATM    3  C3  UNL     1     -34.141  16.657  -1.661  1.00 20.00     0.007 C 
HETATM    4  C4  UNL     1     -34.611  16.951  -0.444  1.00 20.00     0.056 C 
HETATM    5 BR8  UNL     1     -33.984  18.349   0.603  1.00 20.00    -0.064 Br
ENDBRANCH   1   3
BRANCH   2   6
HETATM    6  C5  UNL     1     -36.352  14.412  -3.808  1.00 20.00     0.145 C 
HETATM    7  C6  UNL     1     -35.298  13.602  -4.516  1.00 20.00     0.096 C 
HETATM    8  O7  UNL     1     -37.545  14.139  -3.921  1.00 20.00    -0.294 OA
ENDBRANCH   2   6
TORSDOF 2
ENDMDL
MODEL 5
REMARK VINA RESULT:      -3.7     12.013     12.532
REMARK  2 active torsions:
REMARK  status: ('A' for Active; 'I' for Inactive)
REMARK    1  A    between atoms: C1_1  and  C3_3 
REMARK    2  A    between atoms: C2_2  and  C5_5 
ROOT
HETATM    1  C1  UNL     1     -34.476  16.128  -1.745  1.00 20.00     0.004 C 
HETATM    2  C2  UNL     1     -33.641  16.609  -2.676  1.00 20.00     0.049 C 
ENDROOT
BRANCH   1   3
HETATM    3  C3  UNL     1     -34.815  16.861  -0.545  1.00 20.00     0.007 C 
HETATM    4  C4  UNL     1     -34.017  17.794  -0.015  1.00 20.00     0.056 C 
HETATM    5 BR8  UNL     1     -34.416  18.754   1.522  1.00 20.00    -0.064 Br
ENDBRANCH   1   3
BRANCH   2   6
HETATM    6  C5  UNL     1     -33.326  15.814  -3.895  1.00 20.00     0.145 C 
HETATM    7  C6  UNL     1     -33.652  14.345  -3.845  1.00 20.00     0.096 C 
HETATM    8  O7  UNL     1     -32.803  16.316  -4.888  1.00 20.00    -0.294 OA
ENDBRANCH   2   6
TORSDOF 2
ENDMDL
MODEL 6
REMARK VINA RESULT:      -3.7     11.366     11.931
REMARK  2 active torsions:
REMARK  status: ('A' for Active; 'I' for Inactive)
REMARK    1  A    between atoms: C1_1  and  C3_3 
REMARK    2  A    between atoms: C2_2  and  C5_5 
ROOT
HETATM    1  C1  UNL     1     -34.223  16.577  -1.645  1.00 20.00     0.004 C 
HETATM    2  C2  UNL     1     -34.714  16.945  -0.453  1.00 20.00     0.049 C 
ENDROOT
BRANCH   1   3
HETATM    3  C3  UNL     1     -34.863  15.586  -2.482  1.00 20.00     0.007 C 
HETATM    4  C4  UNL     1     -34.177  14.751  -3.269  1.00 20.00     0.056 C 
HETATM    5 BR8  UNL     1     -34.961  13.468  -4.357  1.00 20.00    -0.064 Br
ENDBRANCH   1   3
BRANCH   2   6
HETATM    6  C5  UNL     1     -34.017  17.972   0.370  1.00 20.00     0.145 C 
HETATM    7  C6  UNL     1     -32.793  18.605  -0.238  1.00 20.00     0.096 C 
HETATM    8  O7  UNL     1     -34.397  18.276   1.499  1.00 20.00    -0.294 OA
ENDBRANCH   2   6
TORSDOF 2
ENDMDL
MODEL 7
REMARK VINA RESULT:      -3.7     11.929     12.525
REMARK  2 active torsions:
REMARK  status: ('A' for Active; 'I' for Inactive)
REMARK    1  A    between atoms: C1_1  and  C3_3 
REMARK    2  A    between atoms: C2_2  and  C5_5 
ROOT
HETATM    1  C1  UNL     1     -34.240  17.157  -0.506  1.00 20.00     0.004 C 
HETATM    2  C2  UNL     1     -33.249  17.998  -0.831  1.00 20.00     0.049 C 
ENDROOT
BRANCH   1   3
HETATM    3  C3  UNL     1     -35.004  16.429  -1.496  1.00 20.00     0.007 C 
HETATM    4  C4  UNL     1     -34.433  15.723  -2.477  1.00 20.00     0.056 C 
HETATM    5 BR8  UNL     1     -35.378  14.778  -3.765  1.00 20.00    -0.064 Br
ENDBRANCH   1   3
BRANCH   2   6
HETATM    6  C5  UNL     1     -32.491  18.722   0.227  1.00 20.00     0.145 C 
HETATM    7  C6  UNL     1     -33.137  18.796   1.586  1.00 20.00     0.096 C 
HETATM    8  O7  UNL     1     -31.407  19.258   0.008  1.00 20.00    -0.294 OA
ENDBRANCH   2   6
TORSDOF 2
ENDMDL
MODEL 8
REMARK VINA RESULT:      -3.6     10.842     11.274
REMARK  2 active torsions:
REMARK  status: ('A' for Active; 'I' for Inactive)
REMARK    1  A    between atoms: C1_1  and  C3_3 
REMARK    2  A    between atoms: C2_2  and  C5_5 
ROOT
HETATM    1  C1  UNL     1     -42.053   3.889  -2.607  1.00 20.00     0.004 C 
HETATM    2  C2  UNL     1     -41.293   4.302  -1.584  1.00 20.00     0.049 C 
ENDROOT
BRANCH   1   3
HETATM    3  C3  UNL     1     -42.278   2.491  -2.900  1.00 20.00     0.007 C 
HETATM    4  C4  UNL     1     -41.494   1.787  -3.724  1.00 20.00     0.056 C 
HETATM    5 BR8  UNL     1     -41.750  -0.007  -4.124  1.00 20.00    -0.064 Br
ENDBRANCH   1   3
BRANCH   2   6
HETATM    6  C5  UNL     1     -41.095   5.755  -1.325  1.00 20.00     0.145 C 
HETATM    7  C6  UNL     1     -40.716   6.143   0.080  1.00 20.00     0.096 C 
HETATM    8  O7  UNL     1     -41.255   6.605  -2.198  1.00 20.00    -0.294 OA
ENDBRANCH   2   6
TORSDOF 2
ENDMDL
MODEL 9
REMARK VINA RESULT:      -3.5     11.636     11.968
REMARK  2 active torsions:
REMARK  status: ('A' for Active; 'I' for Inactive)
REMARK    1  A    between atoms: C1_1  and  C3_3 
REMARK    2  A    between atoms: C2_2  and  C5_5 
ROOT
HETATM    1  C1  UNL     1     -42.091   3.165  -2.734  1.00 20.00     0.004 C 
HETATM    2  C2  UNL     1     -41.324   2.328  -3.445  1.00 20.00     0.049 C 
ENDROOT
BRANCH   1   3
HETATM    3  C3  UNL     1     -41.541   4.178  -1.860  1.00 20.00     0.007 C 
HETATM    4  C4  UNL     1     -41.822   5.479  -1.991  1.00 20.00     0.056 C 
HETATM    5 BR8  UNL     1     -41.136   6.807  -0.890  1.00 20.00    -0.064 Br
ENDBRANCH   1   3
BRANCH   2   6
HETATM    6  C5  UNL     1     -41.941   1.303  -4.332  1.00 20.00     0.145 C 
HETATM    7  C6  UNL     1     -41.928  -0.118  -3.832  1.00 20.00     0.096 C 
HETATM    8  O7  UNL     1     -42.415   1.586  -5.430  1.00 20.00    -0.294 OA
ENDBRANCH   2   6
TORSDOF 2
ENDMDL
