MODEL 1
REMARK VINA RESULT:      -4.0      0.000      0.000
REMARK  0 active torsions:
REMARK  status: ('A' for Active; 'I' for Inactive)
ROOT
HETATM    1  C1  UNL     1     -37.477  14.735  -3.698  1.00 20.00     0.102 C 
HETATM    2  C2  UNL     1     -35.894  16.325  -2.707  1.00 20.00     0.075 A 
HETATM    3  C3  UNL     1     -36.145  15.166  -3.409  1.00 20.00     0.075 A 
HETATM    4  C4  UNL     1     -34.945  14.496  -3.782  1.00 20.00     0.084 A 
HETATM    5  C5  UNL     1     -33.821  15.169  -3.354  1.00 20.00     0.097 A 
HETATM    6  N6  UNL     1     -38.560  14.386  -3.933  1.00 20.00    -0.191 NA
HETATM    7  S7  UNL     1     -34.217  16.601  -2.503  1.00 20.00    -0.086 SA
HETATM    8 CL8  UNL     1     -34.927  13.023  -4.666  1.00 20.00    -0.080 Cl
HETATM    9 CL9  UNL     1     -32.170  14.750  -3.567  1.00 20.00    -0.074 Cl
ENDROOT
TORSDOF 0
ENDMDL
MODEL 2
REMARK VINA RESULT:      -3.9      2.652      2.942
REMARK  0 active torsions:
REMARK  status: ('A' for Active; 'I' for Inactive)
ROOT
HETATM    1  C1  UNL     1     -34.661  13.743  -4.325  1.00 20.00     0.102 C 
HETATM    2  C2  UNL     1     -34.317  15.618  -2.783  1.00 20.00     0.075 A 
HETATM    3  C3  UNL     1     -34.356  15.114  -4.065  1.00 20.00     0.075 A 
HETATM    4  C4  UNL     1     -34.062  16.111  -5.040  1.00 20.00     0.084 A 
HETATM    5  C5  UNL     1     -33.811  17.339  -4.467  1.00 20.00     0.097 A 
HETATM    6  N6  UNL     1     -34.910  12.628  -4.537  1.00 20.00    -0.191 NA
HETATM    7  S7  UNL     1     -33.929  17.285  -2.759  1.00 20.00    -0.086 SA
HETATM    8 CL8  UNL     1     -34.033  15.794  -6.728  1.00 20.00    -0.080 Cl
HETATM    9 CL9  UNL     1     -33.416  18.823  -5.233  1.00 20.00    -0.074 Cl
ENDROOT
TORSDOF 0
ENDMDL
MODEL 3
REMARK VINA RESULT:      -3.9      2.849      3.325
REMARK  0 active torsions:
REMARK  status: ('A' for Active; 'I' for Inactive)
ROOT
HETATM    1  C1  UNL     1     -34.686  13.979  -4.413  1.00 20.00     0.102 C 
HETATM    2  C2  UNL     1     -34.052  15.926  -5.762  1.00 20.00     0.075 A 
HETATM    3  C3  UNL     1     -34.336  15.359  -4.539  1.00 20.00     0.075 A 
HETATM    4  C4  UNL     1     -34.233  16.301  -3.476  1.00 20.00     0.084 A 
HETATM    5  C5  UNL     1     -33.874  17.553  -3.927  1.00 20.00     0.097 A 
HETATM    6  N6  UNL     1     -34.971  12.857  -4.310  1.00 20.00    -0.191 NA
HETATM    7  S7  UNL     1     -33.663  17.587  -5.626  1.00 20.00    -0.086 SA
HETATM    8 CL8  UNL     1     -34.527  15.900  -1.832  1.00 20.00    -0.080 Cl
HETATM    9 CL9  UNL     1     -33.632  18.993  -3.023  1.00 20.00    -0.074 Cl
ENDROOT
TORSDOF 0
ENDMDL
MODEL 4
REMARK VINA RESULT:      -3.9      3.244      3.854
REMARK  0 active torsions:
REMARK  status: ('A' for Active; 'I' for Inactive)
ROOT
HETATM    1  C1  UNL     1     -33.869  16.359  -2.366  1.00 20.00     0.102 C 
HETATM    2  C2  UNL     1     -34.527  14.216  -3.362  1.00 20.00     0.075 A 
HETATM    3  C3  UNL     1     -34.132  15.529  -3.500  1.00 20.00     0.075 A 
HETATM    4  C4  UNL     1     -34.032  15.917  -4.868  1.00 20.00     0.084 A 
HETATM    5  C5  UNL     1     -34.352  14.885  -5.723  1.00 20.00     0.097 A 
HETATM    6  N6  UNL     1     -33.654  17.033  -1.445  1.00 20.00    -0.191 NA
HETATM    7  S7  UNL     1     -34.773  13.457  -4.877  1.00 20.00    -0.086 SA
HETATM    8 CL8  UNL     1     -33.562  17.492  -5.366  1.00 20.00    -0.080 Cl
HETATM    9 CL9  UNL     1     -34.374  14.879  -7.440  1.00 20.00    -0.074 Cl
ENDROOT
TORSDOF 0
ENDMDL
MODEL 5
REMARK VINA RESULT:      -3.8      3.383      3.665
REMARK  0 active torsions:
REMARK  status: ('A' for Active; 'I' for Inactive)
ROOT
HETATM    1  C1  UNL     1     -34.543  13.804  -4.822  1.00 20.00     0.102 C 
HETATM    2  C2  UNL     1     -33.833  16.099  -4.328  1.00 20.00     0.075 A 
HETATM    3  C3  UNL     1     -34.302  15.156  -5.217  1.00 20.00     0.075 A 
HETATM    4  C4  UNL     1     -34.500  15.700  -6.519  1.00 20.00     0.084 A 
HETATM    5  C5  UNL     1     -34.177  17.039  -6.575  1.00 20.00     0.097 A 
HETATM    6  N6  UNL     1     -34.740  12.705  -4.501  1.00 20.00    -0.191 NA
HETATM    7  S7  UNL     1     -33.635  17.632  -5.063  1.00 20.00    -0.086 SA
HETATM    8 CL8  UNL     1     -35.078  14.776  -7.846  1.00 20.00    -0.080 Cl
HETATM    9 CL9  UNL     1     -34.252  18.108  -7.916  1.00 20.00    -0.074 Cl
ENDROOT
TORSDOF 0
ENDMDL
MODEL 6
REMARK VINA RESULT:      -3.8      2.729      3.177
REMARK  0 active torsions:
REMARK  status: ('A' for Active; 'I' for Inactive)
ROOT
HETATM    1  C1  UNL     1     -34.808  13.601  -4.227  1.00 20.00     0.102 C 
HETATM    2  C2  UNL     1     -33.686  15.477  -3.114  1.00 20.00     0.075 A 
HETATM    3  C3  UNL     1     -34.840  14.848  -3.528  1.00 20.00     0.075 A 
HETATM    4  C4  UNL     1     -36.007  15.586  -3.176  1.00 20.00     0.084 A 
HETATM    5  C5  UNL     1     -35.701  16.750  -2.505  1.00 20.00     0.097 A 
HETATM    6  N6  UNL     1     -34.783  12.587  -4.793  1.00 20.00    -0.191 NA
HETATM    7  S7  UNL     1     -34.012  16.949  -2.304  1.00 20.00    -0.086 SA
HETATM    8 CL8  UNL     1     -37.599  15.063  -3.554  1.00 20.00    -0.080 Cl
HETATM    9 CL9  UNL     1     -36.765  17.948  -1.889  1.00 20.00    -0.074 Cl
ENDROOT
TORSDOF 0
ENDMDL
MODEL 7
REMARK VINA RESULT:      -3.7      2.643      3.441
REMARK  0 active torsions:
REMARK  status: ('A' for Active; 'I' for Inactive)
ROOT
HETATM    1  C1  UNL     1     -34.025  16.792  -1.660  1.00 20.00     0.102 C 
HETATM    2  C2  UNL     1     -36.066  15.965  -2.741  1.00 20.00     0.075 A 
HETATM    3  C3  UNL     1     -34.698  15.926  -2.577  1.00 20.00     0.075 A 
HETATM    4  C4  UNL     1     -34.087  14.946  -3.412  1.00 20.00     0.084 A 
HETATM    5  C5  UNL     1     -35.011  14.273  -4.182  1.00 20.00     0.097 A 
HETATM    6  N6  UNL     1     -33.478  17.495  -0.915  1.00 20.00    -0.191 NA
HETATM    7  S7  UNL     1     -36.607  14.824  -3.897  1.00 20.00    -0.086 SA
HETATM    8 CL8  UNL     1     -32.395  14.656  -3.437  1.00 20.00    -0.080 Cl
HETATM    9 CL9  UNL     1     -34.749  13.021  -5.326  1.00 20.00    -0.074 Cl
ENDROOT
TORSDOF 0
ENDMDL
MODEL 8
REMARK VINA RESULT:      -3.7      2.881      3.437
REMARK  0 active torsions:
REMARK  status: ('A' for Active; 'I' for Inactive)
ROOT
HETATM    1  C1  UNL     1     -35.356  13.625  -4.220  1.00 20.00     0.102 C 
HETATM    2  C2  UNL     1     -37.427  14.931  -4.085  1.00 20.00     0.075 A 
HETATM    3  C3  UNL     1     -36.086  14.781  -3.805  1.00 20.00     0.075 A 
HETATM    4  C4  UNL     1     -35.564  15.891  -3.079  1.00 20.00     0.084 A 
HETATM    5  C5  UNL     1     -36.526  16.847  -2.833  1.00 20.00     0.097 A 
HETATM    6  N6  UNL     1     -34.762  12.686  -4.558  1.00 20.00    -0.191 NA
HETATM    7  S7  UNL     1     -38.050  16.405  -3.475  1.00 20.00    -0.086 SA
HETATM    8 CL8  UNL     1     -33.924  16.000  -2.582  1.00 20.00    -0.080 Cl
HETATM    9 CL9  UNL     1     -36.368  18.341  -2.001  1.00 20.00    -0.074 Cl
ENDROOT
TORSDOF 0
ENDMDL
MODEL 9
REMARK VINA RESULT:      -3.7      2.838      3.280
REMARK  0 active torsions:
REMARK  status: ('A' for Active; 'I' for Inactive)
ROOT
HETATM    1  C1  UNL     1     -34.376  16.583  -1.864  1.00 20.00     0.102 C 
HETATM    2  C2  UNL     1     -33.826  17.788  -3.928  1.00 20.00     0.075 A 
HETATM    3  C3  UNL     1     -34.205  16.632  -3.282  1.00 20.00     0.075 A 
HETATM    4  C4  UNL     1     -34.390  15.549  -4.189  1.00 20.00     0.084 A 
HETATM    5  C5  UNL     1     -34.147  15.919  -5.494  1.00 20.00     0.097 A 
HETATM    6  N6  UNL     1     -34.516  16.544  -0.711  1.00 20.00    -0.191 NA
HETATM    7  S7  UNL     1     -33.696  17.566  -5.620  1.00 20.00    -0.086 SA
HETATM    8 CL8  UNL     1     -34.864  13.975  -3.690  1.00 20.00    -0.080 Cl
HETATM    9 CL9  UNL     1     -34.241  14.965  -6.918  1.00 20.00    -0.074 Cl
ENDROOT
TORSDOF 0
ENDMDL
