MODEL 1
REMARK VINA RESULT:      -4.6      0.000      0.000
REMARK  0 active torsions:
REMARK  status: ('A' for Active; 'I' for Inactive)
ROOT
HETATM    1  C1  UNL     1     -34.193  16.077  -3.148  1.00 20.00    -0.074 C 
HETATM    2  C2  UNL     1     -34.144  16.960  -2.147  1.00 20.00    -0.085 C 
HETATM    3  C3  UNL     1     -33.727  16.311  -4.563  1.00 20.00     0.039 C 
HETATM    4  C4  UNL     1     -36.013  14.567  -3.820  1.00 20.00     0.009 C 
HETATM    5  C5  UNL     1     -35.591  14.773  -5.288  1.00 20.00     0.005 C 
HETATM    6  C6  UNL     1     -33.718  13.981  -4.051  1.00 20.00     0.014 C 
HETATM    7  C7  UNL     1     -34.677  14.647  -3.065  1.00 20.00     0.015 C 
HETATM    8  C8  UNL     1     -34.060  14.943  -5.192  1.00 20.00    -0.010 C 
HETATM    9  C9  UNL     1     -34.636  16.628  -0.765  1.00 20.00     0.043 C 
HETATM   10  C10 UNL     1     -33.595  18.347  -2.330  1.00 20.00     0.043 C 
ENDROOT
TORSDOF 0
ENDMDL
MODEL 2
REMARK VINA RESULT:      -4.6      1.014      2.312
REMARK  0 active torsions:
REMARK  status: ('A' for Active; 'I' for Inactive)
ROOT
HETATM    1  C1  UNL     1     -34.265  16.283  -2.338  1.00 20.00    -0.074 C 
HETATM    2  C2  UNL     1     -34.094  17.065  -1.269  1.00 20.00    -0.085 C 
HETATM    3  C3  UNL     1     -35.370  15.274  -2.534  1.00 20.00     0.039 C 
HETATM    4  C4  UNL     1     -32.616  14.970  -3.602  1.00 20.00     0.009 C 
HETATM    5  C5  UNL     1     -33.699  13.897  -3.829  1.00 20.00     0.005 C 
HETATM    6  C6  UNL     1     -34.501  15.987  -4.639  1.00 20.00     0.014 C 
HETATM    7  C7  UNL     1     -33.424  16.277  -3.593  1.00 20.00     0.015 C 
HETATM    8  C8  UNL     1     -34.998  14.726  -3.927  1.00 20.00    -0.010 C 
HETATM    9  C9  UNL     1     -32.956  18.043  -1.169  1.00 20.00     0.043 C 
HETATM   10  C10 UNL     1     -35.025  17.022  -0.088  1.00 20.00     0.043 C 
ENDROOT
TORSDOF 0
ENDMDL
MODEL 3
REMARK VINA RESULT:      -4.5      1.503      3.915
REMARK  0 active torsions:
REMARK  status: ('A' for Active; 'I' for Inactive)
ROOT
HETATM    1  C1  UNL     1     -34.370  15.148  -5.534  1.00 20.00    -0.074 C 
HETATM    2  C2  UNL     1     -34.725  15.436  -6.789  1.00 20.00    -0.085 C 
HETATM    3  C3  UNL     1     -34.598  13.836  -4.825  1.00 20.00     0.039 C 
HETATM    4  C4  UNL     1     -34.611  16.487  -3.487  1.00 20.00     0.009 C 
HETATM    5  C5  UNL     1     -34.861  15.182  -2.707  1.00 20.00     0.005 C 
HETATM    6  C6  UNL     1     -32.774  15.017  -3.839  1.00 20.00     0.014 C 
HETATM    7  C7  UNL     1     -33.622  16.050  -4.579  1.00 20.00     0.015 C 
HETATM    8  C8  UNL     1     -33.978  14.156  -3.449  1.00 20.00    -0.010 C 
HETATM    9  C9  UNL     1     -34.451  16.779  -7.407  1.00 20.00     0.043 C 
HETATM   10  C10 UNL     1     -35.425  14.441  -7.671  1.00 20.00     0.043 C 
ENDROOT
TORSDOF 0
ENDMDL
MODEL 4
REMARK VINA RESULT:      -4.5      1.277      3.765
REMARK  0 active torsions:
REMARK  status: ('A' for Active; 'I' for Inactive)
ROOT
HETATM    1  C1  UNL     1     -34.709  15.397  -2.982  1.00 20.00    -0.074 C 
HETATM    2  C2  UNL     1     -34.298  14.271  -3.569  1.00 20.00    -0.085 C 
HETATM    3  C3  UNL     1     -36.128  15.907  -2.932  1.00 20.00     0.039 C 
HETATM    4  C4  UNL     1     -33.726  17.650  -3.044  1.00 20.00     0.009 C 
HETATM    5  C5  UNL     1     -35.152  18.232  -3.005  1.00 20.00     0.005 C 
HETATM    6  C6  UNL     1     -34.851  16.802  -1.126  1.00 20.00     0.014 C 
HETATM    7  C7  UNL     1     -33.855  16.370  -2.202  1.00 20.00     0.015 C 
HETATM    8  C8  UNL     1     -35.923  17.214  -2.139  1.00 20.00    -0.010 C 
HETATM    9  C9  UNL     1     -32.854  13.848  -3.563  1.00 20.00     0.043 C 
HETATM   10  C10 UNL     1     -35.247  13.346  -4.280  1.00 20.00     0.043 C 
ENDROOT
TORSDOF 0
ENDMDL
MODEL 5
REMARK VINA RESULT:      -4.4     12.066     14.119
REMARK  0 active torsions:
REMARK  status: ('A' for Active; 'I' for Inactive)
ROOT
HETATM    1  C1  UNL     1     -41.805   4.185  -2.112  1.00 20.00    -0.074 C 
HETATM    2  C2  UNL     1     -42.113   3.276  -3.040  1.00 20.00    -0.085 C 
HETATM    3  C3  UNL     1     -40.529   4.240  -1.310  1.00 20.00     0.039 C 
HETATM    4  C4  UNL     1     -43.183   5.102  -0.294  1.00 20.00     0.009 C 
HETATM    5  C5  UNL     1     -41.916   5.173   0.580  1.00 20.00     0.005 C 
HETATM    6  C6  UNL     1     -41.540   6.398  -1.426  1.00 20.00     0.014 C 
HETATM    7  C7  UNL     1     -42.642   5.377  -1.706  1.00 20.00     0.015 C 
HETATM    8  C8  UNL     1     -40.803   5.486  -0.442  1.00 20.00    -0.010 C 
HETATM    9  C9  UNL     1     -43.417   3.308  -3.788  1.00 20.00     0.043 C 
HETATM   10  C10 UNL     1     -41.180   2.154  -3.401  1.00 20.00     0.043 C 
ENDROOT
TORSDOF 0
ENDMDL
MODEL 6
REMARK VINA RESULT:      -4.4      1.616      3.528
REMARK  0 active torsions:
REMARK  status: ('A' for Active; 'I' for Inactive)
ROOT
HETATM    1  C1  UNL     1     -34.844  15.507  -5.346  1.00 20.00    -0.074 C 
HETATM    2  C2  UNL     1     -35.419  15.827  -6.508  1.00 20.00    -0.085 C 
HETATM    3  C3  UNL     1     -33.485  15.958  -4.871  1.00 20.00     0.039 C 
HETATM    4  C4  UNL     1     -34.701  13.329  -4.213  1.00 20.00     0.009 C 
HETATM    5  C5  UNL     1     -33.301  13.727  -3.706  1.00 20.00     0.005 C 
HETATM    6  C6  UNL     1     -34.871  15.380  -3.017  1.00 20.00     0.014 C 
HETATM    7  C7  UNL     1     -35.450  14.671  -4.242  1.00 20.00     0.015 C 
HETATM    8  C8  UNL     1     -33.424  15.252  -3.501  1.00 20.00    -0.010 C 
HETATM    9  C9  UNL     1     -36.784  15.325  -6.889  1.00 20.00     0.043 C 
HETATM   10  C10 UNL     1     -34.742  16.711  -7.518  1.00 20.00     0.043 C 
ENDROOT
TORSDOF 0
ENDMDL
MODEL 7
REMARK VINA RESULT:      -4.4      1.233      1.650
REMARK  0 active torsions:
REMARK  status: ('A' for Active; 'I' for Inactive)
ROOT
HETATM    1  C1  UNL     1     -34.770  16.300  -3.224  1.00 20.00    -0.074 C 
HETATM    2  C2  UNL     1     -35.265  16.843  -2.109  1.00 20.00    -0.085 C 
HETATM    3  C3  UNL     1     -35.348  16.433  -4.611  1.00 20.00     0.039 C 
HETATM    4  C4  UNL     1     -33.916  14.028  -3.618  1.00 20.00     0.009 C 
HETATM    5  C5  UNL     1     -34.494  14.099  -5.045  1.00 20.00     0.005 C 
HETATM    6  C6  UNL     1     -33.017  15.937  -4.718  1.00 20.00     0.014 C 
HETATM    7  C7  UNL     1     -33.504  15.483  -3.342  1.00 20.00     0.015 C 
HETATM    8  C8  UNL     1     -34.336  15.589  -5.413  1.00 20.00    -0.010 C 
HETATM    9  C9  UNL     1     -34.612  16.651  -0.769  1.00 20.00     0.043 C 
HETATM   10  C10 UNL     1     -36.512  17.684  -2.114  1.00 20.00     0.043 C 
ENDROOT
TORSDOF 0
ENDMDL
MODEL 8
REMARK VINA RESULT:      -4.3      1.187      4.348
REMARK  0 active torsions:
REMARK  status: ('A' for Active; 'I' for Inactive)
ROOT
HETATM    1  C1  UNL     1     -34.046  16.810  -2.281  1.00 20.00    -0.074 C 
HETATM    2  C2  UNL     1     -33.880  16.010  -3.338  1.00 20.00    -0.085 C 
HETATM    3  C3  UNL     1     -34.657  16.419  -0.957  1.00 20.00     0.039 C 
HETATM    4  C4  UNL     1     -34.884  19.118  -2.175  1.00 20.00     0.009 C 
HETATM    5  C5  UNL     1     -35.541  18.779  -0.823  1.00 20.00     0.005 C 
HETATM    6  C6  UNL     1     -33.213  18.300  -0.692  1.00 20.00     0.014 C 
HETATM    7  C7  UNL     1     -33.614  18.254  -2.167  1.00 20.00     0.015 C 
HETATM    8  C8  UNL     1     -34.560  17.761  -0.203  1.00 20.00    -0.010 C 
HETATM    9  C9  UNL     1     -33.257  16.497  -4.617  1.00 20.00     0.043 C 
HETATM   10  C10 UNL     1     -34.305  14.568  -3.325  1.00 20.00     0.043 C 
ENDROOT
TORSDOF 0
ENDMDL
MODEL 9
REMARK VINA RESULT:      -4.3      1.643      2.785
REMARK  0 active torsions:
REMARK  status: ('A' for Active; 'I' for Inactive)
ROOT
HETATM    1  C1  UNL     1     -34.190  15.733  -5.252  1.00 20.00    -0.074 C 
HETATM    2  C2  UNL     1     -33.995  16.954  -5.757  1.00 20.00    -0.085 C 
HETATM    3  C3  UNL     1     -34.598  14.504  -6.026  1.00 20.00     0.039 C 
HETATM    4  C4  UNL     1     -35.389  15.050  -3.216  1.00 20.00     0.009 C 
HETATM    5  C5  UNL     1     -35.847  13.779  -3.958  1.00 20.00     0.005 C 
HETATM    6  C6  UNL     1     -33.470  13.891  -4.016  1.00 20.00     0.014 C 
HETATM    7  C7  UNL     1     -33.997  15.312  -3.813  1.00 20.00     0.015 C 
HETATM    8  C8  UNL     1     -34.655  13.466  -4.887  1.00 20.00    -0.010 C 
HETATM    9  C9  UNL     1     -33.587  18.118  -4.897  1.00 20.00     0.043 C 
HETATM   10  C10 UNL     1     -34.170  17.251  -7.220  1.00 20.00     0.043 C 
ENDROOT
TORSDOF 0
ENDMDL
