MODEL 1
REMARK VINA RESULT:      -3.5      0.000      0.000
REMARK  1 active torsions:
REMARK  status: ('A' for Active; 'I' for Inactive)
REMARK    1  A    between atoms: C1_1  and  C4_4 
ROOT
HETATM    1  C2  UNL     1     -34.823  15.394  -2.892  1.00 20.00     0.042 C 
HETATM    2  C3  UNL     1     -33.722  16.131  -5.044  1.00 20.00     0.042 C 
HETATM    3  C4  UNL     1     -34.013  14.955  -4.113  1.00 20.00     0.105 C 
HETATM    4 CL7  UNL     1     -32.427  14.328  -3.516  1.00 20.00    -0.110 Cl
ENDROOT
BRANCH   3   5
HETATM    5  C1  UNL     1     -34.709  13.803  -4.863  1.00 20.00     0.241 C 
HETATM    6  O5  UNL     1     -34.944  12.714  -4.346  1.00 20.00    -0.278 OA
HETATM    7 CL6  UNL     1     -35.128  14.199  -6.516  1.00 20.00    -0.042 Cl
ENDBRANCH   3   5
TORSDOF 1
ENDMDL
MODEL 2
REMARK VINA RESULT:      -3.5      1.694      2.183
REMARK  1 active torsions:
REMARK  status: ('A' for Active; 'I' for Inactive)
REMARK    1  A    between atoms: C1_1  and  C4_4 
ROOT
HETATM    1  C2  UNL     1     -35.925  15.499  -4.878  1.00 20.00     0.042 C 
HETATM    2  C3  UNL     1     -34.545  14.788  -6.872  1.00 20.00     0.042 C 
HETATM    3  C4  UNL     1     -34.582  14.942  -5.352  1.00 20.00     0.105 C 
HETATM    4 CL7  UNL     1     -33.307  16.137  -4.895  1.00 20.00    -0.110 Cl
ENDROOT
BRANCH   3   5
HETATM    5  C1  UNL     1     -34.245  13.616  -4.645  1.00 20.00     0.241 C 
HETATM    6  O5  UNL     1     -34.881  12.581  -4.827  1.00 20.00    -0.278 OA
HETATM    7 CL6  UNL     1     -32.873  13.731  -3.564  1.00 20.00    -0.042 Cl
ENDBRANCH   3   5
TORSDOF 1
ENDMDL
MODEL 3
REMARK VINA RESULT:      -3.5      1.743      2.113
REMARK  1 active torsions:
REMARK  status: ('A' for Active; 'I' for Inactive)
REMARK    1  A    between atoms: C1_1  and  C4_4 
ROOT
HETATM    1  C2  UNL     1     -33.957  15.757  -5.000  1.00 20.00     0.042 C 
HETATM    2  C3  UNL     1     -32.817  14.047  -3.529  1.00 20.00     0.042 C 
HETATM    3  C4  UNL     1     -34.130  14.760  -3.853  1.00 20.00     0.105 C 
HETATM    4 CL7  UNL     1     -34.617  15.697  -2.387  1.00 20.00    -0.110 Cl
ENDROOT
BRANCH   3   5
HETATM    5  C1  UNL     1     -35.257  13.753  -4.151  1.00 20.00     0.241 C 
HETATM    6  O5  UNL     1     -35.043  12.592  -4.487  1.00 20.00    -0.278 OA
HETATM    7 CL6  UNL     1     -36.861  14.426  -3.965  1.00 20.00    -0.042 Cl
ENDBRANCH   3   5
TORSDOF 1
ENDMDL
MODEL 4
REMARK VINA RESULT:      -3.5      1.214      1.696
REMARK  1 active torsions:
REMARK  status: ('A' for Active; 'I' for Inactive)
REMARK    1  A    between atoms: C1_1  and  C4_4 
ROOT
HETATM    1  C2  UNL     1     -32.602  14.285  -3.521  1.00 20.00     0.042 C 
HETATM    2  C3  UNL     1     -34.790  15.413  -2.948  1.00 20.00     0.042 C 
HETATM    3  C4  UNL     1     -33.924  14.828  -4.064  1.00 20.00     0.105 C 
HETATM    4 CL7  UNL     1     -33.533  16.170  -5.208  1.00 20.00    -0.110 Cl
ENDROOT
BRANCH   3   5
HETATM    5  C1  UNL     1     -34.687  13.753  -4.861  1.00 20.00     0.241 C 
HETATM    6  O5  UNL     1     -34.998  12.664  -4.385  1.00 20.00    -0.278 OA
HETATM    7 CL6  UNL     1     -35.062  14.234  -6.501  1.00 20.00    -0.042 Cl
ENDBRANCH   3   5
TORSDOF 1
ENDMDL
MODEL 5
REMARK VINA RESULT:      -3.5      1.248      1.756
REMARK  1 active torsions:
REMARK  status: ('A' for Active; 'I' for Inactive)
REMARK    1  A    between atoms: C1_1  and  C4_4 
ROOT
HETATM    1  C2  UNL     1     -33.624  16.042  -5.043  1.00 20.00     0.042 C 
HETATM    2  C3  UNL     1     -32.635  14.279  -3.526  1.00 20.00     0.042 C 
HETATM    3  C4  UNL     1     -33.917  14.845  -4.137  1.00 20.00     0.105 C 
HETATM    4 CL7  UNL     1     -34.955  15.430  -2.780  1.00 20.00    -0.110 Cl
ENDROOT
BRANCH   3   5
HETATM    5  C1  UNL     1     -34.710  13.757  -4.886  1.00 20.00     0.241 C 
HETATM    6  O5  UNL     1     -34.994  12.672  -4.384  1.00 20.00    -0.278 OA
HETATM    7 CL6  UNL     1     -35.162  14.217  -6.513  1.00 20.00    -0.042 Cl
ENDBRANCH   3   5
TORSDOF 1
ENDMDL
MODEL 6
REMARK VINA RESULT:      -3.5      1.141      2.530
REMARK  1 active torsions:
REMARK  status: ('A' for Active; 'I' for Inactive)
REMARK    1  A    between atoms: C1_1  and  C4_4 
ROOT
HETATM    1  C2  UNL     1     -33.511  16.047  -4.849  1.00 20.00     0.042 C 
HETATM    2  C3  UNL     1     -35.963  15.434  -4.886  1.00 20.00     0.042 C 
HETATM    3  C4  UNL     1     -34.543  14.986  -5.233  1.00 20.00     0.105 C 
HETATM    4 CL7  UNL     1     -34.463  14.772  -7.025  1.00 20.00    -0.110 Cl
ENDROOT
BRANCH   3   5
HETATM    5  C1  UNL     1     -34.213  13.624  -4.592  1.00 20.00     0.241 C 
HETATM    6  O5  UNL     1     -34.860  12.605  -4.817  1.00 20.00    -0.278 OA
HETATM    7 CL6  UNL     1     -32.831  13.675  -3.519  1.00 20.00    -0.042 Cl
ENDBRANCH   3   5
TORSDOF 1
ENDMDL
MODEL 7
REMARK VINA RESULT:      -3.5      1.563      2.705
REMARK  1 active torsions:
REMARK  status: ('A' for Active; 'I' for Inactive)
REMARK    1  A    between atoms: C1_1  and  C4_4 
ROOT
HETATM    1  C2  UNL     1     -34.943  16.051  -4.810  1.00 20.00     0.042 C 
HETATM    2  C3  UNL     1     -34.844  15.674  -2.313  1.00 20.00     0.042 C 
HETATM    3  C4  UNL     1     -35.219  15.072  -3.667  1.00 20.00     0.105 C 
HETATM    4 CL7  UNL     1     -36.995  14.747  -3.646  1.00 20.00    -0.110 Cl
ENDROOT
BRANCH   3   5
HETATM    5  C1  UNL     1     -34.508  13.726  -3.899  1.00 20.00     0.241 C 
HETATM    6  O5  UNL     1     -35.093  12.720  -4.291  1.00 20.00    -0.278 OA
HETATM    7 CL6  UNL     1     -32.793  13.773  -3.551  1.00 20.00    -0.042 Cl
ENDBRANCH   3   5
TORSDOF 1
ENDMDL
MODEL 8
REMARK VINA RESULT:      -3.5      1.449      2.665
REMARK  1 active torsions:
REMARK  status: ('A' for Active; 'I' for Inactive)
REMARK    1  A    between atoms: C1_1  and  C4_4 
ROOT
HETATM    1  C2  UNL     1     -34.545  14.783  -6.835  1.00 20.00     0.042 C 
HETATM    2  C3  UNL     1     -33.528  16.055  -4.902  1.00 20.00     0.042 C 
HETATM    3  C4  UNL     1     -34.505  14.955  -5.315  1.00 20.00     0.105 C 
HETATM    4 CL7  UNL     1     -36.154  15.464  -4.783  1.00 20.00    -0.110 Cl
ENDROOT
BRANCH   3   5
HETATM    5  C1  UNL     1     -34.184  13.624  -4.609  1.00 20.00     0.241 C 
HETATM    6  O5  UNL     1     -34.824  12.594  -4.803  1.00 20.00    -0.278 OA
HETATM    7 CL6  UNL     1     -32.826  13.727  -3.510  1.00 20.00    -0.042 Cl
ENDBRANCH   3   5
TORSDOF 1
ENDMDL
MODEL 9
REMARK VINA RESULT:      -3.3     12.072     12.868
REMARK  1 active torsions:
REMARK  status: ('A' for Active; 'I' for Inactive)
REMARK    1  A    between atoms: C1_1  and  C4_4 
ROOT
HETATM    1  C2  UNL     1     -36.035   5.966   3.733  1.00 20.00     0.042 C 
HETATM    2  C3  UNL     1     -34.895   4.014   4.863  1.00 20.00     0.042 C 
HETATM    3  C4  UNL     1     -34.700   5.288   4.041  1.00 20.00     0.105 C 
HETATM    4 CL7  UNL     1     -33.956   4.811   2.466  1.00 20.00    -0.110 Cl
ENDROOT
BRANCH   3   5
HETATM    5  C1  UNL     1     -33.725   6.259   4.735  1.00 20.00     0.241 C 
HETATM    6  O5  UNL     1     -32.784   6.790   4.152  1.00 20.00    -0.278 OA
HETATM    7 CL6  UNL     1     -34.091   6.525   6.426  1.00 20.00    -0.042 Cl
ENDBRANCH   3   5
TORSDOF 1
ENDMDL
