MODEL 1
REMARK VINA RESULT:      -4.8      0.000      0.000
REMARK  5 active torsions:
REMARK  status: ('A' for Active; 'I' for Inactive)
REMARK    1  A    between atoms: C2_2  and  C9_9 
REMARK    2  A    between atoms: C3_3  and  C8_8 
REMARK    3  A    between atoms: C4_4  and  C10_10 
REMARK    4  A    between atoms: C8_8  and  C9_9 
REMARK    5  A    between atoms: C10_10  and  O11_11 
ROOT
HETATM    1  C3  UNL     1     -33.121  15.318  -3.497  1.00 20.00    -0.027 C 
HETATM    2  C4  UNL     1     -33.750  14.142  -3.652  1.00 20.00     0.006 C 
ENDROOT
BRANCH   1   3
HETATM    3  C8  UNL     1     -33.671  16.627  -3.994  1.00 20.00     0.035 C 
BRANCH   3   4
HETATM    4  C9  UNL     1     -34.185  17.523  -2.849  1.00 20.00     0.006 C 
HETATM    5  C5  UNL     1     -33.589  18.928  -2.975  1.00 20.00     0.014 C 
BRANCH   4   6
HETATM    6  C2  UNL     1     -33.831  16.950  -1.497  1.00 20.00    -0.032 C 
HETATM    7  C1  UNL     1     -34.683  16.881  -0.469  1.00 20.00     0.007 C 
ENDBRANCH   4   6
ENDBRANCH   3   4
ENDBRANCH   1   3
BRANCH   2   8
HETATM    8  C10 UNL     1     -35.083  13.902  -4.326  1.00 20.00     0.068 C 
HETATM    9  C6  UNL     1     -36.260  14.719  -3.781  1.00 20.00     0.050 C 
HETATM   10  C7  UNL     1     -34.940  14.152  -5.831  1.00 20.00     0.050 C 
BRANCH   8  11
HETATM   11  O11 UNL     1     -35.408  12.516  -4.163  1.00 20.00    -0.387 OA
HETATM   12  H29 UNL     1     -34.744  12.023  -4.664  1.00 20.00     0.211 HD
ENDBRANCH   8  11
ENDBRANCH   2   8
TORSDOF 5
ENDMDL
MODEL 2
REMARK VINA RESULT:      -4.4      1.049      2.159
REMARK  5 active torsions:
REMARK  status: ('A' for Active; 'I' for Inactive)
REMARK    1  A    between atoms: C2_2  and  C9_9 
REMARK    2  A    between atoms: C3_3  and  C8_8 
REMARK    3  A    between atoms: C4_4  and  C10_10 
REMARK    4  A    between atoms: C8_8  and  C9_9 
REMARK    5  A    between atoms: C10_10  and  O11_11 
ROOT
HETATM    1  C3  UNL     1     -35.552  15.903  -2.882  1.00 20.00    -0.027 C 
HETATM    2  C4  UNL     1     -35.792  14.702  -3.430  1.00 20.00     0.006 C 
ENDROOT
BRANCH   1   3
HETATM    3  C8  UNL     1     -34.254  16.647  -3.044  1.00 20.00     0.035 C 
BRANCH   3   4
HETATM    4  C9  UNL     1     -33.665  17.107  -1.696  1.00 20.00     0.006 C 
HETATM    5  C5  UNL     1     -34.634  16.771  -0.559  1.00 20.00     0.014 C 
BRANCH   4   6
HETATM    6  C2  UNL     1     -33.386  18.591  -1.693  1.00 20.00    -0.032 C 
HETATM    7  C1  UNL     1     -32.824  19.244  -0.669  1.00 20.00     0.007 C 
ENDBRANCH   4   6
ENDBRANCH   3   4
ENDBRANCH   1   3
BRANCH   2   8
HETATM    8  C10 UNL     1     -34.850  13.883  -4.285  1.00 20.00     0.068 C 
HETATM    9  C6  UNL     1     -34.730  14.324  -5.749  1.00 20.00     0.050 C 
HETATM   10  C7  UNL     1     -33.461  13.873  -3.639  1.00 20.00     0.050 C 
BRANCH   8  11
HETATM   11  O11 UNL     1     -35.323  12.532  -4.280  1.00 20.00    -0.387 OA
HETATM   12  H29 UNL     1     -36.022  12.488  -4.948  1.00 20.00     0.211 HD
ENDBRANCH   8  11
ENDBRANCH   2   8
TORSDOF 5
ENDMDL
MODEL 3
REMARK VINA RESULT:      -4.3      1.309      2.053
REMARK  5 active torsions:
REMARK  status: ('A' for Active; 'I' for Inactive)
REMARK    1  A    between atoms: C2_2  and  C9_9 
REMARK    2  A    between atoms: C3_3  and  C8_8 
REMARK    3  A    between atoms: C4_4  and  C10_10 
REMARK    4  A    between atoms: C8_8  and  C9_9 
REMARK    5  A    between atoms: C10_10  and  O11_11 
ROOT
HETATM    1  C3  UNL     1     -33.718  16.359  -2.726  1.00 20.00    -0.027 C 
HETATM    2  C4  UNL     1     -33.733  15.576  -3.816  1.00 20.00     0.006 C 
ENDROOT
BRANCH   1   3
HETATM    3  C8  UNL     1     -34.688  16.215  -1.585  1.00 20.00     0.035 C 
BRANCH   3   4
HETATM    4  C9  UNL     1     -34.330  17.118  -0.388  1.00 20.00     0.006 C 
HETATM    5  C5  UNL     1     -35.583  17.834   0.122  1.00 20.00     0.014 C 
BRANCH   4   6
HETATM    6  C2  UNL     1     -33.286  18.142  -0.762  1.00 20.00    -0.032 C 
HETATM    7  C1  UNL     1     -32.466  18.729   0.117  1.00 20.00     0.007 C 
ENDBRANCH   4   6
ENDBRANCH   3   4
ENDBRANCH   1   3
BRANCH   2   8
HETATM    8  C10 UNL     1     -34.684  14.437  -4.110  1.00 20.00     0.068 C 
HETATM    9  C6  UNL     1     -36.148  14.680  -3.727  1.00 20.00     0.050 C 
HETATM   10  C7  UNL     1     -34.597  14.078  -5.597  1.00 20.00     0.050 C 
BRANCH   8  11
HETATM   11  O11 UNL     1     -34.230  13.294  -3.377  1.00 20.00    -0.387 OA
HETATM   12  H29 UNL     1     -34.390  13.491  -2.444  1.00 20.00     0.211 HD
ENDBRANCH   8  11
ENDBRANCH   2   8
TORSDOF 5
ENDMDL
MODEL 4
REMARK VINA RESULT:      -4.3      0.649      1.706
REMARK  5 active torsions:
REMARK  status: ('A' for Active; 'I' for Inactive)
REMARK    1  A    between atoms: C2_2  and  C9_9 
REMARK    2  A    between atoms: C3_3  and  C8_8 
REMARK    3  A    between atoms: C4_4  and  C10_10 
REMARK    4  A    between atoms: C8_8  and  C9_9 
REMARK    5  A    between atoms: C10_10  and  O11_11 
ROOT
HETATM    1  C3  UNL     1     -36.197  16.012  -3.419  1.00 20.00    -0.027 C 
HETATM    2  C4  UNL     1     -36.174  14.697  -3.690  1.00 20.00     0.006 C 
ENDROOT
BRANCH   1   3
HETATM    3  C8  UNL     1     -35.063  16.947  -3.740  1.00 20.00     0.035 C 
BRANCH   3   4
HETATM    4  C9  UNL     1     -34.696  17.860  -2.553  1.00 20.00     0.006 C 
HETATM    5  C5  UNL     1     -33.655  18.893  -2.989  1.00 20.00     0.014 C 
BRANCH   4   6
HETATM    6  C2  UNL     1     -34.154  17.062  -1.391  1.00 20.00    -0.032 C 
HETATM    7  C1  UNL     1     -34.724  17.021  -0.182  1.00 20.00     0.007 C 
ENDBRANCH   4   6
ENDBRANCH   3   4
ENDBRANCH   1   3
BRANCH   2   8
HETATM    8  C10 UNL     1     -35.054  13.919  -4.344  1.00 20.00     0.068 C 
HETATM    9  C6  UNL     1     -34.818  14.218  -5.829  1.00 20.00     0.050 C 
HETATM   10  C7  UNL     1     -33.756  14.148  -3.563  1.00 20.00     0.050 C 
BRANCH   8  11
HETATM   11  O11 UNL     1     -35.370  12.527  -4.231  1.00 20.00    -0.387 OA
HETATM   12  H29 UNL     1     -36.107  12.467  -3.607  1.00 20.00     0.211 HD
ENDBRANCH   8  11
ENDBRANCH   2   8
TORSDOF 5
ENDMDL
MODEL 5
REMARK VINA RESULT:      -4.3      1.477      2.644
REMARK  5 active torsions:
REMARK  status: ('A' for Active; 'I' for Inactive)
REMARK    1  A    between atoms: C2_2  and  C9_9 
REMARK    2  A    between atoms: C3_3  and  C8_8 
REMARK    3  A    between atoms: C4_4  and  C10_10 
REMARK    4  A    between atoms: C8_8  and  C9_9 
REMARK    5  A    between atoms: C10_10  and  O11_11 
ROOT
HETATM    1  C3  UNL     1     -34.363  15.241  -6.447  1.00 20.00    -0.027 C 
HETATM    2  C4  UNL     1     -34.920  14.187  -5.831  1.00 20.00     0.006 C 
ENDROOT
BRANCH   1   3
HETATM    3  C8  UNL     1     -33.539  16.280  -5.736  1.00 20.00     0.035 C 
BRANCH   3   4
HETATM    4  C9  UNL     1     -34.280  17.624  -5.590  1.00 20.00     0.006 C 
HETATM    5  C5  UNL     1     -34.076  18.474  -6.847  1.00 20.00     0.014 C 
BRANCH   4   6
HETATM    6  C2  UNL     1     -33.799  18.392  -4.383  1.00 20.00    -0.032 C 
HETATM    7  C1  UNL     1     -33.792  17.901  -3.139  1.00 20.00     0.007 C 
ENDBRANCH   4   6
ENDBRANCH   3   4
ENDBRANCH   1   3
BRANCH   2   8
HETATM    8  C10 UNL     1     -34.839  13.840  -4.361  1.00 20.00     0.068 C 
HETATM    9  C6  UNL     1     -33.430  13.837  -3.756  1.00 20.00     0.050 C 
HETATM   10  C7  UNL     1     -35.734  14.797  -3.566  1.00 20.00     0.050 C 
BRANCH   8  11
HETATM   11  O11 UNL     1     -35.382  12.525  -4.194  1.00 20.00    -0.387 OA
HETATM   12  H29 UNL     1     -36.333  12.605  -4.351  1.00 20.00     0.211 HD
ENDBRANCH   8  11
ENDBRANCH   2   8
TORSDOF 5
ENDMDL
MODEL 6
REMARK VINA RESULT:      -4.2     11.079     12.365
REMARK  5 active torsions:
REMARK  status: ('A' for Active; 'I' for Inactive)
REMARK    1  A    between atoms: C2_2  and  C9_9 
REMARK    2  A    between atoms: C3_3  and  C8_8 
REMARK    3  A    between atoms: C4_4  and  C10_10 
REMARK    4  A    between atoms: C8_8  and  C9_9 
REMARK    5  A    between atoms: C10_10  and  O11_11 
ROOT
HETATM    1  C3  UNL     1     -33.677   5.334   2.885  1.00 20.00    -0.027 C 
HETATM    2  C4  UNL     1     -32.708   6.096   2.354  1.00 20.00     0.006 C 
ENDROOT
BRANCH   1   3
HETATM    3  C8  UNL     1     -34.574   5.788   4.004  1.00 20.00     0.035 C 
BRANCH   3   4
HETATM    4  C9  UNL     1     -34.216   5.129   5.352  1.00 20.00     0.006 C 
HETATM    5  C5  UNL     1     -35.116   3.915   5.596  1.00 20.00     0.014 C 
BRANCH   4   6
HETATM    6  C2  UNL     1     -34.364   6.101   6.498  1.00 20.00    -0.032 C 
HETATM    7  C1  UNL     1     -33.605   7.190   6.657  1.00 20.00     0.007 C 
ENDBRANCH   4   6
ENDBRANCH   3   4
ENDBRANCH   1   3
BRANCH   2   8
HETATM    8  C10 UNL     1     -32.334   7.507   2.753  1.00 20.00     0.068 C 
HETATM    9  C6  UNL     1     -31.300   7.626   3.879  1.00 20.00     0.050 C 
HETATM   10  C7  UNL     1     -31.835   8.265   1.519  1.00 20.00     0.050 C 
BRANCH   8  11
HETATM   11  O11 UNL     1     -33.527   8.164   3.193  1.00 20.00    -0.387 OA
HETATM   12  H29 UNL     1     -34.163   7.463   3.395  1.00 20.00     0.211 HD
ENDBRANCH   8  11
ENDBRANCH   2   8
TORSDOF 5
ENDMDL
MODEL 7
REMARK VINA RESULT:      -4.2      1.643      2.603
REMARK  5 active torsions:
REMARK  status: ('A' for Active; 'I' for Inactive)
REMARK    1  A    between atoms: C2_2  and  C9_9 
REMARK    2  A    between atoms: C3_3  and  C8_8 
REMARK    3  A    between atoms: C4_4  and  C10_10 
REMARK    4  A    between atoms: C8_8  and  C9_9 
REMARK    5  A    between atoms: C10_10  and  O11_11 
ROOT
HETATM    1  C3  UNL     1     -34.757  15.994  -2.054  1.00 20.00    -0.027 C 
HETATM    2  C4  UNL     1     -34.717  15.232  -3.158  1.00 20.00     0.006 C 
ENDROOT
BRANCH   1   3
HETATM    3  C8  UNL     1     -33.672  16.965  -1.672  1.00 20.00     0.035 C 
BRANCH   3   4
HETATM    4  C9  UNL     1     -34.137  17.982  -0.610  1.00 20.00     0.006 C 
HETATM    5  C5  UNL     1     -32.926  18.555   0.131  1.00 20.00     0.014 C 
BRANCH   4   6
HETATM    6  C2  UNL     1     -35.079  17.349   0.386  1.00 20.00    -0.032 C 
HETATM    7  C1  UNL     1     -35.139  17.688   1.678  1.00 20.00     0.007 C 
ENDBRANCH   4   6
ENDBRANCH   3   4
ENDBRANCH   1   3
BRANCH   2   8
HETATM    8  C10 UNL     1     -33.622  15.193  -4.200  1.00 20.00     0.068 C 
HETATM    9  C6  UNL     1     -33.297  16.531  -4.874  1.00 20.00     0.050 C 
HETATM   10  C7  UNL     1     -32.349  14.614  -3.574  1.00 20.00     0.050 C 
BRANCH   8  11
HETATM   11  O11 UNL     1     -34.033  14.282  -5.227  1.00 20.00    -0.387 OA
HETATM   12  H29 UNL     1     -34.622  14.782  -5.810  1.00 20.00     0.211 HD
ENDBRANCH   8  11
ENDBRANCH   2   8
TORSDOF 5
ENDMDL
MODEL 8
REMARK VINA RESULT:      -4.2      1.324      2.674
REMARK  5 active torsions:
REMARK  status: ('A' for Active; 'I' for Inactive)
REMARK    1  A    between atoms: C2_2  and  C9_9 
REMARK    2  A    between atoms: C3_3  and  C8_8 
REMARK    3  A    between atoms: C4_4  and  C10_10 
REMARK    4  A    between atoms: C8_8  and  C9_9 
REMARK    5  A    between atoms: C10_10  and  O11_11 
ROOT
HETATM    1  C3  UNL     1     -35.191  15.912  -2.857  1.00 20.00    -0.027 C 
HETATM    2  C4  UNL     1     -35.598  14.755  -3.403  1.00 20.00     0.006 C 
ENDROOT
BRANCH   1   3
HETATM    3  C8  UNL     1     -33.812  16.483  -3.049  1.00 20.00     0.035 C 
BRANCH   3   4
HETATM    4  C9  UNL     1     -33.826  17.803  -3.845  1.00 20.00     0.006 C 
HETATM    5  C5  UNL     1     -35.219  18.435  -3.787  1.00 20.00     0.014 C 
BRANCH   4   6
HETATM    6  C2  UNL     1     -33.436  17.584  -5.287  1.00 20.00    -0.032 C 
HETATM    7  C1  UNL     1     -34.233  17.855  -6.326  1.00 20.00     0.007 C 
ENDBRANCH   4   6
ENDBRANCH   3   4
ENDBRANCH   1   3
BRANCH   2   8
HETATM    8  C10 UNL     1     -34.792  13.828  -4.285  1.00 20.00     0.068 C 
HETATM    9  C6  UNL     1     -34.740  14.204  -5.771  1.00 20.00     0.050 C 
HETATM   10  C7  UNL     1     -33.367  13.719  -3.735  1.00 20.00     0.050 C 
BRANCH   8  11
HETATM   11  O11 UNL     1     -35.377  12.524  -4.192  1.00 20.00    -0.387 OA
HETATM   12  H29 UNL     1     -35.982  12.445  -4.942  1.00 20.00     0.211 HD
ENDBRANCH   8  11
ENDBRANCH   2   8
TORSDOF 5
ENDMDL
MODEL 9
REMARK VINA RESULT:      -4.2      2.025      3.863
REMARK  5 active torsions:
REMARK  status: ('A' for Active; 'I' for Inactive)
REMARK    1  A    between atoms: C2_2  and  C9_9 
REMARK    2  A    between atoms: C3_3  and  C8_8 
REMARK    3  A    between atoms: C4_4  and  C10_10 
REMARK    4  A    between atoms: C8_8  and  C9_9 
REMARK    5  A    between atoms: C10_10  and  O11_11 
ROOT
HETATM    1  C3  UNL     1     -35.330  13.566  -4.203  1.00 20.00    -0.027 C 
HETATM    2  C4  UNL     1     -34.053  13.787  -3.856  1.00 20.00     0.006 C 
ENDROOT
BRANCH   1   3
HETATM    3  C8  UNL     1     -36.256  14.644  -4.699  1.00 20.00     0.035 C 
BRANCH   3   4
HETATM    4  C9  UNL     1     -37.280  15.079  -3.631  1.00 20.00     0.006 C 
HETATM    5  C5  UNL     1     -38.693  14.684  -4.069  1.00 20.00     0.014 C 
BRANCH   4   6
HETATM    6  C2  UNL     1     -37.229  16.570  -3.392  1.00 20.00    -0.032 C 
HETATM    7  C1  UNL     1     -36.802  17.457  -4.297  1.00 20.00     0.007 C 
ENDBRANCH   4   6
ENDBRANCH   3   4
ENDBRANCH   1   3
BRANCH   2   8
HETATM    8  C10 UNL     1     -33.312  15.105  -3.889  1.00 20.00     0.068 C 
HETATM    9  C6  UNL     1     -33.500  15.941  -5.161  1.00 20.00     0.050 C 
HETATM   10  C7  UNL     1     -33.709  15.938  -2.666  1.00 20.00     0.050 C 
BRANCH   8  11
HETATM   11  O11 UNL     1     -31.914  14.820  -3.764  1.00 20.00    -0.387 OA
HETATM   12  H29 UNL     1     -31.539  15.536  -3.233  1.00 20.00     0.211 HD
ENDBRANCH   8  11
ENDBRANCH   2   8
TORSDOF 5
ENDMDL
