MODEL 1
REMARK VINA RESULT:      -5.1      0.000      0.000
REMARK  1 active torsions:
REMARK  status: ('A' for Active; 'I' for Inactive)
REMARK    1  A    between atoms: C5_5  and  C8_8 
ROOT
HETATM    1  C1  UNL     1     -34.564  14.980  -6.772  1.00 20.00     0.047 C 
HETATM    2  C2  UNL     1     -34.438  14.323  -5.612  1.00 20.00    -0.009 C 
HETATM    3  C3  UNL     1     -34.309  16.438  -6.840  1.00 20.00     0.149 C 
HETATM    4  C6  UNL     1     -33.977  17.172  -5.561  1.00 20.00     0.084 C 
HETATM    5  C7  UNL     1     -33.229  16.265  -4.590  1.00 20.00     0.025 C 
HETATM    6  C8  UNL     1     -33.985  14.947  -4.307  1.00 20.00    -0.003 C 
HETATM    7  C11 UNL     1     -33.035  13.980  -3.581  1.00 20.00     0.024 C 
HETATM    8  O12 UNL     1     -34.430  17.030  -7.912  1.00 20.00    -0.293 OA
ENDROOT
BRANCH   6   9
HETATM    9  C5  UNL     1     -35.177  15.195  -3.416  1.00 20.00    -0.076 C 
HETATM   10  C4  UNL     1     -35.072  15.953  -2.308  1.00 20.00    -0.027 C 
HETATM   11  C9  UNL     1     -33.870  16.635  -1.791  1.00 20.00     0.036 C 
HETATM   12  C10 UNL     1     -36.453  14.540  -3.863  1.00 20.00     0.044 C 
ENDBRANCH   6   9
TORSDOF 1
ENDMDL
MODEL 2
REMARK VINA RESULT:      -4.9      2.295      3.435
REMARK  1 active torsions:
REMARK  status: ('A' for Active; 'I' for Inactive)
REMARK    1  A    between atoms: C5_5  and  C8_8 
ROOT
HETATM    1  C1  UNL     1     -33.624  14.213  -3.641  1.00 20.00     0.047 C 
HETATM    2  C2  UNL     1     -33.442  15.518  -3.403  1.00 20.00    -0.009 C 
HETATM    3  C3  UNL     1     -34.912  13.723  -4.186  1.00 20.00     0.149 C 
HETATM    4  C6  UNL     1     -36.031  14.716  -4.395  1.00 20.00     0.084 C 
HETATM    5  C7  UNL     1     -35.479  16.094  -4.744  1.00 20.00     0.025 C 
HETATM    6  C8  UNL     1     -34.456  16.604  -3.702  1.00 20.00    -0.003 C 
HETATM    7  C11 UNL     1     -33.735  17.833  -4.280  1.00 20.00     0.024 C 
HETATM    8  O12 UNL     1     -35.067  12.520  -4.398  1.00 20.00    -0.293 OA
ENDROOT
BRANCH   6   9
HETATM    9  C5  UNL     1     -35.152  17.020  -2.430  1.00 20.00    -0.076 C 
HETATM   10  C4  UNL     1     -36.210  17.852  -2.455  1.00 20.00    -0.027 C 
HETATM   11  C9  UNL     1     -36.847  18.467  -3.635  1.00 20.00     0.036 C 
HETATM   12  C10 UNL     1     -34.574  16.442  -1.169  1.00 20.00     0.044 C 
ENDBRANCH   6   9
TORSDOF 1
ENDMDL
MODEL 3
REMARK VINA RESULT:      -4.7      2.327      3.715
REMARK  1 active torsions:
REMARK  status: ('A' for Active; 'I' for Inactive)
REMARK    1  A    between atoms: C5_5  and  C8_8 
ROOT
HETATM    1  C1  UNL     1     -35.924  13.692  -4.372  1.00 20.00     0.047 C 
HETATM    2  C2  UNL     1     -34.884  14.031  -5.142  1.00 20.00    -0.009 C 
HETATM    3  C3  UNL     1     -37.002  14.670  -4.094  1.00 20.00     0.149 C 
HETATM    4  C6  UNL     1     -36.860  16.073  -4.638  1.00 20.00     0.084 C 
HETATM    5  C7  UNL     1     -36.090  16.072  -5.955  1.00 20.00     0.025 C 
HETATM    6  C8  UNL     1     -34.718  15.367  -5.838  1.00 20.00    -0.003 C 
HETATM    7  C11 UNL     1     -34.158  15.143  -7.252  1.00 20.00     0.024 C 
HETATM    8  O12 UNL     1     -37.952  14.347  -3.382  1.00 20.00    -0.293 OA
ENDROOT
BRANCH   6   9
HETATM    9  C5  UNL     1     -33.740  16.226  -5.074  1.00 20.00    -0.076 C 
HETATM   10  C4  UNL     1     -33.513  17.505  -5.427  1.00 20.00    -0.027 C 
HETATM   11  C9  UNL     1     -34.128  18.258  -6.538  1.00 20.00     0.036 C 
HETATM   12  C10 UNL     1     -33.061  15.544  -3.920  1.00 20.00     0.044 C 
ENDBRANCH   6   9
TORSDOF 1
ENDMDL
MODEL 4
REMARK VINA RESULT:      -4.7      1.975      3.826
REMARK  1 active torsions:
REMARK  status: ('A' for Active; 'I' for Inactive)
REMARK    1  A    between atoms: C5_5  and  C8_8 
ROOT
HETATM    1  C1  UNL     1     -34.220  16.639  -1.884  1.00 20.00     0.047 C 
HETATM    2  C2  UNL     1     -34.871  15.564  -2.347  1.00 20.00    -0.009 C 
HETATM    3  C3  UNL     1     -33.886  17.761  -2.791  1.00 20.00     0.149 C 
HETATM    4  C6  UNL     1     -34.230  17.631  -4.257  1.00 20.00     0.084 C 
HETATM    5  C7  UNL     1     -35.483  16.782  -4.450  1.00 20.00     0.025 C 
HETATM    6  C8  UNL     1     -35.371  15.398  -3.768  1.00 20.00    -0.003 C 
HETATM    7  C11 UNL     1     -36.764  14.747  -3.748  1.00 20.00     0.024 C 
HETATM    8  O12 UNL     1     -33.286  18.742  -2.354  1.00 20.00    -0.293 OA
ENDROOT
BRANCH   6   9
HETATM    9  C5  UNL     1     -34.440  14.497  -4.539  1.00 20.00    -0.076 C 
HETATM   10  C4  UNL     1     -34.600  14.296  -5.860  1.00 20.00    -0.027 C 
HETATM   11  C9  UNL     1     -35.633  14.872  -6.743  1.00 20.00     0.036 C 
HETATM   12  C10 UNL     1     -33.350  13.860  -3.723  1.00 20.00     0.044 C 
ENDBRANCH   6   9
TORSDOF 1
ENDMDL
MODEL 5
REMARK VINA RESULT:      -4.7      1.771      2.393
REMARK  1 active torsions:
REMARK  status: ('A' for Active; 'I' for Inactive)
REMARK    1  A    between atoms: C5_5  and  C8_8 
ROOT
HETATM    1  C1  UNL     1     -35.480  14.721  -7.558  1.00 20.00     0.047 C 
HETATM    2  C2  UNL     1     -34.434  14.931  -6.748  1.00 20.00    -0.009 C 
HETATM    3  C3  UNL     1     -36.845  15.114  -7.137  1.00 20.00     0.149 C 
HETATM    4  C6  UNL     1     -37.036  15.686  -5.751  1.00 20.00     0.084 C 
HETATM    5  C7  UNL     1     -35.799  16.459  -5.305  1.00 20.00     0.025 C 
HETATM    6  C8  UNL     1     -34.506  15.614  -5.398  1.00 20.00    -0.003 C 
HETATM    7  C11 UNL     1     -33.296  16.548  -5.230  1.00 20.00     0.024 C 
HETATM    8  O12 UNL     1     -37.797  14.914  -7.890  1.00 20.00    -0.293 OA
ENDROOT
BRANCH   6   9
HETATM    9  C5  UNL     1     -34.463  14.583  -4.297  1.00 20.00    -0.076 C 
HETATM   10  C4  UNL     1     -34.476  14.947  -3.001  1.00 20.00    -0.027 C 
HETATM   11  C9  UNL     1     -34.533  16.313  -2.447  1.00 20.00     0.036 C 
HETATM   12  C10 UNL     1     -34.404  13.157  -4.764  1.00 20.00     0.044 C 
ENDBRANCH   6   9
TORSDOF 1
ENDMDL
MODEL 6
REMARK VINA RESULT:      -4.7      2.648      4.082
REMARK  1 active torsions:
REMARK  status: ('A' for Active; 'I' for Inactive)
REMARK    1  A    between atoms: C5_5  and  C8_8 
ROOT
HETATM    1  C1  UNL     1     -36.167  17.980  -2.533  1.00 20.00     0.047 C 
HETATM    2  C2  UNL     1     -35.758  17.311  -3.618  1.00 20.00    -0.009 C 
HETATM    3  C3  UNL     1     -35.607  17.660  -1.200  1.00 20.00     0.149 C 
HETATM    4  C6  UNL     1     -34.623  16.518  -1.086  1.00 20.00     0.084 C 
HETATM    5  C7  UNL     1     -33.801  16.378  -2.363  1.00 20.00     0.025 C 
HETATM    6  C8  UNL     1     -34.684  16.242  -3.625  1.00 20.00    -0.003 C 
HETATM    7  C11 UNL     1     -33.796  16.415  -4.868  1.00 20.00     0.024 C 
HETATM    8  O12 UNL     1     -35.993  18.281  -0.210  1.00 20.00    -0.293 OA
ENDROOT
BRANCH   6   9
HETATM    9  C5  UNL     1     -35.321  14.876  -3.686  1.00 20.00    -0.076 C 
HETATM   10  C4  UNL     1     -34.571  13.758  -3.700  1.00 20.00    -0.027 C 
HETATM   11  C9  UNL     1     -33.099  13.657  -3.660  1.00 20.00     0.036 C 
HETATM   12  C10 UNL     1     -36.822  14.875  -3.731  1.00 20.00     0.044 C 
ENDBRANCH   6   9
TORSDOF 1
ENDMDL
MODEL 7
REMARK VINA RESULT:      -4.7      2.015      3.251
REMARK  1 active torsions:
REMARK  status: ('A' for Active; 'I' for Inactive)
REMARK    1  A    between atoms: C5_5  and  C8_8 
ROOT
HETATM    1  C1  UNL     1     -35.316  14.580  -5.783  1.00 20.00     0.047 C 
HETATM    2  C2  UNL     1     -35.569  15.833  -5.384  1.00 20.00    -0.009 C 
HETATM    3  C3  UNL     1     -34.814  13.574  -4.819  1.00 20.00     0.149 C 
HETATM    4  C6  UNL     1     -34.528  14.013  -3.401  1.00 20.00     0.084 C 
HETATM    5  C7  UNL     1     -35.467  15.138  -2.979  1.00 20.00     0.025 C 
HETATM    6  C8  UNL     1     -35.439  16.333  -3.960  1.00 20.00    -0.003 C 
HETATM    7  C11 UNL     1     -36.617  17.266  -3.635  1.00 20.00     0.024 C 
HETATM    8  O12 UNL     1     -34.582  12.426  -5.198  1.00 20.00    -0.293 OA
ENDROOT
BRANCH   6   9
HETATM    9  C5  UNL     1     -34.160  17.119  -3.808  1.00 20.00    -0.076 C 
HETATM   10  C4  UNL     1     -33.678  17.435  -2.591  1.00 20.00    -0.027 C 
HETATM   11  C9  UNL     1     -34.258  17.102  -1.275  1.00 20.00     0.036 C 
HETATM   12  C10 UNL     1     -33.493  17.506  -5.096  1.00 20.00     0.044 C 
ENDBRANCH   6   9
TORSDOF 1
ENDMDL
MODEL 8
REMARK VINA RESULT:      -4.6      2.231      3.684
REMARK  1 active torsions:
REMARK  status: ('A' for Active; 'I' for Inactive)
REMARK    1  A    between atoms: C5_5  and  C8_8 
ROOT
HETATM    1  C1  UNL     1     -34.601  13.319  -4.557  1.00 20.00     0.047 C 
HETATM    2  C2  UNL     1     -35.409  14.238  -5.101  1.00 20.00    -0.009 C 
HETATM    3  C3  UNL     1     -33.359  13.730  -3.863  1.00 20.00     0.149 C 
HETATM    4  C6  UNL     1     -32.992  15.197  -3.849  1.00 20.00     0.084 C 
HETATM    5  C7  UNL     1     -34.241  16.071  -3.855  1.00 20.00     0.025 C 
HETATM    6  C8  UNL     1     -35.194  15.736  -5.026  1.00 20.00    -0.003 C 
HETATM    7  C11 UNL     1     -36.541  16.435  -4.780  1.00 20.00     0.024 C 
HETATM    8  O12 UNL     1     -32.623  12.876  -3.369  1.00 20.00    -0.293 OA
ENDROOT
BRANCH   6   9
HETATM    9  C5  UNL     1     -34.632  16.240  -6.332  1.00 20.00    -0.076 C 
HETATM   10  C4  UNL     1     -34.182  17.503  -6.456  1.00 20.00    -0.027 C 
HETATM   11  C9  UNL     1     -34.151  18.556  -5.422  1.00 20.00     0.036 C 
HETATM   12  C10 UNL     1     -34.622  15.237  -7.450  1.00 20.00     0.044 C 
ENDBRANCH   6   9
TORSDOF 1
ENDMDL
MODEL 9
REMARK VINA RESULT:      -4.6      2.235      4.148
REMARK  1 active torsions:
REMARK  status: ('A' for Active; 'I' for Inactive)
REMARK    1  A    between atoms: C5_5  and  C8_8 
ROOT
HETATM    1  C1  UNL     1     -34.242  16.833  -1.872  1.00 20.00     0.047 C 
HETATM    2  C2  UNL     1     -33.626  16.000  -2.720  1.00 20.00    -0.009 C 
HETATM    3  C3  UNL     1     -35.691  17.105  -2.008  1.00 20.00     0.149 C 
HETATM    4  C6  UNL     1     -36.437  16.481  -3.165  1.00 20.00     0.084 C 
HETATM    5  C7  UNL     1     -35.830  15.134  -3.542  1.00 20.00     0.025 C 
HETATM    6  C8  UNL     1     -34.313  15.227  -3.829  1.00 20.00    -0.003 C 
HETATM    7  C11 UNL     1     -33.736  13.803  -3.894  1.00 20.00     0.024 C 
HETATM    8  O12 UNL     1     -36.245  17.875  -1.224  1.00 20.00    -0.293 OA
ENDROOT
BRANCH   6   9
HETATM    9  C5  UNL     1     -34.061  15.900  -5.155  1.00 20.00    -0.076 C 
HETATM   10  C4  UNL     1     -34.506  15.360  -6.306  1.00 20.00    -0.027 C 
HETATM   11  C9  UNL     1     -35.268  14.108  -6.480  1.00 20.00     0.036 C 
HETATM   12  C10 UNL     1     -33.289  17.186  -5.080  1.00 20.00     0.044 C 
ENDBRANCH   6   9
TORSDOF 1
ENDMDL
