MODEL 1
REMARK VINA RESULT:      -5.2      0.000      0.000
REMARK  3 active torsions:
REMARK  status: ('A' for Active; 'I' for Inactive)
REMARK    1  A    between atoms: C2_2  and  C8_8 
REMARK    2  A    between atoms: C4_4  and  C7_7 
REMARK    3  A    between atoms: C7_7  and  C8_8 
ROOT
HETATM    1  C7  UNL     1     -33.528   6.004   3.174  1.00 20.00     0.034 C 
ENDROOT
BRANCH   1   2
HETATM    2  C4  UNL     1     -32.170   6.545   3.530  1.00 20.00    -0.030 C 
HETATM    3  C3  UNL     1     -31.621   7.622   2.949  1.00 20.00    -0.035 C 
HETATM    4  C5  UNL     1     -32.289   8.420   1.879  1.00 20.00     0.035 C 
ENDBRANCH   1   2
BRANCH   1   5
HETATM    5  C8  UNL     1     -34.520   6.066   4.351  1.00 20.00     0.007 C 
HETATM    6  C6  UNL     1     -33.801   6.536   5.618  1.00 20.00     0.014 C 
BRANCH   5   7
HETATM    7  C2  UNL     1     -35.158   4.720   4.608  1.00 20.00    -0.032 C 
HETATM    8  C1  UNL     1     -34.968   4.006   5.723  1.00 20.00     0.007 C 
ENDBRANCH   5   7
ENDBRANCH   1   5
TORSDOF 3
ENDMDL
MODEL 2
REMARK VINA RESULT:      -5.2      1.016      2.281
REMARK  3 active torsions:
REMARK  status: ('A' for Active; 'I' for Inactive)
REMARK    1  A    between atoms: C2_2  and  C8_8 
REMARK    2  A    between atoms: C4_4  and  C7_7 
REMARK    3  A    between atoms: C7_7  and  C8_8 
ROOT
HETATM    1  C7  UNL     1     -34.561   5.906   4.015  1.00 20.00     0.034 C 
ENDROOT
BRANCH   1   2
HETATM    2  C4  UNL     1     -33.630   5.546   2.889  1.00 20.00    -0.030 C 
HETATM    3  C3  UNL     1     -32.467   6.170   2.655  1.00 20.00    -0.035 C 
HETATM    4  C5  UNL     1     -31.948   7.299   3.483  1.00 20.00     0.035 C 
ENDBRANCH   1   2
BRANCH   1   5
HETATM    5  C8  UNL     1     -34.209   5.186   5.331  1.00 20.00     0.007 C 
HETATM    6  C6  UNL     1     -35.120   3.970   5.522  1.00 20.00     0.014 C 
BRANCH   5   7
HETATM    7  C2  UNL     1     -34.348   6.107   6.520  1.00 20.00    -0.032 C 
HETATM    8  C1  UNL     1     -33.591   7.191   6.717  1.00 20.00     0.007 C 
ENDBRANCH   5   7
ENDBRANCH   1   5
TORSDOF 3
ENDMDL
MODEL 3
REMARK VINA RESULT:      -5.0      0.794      1.847
REMARK  3 active torsions:
REMARK  status: ('A' for Active; 'I' for Inactive)
REMARK    1  A    between atoms: C2_2  and  C8_8 
REMARK    2  A    between atoms: C4_4  and  C7_7 
REMARK    3  A    between atoms: C7_7  and  C8_8 
ROOT
HETATM    1  C7  UNL     1     -33.763   6.468   3.857  1.00 20.00     0.034 C 
ENDROOT
BRANCH   1   2
HETATM    2  C4  UNL     1     -32.345   6.356   3.367  1.00 20.00    -0.030 C 
HETATM    3  C3  UNL     1     -31.744   7.280   2.604  1.00 20.00    -0.035 C 
HETATM    4  C5  UNL     1     -32.406   8.538   2.147  1.00 20.00     0.035 C 
ENDBRANCH   1   2
BRANCH   1   5
HETATM    5  C8  UNL     1     -34.103   5.426   4.939  1.00 20.00     0.007 C 
HETATM    6  C6  UNL     1     -35.377   4.668   4.554  1.00 20.00     0.014 C 
BRANCH   5   7
HETATM    7  C2  UNL     1     -34.296   6.073   6.290  1.00 20.00    -0.032 C 
HETATM    8  C1  UNL     1     -33.626   7.155   6.702  1.00 20.00     0.007 C 
ENDBRANCH   5   7
ENDBRANCH   1   5
TORSDOF 3
ENDMDL
MODEL 4
REMARK VINA RESULT:      -4.9      0.915      1.467
REMARK  3 active torsions:
REMARK  status: ('A' for Active; 'I' for Inactive)
REMARK    1  A    between atoms: C2_2  and  C8_8 
REMARK    2  A    between atoms: C4_4  and  C7_7 
REMARK    3  A    between atoms: C7_7  and  C8_8 
ROOT
HETATM    1  C7  UNL     1     -33.364   6.033   2.917  1.00 20.00     0.034 C 
ENDROOT
BRANCH   1   2
HETATM    2  C4  UNL     1     -32.144   6.743   3.436  1.00 20.00    -0.030 C 
HETATM    3  C3  UNL     1     -31.639   7.857   2.886  1.00 20.00    -0.035 C 
HETATM    4  C5  UNL     1     -32.226   8.533   1.692  1.00 20.00     0.035 C 
ENDBRANCH   1   2
BRANCH   1   5
HETATM    5  C8  UNL     1     -34.241   5.455   4.045  1.00 20.00     0.007 C 
HETATM    6  C6  UNL     1     -35.720   5.556   3.662  1.00 20.00     0.014 C 
BRANCH   5   7
HETATM    7  C2  UNL     1     -34.012   6.180   5.350  1.00 20.00    -0.032 C 
HETATM    8  C1  UNL     1     -34.475   5.755   6.531  1.00 20.00     0.007 C 
ENDBRANCH   5   7
ENDBRANCH   1   5
TORSDOF 3
ENDMDL
MODEL 5
REMARK VINA RESULT:      -4.8      0.940      4.452
REMARK  3 active torsions:
REMARK  status: ('A' for Active; 'I' for Inactive)
REMARK    1  A    between atoms: C2_2  and  C8_8 
REMARK    2  A    between atoms: C4_4  and  C7_7 
REMARK    3  A    between atoms: C7_7  and  C8_8 
ROOT
HETATM    1  C7  UNL     1     -33.984   6.616   3.914  1.00 20.00     0.034 C 
ENDROOT
BRANCH   1   2
HETATM    2  C4  UNL     1     -34.973   5.487   3.808  1.00 20.00    -0.030 C 
HETATM    3  C3  UNL     1     -35.243   4.636   4.808  1.00 20.00    -0.035 C 
HETATM    4  C5  UNL     1     -34.598   4.703   6.152  1.00 20.00     0.035 C 
ENDBRANCH   1   2
BRANCH   1   5
HETATM    5  C8  UNL     1     -32.902   6.564   2.818  1.00 20.00     0.007 C 
HETATM    6  C6  UNL     1     -31.902   5.445   3.123  1.00 20.00     0.014 C 
BRANCH   5   7
HETATM    7  C2  UNL     1     -32.164   7.877   2.707  1.00 20.00    -0.032 C 
HETATM    8  C1  UNL     1     -32.019   8.558   1.564  1.00 20.00     0.007 C 
ENDBRANCH   5   7
ENDBRANCH   1   5
TORSDOF 3
ENDMDL
MODEL 6
REMARK VINA RESULT:      -4.3      0.984      3.781
REMARK  3 active torsions:
REMARK  status: ('A' for Active; 'I' for Inactive)
REMARK    1  A    between atoms: C2_2  and  C8_8 
REMARK    2  A    between atoms: C4_4  and  C7_7 
REMARK    3  A    between atoms: C7_7  and  C8_8 
ROOT
HETATM    1  C7  UNL     1     -33.984   6.781   4.682  1.00 20.00     0.034 C 
ENDROOT
BRANCH   1   2
HETATM    2  C4  UNL     1     -33.971   6.338   6.119  1.00 20.00    -0.030 C 
HETATM    3  C3  UNL     1     -34.455   5.160   6.540  1.00 20.00    -0.035 C 
HETATM    4  C5  UNL     1     -35.064   4.141   5.636  1.00 20.00     0.035 C 
ENDBRANCH   1   2
BRANCH   1   5
HETATM    5  C8  UNL     1     -32.759   6.280   3.893  1.00 20.00     0.007 C 
HETATM    6  C6  UNL     1     -31.899   7.467   3.452  1.00 20.00     0.014 C 
BRANCH   5   7
HETATM    7  C2  UNL     1     -33.171   5.482   2.679  1.00 20.00    -0.032 C 
HETATM    8  C1  UNL     1     -34.442   5.258   2.328  1.00 20.00     0.007 C 
ENDBRANCH   5   7
ENDBRANCH   1   5
TORSDOF 3
ENDMDL
MODEL 7
REMARK VINA RESULT:      -4.3      1.006      4.125
REMARK  3 active torsions:
REMARK  status: ('A' for Active; 'I' for Inactive)
REMARK    1  A    between atoms: C2_2  and  C8_8 
REMARK    2  A    between atoms: C4_4  and  C7_7 
REMARK    3  A    between atoms: C7_7  and  C8_8 
ROOT
HETATM    1  C7  UNL     1     -35.320   5.728   3.821  1.00 20.00     0.034 C 
ENDROOT
BRANCH   1   2
HETATM    2  C4  UNL     1     -35.151   4.473   4.631  1.00 20.00    -0.030 C 
HETATM    3  C3  UNL     1     -34.779   4.461   5.920  1.00 20.00    -0.035 C 
HETATM    4  C5  UNL     1     -34.488   5.692   6.711  1.00 20.00     0.035 C 
ENDBRANCH   1   2
BRANCH   1   5
HETATM    5  C8  UNL     1     -34.143   5.977   2.858  1.00 20.00     0.007 C 
HETATM    6  C6  UNL     1     -33.834   4.702   2.068  1.00 20.00     0.014 C 
BRANCH   5   7
HETATM    7  C2  UNL     1     -32.903   6.417   3.602  1.00 20.00    -0.032 C 
HETATM    8  C1  UNL     1     -32.015   7.293   3.120  1.00 20.00     0.007 C 
ENDBRANCH   5   7
ENDBRANCH   1   5
TORSDOF 3
ENDMDL
MODEL 8
REMARK VINA RESULT:      -4.1      1.373      1.874
REMARK  3 active torsions:
REMARK  status: ('A' for Active; 'I' for Inactive)
REMARK    1  A    between atoms: C2_2  and  C8_8 
REMARK    2  A    between atoms: C4_4  and  C7_7 
REMARK    3  A    between atoms: C7_7  and  C8_8 
ROOT
HETATM    1  C7  UNL     1     -34.403   6.612   4.513  1.00 20.00     0.034 C 
ENDROOT
BRANCH   1   2
HETATM    2  C4  UNL     1     -32.992   6.676   3.996  1.00 20.00    -0.030 C 
HETATM    3  C3  UNL     1     -32.557   5.991   2.927  1.00 20.00    -0.035 C 
HETATM    4  C5  UNL     1     -33.420   5.082   2.116  1.00 20.00     0.035 C 
ENDBRANCH   1   2
BRANCH   1   5
HETATM    5  C8  UNL     1     -34.470   6.332   6.026  1.00 20.00     0.007 C 
HETATM    6  C6  UNL     1     -33.331   7.062   6.744  1.00 20.00     0.014 C 
BRANCH   5   7
HETATM    7  C2  UNL     1     -34.380   4.853   6.320  1.00 20.00    -0.032 C 
HETATM    8  C1  UNL     1     -34.924   3.905   5.550  1.00 20.00     0.007 C 
ENDBRANCH   5   7
ENDBRANCH   1   5
TORSDOF 3
ENDMDL
MODEL 9
REMARK VINA RESULT:      -4.0     11.055     12.100
REMARK  3 active torsions:
REMARK  status: ('A' for Active; 'I' for Inactive)
REMARK    1  A    between atoms: C2_2  and  C8_8 
REMARK    2  A    between atoms: C4_4  and  C7_7 
REMARK    3  A    between atoms: C7_7  and  C8_8 
ROOT
HETATM    1  C7  UNL     1     -33.618  16.355  -3.004  1.00 20.00     0.034 C 
ENDROOT
BRANCH   1   2
HETATM    2  C4  UNL     1     -34.605  16.045  -1.912  1.00 20.00    -0.030 C 
HETATM    3  C3  UNL     1     -34.652  16.698  -0.742  1.00 20.00    -0.035 C 
HETATM    4  C5  UNL     1     -33.732  17.815  -0.377  1.00 20.00     0.035 C 
ENDBRANCH   1   2
BRANCH   1   5
HETATM    5  C8  UNL     1     -33.470  15.204  -4.017  1.00 20.00     0.007 C 
HETATM    6  C6  UNL     1     -33.990  15.643  -5.388  1.00 20.00     0.014 C 
BRANCH   5   7
HETATM    7  C2  UNL     1     -34.221  13.972  -3.568  1.00 20.00    -0.032 C 
HETATM    8  C1  UNL     1     -35.046  13.273  -4.355  1.00 20.00     0.007 C 
ENDBRANCH   5   7
ENDBRANCH   1   5
TORSDOF 3
ENDMDL
