MODEL 1
REMARK VINA RESULT:      -4.2      0.000      0.000
REMARK  2 active torsions:
REMARK  status: ('A' for Active; 'I' for Inactive)
REMARK    1  A    between atoms: C1_1  and  C4_4 
REMARK    2  A    between atoms: C4_4  and  C6_6 
ROOT
HETATM    1  C2  UNL     1     -34.407  15.445  -5.679  1.00 20.00     0.062 A 
HETATM    2  C3  UNL     1     -33.273  15.800  -4.773  1.00 20.00     0.190 A 
HETATM    3  C4  UNL     1     -34.411  14.969  -4.238  1.00 20.00     0.081 A 
HETATM    4  F9  UNL     1     -33.174  17.119  -4.363  1.00 20.00    -0.248 F 
ENDROOT
BRANCH   3   5
HETATM    5  C1  UNL     1     -34.128  13.554  -4.026  1.00 20.00     0.184 C 
HETATM    6  O7  UNL     1     -32.958  13.292  -3.632  1.00 20.00    -0.647 OA
HETATM    7  O8  UNL     1     -35.096  12.778  -4.264  1.00 20.00    -0.647 OA
ENDBRANCH   3   5
BRANCH   3   8
HETATM    8  C6  UNL     1     -35.379  15.634  -3.294  1.00 20.00     0.019 C 
HETATM    9  C5  UNL     1     -34.768  15.916  -1.952  1.00 20.00     0.006 C 
ENDBRANCH   3   8
TORSDOF 2
ENDMDL
MODEL 2
REMARK VINA RESULT:      -4.2      1.195      2.693
REMARK  2 active torsions:
REMARK  status: ('A' for Active; 'I' for Inactive)
REMARK    1  A    between atoms: C1_1  and  C4_4 
REMARK    2  A    between atoms: C4_4  and  C6_6 
ROOT
HETATM    1  C2  UNL     1     -34.568  15.489  -2.606  1.00 20.00     0.062 A 
HETATM    2  C3  UNL     1     -35.766  15.276  -3.475  1.00 20.00     0.190 A 
HETATM    3  C4  UNL     1     -34.403  14.879  -3.986  1.00 20.00     0.081 A 
HETATM    4  F9  UNL     1     -36.367  16.399  -4.017  1.00 20.00    -0.248 F 
ENDROOT
BRANCH   3   5
HETATM    5  C1  UNL     1     -34.126  13.448  -4.028  1.00 20.00     0.184 C 
HETATM    6  O7  UNL     1     -35.114  12.716  -4.313  1.00 20.00    -0.647 OA
HETATM    7  O8  UNL     1     -32.930  13.132  -3.775  1.00 20.00    -0.647 OA
ENDBRANCH   3   5
BRANCH   3   8
HETATM    8  C6  UNL     1     -33.777  15.741  -5.051  1.00 20.00     0.019 C 
HETATM    9  C5  UNL     1     -34.269  15.397  -6.428  1.00 20.00     0.006 C 
ENDBRANCH   3   8
TORSDOF 2
ENDMDL
MODEL 3
REMARK VINA RESULT:      -4.2     12.377     13.278
REMARK  2 active torsions:
REMARK  status: ('A' for Active; 'I' for Inactive)
REMARK    1  A    between atoms: C1_1  and  C4_4 
REMARK    2  A    between atoms: C4_4  and  C6_6 
ROOT
HETATM    1  C2  UNL     1     -33.638   4.894   6.336  1.00 20.00     0.062 A 
HETATM    2  C3  UNL     1     -34.562   6.056   6.506  1.00 20.00     0.190 A 
HETATM    3  C4  UNL     1     -34.196   5.603   5.115  1.00 20.00     0.081 A 
HETATM    4  F9  UNL     1     -34.017   7.240   6.975  1.00 20.00    -0.248 F 
ENDROOT
BRANCH   3   5
HETATM    5  C1  UNL     1     -35.235   4.893   4.377  1.00 20.00     0.184 C 
HETATM    6  O7  UNL     1     -35.247   3.641   4.533  1.00 20.00    -0.647 OA
HETATM    7  O8  UNL     1     -35.987   5.631   3.681  1.00 20.00    -0.647 OA
ENDBRANCH   3   5
BRANCH   3   8
HETATM    8  C6  UNL     1     -33.247   6.466   4.325  1.00 20.00     0.019 C 
HETATM    9  C5  UNL     1     -32.803   5.809   3.050  1.00 20.00     0.006 C 
ENDBRANCH   3   8
TORSDOF 2
ENDMDL
MODEL 4
REMARK VINA RESULT:      -4.1     11.940     12.767
REMARK  2 active torsions:
REMARK  status: ('A' for Active; 'I' for Inactive)
REMARK    1  A    between atoms: C1_1  and  C4_4 
REMARK    2  A    between atoms: C4_4  and  C6_6 
ROOT
HETATM    1  C2  UNL     1     -35.744   5.762   3.781  1.00 20.00     0.062 A 
HETATM    2  C3  UNL     1     -34.656   4.783   3.479  1.00 20.00     0.190 A 
HETATM    3  C4  UNL     1     -34.363   5.957   4.379  1.00 20.00     0.081 A 
HETATM    4  F9  UNL     1     -34.129   4.791   2.198  1.00 20.00    -0.248 F 
ENDROOT
BRANCH   3   5
HETATM    5  C1  UNL     1     -34.228   5.658   5.800  1.00 20.00     0.184 C 
HETATM    6  O7  UNL     1     -34.293   4.435   6.101  1.00 20.00    -0.647 OA
HETATM    7  O8  UNL     1     -34.063   6.668   6.541  1.00 20.00    -0.647 OA
ENDBRANCH   3   5
BRANCH   3   8
HETATM    8  C6  UNL     1     -33.521   7.074   3.820  1.00 20.00     0.019 C 
HETATM    9  C5  UNL     1     -32.132   6.624   3.470  1.00 20.00     0.006 C 
ENDBRANCH   3   8
TORSDOF 2
ENDMDL
MODEL 5
REMARK VINA RESULT:      -3.9      1.839      2.203
REMARK  2 active torsions:
REMARK  status: ('A' for Active; 'I' for Inactive)
REMARK    1  A    between atoms: C1_1  and  C4_4 
REMARK    2  A    between atoms: C4_4  and  C6_6 
ROOT
HETATM    1  C2  UNL     1     -36.093  15.185  -6.416  1.00 20.00     0.062 A 
HETATM    2  C3  UNL     1     -34.771  14.505  -6.572  1.00 20.00     0.190 A 
HETATM    3  C4  UNL     1     -35.268  14.846  -5.189  1.00 20.00     0.081 A 
HETATM    4  F9  UNL     1     -33.730  15.251  -7.097  1.00 20.00    -0.248 F 
ENDROOT
BRANCH   3   5
HETATM    5  C1  UNL     1     -35.741  13.726  -4.383  1.00 20.00     0.184 C 
HETATM    6  O7  UNL     1     -35.026  12.687  -4.431  1.00 20.00    -0.647 OA
HETATM    7  O8  UNL     1     -36.806  13.947  -3.743  1.00 20.00    -0.647 OA
ENDBRANCH   3   5
BRANCH   3   8
HETATM    8  C6  UNL     1     -34.601  15.989  -4.468  1.00 20.00     0.019 C 
HETATM    9  C5  UNL     1     -33.344  15.566  -3.764  1.00 20.00     0.006 C 
ENDBRANCH   3   8
TORSDOF 2
ENDMDL
MODEL 6
REMARK VINA RESULT:      -3.9      1.496      2.693
REMARK  2 active torsions:
REMARK  status: ('A' for Active; 'I' for Inactive)
REMARK    1  A    between atoms: C1_1  and  C4_4 
REMARK    2  A    between atoms: C4_4  and  C6_6 
ROOT
HETATM    1  C2  UNL     1     -33.989  15.589  -3.808  1.00 20.00     0.062 A 
HETATM    2  C3  UNL     1     -35.284  16.203  -4.231  1.00 20.00     0.190 A 
HETATM    3  C4  UNL     1     -34.883  14.864  -4.797  1.00 20.00     0.081 A 
HETATM    4  F9  UNL     1     -35.223  17.310  -5.060  1.00 20.00    -0.248 F 
ENDROOT
BRANCH   3   5
HETATM    5  C1  UNL     1     -35.608  13.707  -4.282  1.00 20.00     0.184 C 
HETATM    6  O7  UNL     1     -34.974  12.616  -4.315  1.00 20.00    -0.647 OA
HETATM    7  O8  UNL     1     -36.776  13.954  -3.871  1.00 20.00    -0.647 OA
ENDBRANCH   3   5
BRANCH   3   8
HETATM    8  C6  UNL     1     -34.429  14.818  -6.233  1.00 20.00     0.019 C 
HETATM    9  C5  UNL     1     -35.547  14.478  -7.176  1.00 20.00     0.006 C 
ENDBRANCH   3   8
TORSDOF 2
ENDMDL
MODEL 7
REMARK VINA RESULT:      -3.8      1.728      2.337
REMARK  2 active torsions:
REMARK  status: ('A' for Active; 'I' for Inactive)
REMARK    1  A    between atoms: C1_1  and  C4_4 
REMARK    2  A    between atoms: C4_4  and  C6_6 
ROOT
HETATM    1  C2  UNL     1     -36.892  14.793  -3.799  1.00 20.00     0.062 A 
HETATM    2  C3  UNL     1     -36.267  15.839  -4.664  1.00 20.00     0.190 A 
HETATM    3  C4  UNL     1     -35.420  14.700  -4.153  1.00 20.00     0.081 A 
HETATM    4  F9  UNL     1     -36.079  17.094  -4.110  1.00 20.00    -0.248 F 
ENDROOT
BRANCH   3   5
HETATM    5  C1  UNL     1     -35.057  13.682  -5.133  1.00 20.00     0.184 C 
HETATM    6  O7  UNL     1     -34.838  12.533  -4.660  1.00 20.00    -0.647 OA
HETATM    7  O8  UNL     1     -35.011  14.089  -6.328  1.00 20.00    -0.647 OA
ENDBRANCH   3   5
BRANCH   3   8
HETATM    8  C6  UNL     1     -34.426  15.001  -3.062  1.00 20.00     0.019 C 
HETATM    9  C5  UNL     1     -33.083  15.396  -3.603  1.00 20.00     0.006 C 
ENDBRANCH   3   8
TORSDOF 2
ENDMDL
MODEL 8
REMARK VINA RESULT:      -3.8      1.748      2.266
REMARK  2 active torsions:
REMARK  status: ('A' for Active; 'I' for Inactive)
REMARK    1  A    between atoms: C1_1  and  C4_4 
REMARK    2  A    between atoms: C4_4  and  C6_6 
ROOT
HETATM    1  C2  UNL     1     -33.677  15.709  -4.225  1.00 20.00     0.062 A 
HETATM    2  C3  UNL     1     -34.114  14.861  -3.074  1.00 20.00     0.190 A 
HETATM    3  C4  UNL     1     -34.980  14.935  -4.307  1.00 20.00     0.081 A 
HETATM    4  F9  UNL     1     -34.545  15.513  -1.931  1.00 20.00    -0.248 F 
ENDROOT
BRANCH   3   5
HETATM    5  C1  UNL     1     -34.976  13.756  -5.165  1.00 20.00     0.184 C 
HETATM    6  O7  UNL     1     -35.153  13.983  -6.394  1.00 20.00    -0.647 OA
HETATM    7  O8  UNL     1     -34.793  12.662  -4.561  1.00 20.00    -0.647 OA
ENDBRANCH   3   5
BRANCH   3   8
HETATM    8  C6  UNL     1     -36.259  15.726  -4.218  1.00 20.00     0.019 C 
HETATM    9  C5  UNL     1     -37.426  14.881  -3.792  1.00 20.00     0.006 C 
ENDBRANCH   3   8
TORSDOF 2
ENDMDL
MODEL 9
REMARK VINA RESULT:      -3.8      2.200      2.643
REMARK  2 active torsions:
REMARK  status: ('A' for Active; 'I' for Inactive)
REMARK    1  A    between atoms: C1_1  and  C4_4 
REMARK    2  A    between atoms: C4_4  and  C6_6 
ROOT
HETATM    1  C2  UNL     1     -34.435  14.425  -5.590  1.00 20.00     0.062 A 
HETATM    2  C3  UNL     1     -34.442  13.539  -4.387  1.00 20.00     0.190 A 
HETATM    3  C4  UNL     1     -34.990  14.940  -4.275  1.00 20.00     0.081 A 
HETATM    4  F9  UNL     1     -33.222  13.263  -3.793  1.00 20.00    -0.248 F 
ENDROOT
BRANCH   3   5
HETATM    5  C1  UNL     1     -36.441  15.056  -4.188  1.00 20.00     0.184 C 
HETATM    6  O7  UNL     1     -36.913  16.178  -4.521  1.00 20.00    -0.647 OA
HETATM    7  O8  UNL     1     -37.033  14.013  -3.793  1.00 20.00    -0.647 OA
ENDBRANCH   3   5
BRANCH   3   8
HETATM    8  C6  UNL     1     -34.165  15.956  -3.528  1.00 20.00     0.019 C 
HETATM    9  C5  UNL     1     -34.463  15.966  -2.056  1.00 20.00     0.006 C 
ENDBRANCH   3   8
TORSDOF 2
ENDMDL
