MODEL 1
REMARK VINA RESULT:      -3.9      0.000      0.000
REMARK  0 active torsions:
REMARK  status: ('A' for Active; 'I' for Inactive)
ROOT
HETATM    1  C1  UNL     1     -33.536   5.837   3.875  1.00 20.00     0.001 C 
HETATM    2  C2  UNL     1     -34.035   5.691   5.112  1.00 20.00     0.076 C 
HETATM    3  C3  UNL     1     -32.687   6.954   3.356  1.00 20.00     0.038 C 
HETATM    4 CL4  UNL     1     -33.750   6.842   6.373  1.00 20.00    -0.076 Cl
HETATM    5 BR5  UNL     1     -35.086   4.211   5.571  1.00 20.00    -0.038 Br
ENDROOT
TORSDOF 0
ENDMDL
MODEL 2
REMARK VINA RESULT:      -3.8      2.088      2.810
REMARK  0 active torsions:
REMARK  status: ('A' for Active; 'I' for Inactive)
ROOT
HETATM    1  C1  UNL     1     -34.491   4.905   4.843  1.00 20.00     0.001 C 
HETATM    2  C2  UNL     1     -33.776   6.037   4.938  1.00 20.00     0.076 C 
HETATM    3  C3  UNL     1     -35.263   4.216   5.924  1.00 20.00     0.038 C 
HETATM    4 CL4  UNL     1     -33.634   6.928   6.416  1.00 20.00    -0.076 Cl
HETATM    5 BR5  UNL     1     -32.871   6.746   3.461  1.00 20.00    -0.038 Br
ENDROOT
TORSDOF 0
ENDMDL
MODEL 3
REMARK VINA RESULT:      -3.7      2.756      3.292
REMARK  0 active torsions:
REMARK  status: ('A' for Active; 'I' for Inactive)
ROOT
HETATM    1  C1  UNL     1     -33.681   6.240   5.476  1.00 20.00     0.001 C 
HETATM    2  C2  UNL     1     -33.647   6.161   4.137  1.00 20.00     0.076 C 
HETATM    3  C3  UNL     1     -34.663   5.601   6.407  1.00 20.00     0.038 C 
HETATM    4 CL4  UNL     1     -34.804   5.249   3.228  1.00 20.00    -0.076 Cl
HETATM    5 BR5  UNL     1     -32.328   7.041   3.141  1.00 20.00    -0.038 Br
ENDROOT
TORSDOF 0
ENDMDL
MODEL 4
REMARK VINA RESULT:      -3.7      1.856      1.856
REMARK  0 active torsions:
REMARK  status: ('A' for Active; 'I' for Inactive)
ROOT
HETATM    1  C1  UNL     1     -32.934   6.517   4.208  1.00 20.00     0.001 C 
HETATM    2  C2  UNL     1     -34.094   5.921   4.524  1.00 20.00     0.076 C 
HETATM    3  C3  UNL     1     -32.475   6.968   2.857  1.00 20.00     0.038 C 
HETATM    4 CL4  UNL     1     -35.310   5.563   3.345  1.00 20.00    -0.076 Cl
HETATM    5 BR5  UNL     1     -34.488   5.427   6.287  1.00 20.00    -0.038 Br
ENDROOT
TORSDOF 0
ENDMDL
MODEL 5
REMARK VINA RESULT:      -3.4      1.824      2.361
REMARK  0 active torsions:
REMARK  status: ('A' for Active; 'I' for Inactive)
ROOT
HETATM    1  C1  UNL     1     -34.134   6.332   6.372  1.00 20.00     0.001 C 
HETATM    2  C2  UNL     1     -34.121   5.829   5.127  1.00 20.00     0.076 C 
HETATM    3  C3  UNL     1     -33.319   7.465   6.910  1.00 20.00     0.038 C 
HETATM    4 CL4  UNL     1     -33.097   6.456   3.880  1.00 20.00    -0.076 Cl
HETATM    5 BR5  UNL     1     -35.223   4.395   4.643  1.00 20.00    -0.038 Br
ENDROOT
TORSDOF 0
ENDMDL
MODEL 6
REMARK VINA RESULT:      -3.3      2.538      3.049
REMARK  0 active torsions:
REMARK  status: ('A' for Active; 'I' for Inactive)
ROOT
HETATM    1  C1  UNL     1     -34.674   5.035   6.041  1.00 20.00     0.001 C 
HETATM    2  C2  UNL     1     -34.003   6.130   5.650  1.00 20.00     0.076 C 
HETATM    3  C3  UNL     1     -35.173   3.913   5.186  1.00 20.00     0.038 C 
HETATM    4 CL4  UNL     1     -33.587   6.426   3.995  1.00 20.00    -0.076 Cl
HETATM    5 BR5  UNL     1     -33.460   7.432   6.880  1.00 20.00    -0.038 Br
ENDROOT
TORSDOF 0
ENDMDL
MODEL 7
REMARK VINA RESULT:      -3.0      2.088      2.270
REMARK  0 active torsions:
REMARK  status: ('A' for Active; 'I' for Inactive)
ROOT
HETATM    1  C1  UNL     1     -34.548   5.521   3.788  1.00 20.00     0.001 C 
HETATM    2  C2  UNL     1     -33.666   6.239   4.500  1.00 20.00     0.076 C 
HETATM    3  C3  UNL     1     -34.494   5.185   2.331  1.00 20.00     0.038 C 
HETATM    4 CL4  UNL     1     -32.241   6.926   3.795  1.00 20.00    -0.076 Cl
HETATM    5 BR5  UNL     1     -33.913   6.554   6.329  1.00 20.00    -0.038 Br
ENDROOT
TORSDOF 0
ENDMDL
MODEL 8
REMARK VINA RESULT:      -2.9     12.162     12.290
REMARK  0 active torsions:
REMARK  status: ('A' for Active; 'I' for Inactive)
ROOT
HETATM    1  C1  UNL     1     -34.819  15.466  -2.539  1.00 20.00     0.001 C 
HETATM    2  C2  UNL     1     -34.146  14.673  -3.387  1.00 20.00     0.076 C 
HETATM    3  C3  UNL     1     -34.262  16.510  -1.623  1.00 20.00     0.038 C 
HETATM    4 CL4  UNL     1     -32.425  14.745  -3.562  1.00 20.00    -0.076 Cl
HETATM    5 BR5  UNL     1     -35.030  13.417  -4.458  1.00 20.00    -0.038 Br
ENDROOT
TORSDOF 0
ENDMDL
MODEL 9
REMARK VINA RESULT:      -2.8     12.472     12.665
REMARK  0 active torsions:
REMARK  status: ('A' for Active; 'I' for Inactive)
ROOT
HETATM    1  C1  UNL     1     -34.530  14.189  -3.440  1.00 20.00     0.001 C 
HETATM    2  C2  UNL     1     -34.103  15.444  -3.232  1.00 20.00     0.076 C 
HETATM    3  C3  UNL     1     -34.278  13.322  -4.634  1.00 20.00     0.038 C 
HETATM    4 CL4  UNL     1     -33.135  16.302  -4.383  1.00 20.00    -0.076 Cl
HETATM    5 BR5  UNL     1     -34.527  16.370  -1.661  1.00 20.00    -0.038 Br
ENDROOT
TORSDOF 0
ENDMDL
