MODEL 1
REMARK VINA RESULT:      -4.4      0.000      0.000
REMARK  2 active torsions:
REMARK  status: ('A' for Active; 'I' for Inactive)
REMARK    1  A    between atoms: C5_5  and  S11_11 
REMARK    2  A    between atoms: C9_9  and  S11_11 
ROOT
HETATM    1  C1  UNL     1     -35.126  13.845  -4.958  1.00 20.00     0.080 C 
HETATM    2  C2  UNL     1     -34.968  14.764  -7.816  1.00 20.00     0.005 C 
HETATM    3  C3  UNL     1     -34.200  15.475  -6.681  1.00 20.00     0.036 C 
HETATM    4  C4  UNL     1     -36.250  14.924  -6.971  1.00 20.00     0.036 C 
HETATM    5  C5  UNL     1     -35.342  15.052  -5.721  1.00 20.00     0.097 C 
HETATM    6  N10 UNL     1     -34.951  12.875  -4.343  1.00 20.00    -0.196 NA
ENDROOT
BRANCH   5   7
HETATM    7  S11 UNL     1     -35.864  16.412  -4.618  1.00 20.00    -0.135 SA
BRANCH   7   8
HETATM    8  C9  UNL     1     -34.314  16.548  -3.645  1.00 20.00    -0.001 C 
HETATM    9  C6  UNL     1     -33.165  15.954  -4.465  1.00 20.00     0.026 C 
HETATM   10  C7  UNL     1     -34.052  18.031  -3.361  1.00 20.00     0.026 C 
HETATM   11  C8  UNL     1     -34.488  15.779  -2.333  1.00 20.00     0.026 C 
ENDBRANCH   7   8
ENDBRANCH   5   7
TORSDOF 2
ENDMDL
MODEL 2
REMARK VINA RESULT:      -4.4      0.019      1.310
REMARK  2 active torsions:
REMARK  status: ('A' for Active; 'I' for Inactive)
REMARK    1  A    between atoms: C5_5  and  S11_11 
REMARK    2  A    between atoms: C9_9  and  S11_11 
ROOT
HETATM    1  C1  UNL     1     -35.117  13.841  -4.947  1.00 20.00     0.080 C 
HETATM    2  C2  UNL     1     -34.967  14.775  -7.801  1.00 20.00     0.005 C 
HETATM    3  C3  UNL     1     -34.204  15.486  -6.663  1.00 20.00     0.036 C 
HETATM    4  C4  UNL     1     -36.250  14.921  -6.955  1.00 20.00     0.036 C 
HETATM    5  C5  UNL     1     -35.342  15.050  -5.705  1.00 20.00     0.097 C 
HETATM    6  N10 UNL     1     -34.934  12.870  -4.337  1.00 20.00    -0.196 NA
ENDROOT
BRANCH   5   7
HETATM    7  S11 UNL     1     -35.874  16.400  -4.595  1.00 20.00    -0.135 SA
BRANCH   7   8
HETATM    8  C9  UNL     1     -34.319  16.553  -3.631  1.00 20.00    -0.001 C 
HETATM    9  C6  UNL     1     -34.055  18.037  -3.358  1.00 20.00     0.026 C 
HETATM   10  C7  UNL     1     -34.493  15.793  -2.312  1.00 20.00     0.026 C 
HETATM   11  C8  UNL     1     -33.174  15.948  -4.447  1.00 20.00     0.026 C 
ENDBRANCH   7   8
ENDBRANCH   5   7
TORSDOF 2
ENDMDL
MODEL 3
REMARK VINA RESULT:      -4.2      1.442      3.860
REMARK  2 active torsions:
REMARK  status: ('A' for Active; 'I' for Inactive)
REMARK    1  A    between atoms: C5_5  and  S11_11 
REMARK    2  A    between atoms: C9_9  and  S11_11 
ROOT
HETATM    1  C1  UNL     1     -33.807  14.432  -3.691  1.00 20.00     0.080 C 
HETATM    2  C2  UNL     1     -34.833  16.253  -1.530  1.00 20.00     0.005 C 
HETATM    3  C3  UNL     1     -35.525  16.138  -2.905  1.00 20.00     0.036 C 
HETATM    4  C4  UNL     1     -33.514  16.532  -2.282  1.00 20.00     0.036 C 
HETATM    5  C5  UNL     1     -34.135  15.828  -3.515  1.00 20.00     0.097 C 
HETATM    6  N10 UNL     1     -33.544  13.310  -3.834  1.00 20.00    -0.196 NA
ENDROOT
BRANCH   5   7
HETATM    7  S11 UNL     1     -33.834  16.747  -5.066  1.00 20.00    -0.135 SA
BRANCH   7   8
HETATM    8  C9  UNL     1     -35.128  15.938  -6.086  1.00 20.00    -0.001 C 
HETATM    9  C6  UNL     1     -36.175  15.322  -5.154  1.00 20.00     0.026 C 
HETATM   10  C7  UNL     1     -35.773  17.003  -6.979  1.00 20.00     0.026 C 
HETATM   11  C8  UNL     1     -34.471  14.853  -6.942  1.00 20.00     0.026 C 
ENDBRANCH   7   8
ENDBRANCH   5   7
TORSDOF 2
ENDMDL
MODEL 4
REMARK VINA RESULT:      -4.2      1.441      3.850
REMARK  2 active torsions:
REMARK  status: ('A' for Active; 'I' for Inactive)
REMARK    1  A    between atoms: C5_5  and  S11_11 
REMARK    2  A    between atoms: C9_9  and  S11_11 
ROOT
HETATM    1  C1  UNL     1     -33.808  14.430  -3.691  1.00 20.00     0.080 C 
HETATM    2  C2  UNL     1     -34.834  16.253  -1.531  1.00 20.00     0.005 C 
HETATM    3  C3  UNL     1     -35.526  16.137  -2.906  1.00 20.00     0.036 C 
HETATM    4  C4  UNL     1     -33.514  16.531  -2.283  1.00 20.00     0.036 C 
HETATM    5  C5  UNL     1     -34.135  15.826  -3.516  1.00 20.00     0.097 C 
HETATM    6  N10 UNL     1     -33.545  13.308  -3.833  1.00 20.00    -0.196 NA
ENDROOT
BRANCH   5   7
HETATM    7  S11 UNL     1     -33.835  16.744  -5.067  1.00 20.00    -0.135 SA
BRANCH   7   8
HETATM    8  C9  UNL     1     -35.133  15.939  -6.085  1.00 20.00    -0.001 C 
HETATM    9  C6  UNL     1     -35.784  16.999  -6.978  1.00 20.00     0.026 C 
HETATM   10  C7  UNL     1     -34.471  14.856  -6.942  1.00 20.00     0.026 C 
HETATM   11  C8  UNL     1     -36.173  15.316  -5.151  1.00 20.00     0.026 C 
ENDBRANCH   7   8
ENDBRANCH   5   7
TORSDOF 2
ENDMDL
MODEL 5
REMARK VINA RESULT:      -4.2      1.256      3.677
REMARK  2 active torsions:
REMARK  status: ('A' for Active; 'I' for Inactive)
REMARK    1  A    between atoms: C5_5  and  S11_11 
REMARK    2  A    between atoms: C9_9  and  S11_11 
ROOT
HETATM    1  C1  UNL     1     -33.994  14.294  -3.639  1.00 20.00     0.080 C 
HETATM    2  C2  UNL     1     -33.668  16.739  -1.918  1.00 20.00     0.005 C 
HETATM    3  C3  UNL     1     -34.995  15.954  -1.987  1.00 20.00     0.036 C 
HETATM    4  C4  UNL     1     -33.701  16.817  -3.460  1.00 20.00     0.036 C 
HETATM    5  C5  UNL     1     -34.630  15.577  -3.446  1.00 20.00     0.097 C 
HETATM    6  N10 UNL     1     -33.484  13.263  -3.794  1.00 20.00    -0.196 NA
ENDROOT
BRANCH   5   7
HETATM    7  S11 UNL     1     -36.047  15.757  -4.587  1.00 20.00    -0.135 SA
BRANCH   7   8
HETATM    8  C9  UNL     1     -35.096  15.795  -6.156  1.00 20.00    -0.001 C 
HETATM    9  C6  UNL     1     -35.088  14.388  -6.760  1.00 20.00     0.026 C 
HETATM   10  C7  UNL     1     -35.780  16.779  -7.111  1.00 20.00     0.026 C 
HETATM   11  C8  UNL     1     -33.667  16.254  -5.853  1.00 20.00     0.026 C 
ENDBRANCH   7   8
ENDBRANCH   5   7
TORSDOF 2
ENDMDL
MODEL 6
REMARK VINA RESULT:      -4.1      1.127      1.441
REMARK  2 active torsions:
REMARK  status: ('A' for Active; 'I' for Inactive)
REMARK    1  A    between atoms: C5_5  and  S11_11 
REMARK    2  A    between atoms: C9_9  and  S11_11 
ROOT
HETATM    1  C1  UNL     1     -34.888  13.765  -5.068  1.00 20.00     0.080 C 
HETATM    2  C2  UNL     1     -35.933  14.644  -7.747  1.00 20.00     0.005 C 
HETATM    3  C3  UNL     1     -34.456  14.831  -7.339  1.00 20.00     0.036 C 
HETATM    4  C4  UNL     1     -36.325  15.360  -6.437  1.00 20.00     0.036 C 
HETATM    5  C5  UNL     1     -34.937  14.964  -5.872  1.00 20.00     0.097 C 
HETATM    6  N10 UNL     1     -34.847  12.801  -4.422  1.00 20.00    -0.196 NA
ENDROOT
BRANCH   5   7
HETATM    7  S11 UNL     1     -34.123  16.346  -4.995  1.00 20.00    -0.135 SA
BRANCH   7   8
HETATM    8  C9  UNL     1     -35.288  16.460  -3.581  1.00 20.00    -0.001 C 
HETATM    9  C6  UNL     1     -34.688  15.707  -2.389  1.00 20.00     0.026 C 
HETATM   10  C7  UNL     1     -35.480  17.939  -3.233  1.00 20.00     0.026 C 
HETATM   11  C8  UNL     1     -36.622  15.832  -3.992  1.00 20.00     0.026 C 
ENDBRANCH   7   8
ENDBRANCH   5   7
TORSDOF 2
ENDMDL
MODEL 7
REMARK VINA RESULT:      -4.1      1.752      2.433
REMARK  2 active torsions:
REMARK  status: ('A' for Active; 'I' for Inactive)
REMARK    1  A    between atoms: C5_5  and  S11_11 
REMARK    2  A    between atoms: C9_9  and  S11_11 
ROOT
HETATM    1  C1  UNL     1     -36.818  14.638  -3.996  1.00 20.00     0.080 C 
HETATM    2  C2  UNL     1     -34.329  13.122  -4.735  1.00 20.00     0.005 C 
HETATM    3  C3  UNL     1     -34.323  14.245  -3.675  1.00 20.00     0.036 C 
HETATM    4  C4  UNL     1     -35.002  14.119  -5.703  1.00 20.00     0.036 C 
HETATM    5  C5  UNL     1     -35.479  14.915  -4.461  1.00 20.00     0.097 C 
HETATM    6  N10 UNL     1     -37.894  14.417  -3.620  1.00 20.00    -0.196 NA
ENDROOT
BRANCH   5   7
HETATM    7  S11 UNL     1     -35.237  16.716  -4.655  1.00 20.00    -0.135 SA
BRANCH   7   8
HETATM    8  C9  UNL     1     -35.337  17.170  -2.879  1.00 20.00    -0.001 C 
HETATM    9  C6  UNL     1     -34.881  15.972  -2.040  1.00 20.00     0.026 C 
HETATM   10  C7  UNL     1     -34.416  18.370  -2.636  1.00 20.00     0.026 C 
HETATM   11  C8  UNL     1     -36.785  17.535  -2.547  1.00 20.00     0.026 C 
ENDBRANCH   7   8
ENDBRANCH   5   7
TORSDOF 2
ENDMDL
MODEL 8
REMARK VINA RESULT:      -4.0      1.538      3.895
REMARK  2 active torsions:
REMARK  status: ('A' for Active; 'I' for Inactive)
REMARK    1  A    between atoms: C5_5  and  S11_11 
REMARK    2  A    between atoms: C9_9  and  S11_11 
ROOT
HETATM    1  C1  UNL     1     -36.869  15.157  -3.558  1.00 20.00     0.080 C 
HETATM    2  C2  UNL     1     -34.767  16.105  -1.627  1.00 20.00     0.005 C 
HETATM    3  C3  UNL     1     -35.665  17.086  -2.411  1.00 20.00     0.036 C 
HETATM    4  C4  UNL     1     -34.407  15.447  -2.977  1.00 20.00     0.036 C 
HETATM    5  C5  UNL     1     -35.722  16.035  -3.549  1.00 20.00     0.097 C 
HETATM    6  N10 UNL     1     -37.792  14.453  -3.565  1.00 20.00    -0.196 NA
ENDROOT
BRANCH   5   7
HETATM    7  S11 UNL     1     -35.488  16.784  -5.200  1.00 20.00    -0.135 SA
BRANCH   7   8
HETATM    8  C9  UNL     1     -35.263  15.227  -6.146  1.00 20.00    -0.001 C 
HETATM    9  C6  UNL     1     -36.603  14.842  -6.782  1.00 20.00     0.026 C 
HETATM   10  C7  UNL     1     -34.211  15.471  -7.233  1.00 20.00     0.026 C 
HETATM   11  C8  UNL     1     -34.793  14.132  -5.186  1.00 20.00     0.026 C 
ENDBRANCH   7   8
ENDBRANCH   5   7
TORSDOF 2
ENDMDL
MODEL 9
REMARK VINA RESULT:      -4.0      1.748      3.601
REMARK  2 active torsions:
REMARK  status: ('A' for Active; 'I' for Inactive)
REMARK    1  A    between atoms: C5_5  and  S11_11 
REMARK    2  A    between atoms: C9_9  and  S11_11 
ROOT
HETATM    1  C1  UNL     1     -36.753  14.591  -4.035  1.00 20.00     0.080 C 
HETATM    2  C2  UNL     1     -33.945  13.596  -3.622  1.00 20.00     0.005 C 
HETATM    3  C3  UNL     1     -34.398  14.996  -3.155  1.00 20.00     0.036 C 
HETATM    4  C4  UNL     1     -34.495  13.948  -5.021  1.00 20.00     0.036 C 
HETATM    5  C5  UNL     1     -35.401  15.003  -4.337  1.00 20.00     0.097 C 
HETATM    6  N10 UNL     1     -37.839  14.261  -3.791  1.00 20.00    -0.196 NA
ENDROOT
BRANCH   5   7
HETATM    7  S11 UNL     1     -35.412  16.596  -5.232  1.00 20.00    -0.135 SA
BRANCH   7   8
HETATM    8  C9  UNL     1     -35.782  15.937  -6.904  1.00 20.00    -0.001 C 
HETATM    9  C6  UNL     1     -37.217  15.401  -6.915  1.00 20.00     0.026 C 
HETATM   10  C7  UNL     1     -35.634  17.078  -7.916  1.00 20.00     0.026 C 
HETATM   11  C8  UNL     1     -34.790  14.814  -7.219  1.00 20.00     0.026 C 
ENDBRANCH   7   8
ENDBRANCH   5   7
TORSDOF 2
ENDMDL
