MODEL 1
REMARK VINA RESULT:      -5.0      0.000      0.000
REMARK  2 active torsions:
REMARK  status: ('A' for Active; 'I' for Inactive)
REMARK    1  A    between atoms: C8_8  and  C10_10 
REMARK    2  A    between atoms: C10_10  and  C11_11 
ROOT
HETATM    1  C1  UNL     1     -35.512  14.555  -7.129  1.00 20.00     0.064 C 
HETATM    2  C2  UNL     1     -34.985  16.872  -5.061  1.00 20.00     0.002 C 
HETATM    3  C3  UNL     1     -33.981  15.985  -5.799  1.00 20.00     0.019 C 
HETATM    4  C4  UNL     1     -34.818  13.671  -4.920  1.00 20.00     0.019 C 
HETATM    5  C5  UNL     1     -35.780  16.219  -3.934  1.00 20.00     0.005 C 
HETATM    6  C6  UNL     1     -34.251  14.140  -3.581  1.00 20.00     0.006 C 
HETATM    7  C7  UNL     1     -34.429  14.552  -6.126  1.00 20.00     0.093 C 
HETATM    8  C8  UNL     1     -34.993  15.337  -2.952  1.00 20.00    -0.014 C 
HETATM    9  N12 UNL     1     -36.362  14.559  -7.918  1.00 20.00    -0.197 NA
ENDROOT
BRANCH   8  10
HETATM   10  C10 UNL     1     -34.037  16.166  -2.091  1.00 20.00     0.004 C 
BRANCH  10  11
HETATM   11  C11 UNL     1     -34.701  16.583  -0.786  1.00 20.00    -0.004 C 
HETATM   12  C9  UNL     1     -33.991  17.777  -0.170  1.00 20.00     0.005 C 
ENDBRANCH  10  11
ENDBRANCH   8  10
TORSDOF 2
ENDMDL
MODEL 2
REMARK VINA RESULT:      -5.0      2.662      4.830
REMARK  2 active torsions:
REMARK  status: ('A' for Active; 'I' for Inactive)
REMARK    1  A    between atoms: C8_8  and  C10_10 
REMARK    2  A    between atoms: C10_10  and  C11_11 
ROOT
HETATM    1  C1  UNL     1     -34.161  17.167  -1.665  1.00 20.00     0.064 C 
HETATM    2  C2  UNL     1     -32.901  15.203  -3.779  1.00 20.00     0.002 C 
HETATM    3  C3  UNL     1     -33.668  16.506  -4.005  1.00 20.00     0.019 C 
HETATM    4  C4  UNL     1     -35.898  15.830  -2.822  1.00 20.00     0.019 C 
HETATM    5  C5  UNL     1     -33.716  13.994  -3.332  1.00 20.00     0.005 C 
HETATM    6  C6  UNL     1     -36.069  14.883  -4.010  1.00 20.00     0.006 C 
HETATM    7  C7  UNL     1     -34.757  16.857  -2.979  1.00 20.00     0.093 C 
HETATM    8  C8  UNL     1     -35.038  13.737  -4.071  1.00 20.00    -0.014 C 
HETATM    9  N12 UNL     1     -33.692  17.411  -0.633  1.00 20.00    -0.197 NA
ENDROOT
BRANCH   8  10
HETATM   10  C10 UNL     1     -34.799  13.312  -5.523  1.00 20.00     0.004 C 
BRANCH  10  11
HETATM   11  C11 UNL     1     -35.438  14.297  -6.491  1.00 20.00    -0.004 C 
HETATM   12  C9  UNL     1     -34.382  15.011  -7.320  1.00 20.00     0.005 C 
ENDBRANCH  10  11
ENDBRANCH   8  10
TORSDOF 2
ENDMDL
MODEL 3
REMARK VINA RESULT:      -4.9      1.195      1.949
REMARK  2 active torsions:
REMARK  status: ('A' for Active; 'I' for Inactive)
REMARK    1  A    between atoms: C8_8  and  C10_10 
REMARK    2  A    between atoms: C10_10  and  C11_11 
ROOT
HETATM    1  C1  UNL     1     -34.776  14.618  -6.321  1.00 20.00     0.064 C 
HETATM    2  C2  UNL     1     -33.082  15.255  -3.743  1.00 20.00     0.002 C 
HETATM    3  C3  UNL     1     -34.017  14.077  -4.022  1.00 20.00     0.019 C 
HETATM    4  C4  UNL     1     -36.202  15.439  -4.468  1.00 20.00     0.019 C 
HETATM    5  C5  UNL     1     -33.738  16.609  -3.491  1.00 20.00     0.005 C 
HETATM    6  C6  UNL     1     -36.141  15.746  -2.972  1.00 20.00     0.006 C 
HETATM    7  C7  UNL     1     -35.220  14.347  -4.940  1.00 20.00     0.093 C 
HETATM    8  C8  UNL     1     -34.949  16.627  -2.545  1.00 20.00    -0.014 C 
HETATM    9  N12 UNL     1     -34.426  14.831  -7.406  1.00 20.00    -0.197 NA
ENDROOT
BRANCH   8  10
HETATM   10  C10 UNL     1     -34.543  16.311  -1.103  1.00 20.00     0.004 C 
BRANCH  10  11
HETATM   11  C11 UNL     1     -34.319  17.590  -0.307  1.00 20.00    -0.004 C 
HETATM   12  C9  UNL     1     -35.198  17.623   0.932  1.00 20.00     0.005 C 
ENDBRANCH  10  11
ENDBRANCH   8  10
TORSDOF 2
ENDMDL
MODEL 4
REMARK VINA RESULT:      -4.8      1.137      2.006
REMARK  2 active torsions:
REMARK  status: ('A' for Active; 'I' for Inactive)
REMARK    1  A    between atoms: C8_8  and  C10_10 
REMARK    2  A    between atoms: C10_10  and  C11_11 
ROOT
HETATM    1  C1  UNL     1     -34.802  15.513  -6.924  1.00 20.00     0.064 C 
HETATM    2  C2  UNL     1     -35.927  14.839  -4.061  1.00 20.00     0.002 C 
HETATM    3  C3  UNL     1     -36.104  16.106  -4.897  1.00 20.00     0.019 C 
HETATM    4  C4  UNL     1     -33.582  16.738  -5.149  1.00 20.00     0.019 C 
HETATM    5  C5  UNL     1     -34.555  14.615  -3.434  1.00 20.00     0.005 C 
HETATM    6  C6  UNL     1     -33.664  17.053  -3.655  1.00 20.00     0.006 C 
HETATM    7  C7  UNL     1     -34.945  16.492  -5.829  1.00 20.00     0.093 C 
HETATM    8  C8  UNL     1     -33.899  15.825  -2.752  1.00 20.00    -0.014 C 
HETATM    9  N12 UNL     1     -34.691  14.744  -7.785  1.00 20.00    -0.197 NA
ENDROOT
BRANCH   8  10
HETATM   10  C10 UNL     1     -34.653  16.234  -1.483  1.00 20.00     0.004 C 
BRANCH  10  11
HETATM   11  C11 UNL     1     -33.961  17.399  -0.789  1.00 20.00    -0.004 C 
HETATM   12  C9  UNL     1     -34.657  17.748   0.517  1.00 20.00     0.005 C 
ENDBRANCH  10  11
ENDBRANCH   8  10
TORSDOF 2
ENDMDL
MODEL 5
REMARK VINA RESULT:      -4.8      2.714      4.876
REMARK  2 active torsions:
REMARK  status: ('A' for Active; 'I' for Inactive)
REMARK    1  A    between atoms: C8_8  and  C10_10 
REMARK    2  A    between atoms: C10_10  and  C11_11 
ROOT
HETATM    1  C1  UNL     1     -34.710  16.472  -1.143  1.00 20.00     0.064 C 
HETATM    2  C2  UNL     1     -35.867  17.411  -3.917  1.00 20.00     0.002 C 
HETATM    3  C3  UNL     1     -35.837  16.011  -3.304  1.00 20.00     0.019 C 
HETATM    4  C4  UNL     1     -33.250  15.785  -3.024  1.00 20.00     0.019 C 
HETATM    5  C5  UNL     1     -34.540  17.966  -4.427  1.00 20.00     0.005 C 
HETATM    6  C6  UNL     1     -33.239  15.712  -4.550  1.00 20.00     0.006 C 
HETATM    7  C7  UNL     1     -34.651  15.678  -2.386  1.00 20.00     0.093 C 
HETATM    8  C8  UNL     1     -33.665  17.015  -5.258  1.00 20.00    -0.014 C 
HETATM    9  N12 UNL     1     -34.757  17.095  -0.166  1.00 20.00    -0.197 NA
ENDROOT
BRANCH   8  10
HETATM   10  C10 UNL     1     -34.304  16.701  -6.614  1.00 20.00     0.004 C 
BRANCH  10  11
HETATM   11  C11 UNL     1     -34.393  15.198  -6.839  1.00 20.00    -0.004 C 
HETATM   12  C9  UNL     1     -35.836  14.758  -7.025  1.00 20.00     0.005 C 
ENDBRANCH  10  11
ENDBRANCH   8  10
TORSDOF 2
ENDMDL
MODEL 6
REMARK VINA RESULT:      -4.7      2.420      4.782
REMARK  2 active torsions:
REMARK  status: ('A' for Active; 'I' for Inactive)
REMARK    1  A    between atoms: C8_8  and  C10_10 
REMARK    2  A    between atoms: C10_10  and  C11_11 
ROOT
HETATM    1  C1  UNL     1     -34.766  16.216  -1.689  1.00 20.00     0.064 C 
HETATM    2  C2  UNL     1     -35.033  17.374  -4.605  1.00 20.00     0.002 C 
HETATM    3  C3  UNL     1     -35.954  16.409  -3.859  1.00 20.00     0.019 C 
HETATM    4  C4  UNL     1     -34.212  14.516  -3.404  1.00 20.00     0.019 C 
HETATM    5  C5  UNL     1     -33.697  16.817  -5.087  1.00 20.00     0.005 C 
HETATM    6  C6  UNL     1     -34.288  14.285  -4.913  1.00 20.00     0.006 C 
HETATM    7  C7  UNL     1     -35.293  15.463  -2.844  1.00 20.00     0.093 C 
HETATM    8  C8  UNL     1     -33.726  15.440  -5.768  1.00 20.00    -0.014 C 
HETATM    9  N12 UNL     1     -34.353  16.809  -0.781  1.00 20.00    -0.197 NA
ENDROOT
BRANCH   8  10
HETATM   10  C10 UNL     1     -34.438  15.496  -7.123  1.00 20.00     0.004 C 
BRANCH  10  11
HETATM   11  C11 UNL     1     -35.536  14.445  -7.205  1.00 20.00    -0.004 C 
HETATM   12  C9  UNL     1     -36.900  15.093  -7.382  1.00 20.00     0.005 C 
ENDBRANCH  10  11
ENDBRANCH   8  10
TORSDOF 2
ENDMDL
MODEL 7
REMARK VINA RESULT:      -4.7      2.025      3.159
REMARK  2 active torsions:
REMARK  status: ('A' for Active; 'I' for Inactive)
REMARK    1  A    between atoms: C8_8  and  C10_10 
REMARK    2  A    between atoms: C10_10  and  C11_11 
ROOT
HETATM    1  C1  UNL     1     -35.205  13.675  -4.117  1.00 20.00     0.064 C 
HETATM    2  C2  UNL     1     -32.925  15.842  -3.960  1.00 20.00     0.002 C 
HETATM    3  C3  UNL     1     -34.045  15.541  -2.964  1.00 20.00     0.019 C 
HETATM    4  C4  UNL     1     -36.075  15.953  -4.557  1.00 20.00     0.019 C 
HETATM    5  C5  UNL     1     -33.325  16.543  -5.255  1.00 20.00     0.005 C 
HETATM    6  C6  UNL     1     -35.652  17.420  -4.475  1.00 20.00     0.006 C 
HETATM    7  C7  UNL     1     -35.371  15.025  -3.545  1.00 20.00     0.093 C 
HETATM    8  C8  UNL     1     -34.290  17.732  -5.128  1.00 20.00    -0.014 C 
HETATM    9  N12 UNL     1     -35.073  12.613  -4.567  1.00 20.00    -0.197 NA
ENDROOT
BRANCH   8  10
HETATM   10  C10 UNL     1     -33.626  18.924  -4.433  1.00 20.00     0.004 C 
BRANCH  10  11
HETATM   11  C11 UNL     1     -34.324  19.247  -3.119  1.00 20.00    -0.004 C 
HETATM   12  C9  UNL     1     -33.364  19.126  -1.947  1.00 20.00     0.005 C 
ENDBRANCH  10  11
ENDBRANCH   8  10
TORSDOF 2
ENDMDL
MODEL 8
REMARK VINA RESULT:      -4.6      1.349      2.379
REMARK  2 active torsions:
REMARK  status: ('A' for Active; 'I' for Inactive)
REMARK    1  A    between atoms: C8_8  and  C10_10 
REMARK    2  A    between atoms: C10_10  and  C11_11 
ROOT
HETATM    1  C1  UNL     1     -37.314  15.317  -7.101  1.00 20.00     0.064 C 
HETATM    2  C2  UNL     1     -36.640  14.331  -4.187  1.00 20.00     0.002 C 
HETATM    3  C3  UNL     1     -36.808  15.757  -4.713  1.00 20.00     0.019 C 
HETATM    4  C4  UNL     1     -34.934  15.704  -6.531  1.00 20.00     0.019 C 
HETATM    5  C5  UNL     1     -35.366  13.595  -4.593  1.00 20.00     0.005 C 
HETATM    6  C6  UNL     1     -33.980  15.672  -5.337  1.00 20.00     0.006 C 
HETATM    7  C7  UNL     1     -36.402  16.012  -6.172  1.00 20.00     0.093 C 
HETATM    8  C8  UNL     1     -34.050  14.382  -4.494  1.00 20.00    -0.014 C 
HETATM    9  N12 UNL     1     -38.031  14.770  -7.831  1.00 20.00    -0.197 NA
ENDROOT
BRANCH   8  10
HETATM   10  C10 UNL     1     -33.676  14.675  -3.039  1.00 20.00     0.004 C 
BRANCH  10  11
HETATM   11  C11 UNL     1     -33.742  16.168  -2.749  1.00 20.00    -0.004 C 
HETATM   12  C9  UNL     1     -34.578  16.447  -1.510  1.00 20.00     0.005 C 
ENDBRANCH  10  11
ENDBRANCH   8  10
TORSDOF 2
ENDMDL
MODEL 9
REMARK VINA RESULT:      -4.5      1.612      1.976
REMARK  2 active torsions:
REMARK  status: ('A' for Active; 'I' for Inactive)
REMARK    1  A    between atoms: C8_8  and  C10_10 
REMARK    2  A    between atoms: C10_10  and  C11_11 
ROOT
HETATM    1  C1  UNL     1     -34.218  16.458  -6.380  1.00 20.00     0.064 C 
HETATM    2  C2  UNL     1     -35.778  17.533  -3.865  1.00 20.00     0.002 C 
HETATM    3  C3  UNL     1     -34.420  17.963  -4.419  1.00 20.00     0.019 C 
HETATM    4  C4  UNL     1     -33.210  15.653  -4.265  1.00 20.00     0.019 C 
HETATM    5  C5  UNL     1     -35.837  16.180  -3.163  1.00 20.00     0.005 C 
HETATM    6  C6  UNL     1     -33.281  15.882  -2.755  1.00 20.00     0.006 C 
HETATM    7  C7  UNL     1     -33.581  16.883  -5.119  1.00 20.00     0.093 C 
HETATM    8  C8  UNL     1     -34.708  15.865  -2.169  1.00 20.00    -0.014 C 
HETATM    9  N12 UNL     1     -34.720  16.124  -7.372  1.00 20.00    -0.197 NA
ENDROOT
BRANCH   8  10
HETATM   10  C10 UNL     1     -34.785  16.756  -0.927  1.00 20.00     0.004 C 
BRANCH  10  11
HETATM   11  C11 UNL     1     -33.568  17.666  -0.832  1.00 20.00    -0.004 C 
HETATM   12  C9  UNL     1     -33.984  19.115  -0.637  1.00 20.00     0.005 C 
ENDBRANCH  10  11
ENDBRANCH   8  10
TORSDOF 2
ENDMDL
