MODEL 1
REMARK VINA RESULT:      -5.0      0.000      0.000
REMARK  1 active torsions:
REMARK  status: ('A' for Active; 'I' for Inactive)
REMARK    1  A    between atoms: C3_3  and  C8_8 
ROOT
HETATM    1  C1  UNL     1     -34.752  16.344  -1.411  1.00 20.00     0.022 A 
HETATM    2  C2  UNL     1     -33.717  17.973  -2.708  1.00 20.00     0.057 A 
HETATM    3  C3  UNL     1     -34.227  16.693  -2.689  1.00 20.00    -0.046 A 
HETATM    4  C4  UNL     1     -34.622  17.371  -0.502  1.00 20.00    -0.021 A 
HETATM    5  C10 UNL     1     -35.040  17.402   0.917  1.00 20.00     0.056 C 
HETATM    6  S11 UNL     1     -33.872  18.749  -1.189  1.00 20.00    -0.106 SA
ENDROOT
BRANCH   3   7
HETATM    7  C8  UNL     1     -34.231  15.764  -3.886  1.00 20.00     0.020 C 
HETATM    8  C5  UNL     1     -33.766  14.333  -3.570  1.00 20.00     0.010 C 
HETATM    9  C6  UNL     1     -34.325  13.442  -4.684  1.00 20.00     0.016 C 
HETATM   10  C9  UNL     1     -35.348  14.286  -5.434  1.00 20.00     0.058 C 
HETATM   11  C7  UNL     1     -35.586  15.513  -4.565  1.00 20.00     0.025 C 
HETATM   12 BR12 UNL     1     -34.638  14.823  -7.175  1.00 20.00    -0.091 Br
ENDBRANCH   3   7
TORSDOF 1
ENDMDL
MODEL 2
REMARK VINA RESULT:      -4.7      3.426      5.478
REMARK  1 active torsions:
REMARK  status: ('A' for Active; 'I' for Inactive)
REMARK    1  A    between atoms: C3_3  and  C8_8 
ROOT
HETATM    1  C1  UNL     1     -34.376  14.855  -2.909  1.00 20.00     0.022 A 
HETATM    2  C2  UNL     1     -36.271  16.185  -3.116  1.00 20.00     0.057 A 
HETATM    3  C3  UNL     1     -35.154  15.913  -2.358  1.00 20.00    -0.046 A 
HETATM    4  C4  UNL     1     -34.930  14.357  -4.068  1.00 20.00    -0.021 A 
HETATM    5  C10 UNL     1     -34.429  13.264  -4.932  1.00 20.00     0.056 C 
HETATM    6  S11 UNL     1     -36.380  15.164  -4.488  1.00 20.00    -0.106 SA
ENDROOT
BRANCH   3   7
HETATM    7  C8  UNL     1     -34.793  16.654  -1.087  1.00 20.00     0.020 C 
HETATM    8  C5  UNL     1     -33.443  17.388  -1.150  1.00 20.00     0.010 C 
HETATM    9  C6  UNL     1     -33.489  18.470  -0.066  1.00 20.00     0.016 C 
HETATM   10  C9  UNL     1     -34.941  18.563   0.384  1.00 20.00     0.058 C 
HETATM   11  C7  UNL     1     -35.743  17.779  -0.645  1.00 20.00     0.025 C 
HETATM   12 BR12 UNL     1     -35.154  17.763   2.156  1.00 20.00    -0.091 Br
ENDBRANCH   3   7
TORSDOF 1
ENDMDL
MODEL 3
REMARK VINA RESULT:      -4.6      3.304      5.434
REMARK  1 active torsions:
REMARK  status: ('A' for Active; 'I' for Inactive)
REMARK    1  A    between atoms: C3_3  and  C8_8 
ROOT
HETATM    1  C1  UNL     1     -34.466  15.149  -2.671  1.00 20.00     0.022 A 
HETATM    2  C2  UNL     1     -33.700  17.192  -3.473  1.00 20.00     0.057 A 
HETATM    3  C3  UNL     1     -34.121  16.496  -2.362  1.00 20.00    -0.046 A 
HETATM    4  C4  UNL     1     -34.295  14.866  -4.009  1.00 20.00    -0.021 A 
HETATM    5  C10 UNL     1     -34.541  13.592  -4.720  1.00 20.00     0.056 C 
HETATM    6  S11 UNL     1     -33.721  16.221  -4.885  1.00 20.00    -0.106 SA
ENDROOT
BRANCH   3   7
HETATM    7  C8  UNL     1     -34.208  17.092  -0.972  1.00 20.00     0.020 C 
HETATM    8  C5  UNL     1     -33.095  18.103  -0.652  1.00 20.00     0.010 C 
HETATM    9  C6  UNL     1     -33.615  18.968   0.499  1.00 20.00     0.016 C 
HETATM   10  C9  UNL     1     -35.105  18.673   0.618  1.00 20.00     0.058 C 
HETATM   11  C7  UNL     1     -35.473  17.901  -0.641  1.00 20.00     0.025 C 
HETATM   12 BR12 UNL     1     -35.456  17.583   2.202  1.00 20.00    -0.091 Br
ENDBRANCH   3   7
TORSDOF 1
ENDMDL
MODEL 4
REMARK VINA RESULT:      -4.6      1.451      2.043
REMARK  1 active torsions:
REMARK  status: ('A' for Active; 'I' for Inactive)
REMARK    1  A    between atoms: C3_3  and  C8_8 
ROOT
HETATM    1  C1  UNL     1     -34.815  17.020  -0.089  1.00 20.00     0.022 A 
HETATM    2  C2  UNL     1     -33.331  18.147  -1.479  1.00 20.00     0.057 A 
HETATM    3  C3  UNL     1     -34.242  17.117  -1.390  1.00 20.00    -0.046 A 
HETATM    4  C4  UNL     1     -34.320  17.979   0.767  1.00 20.00    -0.021 A 
HETATM    5  C10 UNL     1     -34.660  18.208   2.188  1.00 20.00     0.056 C 
HETATM    6  S11 UNL     1     -33.169  18.991   0.003  1.00 20.00    -0.106 SA
ENDROOT
BRANCH   3   7
HETATM    7  C8  UNL     1     -34.594  16.196  -2.540  1.00 20.00     0.020 C 
HETATM    8  C5  UNL     1     -35.609  16.789  -3.530  1.00 20.00     0.010 C 
HETATM    9  C6  UNL     1     -35.440  16.011  -4.839  1.00 20.00     0.016 C 
HETATM   10  C9  UNL     1     -34.147  15.217  -4.702  1.00 20.00     0.058 C 
HETATM   11  C7  UNL     1     -33.446  15.782  -3.474  1.00 20.00     0.025 C 
HETATM   12 BR12 UNL     1     -34.542  13.320  -4.438  1.00 20.00    -0.091 Br
ENDBRANCH   3   7
TORSDOF 1
ENDMDL
MODEL 5
REMARK VINA RESULT:      -4.5     13.568     14.891
REMARK  1 active torsions:
REMARK  status: ('A' for Active; 'I' for Inactive)
REMARK    1  A    between atoms: C3_3  and  C8_8 
ROOT
HETATM    1  C1  UNL     1     -41.293   4.267  -1.446  1.00 20.00     0.022 A 
HETATM    2  C2  UNL     1     -42.727   5.217  -3.010  1.00 20.00     0.057 A 
HETATM    3  C3  UNL     1     -42.170   4.045  -2.546  1.00 20.00    -0.046 A 
HETATM    4  C4  UNL     1     -41.213   5.601  -1.110  1.00 20.00    -0.021 A 
HETATM    5  C10 UNL     1     -40.418   6.234  -0.035  1.00 20.00     0.056 C 
HETATM    6  S11 UNL     1     -42.192   6.579  -2.119  1.00 20.00    -0.106 SA
ENDROOT
BRANCH   3   7
HETATM    7  C8  UNL     1     -42.456   2.680  -3.137  1.00 20.00     0.020 C 
HETATM    8  C5  UNL     1     -43.417   2.704  -4.336  1.00 20.00     0.010 C 
HETATM    9  C6  UNL     1     -43.176   1.404  -5.110  1.00 20.00     0.016 C 
HETATM   10  C9  UNL     1     -41.889   0.807  -4.552  1.00 20.00     0.058 C 
HETATM   11  C7  UNL     1     -41.258   1.906  -3.709  1.00 20.00     0.025 C 
HETATM   12 BR12 UNL     1     -42.293  -0.749  -3.438  1.00 20.00    -0.091 Br
ENDBRANCH   3   7
TORSDOF 1
ENDMDL
MODEL 6
REMARK VINA RESULT:      -4.5      3.220      5.477
REMARK  1 active torsions:
REMARK  status: ('A' for Active; 'I' for Inactive)
REMARK    1  A    between atoms: C3_3  and  C8_8 
ROOT
HETATM    1  C1  UNL     1     -34.279  16.131  -5.055  1.00 20.00     0.022 A 
HETATM    2  C2  UNL     1     -34.335  14.573  -3.331  1.00 20.00     0.057 A 
HETATM    3  C3  UNL     1     -34.220  15.908  -3.649  1.00 20.00    -0.046 A 
HETATM    4  C4  UNL     1     -34.435  14.957  -5.759  1.00 20.00    -0.021 A 
HETATM    5  C10 UNL     1     -34.538  14.768  -7.222  1.00 20.00     0.056 C 
HETATM    6  S11 UNL     1     -34.512  13.593  -4.726  1.00 20.00    -0.106 SA
ENDROOT
BRANCH   3   7
HETATM    7  C8  UNL     1     -34.052  17.011  -2.625  1.00 20.00     0.020 C 
HETATM    8  C5  UNL     1     -34.984  18.215  -2.841  1.00 20.00     0.010 C 
HETATM    9  C6  UNL     1     -35.075  18.938  -1.494  1.00 20.00     0.016 C 
HETATM   10  C9  UNL     1     -34.476  17.993  -0.460  1.00 20.00     0.058 C 
HETATM   11  C7  UNL     1     -34.342  16.648  -1.160  1.00 20.00     0.025 C 
HETATM   12 BR12 UNL     1     -32.717  18.636   0.105  1.00 20.00    -0.091 Br
ENDBRANCH   3   7
TORSDOF 1
ENDMDL
MODEL 7
REMARK VINA RESULT:      -4.4     13.319     15.074
REMARK  1 active torsions:
REMARK  status: ('A' for Active; 'I' for Inactive)
REMARK    1  A    between atoms: C3_3  and  C8_8 
ROOT
HETATM    1  C1  UNL     1     -41.541   2.393  -2.960  1.00 20.00     0.022 A 
HETATM    2  C2  UNL     1     -43.417   3.349  -3.944  1.00 20.00     0.057 A 
HETATM    3  C3  UNL     1     -42.437   3.500  -2.988  1.00 20.00    -0.046 A 
HETATM    4  C4  UNL     1     -41.871   1.437  -3.897  1.00 20.00    -0.021 A 
HETATM    5  C10 UNL     1     -41.193   0.153  -4.179  1.00 20.00     0.056 C 
HETATM    6  S11 UNL     1     -43.255   1.876  -4.804  1.00 20.00    -0.106 SA
ENDROOT
BRANCH   3   7
HETATM    7  C8  UNL     1     -42.324   4.701  -2.073  1.00 20.00     0.020 C 
HETATM    8  C5  UNL     1     -41.053   4.713  -1.207  1.00 20.00     0.010 C 
HETATM    9  C6  UNL     1     -40.833   6.168  -0.783  1.00 20.00     0.016 C 
HETATM   10  C9  UNL     1     -41.764   7.011  -1.646  1.00 20.00     0.058 C 
HETATM   11  C7  UNL     1     -42.260   6.082  -2.745  1.00 20.00     0.025 C 
HETATM   12 BR12 UNL     1     -43.271   7.660  -0.582  1.00 20.00    -0.091 Br
ENDBRANCH   3   7
TORSDOF 1
ENDMDL
MODEL 8
REMARK VINA RESULT:      -4.3     13.996     15.813
REMARK  1 active torsions:
REMARK  status: ('A' for Active; 'I' for Inactive)
REMARK    1  A    between atoms: C3_3  and  C8_8 
ROOT
HETATM    1  C1  UNL     1     -41.689   1.720  -3.144  1.00 20.00     0.022 A 
HETATM    2  C2  UNL     1     -43.417   2.909  -4.147  1.00 20.00     0.057 A 
HETATM    3  C3  UNL     1     -42.471   2.911  -3.146  1.00 20.00    -0.046 A 
HETATM    4  C4  UNL     1     -42.069   0.852  -4.145  1.00 20.00    -0.021 A 
HETATM    5  C10 UNL     1     -41.508  -0.478  -4.472  1.00 20.00     0.056 C 
HETATM    6  S11 UNL     1     -43.361   1.474  -5.080  1.00 20.00    -0.106 SA
ENDROOT
BRANCH   3   7
HETATM    7  C8  UNL     1     -42.282   4.047  -2.161  1.00 20.00     0.020 C 
HETATM    8  C5  UNL     1     -43.120   3.911  -0.879  1.00 20.00     0.010 C 
HETATM    9  C6  UNL     1     -42.437   4.786   0.177  1.00 20.00     0.016 C 
HETATM   10  C9  UNL     1     -41.071   5.153  -0.389  1.00 20.00     0.058 C 
HETATM   11  C7  UNL     1     -40.867   4.245  -1.593  1.00 20.00     0.025 C 
HETATM   12 BR12 UNL     1     -41.050   7.027  -0.946  1.00 20.00    -0.091 Br
ENDBRANCH   3   7
TORSDOF 1
ENDMDL
MODEL 9
REMARK VINA RESULT:      -4.2      1.790      2.248
REMARK  1 active torsions:
REMARK  status: ('A' for Active; 'I' for Inactive)
REMARK    1  A    between atoms: C3_3  and  C8_8 
ROOT
HETATM    1  C1  UNL     1     -33.980  17.809  -3.289  1.00 20.00     0.022 A 
HETATM    2  C2  UNL     1     -35.099  15.956  -2.441  1.00 20.00     0.057 A 
HETATM    3  C3  UNL     1     -34.728  16.632  -3.582  1.00 20.00    -0.046 A 
HETATM    4  C4  UNL     1     -33.806  17.986  -1.934  1.00 20.00    -0.021 A 
HETATM    5  C10 UNL     1     -33.093  19.076  -1.232  1.00 20.00     0.056 C 
HETATM    6  S11 UNL     1     -34.544  16.739  -1.021  1.00 20.00    -0.106 SA
ENDROOT
BRANCH   3   7
HETATM    7  C8  UNL     1     -35.075  16.180  -4.985  1.00 20.00     0.020 C 
HETATM    8  C5  UNL     1     -33.875  16.136  -5.945  1.00 20.00     0.010 C 
HETATM    9  C6  UNL     1     -34.266  15.189  -7.083  1.00 20.00     0.016 C 
HETATM   10  C9  UNL     1     -35.523  14.461  -6.622  1.00 20.00     0.058 C 
HETATM   11  C7  UNL     1     -35.649  14.762  -5.135  1.00 20.00     0.025 C 
HETATM   12 BR12 UNL     1     -37.087  15.136  -7.581  1.00 20.00    -0.091 Br
ENDBRANCH   3   7
TORSDOF 1
ENDMDL
