MODEL 1
REMARK VINA RESULT:      -4.8      0.000      0.000
REMARK  2 active torsions:
REMARK  status: ('A' for Active; 'I' for Inactive)
REMARK    1  A    between atoms: C4_4  and  C9_9 
REMARK    2  A    between atoms: C5_5  and  S11_11 
ROOT
HETATM    1  C1  UNL     1     -34.842  13.844  -4.455  1.00 20.00     0.080 C 
HETATM    2  C2  UNL     1     -33.466  15.854  -3.716  1.00 20.00     0.041 C 
HETATM    3  C3  UNL     1     -35.496  15.841  -3.017  1.00 20.00     0.041 C 
HETATM    4  C4  UNL     1     -34.116  15.834  -2.307  1.00 20.00    -0.006 C 
HETATM    5  C5  UNL     1     -34.791  15.277  -4.277  1.00 20.00     0.097 C 
HETATM    6  N10 UNL     1     -34.884  12.693  -4.598  1.00 20.00    -0.196 NA
ENDROOT
BRANCH   5   7
HETATM    7  S11 UNL     1     -35.324  16.120  -5.808  1.00 20.00    -0.148 SA
HETATM    8  C8  UNL     1     -34.386  15.120  -6.984  1.00 20.00     0.091 C 
ENDBRANCH   5   7
BRANCH   4   9
HETATM    9  C9  UNL     1     -33.813  17.012  -1.405  1.00 20.00    -0.019 C 
HETATM   10  C6  UNL     1     -33.848  18.327  -2.190  1.00 20.00     0.010 C 
HETATM   11  C7  UNL     1     -34.796  17.072  -0.232  1.00 20.00     0.010 C 
ENDBRANCH   4   9
TORSDOF 2
ENDMDL
MODEL 2
REMARK VINA RESULT:      -4.5      0.942      1.381
REMARK  2 active torsions:
REMARK  status: ('A' for Active; 'I' for Inactive)
REMARK    1  A    between atoms: C4_4  and  C9_9 
REMARK    2  A    between atoms: C5_5  and  S11_11 
ROOT
HETATM    1  C1  UNL     1     -34.773  14.046  -3.932  1.00 20.00     0.080 C 
HETATM    2  C2  UNL     1     -33.598  16.080  -2.951  1.00 20.00     0.041 C 
HETATM    3  C3  UNL     1     -35.743  16.165  -2.905  1.00 20.00     0.041 C 
HETATM    4  C4  UNL     1     -34.644  16.186  -1.809  1.00 20.00    -0.006 C 
HETATM    5  C5  UNL     1     -34.715  15.488  -3.847  1.00 20.00     0.097 C 
HETATM    6  N10 UNL     1     -34.820  12.889  -4.001  1.00 20.00    -0.196 NA
ENDROOT
BRANCH   5   7
HETATM    7  S11 UNL     1     -34.723  16.218  -5.522  1.00 20.00    -0.148 SA
HETATM    8  C8  UNL     1     -35.983  15.150  -6.254  1.00 20.00     0.091 C 
ENDBRANCH   5   7
BRANCH   4   9
HETATM    9  C9  UNL     1     -34.577  17.426  -0.942  1.00 20.00    -0.019 C 
HETATM   10  C6  UNL     1     -35.059  17.126   0.482  1.00 20.00     0.010 C 
HETATM   11  C7  UNL     1     -33.157  17.996  -0.909  1.00 20.00     0.010 C 
ENDBRANCH   4   9
TORSDOF 2
ENDMDL
MODEL 3
REMARK VINA RESULT:      -4.5      1.370      1.496
REMARK  2 active torsions:
REMARK  status: ('A' for Active; 'I' for Inactive)
REMARK    1  A    between atoms: C4_4  and  C9_9 
REMARK    2  A    between atoms: C5_5  and  S11_11 
ROOT
HETATM    1  C1  UNL     1     -36.665  14.887  -3.773  1.00 20.00     0.080 C 
HETATM    2  C2  UNL     1     -34.376  15.350  -2.760  1.00 20.00     0.041 C 
HETATM    3  C3  UNL     1     -35.647  17.071  -2.949  1.00 20.00     0.041 C 
HETATM    4  C4  UNL     1     -34.983  16.354  -1.743  1.00 20.00    -0.006 C 
HETATM    5  C5  UNL     1     -35.505  15.748  -3.745  1.00 20.00     0.097 C 
HETATM    6  N10 UNL     1     -37.597  14.197  -3.797  1.00 20.00    -0.196 NA
ENDROOT
BRANCH   5   7
HETATM    7  S11 UNL     1     -34.882  16.021  -5.442  1.00 20.00    -0.148 SA
HETATM    8  C8  UNL     1     -34.943  14.307  -6.008  1.00 20.00     0.091 C 
ENDBRANCH   5   7
BRANCH   4   9
HETATM    9  C9  UNL     1     -34.001  17.170  -0.928  1.00 20.00    -0.019 C 
HETATM   10  C6  UNL     1     -33.532  18.402  -1.708  1.00 20.00     0.010 C 
HETATM   11  C7  UNL     1     -34.616  17.594   0.408  1.00 20.00     0.010 C 
ENDBRANCH   4   9
TORSDOF 2
ENDMDL
MODEL 4
REMARK VINA RESULT:      -4.2      1.835      2.622
REMARK  2 active torsions:
REMARK  status: ('A' for Active; 'I' for Inactive)
REMARK    1  A    between atoms: C4_4  and  C9_9 
REMARK    2  A    between atoms: C5_5  and  S11_11 
ROOT
HETATM    1  C1  UNL     1     -33.899  15.299  -3.302  1.00 20.00     0.080 C 
HETATM    2  C2  UNL     1     -33.867  17.754  -2.629  1.00 20.00     0.041 C 
HETATM    3  C3  UNL     1     -34.717  16.428  -1.171  1.00 20.00     0.041 C 
HETATM    4  C4  UNL     1     -33.501  17.392  -1.165  1.00 20.00    -0.006 C 
HETATM    5  C5  UNL     1     -34.624  16.405  -2.718  1.00 20.00     0.097 C 
HETATM    6  N10 UNL     1     -33.317  14.411  -3.771  1.00 20.00    -0.196 NA
ENDROOT
BRANCH   5   7
HETATM    7  S11 UNL     1     -36.259  16.575  -3.515  1.00 20.00    -0.148 SA
HETATM    8  C8  UNL     1     -36.644  14.817  -3.673  1.00 20.00     0.091 C 
ENDBRANCH   5   7
BRANCH   4   9
HETATM    9  C9  UNL     1     -33.539  18.522  -0.158  1.00 20.00    -0.019 C 
HETATM   10  C6  UNL     1     -34.397  18.148   1.054  1.00 20.00     0.010 C 
HETATM   11  C7  UNL     1     -32.126  18.902   0.294  1.00 20.00     0.010 C 
ENDBRANCH   4   9
TORSDOF 2
ENDMDL
MODEL 5
REMARK VINA RESULT:      -4.0      1.749      1.936
REMARK  2 active torsions:
REMARK  status: ('A' for Active; 'I' for Inactive)
REMARK    1  A    between atoms: C4_4  and  C9_9 
REMARK    2  A    between atoms: C5_5  and  S11_11 
ROOT
HETATM    1  C1  UNL     1     -34.721  15.260  -5.528  1.00 20.00     0.080 C 
HETATM    2  C2  UNL     1     -35.160  16.944  -3.670  1.00 20.00     0.041 C 
HETATM    3  C3  UNL     1     -34.288  15.092  -3.024  1.00 20.00     0.041 C 
HETATM    4  C4  UNL     1     -33.830  16.573  -2.962  1.00 20.00    -0.006 C 
HETATM    5  C5  UNL     1     -35.226  15.487  -4.193  1.00 20.00     0.097 C 
HETATM    6  N10 UNL     1     -34.316  15.077  -6.599  1.00 20.00    -0.196 NA
ENDROOT
BRANCH   5   7
HETATM    7  S11 UNL     1     -36.895  14.760  -4.020  1.00 20.00    -0.148 SA
HETATM    8  C8  UNL     1     -37.584  15.344  -5.584  1.00 20.00     0.091 C 
ENDBRANCH   5   7
BRANCH   4   9
HETATM    9  C9  UNL     1     -33.612  17.157  -1.581  1.00 20.00    -0.019 C 
HETATM   10  C6  UNL     1     -33.521  18.685  -1.640  1.00 20.00     0.010 C 
HETATM   11  C7  UNL     1     -34.729  16.732  -0.624  1.00 20.00     0.010 C 
ENDBRANCH   4   9
TORSDOF 2
ENDMDL
MODEL 6
REMARK VINA RESULT:      -4.0      1.859      2.367
REMARK  2 active torsions:
REMARK  status: ('A' for Active; 'I' for Inactive)
REMARK    1  A    between atoms: C4_4  and  C9_9 
REMARK    2  A    between atoms: C5_5  and  S11_11 
ROOT
HETATM    1  C1  UNL     1     -36.393  14.790  -3.559  1.00 20.00     0.080 C 
HETATM    2  C2  UNL     1     -34.851  15.899  -1.864  1.00 20.00     0.041 C 
HETATM    3  C3  UNL     1     -34.813  16.769  -3.827  1.00 20.00     0.041 C 
HETATM    4  C4  UNL     1     -35.185  17.310  -2.420  1.00 20.00    -0.006 C 
HETATM    5  C5  UNL     1     -35.084  15.340  -3.291  1.00 20.00     0.097 C 
HETATM    6  N10 UNL     1     -37.445  14.349  -3.775  1.00 20.00    -0.196 NA
ENDROOT
BRANCH   5   7
HETATM    7  S11 UNL     1     -33.789  14.153  -3.793  1.00 20.00    -0.148 SA
HETATM    8  C8  UNL     1     -34.723  13.293  -5.078  1.00 20.00     0.091 C 
ENDBRANCH   5   7
BRANCH   4   9
HETATM    9  C9  UNL     1     -34.351  18.459  -1.895  1.00 20.00    -0.019 C 
HETATM   10  C6  UNL     1     -33.381  17.982  -0.809  1.00 20.00     0.010 C 
HETATM   11  C7  UNL     1     -33.580  19.141  -3.029  1.00 20.00     0.010 C 
ENDBRANCH   4   9
TORSDOF 2
ENDMDL
MODEL 7
REMARK VINA RESULT:      -4.0      1.764      2.456
REMARK  2 active torsions:
REMARK  status: ('A' for Active; 'I' for Inactive)
REMARK    1  A    between atoms: C4_4  and  C9_9 
REMARK    2  A    between atoms: C5_5  and  S11_11 
ROOT
HETATM    1  C1  UNL     1     -34.231  16.117  -5.044  1.00 20.00     0.080 C 
HETATM    2  C2  UNL     1     -35.391  17.418  -3.188  1.00 20.00     0.041 C 
HETATM    3  C3  UNL     1     -33.927  15.997  -2.519  1.00 20.00     0.041 C 
HETATM    4  C4  UNL     1     -34.067  17.537  -2.387  1.00 20.00    -0.006 C 
HETATM    5  C5  UNL     1     -34.869  16.070  -3.748  1.00 20.00     0.097 C 
HETATM    6  N10 UNL     1     -33.719  16.154  -6.085  1.00 20.00    -0.196 NA
ENDROOT
BRANCH   5   7
HETATM    7  S11 UNL     1     -36.147  14.764  -3.723  1.00 20.00    -0.148 SA
HETATM    8  C8  UNL     1     -35.134  13.412  -4.363  1.00 20.00     0.091 C 
ENDBRANCH   5   7
BRANCH   4   9
HETATM    9  C9  UNL     1     -34.174  18.089  -0.981  1.00 20.00    -0.019 C 
HETATM   10  C6  UNL     1     -34.823  17.069  -0.039  1.00 20.00     0.010 C 
HETATM   11  C7  UNL     1     -32.800  18.500  -0.446  1.00 20.00     0.010 C 
ENDBRANCH   4   9
TORSDOF 2
ENDMDL
MODEL 8
REMARK VINA RESULT:      -3.9      3.410      5.288
REMARK  2 active torsions:
REMARK  status: ('A' for Active; 'I' for Inactive)
REMARK    1  A    between atoms: C4_4  and  C9_9 
REMARK    2  A    between atoms: C5_5  and  S11_11 
ROOT
HETATM    1  C1  UNL     1     -32.729  18.634  -0.526  1.00 20.00     0.080 C 
HETATM    2  C2  UNL     1     -34.304  16.707  -1.061  1.00 20.00     0.041 C 
HETATM    3  C3  UNL     1     -33.974  18.081  -2.677  1.00 20.00     0.041 C 
HETATM    4  C4  UNL     1     -33.711  16.563  -2.488  1.00 20.00    -0.006 C 
HETATM    5  C5  UNL     1     -33.973  18.219  -1.134  1.00 20.00     0.097 C 
HETATM    6  N10 UNL     1     -31.730  18.968  -0.039  1.00 20.00    -0.196 NA
ENDROOT
BRANCH   5   7
HETATM    7  S11 UNL     1     -35.347  19.262  -0.529  1.00 20.00    -0.148 SA
HETATM    8  C8  UNL     1     -34.919  19.246   1.226  1.00 20.00     0.091 C 
ENDBRANCH   5   7
BRANCH   4   9
HETATM    9  C9  UNL     1     -34.437  15.627  -3.432  1.00 20.00    -0.019 C 
HETATM   10  C6  UNL     1     -33.772  14.247  -3.455  1.00 20.00     0.010 C 
HETATM   11  C7  UNL     1     -35.913  15.495  -3.045  1.00 20.00     0.010 C 
ENDBRANCH   4   9
TORSDOF 2
ENDMDL
MODEL 9
REMARK VINA RESULT:      -3.9      1.717      4.577
REMARK  2 active torsions:
REMARK  status: ('A' for Active; 'I' for Inactive)
REMARK    1  A    between atoms: C4_4  and  C9_9 
REMARK    2  A    between atoms: C5_5  and  S11_11 
ROOT
HETATM    1  C1  UNL     1     -33.718  14.031  -3.889  1.00 20.00     0.080 C 
HETATM    2  C2  UNL     1     -35.556  14.408  -5.610  1.00 20.00     0.041 C 
HETATM    3  C3  UNL     1     -34.096  15.977  -5.487  1.00 20.00     0.041 C 
HETATM    4  C4  UNL     1     -34.545  15.015  -6.619  1.00 20.00    -0.006 C 
HETATM    5  C5  UNL     1     -34.665  14.958  -4.467  1.00 20.00     0.097 C 
HETATM    6  N10 UNL     1     -32.958  13.289  -3.424  1.00 20.00    -0.196 NA
ENDROOT
BRANCH   5   7
HETATM    7  S11 UNL     1     -35.641  15.764  -3.150  1.00 20.00    -0.148 SA
HETATM    8  C8  UNL     1     -34.264  16.289  -2.104  1.00 20.00     0.091 C 
ENDBRANCH   5   7
BRANCH   4   9
HETATM    9  C9  UNL     1     -35.130  15.656  -7.860  1.00 20.00    -0.019 C 
HETATM   10  C6  UNL     1     -36.647  15.456  -7.918  1.00 20.00     0.010 C 
HETATM   11  C7  UNL     1     -34.792  17.149  -7.918  1.00 20.00     0.010 C 
ENDBRANCH   4   9
TORSDOF 2
ENDMDL
