MODEL 1
REMARK VINA RESULT:      -5.4      0.000      0.000
REMARK  1 active torsions:
REMARK  status: ('A' for Active; 'I' for Inactive)
REMARK    1  A    between atoms: C8_8  and  C11_11 
ROOT
HETATM    1  C1  UNL     1     -34.503  13.882  -3.972  1.00 20.00     0.064 C 
HETATM    2  C2  UNL     1     -33.491  17.581  -4.090  1.00 20.00     0.002 C 
HETATM    3  C3  UNL     1     -34.136  16.252  -4.471  1.00 20.00     0.019 C 
HETATM    4  C4  UNL     1     -35.146  15.517  -2.259  1.00 20.00     0.019 C 
HETATM    5  C5  UNL     1     -34.063  18.267  -2.850  1.00 20.00     0.005 C 
HETATM    6  C6  UNL     1     -34.619  16.422  -1.146  1.00 20.00     0.006 C 
HETATM    7  C7  UNL     1     -34.140  15.182  -3.367  1.00 20.00     0.093 C 
HETATM    8  C8  UNL     1     -33.669  17.562  -1.546  1.00 20.00    -0.011 C 
HETATM    9  N12 UNL     1     -34.787  12.862  -4.447  1.00 20.00    -0.197 NA
ENDROOT
BRANCH   8  10
HETATM   10  C11 UNL     1     -33.593  18.574  -0.395  1.00 20.00    -0.019 C 
HETATM   11  C9  UNL     1     -34.381  18.069   0.808  1.00 20.00     0.010 C 
HETATM   12  C10 UNL     1     -32.140  18.839  -0.019  1.00 20.00     0.010 C 
ENDBRANCH   8  10
TORSDOF 1
ENDMDL
MODEL 2
REMARK VINA RESULT:      -4.9      1.876      3.109
REMARK  1 active torsions:
REMARK  status: ('A' for Active; 'I' for Inactive)
REMARK    1  A    between atoms: C8_8  and  C11_11 
ROOT
HETATM    1  C1  UNL     1     -36.144  14.916  -6.773  1.00 20.00     0.064 C 
HETATM    2  C2  UNL     1     -33.871  13.812  -3.886  1.00 20.00     0.002 C 
HETATM    3  C3  UNL     1     -34.434  13.972  -5.295  1.00 20.00     0.019 C 
HETATM    4  C4  UNL     1     -34.832  16.478  -5.409  1.00 20.00     0.019 C 
HETATM    5  C5  UNL     1     -33.241  15.063  -3.275  1.00 20.00     0.005 C 
HETATM    6  C6  UNL     1     -34.671  17.072  -4.011  1.00 20.00     0.006 C 
HETATM    7  C7  UNL     1     -35.477  15.087  -5.464  1.00 20.00     0.093 C 
HETATM    8  C8  UNL     1     -34.282  16.115  -2.873  1.00 20.00    -0.011 C 
HETATM    9  N12 UNL     1     -36.667  14.780  -7.800  1.00 20.00    -0.197 NA
ENDROOT
BRANCH   8  10
HETATM   10  C11 UNL     1     -33.774  16.938  -1.681  1.00 20.00    -0.019 C 
HETATM   11  C9  UNL     1     -33.614  18.402  -2.078  1.00 20.00     0.010 C 
HETATM   12  C10 UNL     1     -34.723  16.798  -0.497  1.00 20.00     0.010 C 
ENDBRANCH   8  10
TORSDOF 1
ENDMDL
MODEL 3
REMARK VINA RESULT:      -4.9      2.043      2.727
REMARK  1 active torsions:
REMARK  status: ('A' for Active; 'I' for Inactive)
REMARK    1  A    between atoms: C8_8  and  C11_11 
ROOT
HETATM    1  C1  UNL     1     -38.051  14.680  -4.017  1.00 20.00     0.064 C 
HETATM    2  C2  UNL     1     -34.284  14.477  -3.315  1.00 20.00     0.002 C 
HETATM    3  C3  UNL     1     -35.615  14.419  -4.058  1.00 20.00     0.019 C 
HETATM    4  C4  UNL     1     -36.689  16.614  -3.361  1.00 20.00     0.019 C 
HETATM    5  C5  UNL     1     -33.800  15.872  -2.923  1.00 20.00     0.005 C 
HETATM    6  C6  UNL     1     -35.872  17.228  -2.225  1.00 20.00     0.006 C 
HETATM    7  C7  UNL     1     -36.800  15.084  -3.339  1.00 20.00     0.093 C 
HETATM    8  C8  UNL     1     -34.611  16.479  -1.770  1.00 20.00    -0.011 C 
HETATM    9  N12 UNL     1     -39.032  14.362  -4.550  1.00 20.00    -0.197 NA
ENDROOT
BRANCH   8  10
HETATM   10  C11 UNL     1     -33.734  17.432  -0.948  1.00 20.00    -0.019 C 
HETATM   11  C9  UNL     1     -33.427  18.694  -1.748  1.00 20.00     0.010 C 
HETATM   12  C10 UNL     1     -34.418  17.778   0.369  1.00 20.00     0.010 C 
ENDBRANCH   8  10
TORSDOF 1
ENDMDL
MODEL 4
REMARK VINA RESULT:      -4.7      2.642      5.512
REMARK  1 active torsions:
REMARK  status: ('A' for Active; 'I' for Inactive)
REMARK    1  A    between atoms: C8_8  and  C11_11 
ROOT
HETATM    1  C1  UNL     1     -34.390  16.510  -1.607  1.00 20.00     0.064 C 
HETATM    2  C2  UNL     1     -34.033  13.665  -4.156  1.00 20.00     0.002 C 
HETATM    3  C3  UNL     1     -34.403  14.419  -2.883  1.00 20.00     0.019 C 
HETATM    4  C4  UNL     1     -35.446  16.536  -3.822  1.00 20.00     0.019 C 
HETATM    5  C5  UNL     1     -34.815  14.053  -5.411  1.00 20.00     0.005 C 
HETATM    6  C6  UNL     1     -35.176  16.599  -5.325  1.00 20.00     0.006 C 
HETATM    7  C7  UNL     1     -34.310  15.950  -2.973  1.00 20.00     0.093 C 
HETATM    8  C8  UNL     1     -34.411  15.428  -5.960  1.00 20.00    -0.011 C 
HETATM    9  N12 UNL     1     -34.452  16.948  -0.534  1.00 20.00    -0.197 NA
ENDROOT
BRANCH   8  10
HETATM   10  C11 UNL     1     -34.606  15.471  -7.481  1.00 20.00    -0.019 C 
HETATM   11  C9  UNL     1     -35.607  14.406  -7.918  1.00 20.00     0.010 C 
HETATM   12  C10 UNL     1     -35.064  16.857  -7.918  1.00 20.00     0.010 C 
ENDBRANCH   8  10
TORSDOF 1
ENDMDL
MODEL 5
REMARK VINA RESULT:      -4.6      2.719      5.097
REMARK  1 active torsions:
REMARK  status: ('A' for Active; 'I' for Inactive)
REMARK    1  A    between atoms: C8_8  and  C11_11 
ROOT
HETATM    1  C1  UNL     1     -34.155  17.757  -0.033  1.00 20.00     0.064 C 
HETATM    2  C2  UNL     1     -36.923  17.318  -2.652  1.00 20.00     0.002 C 
HETATM    3  C3  UNL     1     -35.900  17.983  -1.736  1.00 20.00     0.019 C 
HETATM    4  C4  UNL     1     -33.836  16.563  -2.153  1.00 20.00     0.019 C 
HETATM    5  C5  UNL     1     -36.349  16.513  -3.817  1.00 20.00     0.005 C 
HETATM    6  C6  UNL     1     -34.237  15.324  -2.953  1.00 20.00     0.006 C 
HETATM    7  C7  UNL     1     -34.861  17.037  -1.115  1.00 20.00     0.093 C 
HETATM    8  C8  UNL     1     -35.711  15.192  -3.368  1.00 20.00    -0.011 C 
HETATM    9  N12 UNL     1     -33.601  18.322   0.817  1.00 20.00    -0.197 NA
ENDROOT
BRANCH   8  10
HETATM   10  C11 UNL     1     -35.823  14.141  -4.480  1.00 20.00    -0.019 C 
HETATM   11  C9  UNL     1     -36.020  14.819  -5.832  1.00 20.00     0.010 C 
HETATM   12  C10 UNL     1     -34.587  13.250  -4.494  1.00 20.00     0.010 C 
ENDBRANCH   8  10
TORSDOF 1
ENDMDL
MODEL 6
REMARK VINA RESULT:      -4.6      2.606      5.268
REMARK  1 active torsions:
REMARK  status: ('A' for Active; 'I' for Inactive)
REMARK    1  A    between atoms: C8_8  and  C11_11 
ROOT
HETATM    1  C1  UNL     1     -33.492  17.674  -1.051  1.00 20.00     0.064 C 
HETATM    2  C2  UNL     1     -35.163  14.933  -3.153  1.00 20.00     0.002 C 
HETATM    3  C3  UNL     1     -34.944  15.983  -2.067  1.00 20.00     0.019 C 
HETATM    4  C4  UNL     1     -34.069  17.948  -3.420  1.00 20.00     0.019 C 
HETATM    5  C5  UNL     1     -35.345  15.471  -4.572  1.00 20.00     0.005 C 
HETATM    6  C6  UNL     1     -33.752  17.474  -4.838  1.00 20.00     0.006 C 
HETATM    7  C7  UNL     1     -33.764  16.939  -2.305  1.00 20.00     0.093 C 
HETATM    8  C8  UNL     1     -34.040  16.003  -5.177  1.00 20.00    -0.011 C 
HETATM    9  N12 UNL     1     -33.278  18.249  -0.065  1.00 20.00    -0.197 NA
ENDROOT
BRANCH   8  10
HETATM   10  C11 UNL     1     -34.055  15.837  -6.702  1.00 20.00    -0.019 C 
HETATM   11  C9  UNL     1     -34.910  14.638  -7.097  1.00 20.00     0.010 C 
HETATM   12  C10 UNL     1     -34.564  17.109  -7.369  1.00 20.00     0.010 C 
ENDBRANCH   8  10
TORSDOF 1
ENDMDL
MODEL 7
REMARK VINA RESULT:      -4.5      2.037      2.663
REMARK  1 active torsions:
REMARK  status: ('A' for Active; 'I' for Inactive)
REMARK    1  A    between atoms: C8_8  and  C11_11 
ROOT
HETATM    1  C1  UNL     1     -36.969  15.341  -5.702  1.00 20.00     0.064 C 
HETATM    2  C2  UNL     1     -33.838  14.789  -3.554  1.00 20.00     0.002 C 
HETATM    3  C3  UNL     1     -34.728  14.987  -4.777  1.00 20.00     0.019 C 
HETATM    4  C4  UNL     1     -36.143  16.975  -4.067  1.00 20.00     0.019 C 
HETATM    5  C5  UNL     1     -33.659  16.012  -2.655  1.00 20.00     0.005 C 
HETATM    6  C6  UNL     1     -35.920  17.237  -2.578  1.00 20.00     0.006 C 
HETATM    7  C7  UNL     1     -36.148  15.498  -4.482  1.00 20.00     0.093 C 
HETATM    8  C8  UNL     1     -34.917  16.338  -1.840  1.00 20.00    -0.011 C 
HETATM    9  N12 UNL     1     -37.613  15.217  -6.659  1.00 20.00    -0.197 NA
ENDROOT
BRANCH   8  10
HETATM   10  C11 UNL     1     -34.532  17.006  -0.513  1.00 20.00    -0.019 C 
HETATM   11  C9  UNL     1     -33.313  17.901  -0.704  1.00 20.00     0.010 C 
HETATM   12  C10 UNL     1     -35.708  17.801   0.041  1.00 20.00     0.010 C 
ENDBRANCH   8  10
TORSDOF 1
ENDMDL
MODEL 8
REMARK VINA RESULT:      -4.5      2.607      4.970
REMARK  1 active torsions:
REMARK  status: ('A' for Active; 'I' for Inactive)
REMARK    1  A    between atoms: C8_8  and  C11_11 
ROOT
HETATM    1  C1  UNL     1     -34.955  18.629  -1.127  1.00 20.00     0.064 C 
HETATM    2  C2  UNL     1     -33.704  18.058  -4.709  1.00 20.00     0.002 C 
HETATM    3  C3  UNL     1     -33.792  18.592  -3.283  1.00 20.00     0.019 C 
HETATM    4  C4  UNL     1     -34.164  16.459  -1.955  1.00 20.00     0.019 C 
HETATM    5  C5  UNL     1     -33.317  16.585  -4.845  1.00 20.00     0.005 C 
HETATM    6  C6  UNL     1     -34.463  15.316  -2.924  1.00 20.00     0.006 C 
HETATM    7  C7  UNL     1     -34.741  17.824  -2.349  1.00 20.00     0.093 C 
HETATM    8  C8  UNL     1     -34.445  15.634  -4.427  1.00 20.00    -0.011 C 
HETATM    9  N12 UNL     1     -35.123  19.262  -0.168  1.00 20.00    -0.197 NA
ENDROOT
BRANCH   8  10
HETATM   10  C11 UNL     1     -34.352  14.320  -5.214  1.00 20.00    -0.019 C 
HETATM   11  C9  UNL     1     -34.986  13.182  -4.422  1.00 20.00     0.010 C 
HETATM   12  C10 UNL     1     -35.020  14.470  -6.576  1.00 20.00     0.010 C 
ENDBRANCH   8  10
TORSDOF 1
ENDMDL
MODEL 9
REMARK VINA RESULT:      -4.4      3.695      6.147
REMARK  1 active torsions:
REMARK  status: ('A' for Active; 'I' for Inactive)
REMARK    1  A    between atoms: C8_8  and  C11_11 
ROOT
HETATM    1  C1  UNL     1     -31.645  18.854   3.310  1.00 20.00     0.064 C 
HETATM    2  C2  UNL     1     -35.242  17.802   2.488  1.00 20.00     0.002 C 
HETATM    3  C3  UNL     1     -34.067  18.550   3.112  1.00 20.00     0.019 C 
HETATM    4  C4  UNL     1     -32.636  19.052   1.073  1.00 20.00     0.019 C 
HETATM    5  C5  UNL     1     -35.483  18.062   1.001  1.00 20.00     0.005 C 
HETATM    6  C6  UNL     1     -33.176  18.264  -0.119  1.00 20.00     0.006 C 
HETATM    7  C7  UNL     1     -32.709  18.331   2.426  1.00 20.00     0.093 C 
HETATM    8  C8  UNL     1     -34.427  17.402   0.105  1.00 20.00    -0.011 C 
HETATM    9  N12 UNL     1     -30.809  19.263   4.004  1.00 20.00    -0.197 NA
ENDROOT
BRANCH   8  10
HETATM   10  C11 UNL     1     -35.036  17.042  -1.257  1.00 20.00    -0.019 C 
HETATM   11  C9  UNL     1     -35.665  18.273  -1.898  1.00 20.00     0.010 C 
HETATM   12  C10 UNL     1     -33.975  16.438  -2.168  1.00 20.00     0.010 C 
ENDBRANCH   8  10
TORSDOF 1
ENDMDL
