MODEL 1
REMARK VINA RESULT:      -4.2      0.000      0.000
REMARK  1 active torsions:
REMARK  status: ('A' for Active; 'I' for Inactive)
REMARK    1  A    between atoms: C6_6  and  S9_9 
ROOT
HETATM    1  C1  UNL     1     -37.085  14.541  -3.956  1.00 20.00     0.080 C 
HETATM    2  C2  UNL     1     -33.535  15.204  -3.033  1.00 20.00     0.003 C 
HETATM    3  C3  UNL     1     -33.418  13.896  -3.816  1.00 20.00     0.003 C 
HETATM    4  C4  UNL     1     -35.027  15.530  -2.974  1.00 20.00     0.036 C 
HETATM    5  C5  UNL     1     -34.844  13.497  -4.196  1.00 20.00     0.036 C 
HETATM    6  C6  UNL     1     -35.653  14.798  -4.166  1.00 20.00     0.096 C 
HETATM    7  N8  UNL     1     -38.215  14.339  -3.791  1.00 20.00    -0.196 NA
ENDROOT
BRANCH   6   8
HETATM    8  S9  UNL     1     -35.406  15.748  -5.718  1.00 20.00    -0.148 SA
HETATM    9  C7  UNL     1     -35.436  14.359  -6.872  1.00 20.00     0.091 C 
ENDBRANCH   6   8
TORSDOF 1
ENDMDL
MODEL 2
REMARK VINA RESULT:      -3.9      1.641      2.215
REMARK  1 active torsions:
REMARK  status: ('A' for Active; 'I' for Inactive)
REMARK    1  A    between atoms: C6_6  and  S9_9 
ROOT
HETATM    1  C1  UNL     1     -36.613  14.779  -3.607  1.00 20.00     0.080 C 
HETATM    2  C2  UNL     1     -33.738  17.146  -3.765  1.00 20.00     0.003 C 
HETATM    3  C3  UNL     1     -33.809  16.836  -2.269  1.00 20.00     0.003 C 
HETATM    4  C4  UNL     1     -34.900  16.392  -4.410  1.00 20.00     0.036 C 
HETATM    5  C5  UNL     1     -35.009  15.908  -2.084  1.00 20.00     0.036 C 
HETATM    6  C6  UNL     1     -35.228  15.246  -3.448  1.00 20.00     0.096 C 
HETATM    7  N8  UNL     1     -37.705  14.411  -3.734  1.00 20.00    -0.196 NA
ENDROOT
BRANCH   6   8
HETATM    8  S9  UNL     1     -34.063  13.845  -3.680  1.00 20.00    -0.148 SA
HETATM    9  C7  UNL     1     -34.687  13.258  -5.270  1.00 20.00     0.091 C 
ENDBRANCH   6   8
TORSDOF 1
ENDMDL
MODEL 3
REMARK VINA RESULT:      -3.9      1.782      2.373
REMARK  1 active torsions:
REMARK  status: ('A' for Active; 'I' for Inactive)
REMARK    1  A    between atoms: C6_6  and  S9_9 
ROOT
HETATM    1  C1  UNL     1     -34.705  13.726  -4.505  1.00 20.00     0.080 C 
HETATM    2  C2  UNL     1     -35.193  16.563  -2.138  1.00 20.00     0.003 C 
HETATM    3  C3  UNL     1     -33.675  16.568  -2.326  1.00 20.00     0.003 C 
HETATM    4  C4  UNL     1     -35.717  15.380  -2.950  1.00 20.00     0.036 C 
HETATM    5  C5  UNL     1     -33.357  15.388  -3.245  1.00 20.00     0.036 C 
HETATM    6  C6  UNL     1     -34.651  15.111  -4.017  1.00 20.00     0.096 C 
HETATM    7  N8  UNL     1     -34.749  12.634  -4.891  1.00 20.00    -0.196 NA
ENDROOT
BRANCH   6   8
HETATM    8  S9  UNL     1     -34.827  16.280  -5.423  1.00 20.00    -0.148 SA
HETATM    9  C7  UNL     1     -36.493  15.809  -5.937  1.00 20.00     0.091 C 
ENDBRANCH   6   8
TORSDOF 1
ENDMDL
MODEL 4
REMARK VINA RESULT:      -3.9      2.685      3.667
REMARK  1 active torsions:
REMARK  status: ('A' for Active; 'I' for Inactive)
REMARK    1  A    between atoms: C6_6  and  S9_9 
ROOT
HETATM    1  C1  UNL     1     -33.757  17.133  -4.764  1.00 20.00     0.080 C 
HETATM    2  C2  UNL     1     -34.414  13.466  -4.871  1.00 20.00     0.003 C 
HETATM    3  C3  UNL     1     -33.388  13.569  -3.742  1.00 20.00     0.003 C 
HETATM    4  C4  UNL     1     -34.593  14.884  -5.412  1.00 20.00     0.036 C 
HETATM    5  C5  UNL     1     -32.999  15.045  -3.653  1.00 20.00     0.036 C 
HETATM    6  C6  UNL     1     -34.173  15.814  -4.268  1.00 20.00     0.096 C 
HETATM    7  N8  UNL     1     -33.429  18.175  -5.155  1.00 20.00    -0.196 NA
ENDROOT
BRANCH   6   8
HETATM    8  S9  UNL     1     -35.532  16.002  -3.047  1.00 20.00    -0.148 SA
HETATM    9  C7  UNL     1     -34.522  16.394  -1.603  1.00 20.00     0.091 C 
ENDBRANCH   6   8
TORSDOF 1
ENDMDL
MODEL 5
REMARK VINA RESULT:      -3.7      2.168      3.680
REMARK  1 active torsions:
REMARK  status: ('A' for Active; 'I' for Inactive)
REMARK    1  A    between atoms: C6_6  and  S9_9 
ROOT
HETATM    1  C1  UNL     1     -34.755  13.822  -4.927  1.00 20.00     0.080 C 
HETATM    2  C2  UNL     1     -34.749  16.491  -7.528  1.00 20.00     0.003 C 
HETATM    3  C3  UNL     1     -35.777  17.027  -6.531  1.00 20.00     0.003 C 
HETATM    4  C4  UNL     1     -34.307  15.130  -6.992  1.00 20.00     0.036 C 
HETATM    5  C5  UNL     1     -35.902  15.965  -5.438  1.00 20.00     0.036 C 
HETATM    6  C6  UNL     1     -34.592  15.171  -5.487  1.00 20.00     0.096 C 
HETATM    7  N8  UNL     1     -34.882  12.758  -4.485  1.00 20.00    -0.196 NA
ENDROOT
BRANCH   6   8
HETATM    8  S9  UNL     1     -33.261  16.066  -4.594  1.00 20.00    -0.148 SA
HETATM    9  C7  UNL     1     -33.988  16.017  -2.941  1.00 20.00     0.091 C 
ENDBRANCH   6   8
TORSDOF 1
ENDMDL
MODEL 6
REMARK VINA RESULT:      -3.7      1.528      3.021
REMARK  1 active torsions:
REMARK  status: ('A' for Active; 'I' for Inactive)
REMARK    1  A    between atoms: C6_6  and  S9_9 
ROOT
HETATM    1  C1  UNL     1     -36.778  14.582  -4.229  1.00 20.00     0.080 C 
HETATM    2  C2  UNL     1     -34.288  15.067  -6.960  1.00 20.00     0.003 C 
HETATM    3  C3  UNL     1     -34.345  16.461  -6.334  1.00 20.00     0.003 C 
HETATM    4  C4  UNL     1     -35.310  14.220  -6.202  1.00 20.00     0.036 C 
HETATM    5  C5  UNL     1     -35.396  16.388  -5.226  1.00 20.00     0.036 C 
HETATM    6  C6  UNL     1     -35.483  14.907  -4.843  1.00 20.00     0.096 C 
HETATM    7  N8  UNL     1     -37.799  14.324  -3.744  1.00 20.00    -0.196 NA
ENDROOT
BRANCH   6   8
HETATM    8  S9  UNL     1     -34.115  14.454  -3.704  1.00 20.00    -0.148 SA
HETATM    9  C7  UNL     1     -34.281  15.833  -2.549  1.00 20.00     0.091 C 
ENDBRANCH   6   8
TORSDOF 1
ENDMDL
MODEL 7
REMARK VINA RESULT:      -3.7      1.725      2.729
REMARK  1 active torsions:
REMARK  status: ('A' for Active; 'I' for Inactive)
REMARK    1  A    between atoms: C6_6  and  S9_9 
ROOT
HETATM    1  C1  UNL     1     -36.680  14.918  -3.697  1.00 20.00     0.080 C 
HETATM    2  C2  UNL     1     -32.985  15.379  -3.870  1.00 20.00     0.003 C 
HETATM    3  C3  UNL     1     -33.462  16.199  -5.070  1.00 20.00     0.003 C 
HETATM    4  C4  UNL     1     -34.238  14.748  -3.264  1.00 20.00     0.036 C 
HETATM    5  C5  UNL     1     -34.979  16.027  -5.128  1.00 20.00     0.036 C 
HETATM    6  C6  UNL     1     -35.401  15.642  -3.706  1.00 20.00     0.096 C 
HETATM    7  N8  UNL     1     -37.688  14.346  -3.689  1.00 20.00    -0.196 NA
ENDROOT
BRANCH   6   8
HETATM    8  S9  UNL     1     -35.518  17.135  -2.642  1.00 20.00    -0.148 SA
HETATM    9  C7  UNL     1     -34.743  16.451  -1.161  1.00 20.00     0.091 C 
ENDBRANCH   6   8
TORSDOF 1
ENDMDL
MODEL 8
REMARK VINA RESULT:      -3.7      2.292      3.271
REMARK  1 active torsions:
REMARK  status: ('A' for Active; 'I' for Inactive)
REMARK    1  A    between atoms: C6_6  and  S9_9 
ROOT
HETATM    1  C1  UNL     1     -34.792  13.876  -4.603  1.00 20.00     0.080 C 
HETATM    2  C2  UNL     1     -33.392  17.267  -5.260  1.00 20.00     0.003 C 
HETATM    3  C3  UNL     1     -34.549  17.205  -6.258  1.00 20.00     0.003 C 
HETATM    4  C4  UNL     1     -33.361  15.908  -4.563  1.00 20.00     0.036 C 
HETATM    5  C5  UNL     1     -35.163  15.813  -6.113  1.00 20.00     0.036 C 
HETATM    6  C6  UNL     1     -34.778  15.342  -4.706  1.00 20.00     0.096 C 
HETATM    7  N8  UNL     1     -34.803  12.719  -4.521  1.00 20.00    -0.196 NA
ENDROOT
BRANCH   6   8
HETATM    8  S9  UNL     1     -35.903  16.071  -3.451  1.00 20.00    -0.148 SA
HETATM    9  C7  UNL     1     -34.776  16.018  -2.041  1.00 20.00     0.091 C 
ENDBRANCH   6   8
TORSDOF 1
ENDMDL
MODEL 9
REMARK VINA RESULT:      -3.7      2.202      3.043
REMARK  1 active torsions:
REMARK  status: ('A' for Active; 'I' for Inactive)
REMARK    1  A    between atoms: C6_6  and  S9_9 
ROOT
HETATM    1  C1  UNL     1     -34.590  16.131  -1.861  1.00 20.00     0.080 C 
HETATM    2  C2  UNL     1     -34.268  13.514  -4.495  1.00 20.00     0.003 C 
HETATM    3  C3  UNL     1     -35.750  13.879  -4.593  1.00 20.00     0.003 C 
HETATM    4  C4  UNL     1     -33.702  14.346  -3.345  1.00 20.00     0.036 C 
HETATM    5  C5  UNL     1     -36.006  14.916  -3.499  1.00 20.00     0.036 C 
HETATM    6  C6  UNL     1     -34.642  15.549  -3.209  1.00 20.00     0.096 C 
HETATM    7  N8  UNL     1     -34.549  16.591  -0.797  1.00 20.00    -0.196 NA
ENDROOT
BRANCH   6   8
HETATM    8  S9  UNL     1     -34.246  16.832  -4.462  1.00 20.00    -0.148 SA
HETATM    9  C7  UNL     1     -35.819  17.717  -4.423  1.00 20.00     0.091 C 
ENDBRANCH   6   8
TORSDOF 1
ENDMDL
