MODEL 1
REMARK VINA RESULT:      -4.1      0.000      0.000
REMARK  5 active torsions:
REMARK  status: ('A' for Active; 'I' for Inactive)
REMARK    1  A    between atoms: C5_5  and  C7_7 
REMARK    2  A    between atoms: C6_6  and  C8_8 
REMARK    3  A    between atoms: C7_7  and  C9_9 
REMARK    4  A    between atoms: C8_8  and  C9_9 
REMARK    5  A    between atoms: C9_9  and  S11_11 
ROOT
HETATM    1  C1  UNL     1     -34.941  13.757  -4.318  1.00 20.00     0.080 C 
HETATM    2  C9  UNL     1     -35.000  15.192  -3.963  1.00 20.00     0.096 C 
HETATM    3  N10 UNL     1     -34.892  12.631  -4.598  1.00 20.00    -0.196 NA
ENDROOT
BRANCH   2   4
HETATM    4  C7  UNL     1     -34.630  16.056  -5.201  1.00 20.00     0.035 C 
BRANCH   4   5
HETATM    5  C5  UNL     1     -33.312  16.839  -5.082  1.00 20.00    -0.002 C 
HETATM    6  C2  UNL     1     -33.560  18.341  -5.098  1.00 20.00     0.005 C 
ENDBRANCH   4   5
ENDBRANCH   2   4
BRANCH   2   7
HETATM    7  C8  UNL     1     -34.067  15.494  -2.761  1.00 20.00     0.035 C 
BRANCH   7   8
HETATM    8  C6  UNL     1     -34.682  16.309  -1.612  1.00 20.00    -0.002 C 
HETATM    9  C3  UNL     1     -33.734  17.407  -1.149  1.00 20.00     0.005 C 
ENDBRANCH   7   8
ENDBRANCH   2   7
BRANCH   2  10
HETATM   10  S11 UNL     1     -36.752  15.622  -3.545  1.00 20.00    -0.148 SA
HETATM   11  C4  UNL     1     -37.136  16.512  -5.064  1.00 20.00     0.091 C 
ENDBRANCH   2  10
TORSDOF 5
ENDMDL
MODEL 2
REMARK VINA RESULT:      -4.0      1.749      2.477
REMARK  5 active torsions:
REMARK  status: ('A' for Active; 'I' for Inactive)
REMARK    1  A    between atoms: C5_5  and  C7_7 
REMARK    2  A    between atoms: C6_6  and  C8_8 
REMARK    3  A    between atoms: C7_7  and  C9_9 
REMARK    4  A    between atoms: C8_8  and  C9_9 
REMARK    5  A    between atoms: C9_9  and  S11_11 
ROOT
HETATM    1  C1  UNL     1     -36.488  14.782  -3.888  1.00 20.00     0.080 C 
HETATM    2  C9  UNL     1     -35.148  15.372  -4.096  1.00 20.00     0.096 C 
HETATM    3  N10 UNL     1     -37.540  14.316  -3.724  1.00 20.00    -0.196 NA
ENDROOT
BRANCH   2   4
HETATM    4  C7  UNL     1     -34.411  14.614  -5.236  1.00 20.00     0.035 C 
BRANCH   4   5
HETATM    5  C5  UNL     1     -35.276  14.272  -6.459  1.00 20.00    -0.002 C 
HETATM    6  C2  UNL     1     -34.726  14.920  -7.722  1.00 20.00     0.005 C 
ENDBRANCH   4   5
ENDBRANCH   2   4
BRANCH   2   7
HETATM    7  C8  UNL     1     -34.332  15.347  -2.777  1.00 20.00     0.035 C 
BRANCH   7   8
HETATM    8  C6  UNL     1     -34.832  16.267  -1.652  1.00 20.00    -0.002 C 
HETATM    9  C3  UNL     1     -33.741  17.233  -1.207  1.00 20.00     0.005 C 
ENDBRANCH   7   8
ENDBRANCH   2   7
BRANCH   2  10
HETATM   10  S11 UNL     1     -35.359  17.113  -4.692  1.00 20.00    -0.148 SA
HETATM   11  C4  UNL     1     -33.628  17.430  -5.084  1.00 20.00     0.091 C 
ENDBRANCH   2  10
TORSDOF 5
ENDMDL
MODEL 3
REMARK VINA RESULT:      -4.0      1.448      3.372
REMARK  5 active torsions:
REMARK  status: ('A' for Active; 'I' for Inactive)
REMARK    1  A    between atoms: C5_5  and  C7_7 
REMARK    2  A    between atoms: C6_6  and  C8_8 
REMARK    3  A    between atoms: C7_7  and  C9_9 
REMARK    4  A    between atoms: C8_8  and  C9_9 
REMARK    5  A    between atoms: C9_9  and  S11_11 
ROOT
HETATM    1  C1  UNL     1     -35.037  13.807  -4.221  1.00 20.00     0.080 C 
HETATM    2  C9  UNL     1     -35.251  15.223  -3.853  1.00 20.00     0.096 C 
HETATM    3  N10 UNL     1     -34.869  12.694  -4.507  1.00 20.00    -0.196 NA
ENDROOT
BRANCH   2   4
HETATM    4  C7  UNL     1     -34.158  15.676  -2.844  1.00 20.00     0.035 C 
BRANCH   4   5
HETATM    5  C5  UNL     1     -34.688  16.264  -1.527  1.00 20.00    -0.002 C 
HETATM    6  C2  UNL     1     -33.790  17.386  -1.024  1.00 20.00     0.005 C 
ENDBRANCH   4   5
ENDBRANCH   2   4
BRANCH   2   7
HETATM    7  C8  UNL     1     -36.676  15.425  -3.274  1.00 20.00     0.035 C 
BRANCH   7   8
HETATM    8  C6  UNL     1     -37.829  14.792  -4.071  1.00 20.00    -0.002 C 
HETATM    9  C3  UNL     1     -39.180  15.196  -3.496  1.00 20.00     0.005 C 
ENDBRANCH   7   8
ENDBRANCH   2   7
BRANCH   2  10
HETATM   10  S11 UNL     1     -35.015  16.265  -5.365  1.00 20.00    -0.148 SA
HETATM   11  C4  UNL     1     -33.347  16.836  -4.989  1.00 20.00     0.091 C 
ENDBRANCH   2  10
TORSDOF 5
ENDMDL
MODEL 4
REMARK VINA RESULT:      -3.9      1.611      3.336
REMARK  5 active torsions:
REMARK  status: ('A' for Active; 'I' for Inactive)
REMARK    1  A    between atoms: C5_5  and  C7_7 
REMARK    2  A    between atoms: C6_6  and  C8_8 
REMARK    3  A    between atoms: C7_7  and  C9_9 
REMARK    4  A    between atoms: C8_8  and  C9_9 
REMARK    5  A    between atoms: C9_9  and  S11_11 
ROOT
HETATM    1  C1  UNL     1     -36.924  14.859  -3.817  1.00 20.00     0.080 C 
HETATM    2  C9  UNL     1     -35.626  15.567  -3.778  1.00 20.00     0.096 C 
HETATM    3  N10 UNL     1     -37.946  14.307  -3.848  1.00 20.00    -0.196 NA
ENDROOT
BRANCH   2   4
HETATM    4  C7  UNL     1     -35.593  16.541  -2.567  1.00 20.00     0.035 C 
BRANCH   4   5
HETATM    5  C5  UNL     1     -34.514  16.240  -1.514  1.00 20.00    -0.002 C 
HETATM    6  C2  UNL     1     -33.679  17.476  -1.212  1.00 20.00     0.005 C 
ENDBRANCH   4   5
ENDBRANCH   2   4
BRANCH   2   7
HETATM    7  C8  UNL     1     -35.373  16.313  -5.114  1.00 20.00     0.035 C 
BRANCH   7   8
HETATM    8  C6  UNL     1     -33.906  16.630  -5.448  1.00 20.00    -0.002 C 
HETATM    9  C3  UNL     1     -33.603  18.108  -5.241  1.00 20.00     0.005 C 
ENDBRANCH   7   8
ENDBRANCH   2   7
BRANCH   2  10
HETATM   10  S11 UNL     1     -34.289  14.323  -3.470  1.00 20.00    -0.148 SA
HETATM   11  C4  UNL     1     -34.718  13.193  -4.807  1.00 20.00     0.091 C 
ENDBRANCH   2  10
TORSDOF 5
ENDMDL
MODEL 5
REMARK VINA RESULT:      -3.9      1.100      1.532
REMARK  5 active torsions:
REMARK  status: ('A' for Active; 'I' for Inactive)
REMARK    1  A    between atoms: C5_5  and  C7_7 
REMARK    2  A    between atoms: C6_6  and  C8_8 
REMARK    3  A    between atoms: C7_7  and  C9_9 
REMARK    4  A    between atoms: C8_8  and  C9_9 
REMARK    5  A    between atoms: C9_9  and  S11_11 
ROOT
HETATM    1  C1  UNL     1     -35.049  13.803  -4.281  1.00 20.00     0.080 C 
HETATM    2  C9  UNL     1     -35.162  15.252  -4.006  1.00 20.00     0.096 C 
HETATM    3  N10 UNL     1     -34.956  12.666  -4.499  1.00 20.00    -0.196 NA
ENDROOT
BRANCH   2   4
HETATM    4  C7  UNL     1     -34.991  16.054  -5.328  1.00 20.00     0.035 C 
BRANCH   4   5
HETATM    5  C5  UNL     1     -34.068  15.404  -6.371  1.00 20.00    -0.002 C 
HETATM    6  C2  UNL     1     -34.839  15.026  -7.629  1.00 20.00     0.005 C 
ENDBRANCH   4   5
ENDBRANCH   2   4
BRANCH   2   7
HETATM    7  C8  UNL     1     -34.123  15.686  -2.940  1.00 20.00     0.035 C 
BRANCH   7   8
HETATM    8  C6  UNL     1     -34.692  16.221  -1.616  1.00 20.00    -0.002 C 
HETATM    9  C3  UNL     1     -33.826  17.342  -1.059  1.00 20.00     0.005 C 
ENDBRANCH   7   8
ENDBRANCH   2   7
BRANCH   2  10
HETATM   10  S11 UNL     1     -36.882  15.604  -3.414  1.00 20.00    -0.148 SA
HETATM   11  C4  UNL     1     -37.738  15.183  -4.943  1.00 20.00     0.091 C 
ENDBRANCH   2  10
TORSDOF 5
ENDMDL
MODEL 6
REMARK VINA RESULT:      -3.8      1.883      3.701
REMARK  5 active torsions:
REMARK  status: ('A' for Active; 'I' for Inactive)
REMARK    1  A    between atoms: C5_5  and  C7_7 
REMARK    2  A    between atoms: C6_6  and  C8_8 
REMARK    3  A    between atoms: C7_7  and  C9_9 
REMARK    4  A    between atoms: C8_8  and  C9_9 
REMARK    5  A    between atoms: C9_9  and  S11_11 
ROOT
HETATM    1  C1  UNL     1     -33.729  16.698  -4.289  1.00 20.00     0.080 C 
HETATM    2  C9  UNL     1     -34.603  16.466  -3.118  1.00 20.00     0.096 C 
HETATM    3  N10 UNL     1     -33.040  16.878  -5.206  1.00 20.00    -0.196 NA
ENDROOT
BRANCH   2   4
HETATM    4  C7  UNL     1     -33.835  16.811  -1.811  1.00 20.00     0.035 C 
BRANCH   4   5
HETATM    5  C5  UNL     1     -34.679  16.771  -0.527  1.00 20.00    -0.002 C 
HETATM    6  C2  UNL     1     -34.313  17.915   0.409  1.00 20.00     0.005 C 
ENDBRANCH   4   5
ENDBRANCH   2   4
BRANCH   2   7
HETATM    7  C8  UNL     1     -35.117  15.002  -3.105  1.00 20.00     0.035 C 
BRANCH   7   8
HETATM    8  C6  UNL     1     -34.130  13.931  -3.598  1.00 20.00    -0.002 C 
HETATM    9  C3  UNL     1     -34.693  13.175  -4.793  1.00 20.00     0.005 C 
ENDBRANCH   7   8
ENDBRANCH   2   7
BRANCH   2  10
HETATM   10  S11 UNL     1     -36.024  17.649  -3.204  1.00 20.00    -0.148 SA
HETATM   11  C4  UNL     1     -37.254  16.482  -3.817  1.00 20.00     0.091 C 
ENDBRANCH   2  10
TORSDOF 5
ENDMDL
MODEL 7
REMARK VINA RESULT:      -3.7      1.862      3.334
REMARK  5 active torsions:
REMARK  status: ('A' for Active; 'I' for Inactive)
REMARK    1  A    between atoms: C5_5  and  C7_7 
REMARK    2  A    between atoms: C6_6  and  C8_8 
REMARK    3  A    between atoms: C7_7  and  C9_9 
REMARK    4  A    between atoms: C8_8  and  C9_9 
REMARK    5  A    between atoms: C9_9  and  S11_11 
ROOT
HETATM    1  C1  UNL     1     -34.971  13.844  -4.650  1.00 20.00     0.080 C 
HETATM    2  C9  UNL     1     -35.073  15.281  -4.987  1.00 20.00     0.096 C 
HETATM    3  N10 UNL     1     -34.892  12.717  -4.383  1.00 20.00    -0.196 NA
ENDROOT
BRANCH   2   4
HETATM    4  C7  UNL     1     -34.130  16.106  -4.066  1.00 20.00     0.035 C 
BRANCH   4   5
HETATM    5  C5  UNL     1     -33.921  15.525  -2.658  1.00 20.00    -0.002 C 
HETATM    6  C2  UNL     1     -34.667  16.340  -1.610  1.00 20.00     0.005 C 
ENDBRANCH   4   5
ENDBRANCH   2   4
BRANCH   2   7
HETATM    7  C8  UNL     1     -36.543  15.763  -4.873  1.00 20.00     0.035 C 
BRANCH   7   8
HETATM    8  C6  UNL     1     -37.383  15.125  -3.754  1.00 20.00    -0.002 C 
HETATM    9  C3  UNL     1     -38.758  14.717  -4.265  1.00 20.00     0.005 C 
ENDBRANCH   7   8
ENDBRANCH   2   7
BRANCH   2  10
HETATM   10  S11 UNL     1     -34.445  15.526  -6.712  1.00 20.00    -0.148 SA
HETATM   11  C4  UNL     1     -35.634  14.453  -7.540  1.00 20.00     0.091 C 
ENDBRANCH   2  10
TORSDOF 5
ENDMDL
MODEL 8
REMARK VINA RESULT:      -3.7      2.144      3.078
REMARK  5 active torsions:
REMARK  status: ('A' for Active; 'I' for Inactive)
REMARK    1  A    between atoms: C5_5  and  C7_7 
REMARK    2  A    between atoms: C6_6  and  C8_8 
REMARK    3  A    between atoms: C7_7  and  C9_9 
REMARK    4  A    between atoms: C8_8  and  C9_9 
REMARK    5  A    between atoms: C9_9  and  S11_11 
ROOT
HETATM    1  C1  UNL     1     -35.684  16.366  -3.539  1.00 20.00     0.080 C 
HETATM    2  C9  UNL     1     -34.223  16.578  -3.451  1.00 20.00     0.096 C 
HETATM    3  N10 UNL     1     -36.831  16.197  -3.607  1.00 20.00    -0.196 NA
ENDROOT
BRANCH   2   4
HETATM    4  C7  UNL     1     -33.477  15.263  -3.812  1.00 20.00     0.035 C 
BRANCH   4   5
HETATM    5  C5  UNL     1     -34.264  13.971  -3.545  1.00 20.00    -0.002 C 
HETATM    6  C2  UNL     1     -34.450  13.165  -4.824  1.00 20.00     0.005 C 
ENDBRANCH   4   5
ENDBRANCH   2   4
BRANCH   2   7
HETATM    7  C8  UNL     1     -33.832  17.083  -2.037  1.00 20.00     0.035 C 
BRANCH   7   8
HETATM    8  C6  UNL     1     -34.637  16.505  -0.862  1.00 20.00    -0.002 C 
HETATM    9  C3  UNL     1     -34.738  17.506   0.280  1.00 20.00     0.005 C 
ENDBRANCH   7   8
ENDBRANCH   2   7
BRANCH   2  10
HETATM   10  S11 UNL     1     -33.731  17.816  -4.737  1.00 20.00    -0.148 SA
HETATM   11  C4  UNL     1     -34.051  16.783  -6.179  1.00 20.00     0.091 C 
ENDBRANCH   2  10
TORSDOF 5
ENDMDL
MODEL 9
REMARK VINA RESULT:      -3.7      2.238      3.859
REMARK  5 active torsions:
REMARK  status: ('A' for Active; 'I' for Inactive)
REMARK    1  A    between atoms: C5_5  and  C7_7 
REMARK    2  A    between atoms: C6_6  and  C8_8 
REMARK    3  A    between atoms: C7_7  and  C9_9 
REMARK    4  A    between atoms: C8_8  and  C9_9 
REMARK    5  A    between atoms: C9_9  and  S11_11 
ROOT
HETATM    1  C1  UNL     1     -33.756  17.976  -4.358  1.00 20.00     0.080 C 
HETATM    2  C9  UNL     1     -34.229  16.710  -3.756  1.00 20.00     0.096 C 
HETATM    3  N10 UNL     1     -33.382  18.968  -4.831  1.00 20.00    -0.196 NA
ENDROOT
BRANCH   2   4
HETATM    4  C7  UNL     1     -33.692  16.587  -2.302  1.00 20.00     0.035 C 
BRANCH   4   5
HETATM    5  C5  UNL     1     -34.770  16.411  -1.220  1.00 20.00    -0.002 C 
HETATM    6  C2  UNL     1     -34.543  17.367  -0.056  1.00 20.00     0.005 C 
ENDBRANCH   4   5
ENDBRANCH   2   4
BRANCH   2   7
HETATM    7  C8  UNL     1     -33.798  15.500  -4.625  1.00 20.00     0.035 C 
BRANCH   7   8
HETATM    8  C6  UNL     1     -33.705  14.145  -3.904  1.00 20.00    -0.002 C 
HETATM    9  C3  UNL     1     -34.887  13.253  -4.257  1.00 20.00     0.005 C 
ENDBRANCH   7   8
ENDBRANCH   2   7
BRANCH   2  10
HETATM   10  S11 UNL     1     -36.074  16.781  -3.615  1.00 20.00    -0.148 SA
HETATM   11  C4  UNL     1     -36.444  16.536  -5.363  1.00 20.00     0.091 C 
ENDBRANCH   2  10
TORSDOF 5
ENDMDL
