MODEL 1
REMARK VINA RESULT:      -5.1      0.000      0.000
REMARK  1 active torsions:
REMARK  status: ('A' for Active; 'I' for Inactive)
REMARK    1  A    between atoms: C3_3  and  C8_8 
ROOT
HETATM    1  C1  UNL     1     -34.579  16.445  -1.060  1.00 20.00     0.022 A 
HETATM    2  C2  UNL     1     -34.149  17.348  -3.159  1.00 20.00     0.057 A 
HETATM    3  C3  UNL     1     -34.624  16.252  -2.471  1.00 20.00    -0.045 A 
HETATM    4  C4  UNL     1     -34.070  17.681  -0.723  1.00 20.00    -0.021 A 
HETATM    5  C10 UNL     1     -33.863  18.255   0.624  1.00 20.00     0.056 C 
HETATM    6  S11 UNL     1     -33.651  18.602  -2.104  1.00 20.00    -0.106 SA
ENDROOT
BRANCH   3   7
HETATM    7  C8  UNL     1     -35.134  14.993  -3.136  1.00 20.00     0.033 C 
HETATM    8  C6  UNL     1     -34.002  14.042  -3.562  1.00 20.00     0.010 C 
HETATM    9  C5  UNL     1     -34.597  13.270  -4.730  1.00 20.00     0.002 C 
HETATM   10  C7  UNL     1     -35.349  14.345  -5.501  1.00 20.00     0.016 C 
HETATM   11  C9  UNL     1     -35.944  15.251  -4.424  1.00 20.00     0.066 C 
HETATM   12 BR12 UNL     1     -37.825  14.782  -4.132  1.00 20.00    -0.090 Br
ENDBRANCH   3   7
TORSDOF 1
ENDMDL
MODEL 2
REMARK VINA RESULT:      -4.8      1.748      2.126
REMARK  1 active torsions:
REMARK  status: ('A' for Active; 'I' for Inactive)
REMARK    1  A    between atoms: C3_3  and  C8_8 
ROOT
HETATM    1  C1  UNL     1     -34.536  16.621  -1.223  1.00 20.00     0.022 A 
HETATM    2  C2  UNL     1     -33.621  18.484  -2.268  1.00 20.00     0.057 A 
HETATM    3  C3  UNL     1     -33.944  17.152  -2.405  1.00 20.00    -0.045 A 
HETATM    4  C4  UNL     1     -34.643  17.568  -0.227  1.00 20.00    -0.021 A 
HETATM    5  C10 UNL     1     -35.197  17.412   1.136  1.00 20.00     0.056 C 
HETATM    6  S11 UNL     1     -34.032  19.089  -0.719  1.00 20.00    -0.106 SA
ENDROOT
BRANCH   3   7
HETATM    7  C8  UNL     1     -33.699  16.347  -3.662  1.00 20.00     0.033 C 
HETATM    8  C6  UNL     1     -33.432  17.229  -4.894  1.00 20.00     0.010 C 
HETATM    9  C5  UNL     1     -33.885  16.368  -6.062  1.00 20.00     0.002 C 
HETATM   10  C7  UNL     1     -35.167  15.732  -5.540  1.00 20.00     0.016 C 
HETATM   11  C9  UNL     1     -34.885  15.446  -4.067  1.00 20.00     0.066 C 
HETATM   12 BR12 UNL     1     -34.396  13.561  -3.842  1.00 20.00    -0.090 Br
ENDBRANCH   3   7
TORSDOF 1
ENDMDL
MODEL 3
REMARK VINA RESULT:      -4.6      1.309      1.342
REMARK  1 active torsions:
REMARK  status: ('A' for Active; 'I' for Inactive)
REMARK    1  A    between atoms: C3_3  and  C8_8 
ROOT
HETATM    1  C1  UNL     1     -34.676  16.299  -1.577  1.00 20.00     0.022 A 
HETATM    2  C2  UNL     1     -36.458  17.320  -2.666  1.00 20.00     0.057 A 
HETATM    3  C3  UNL     1     -35.612  16.232  -2.649  1.00 20.00    -0.045 A 
HETATM    4  C4  UNL     1     -34.843  17.435  -0.815  1.00 20.00    -0.021 A 
HETATM    5  C10 UNL     1     -34.077  17.866   0.376  1.00 20.00     0.056 C 
HETATM    6  S11 UNL     1     -36.122  18.414  -1.392  1.00 20.00    -0.106 SA
ENDROOT
BRANCH   3   7
HETATM    7  C8  UNL     1     -35.669  15.101  -3.652  1.00 20.00     0.033 C 
HETATM    8  C6  UNL     1     -34.552  14.062  -3.445  1.00 20.00     0.010 C 
HETATM    9  C5  UNL     1     -34.351  13.465  -4.829  1.00 20.00     0.002 C 
HETATM   10  C7  UNL     1     -34.434  14.683  -5.740  1.00 20.00     0.016 C 
HETATM   11  C9  UNL     1     -35.520  15.559  -5.118  1.00 20.00     0.066 C 
HETATM   12 BR12 UNL     1     -37.211  15.292  -6.073  1.00 20.00    -0.090 Br
ENDBRANCH   3   7
TORSDOF 1
ENDMDL
MODEL 4
REMARK VINA RESULT:      -4.5      2.253      4.879
REMARK  1 active torsions:
REMARK  status: ('A' for Active; 'I' for Inactive)
REMARK    1  A    between atoms: C3_3  and  C8_8 
ROOT
HETATM    1  C1  UNL     1     -34.191  15.771  -2.333  1.00 20.00     0.022 A 
HETATM    2  C2  UNL     1     -33.672  17.613  -3.652  1.00 20.00     0.057 A 
HETATM    3  C3  UNL     1     -34.059  17.189  -2.400  1.00 20.00    -0.045 A 
HETATM    4  C4  UNL     1     -33.899  15.167  -3.537  1.00 20.00    -0.021 A 
HETATM    5  C10 UNL     1     -33.918  13.726  -3.873  1.00 20.00     0.056 C 
HETATM    6  S11 UNL     1     -33.468  16.306  -4.740  1.00 20.00    -0.106 SA
ENDROOT
BRANCH   3   7
HETATM    7  C8  UNL     1     -34.316  18.117  -1.233  1.00 20.00     0.033 C 
HETATM    8  C6  UNL     1     -33.113  18.224  -0.279  1.00 20.00     0.010 C 
HETATM    9  C5  UNL     1     -33.742  18.578   1.059  1.00 20.00     0.002 C 
HETATM   10  C7  UNL     1     -34.980  17.691   1.099  1.00 20.00     0.016 C 
HETATM   11  C9  UNL     1     -35.496  17.682  -0.338  1.00 20.00     0.066 C 
HETATM   12 BR12 UNL     1     -36.972  18.960  -0.518  1.00 20.00    -0.090 Br
ENDBRANCH   3   7
TORSDOF 1
ENDMDL
MODEL 5
REMARK VINA RESULT:      -4.5      1.926      2.390
REMARK  1 active torsions:
REMARK  status: ('A' for Active; 'I' for Inactive)
REMARK    1  A    between atoms: C3_3  and  C8_8 
ROOT
HETATM    1  C1  UNL     1     -34.794  17.155  -0.236  1.00 20.00     0.022 A 
HETATM    2  C2  UNL     1     -33.321  18.431  -1.502  1.00 20.00     0.057 A 
HETATM    3  C3  UNL     1     -34.219  17.385  -1.519  1.00 20.00    -0.045 A 
HETATM    4  C4  UNL     1     -34.314  18.033   0.712  1.00 20.00    -0.021 A 
HETATM    5  C10 UNL     1     -34.662  18.118   2.147  1.00 20.00     0.056 C 
HETATM    6  S11 UNL     1     -33.176  19.129   0.054  1.00 20.00    -0.106 SA
ENDROOT
BRANCH   3   7
HETATM    7  C8  UNL     1     -34.553  16.577  -2.752  1.00 20.00     0.033 C 
HETATM    8  C6  UNL     1     -35.069  15.165  -2.420  1.00 20.00     0.010 C 
HETATM    9  C5  UNL     1     -34.698  14.346  -3.646  1.00 20.00     0.002 C 
HETATM   10  C7  UNL     1     -33.302  14.851  -3.984  1.00 20.00     0.016 C 
HETATM   11  C9  UNL     1     -33.352  16.349  -3.694  1.00 20.00     0.066 C 
HETATM   12 BR12 UNL     1     -33.622  17.337  -5.366  1.00 20.00    -0.090 Br
ENDBRANCH   3   7
TORSDOF 1
ENDMDL
MODEL 6
REMARK VINA RESULT:      -4.5     12.664     14.517
REMARK  1 active torsions:
REMARK  status: ('A' for Active; 'I' for Inactive)
REMARK    1  A    between atoms: C3_3  and  C8_8 
ROOT
HETATM    1  C1  UNL     1     -41.370   3.133  -2.668  1.00 20.00     0.022 A 
HETATM    2  C2  UNL     1     -43.417   3.863  -3.490  1.00 20.00     0.057 A 
HETATM    3  C3  UNL     1     -42.404   4.110  -2.590  1.00 20.00    -0.045 A 
HETATM    4  C4  UNL     1     -41.633   2.176  -3.625  1.00 20.00    -0.021 A 
HETATM    5  C10 UNL     1     -40.813   1.006  -4.007  1.00 20.00     0.056 C 
HETATM    6  S11 UNL     1     -43.120   2.459  -4.424  1.00 20.00    -0.106 SA
ENDROOT
BRANCH   3   7
HETATM    7  C8  UNL     1     -42.390   5.280  -1.631  1.00 20.00     0.033 C 
HETATM    8  C6  UNL     1     -41.572   6.473  -2.157  1.00 20.00     0.010 C 
HETATM    9  C5  UNL     1     -41.116   7.185  -0.893  1.00 20.00     0.002 C 
HETATM   10  C7  UNL     1     -40.734   6.034   0.028  1.00 20.00     0.016 C 
HETATM   11  C9  UNL     1     -41.773   4.951  -0.255  1.00 20.00     0.066 C 
HETATM   12 BR12 UNL     1     -43.166   4.995   1.124  1.00 20.00    -0.090 Br
ENDBRANCH   3   7
TORSDOF 1
ENDMDL
MODEL 7
REMARK VINA RESULT:      -4.2      1.577      2.137
REMARK  1 active torsions:
REMARK  status: ('A' for Active; 'I' for Inactive)
REMARK    1  A    between atoms: C3_3  and  C8_8 
ROOT
HETATM    1  C1  UNL     1     -35.007  17.301   0.394  1.00 20.00     0.022 A 
HETATM    2  C2  UNL     1     -33.351  18.006  -1.076  1.00 20.00     0.057 A 
HETATM    3  C3  UNL     1     -34.476  17.224  -0.926  1.00 20.00    -0.045 A 
HETATM    4  C4  UNL     1     -34.267  18.137   1.202  1.00 20.00    -0.021 A 
HETATM    5  C10 UNL     1     -34.490  18.478   2.624  1.00 20.00     0.056 C 
HETATM    6  S11 UNL     1     -32.939  18.826   0.369  1.00 20.00    -0.106 SA
ENDROOT
BRANCH   3   7
HETATM    7  C8  UNL     1     -35.077  16.384  -2.031  1.00 20.00     0.033 C 
HETATM    8  C6  UNL     1     -34.051  15.451  -2.697  1.00 20.00     0.010 C 
HETATM    9  C5  UNL     1     -34.602  15.249  -4.100  1.00 20.00     0.002 C 
HETATM   10  C7  UNL     1     -35.088  16.641  -4.479  1.00 20.00     0.016 C 
HETATM   11  C9  UNL     1     -35.674  17.212  -3.189  1.00 20.00     0.066 C 
HETATM   12 BR12 UNL     1     -37.624  17.019  -3.207  1.00 20.00    -0.090 Br
ENDBRANCH   3   7
TORSDOF 1
ENDMDL
MODEL 8
REMARK VINA RESULT:      -4.1      2.387      4.943
REMARK  1 active torsions:
REMARK  status: ('A' for Active; 'I' for Inactive)
REMARK    1  A    between atoms: C3_3  and  C8_8 
ROOT
HETATM    1  C1  UNL     1     -35.053  15.889  -5.184  1.00 20.00     0.022 A 
HETATM    2  C2  UNL     1     -34.525  14.462  -3.427  1.00 20.00     0.057 A 
HETATM    3  C3  UNL     1     -34.718  15.773  -3.804  1.00 20.00    -0.045 A 
HETATM    4  C4  UNL     1     -35.103  14.661  -5.809  1.00 20.00    -0.021 A 
HETATM    5  C10 UNL     1     -35.413  14.361  -7.224  1.00 20.00     0.056 C 
HETATM    6  S11 UNL     1     -34.748  13.378  -4.733  1.00 20.00    -0.106 SA
ENDROOT
BRANCH   3   7
HETATM    7  C8  UNL     1     -34.588  16.952  -2.865  1.00 20.00     0.033 C 
HETATM    8  C6  UNL     1     -33.337  16.871  -1.972  1.00 20.00     0.010 C 
HETATM    9  C5  UNL     1     -33.721  17.667  -0.735  1.00 20.00     0.002 C 
HETATM   10  C7  UNL     1     -35.161  17.238  -0.487  1.00 20.00     0.016 C 
HETATM   11  C9  UNL     1     -35.769  17.098  -1.881  1.00 20.00     0.066 C 
HETATM   12 BR12 UNL     1     -36.801  18.707  -2.316  1.00 20.00    -0.090 Br
ENDBRANCH   3   7
TORSDOF 1
ENDMDL
MODEL 9
REMARK VINA RESULT:      -4.1      3.252      5.112
REMARK  1 active torsions:
REMARK  status: ('A' for Active; 'I' for Inactive)
REMARK    1  A    between atoms: C3_3  and  C8_8 
ROOT
HETATM    1  C1  UNL     1     -37.569  15.313  -6.091  1.00 20.00     0.022 A 
HETATM    2  C2  UNL     1     -37.603  14.753  -3.835  1.00 20.00     0.057 A 
HETATM    3  C3  UNL     1     -36.807  14.958  -4.941  1.00 20.00    -0.045 A 
HETATM    4  C4  UNL     1     -38.920  15.366  -5.820  1.00 20.00    -0.021 A 
HETATM    5  C10 UNL     1     -40.031  15.695  -6.740  1.00 20.00     0.056 C 
HETATM    6  S11 UNL     1     -39.263  14.990  -4.185  1.00 20.00    -0.106 SA
ENDROOT
BRANCH   3   7
HETATM    7  C8  UNL     1     -35.301  14.821  -4.935  1.00 20.00     0.033 C 
HETATM    8  C6  UNL     1     -34.822  13.501  -4.305  1.00 20.00     0.010 C 
HETATM    9  C5  UNL     1     -33.433  13.830  -3.783  1.00 20.00     0.002 C 
HETATM   10  C7  UNL     1     -33.613  15.220  -3.187  1.00 20.00     0.016 C 
HETATM   11  C9  UNL     1     -34.577  15.927  -4.138  1.00 20.00     0.066 C 
HETATM   12 BR12 UNL     1     -33.568  17.078  -5.363  1.00 20.00    -0.090 Br
ENDBRANCH   3   7
TORSDOF 1
ENDMDL
