MODEL 1
REMARK VINA RESULT:      -4.9      0.000      0.000
REMARK  1 active torsions:
REMARK  status: ('A' for Active; 'I' for Inactive)
REMARK    1  A    between atoms: C4_4  and  C10_10 
ROOT
HETATM    1  C5  UNL     1     -33.692  14.179  -4.055  1.00 20.00     0.135 C 
HETATM    2  C6  UNL     1     -35.075  13.792  -4.526  1.00 20.00     0.079 C 
HETATM    3  C7  UNL     1     -35.280  14.246  -5.961  1.00 20.00     0.007 C 
HETATM    4  C8  UNL     1     -35.005  15.738  -6.118  1.00 20.00     0.001 C 
HETATM    5  C9  UNL     1     -33.599  16.099  -5.630  1.00 20.00     0.017 C 
HETATM    6  C10 UNL     1     -33.301  15.649  -4.187  1.00 20.00     0.088 C 
HETATM    7  O11 UNL     1     -32.945  13.357  -3.524  1.00 20.00    -0.297 OA
ENDROOT
BRANCH   6   8
HETATM    8  C4  UNL     1     -33.873  16.478  -3.045  1.00 20.00    -0.040 A 
HETATM    9  C1  UNL     1     -34.492  15.920  -1.889  1.00 20.00     0.015 A 
HETATM   10  C2  UNL     1     -34.924  16.891  -1.013  1.00 20.00     0.050 A 
HETATM   11  S12 UNL     1     -34.583  18.469  -1.585  1.00 20.00    -0.113 SA
HETATM   12  C3  UNL     1     -33.856  17.855  -3.008  1.00 20.00     0.057 A 
ENDBRANCH   6   8
TORSDOF 1
ENDMDL
MODEL 2
REMARK VINA RESULT:      -4.9      2.398      4.318
REMARK  1 active torsions:
REMARK  status: ('A' for Active; 'I' for Inactive)
REMARK    1  A    between atoms: C4_4  and  C10_10 
ROOT
HETATM    1  C5  UNL     1     -33.915  14.118  -3.884  1.00 20.00     0.135 C 
HETATM    2  C6  UNL     1     -33.086  15.374  -3.740  1.00 20.00     0.079 C 
HETATM    3  C7  UNL     1     -33.667  16.256  -2.648  1.00 20.00     0.007 C 
HETATM    4  C8  UNL     1     -35.142  16.555  -2.899  1.00 20.00     0.001 C 
HETATM    5  C9  UNL     1     -35.954  15.264  -3.043  1.00 20.00     0.017 C 
HETATM    6  C10 UNL     1     -35.414  14.299  -4.116  1.00 20.00     0.088 C 
HETATM    7  O11 UNL     1     -33.391  13.004  -3.886  1.00 20.00    -0.297 OA
ENDROOT
BRANCH   6   8
HETATM    8  C4  UNL     1     -35.713  14.612  -5.576  1.00 20.00    -0.040 A 
HETATM    9  C1  UNL     1     -34.792  14.393  -6.641  1.00 20.00     0.015 A 
HETATM   10  C2  UNL     1     -35.315  14.762  -7.861  1.00 20.00     0.050 A 
HETATM   11  S12 UNL     1     -36.910  15.369  -7.719  1.00 20.00    -0.113 SA
HETATM   12  C3  UNL     1     -36.905  15.138  -6.022  1.00 20.00     0.057 A 
ENDBRANCH   6   8
TORSDOF 1
ENDMDL
MODEL 3
REMARK VINA RESULT:      -4.8      1.908      2.397
REMARK  1 active torsions:
REMARK  status: ('A' for Active; 'I' for Inactive)
REMARK    1  A    between atoms: C4_4  and  C10_10 
ROOT
HETATM    1  C5  UNL     1     -36.824  14.592  -4.328  1.00 20.00     0.135 C 
HETATM    2  C6  UNL     1     -36.861  15.305  -5.660  1.00 20.00     0.079 C 
HETATM    3  C7  UNL     1     -35.851  14.683  -6.609  1.00 20.00     0.007 C 
HETATM    4  C8  UNL     1     -34.454  14.660  -5.998  1.00 20.00     0.001 C 
HETATM    5  C9  UNL     1     -34.448  13.934  -4.650  1.00 20.00     0.017 C 
HETATM    6  C10 UNL     1     -35.467  14.488  -3.635  1.00 20.00     0.088 C 
HETATM    7  O11 UNL     1     -37.854  14.178  -3.796  1.00 20.00    -0.297 OA
ENDROOT
BRANCH   6   8
HETATM    8  C4  UNL     1     -35.119  15.778  -2.904  1.00 20.00    -0.040 A 
HETATM    9  C1  UNL     1     -33.800  16.129  -2.494  1.00 20.00     0.015 A 
HETATM   10  C2  UNL     1     -33.764  17.347  -1.854  1.00 20.00     0.050 A 
HETATM   11  S12 UNL     1     -35.316  18.064  -1.748  1.00 20.00    -0.113 SA
HETATM   12  C3  UNL     1     -36.041  16.743  -2.561  1.00 20.00     0.057 A 
ENDBRANCH   6   8
TORSDOF 1
ENDMDL
MODEL 4
REMARK VINA RESULT:      -4.7      1.495      1.967
REMARK  1 active torsions:
REMARK  status: ('A' for Active; 'I' for Inactive)
REMARK    1  A    between atoms: C4_4  and  C10_10 
ROOT
HETATM    1  C5  UNL     1     -33.669  15.559  -4.211  1.00 20.00     0.135 C 
HETATM    2  C6  UNL     1     -33.680  14.123  -3.740  1.00 20.00     0.079 C 
HETATM    3  C7  UNL     1     -34.821  13.369  -4.402  1.00 20.00     0.007 C 
HETATM    4  C8  UNL     1     -36.157  14.069  -4.175  1.00 20.00     0.001 C 
HETATM    5  C9  UNL     1     -36.113  15.522  -4.659  1.00 20.00     0.017 C 
HETATM    6  C10 UNL     1     -34.965  16.351  -4.052  1.00 20.00     0.088 C 
HETATM    7  O11 UNL     1     -32.639  16.084  -4.636  1.00 20.00    -0.297 OA
ENDROOT
BRANCH   6   8
HETATM    8  C4  UNL     1     -35.128  16.865  -2.628  1.00 20.00    -0.040 A 
HETATM    9  C1  UNL     1     -34.382  16.376  -1.516  1.00 20.00     0.015 A 
HETATM   10  C2  UNL     1     -34.726  17.011  -0.343  1.00 20.00     0.050 A 
HETATM   11  S12 UNL     1     -35.943  18.192  -0.585  1.00 20.00    -0.113 SA
HETATM   12  C3  UNL     1     -36.012  17.855  -2.262  1.00 20.00     0.057 A 
ENDBRANCH   6   8
TORSDOF 1
ENDMDL
MODEL 5
REMARK VINA RESULT:      -4.7      1.616      2.080
REMARK  1 active torsions:
REMARK  status: ('A' for Active; 'I' for Inactive)
REMARK    1  A    between atoms: C4_4  and  C10_10 
ROOT
HETATM    1  C5  UNL     1     -35.648  14.735  -4.024  1.00 20.00     0.135 C 
HETATM    2  C6  UNL     1     -35.658  15.573  -5.281  1.00 20.00     0.079 C 
HETATM    3  C7  UNL     1     -34.267  15.608  -5.892  1.00 20.00     0.007 C 
HETATM    4  C8  UNL     1     -33.227  16.081  -4.883  1.00 20.00     0.001 C 
HETATM    5  C9  UNL     1     -33.243  15.214  -3.620  1.00 20.00     0.017 C 
HETATM    6  C10 UNL     1     -34.627  15.106  -2.951  1.00 20.00     0.088 C 
HETATM    7  O11 UNL     1     -36.475  13.840  -3.846  1.00 20.00    -0.297 OA
ENDROOT
BRANCH   6   8
HETATM    8  C4  UNL     1     -35.109  16.280  -2.110  1.00 20.00    -0.040 A 
HETATM    9  C1  UNL     1     -34.567  16.622  -0.838  1.00 20.00     0.015 A 
HETATM   10  C2  UNL     1     -35.184  17.726  -0.292  1.00 20.00     0.050 A 
HETATM   11  S12 UNL     1     -36.412  18.346  -1.314  1.00 20.00    -0.113 SA
HETATM   12  C3  UNL     1     -36.119  17.136  -2.489  1.00 20.00     0.057 A 
ENDBRANCH   6   8
TORSDOF 1
ENDMDL
MODEL 6
REMARK VINA RESULT:      -4.5      2.398      2.838
REMARK  1 active torsions:
REMARK  status: ('A' for Active; 'I' for Inactive)
REMARK    1  A    between atoms: C4_4  and  C10_10 
ROOT
HETATM    1  C5  UNL     1     -35.035  13.842  -4.982  1.00 20.00     0.135 C 
HETATM    2  C6  UNL     1     -35.203  14.121  -6.458  1.00 20.00     0.079 C 
HETATM    3  C7  UNL     1     -34.159  15.124  -6.918  1.00 20.00     0.007 C 
HETATM    4  C8  UNL     1     -34.196  16.394  -6.075  1.00 20.00     0.001 C 
HETATM    5  C9  UNL     1     -34.026  16.079  -4.585  1.00 20.00     0.017 C 
HETATM    6  C10 UNL     1     -35.035  15.047  -4.044  1.00 20.00     0.088 C 
HETATM    7  O11 UNL     1     -34.974  12.690  -4.553  1.00 20.00    -0.297 OA
ENDROOT
BRANCH   6   8
HETATM    8  C4  UNL     1     -36.452  15.518  -3.748  1.00 20.00    -0.040 A 
HETATM    9  C1  UNL     1     -37.603  14.683  -3.841  1.00 20.00     0.015 A 
HETATM   10  C2  UNL     1     -38.760  15.359  -3.522  1.00 20.00     0.050 A 
HETATM   11  S12 UNL     1     -38.456  16.994  -3.111  1.00 20.00    -0.113 SA
HETATM   12  C3  UNL     1     -36.773  16.800  -3.361  1.00 20.00     0.057 A 
ENDBRANCH   6   8
TORSDOF 1
ENDMDL
MODEL 7
REMARK VINA RESULT:      -4.5      2.563      3.834
REMARK  1 active torsions:
REMARK  status: ('A' for Active; 'I' for Inactive)
REMARK    1  A    between atoms: C4_4  and  C10_10 
ROOT
HETATM    1  C5  UNL     1     -35.888  14.363  -4.078  1.00 20.00     0.135 C 
HETATM    2  C6  UNL     1     -34.866  13.365  -4.572  1.00 20.00     0.079 C 
HETATM    3  C7  UNL     1     -33.601  13.461  -3.735  1.00 20.00     0.007 C 
HETATM    4  C8  UNL     1     -33.060  14.886  -3.704  1.00 20.00     0.001 C 
HETATM    5  C9  UNL     1     -34.119  15.873  -3.203  1.00 20.00     0.017 C 
HETATM    6  C10 UNL     1     -35.445  15.821  -3.985  1.00 20.00     0.088 C 
HETATM    7  O11 UNL     1     -37.045  14.022  -3.831  1.00 20.00    -0.297 OA
ENDROOT
BRANCH   6   8
HETATM    8  C4  UNL     1     -35.501  16.504  -5.345  1.00 20.00    -0.040 A 
HETATM    9  C1  UNL     1     -34.407  17.208  -5.926  1.00 20.00     0.015 A 
HETATM   10  C2  UNL     1     -34.725  17.730  -7.161  1.00 20.00     0.050 A 
HETATM   11  S12 UNL     1     -36.337  17.371  -7.614  1.00 20.00    -0.113 SA
HETATM   12  C3  UNL     1     -36.613  16.515  -6.157  1.00 20.00     0.057 A 
ENDBRANCH   6   8
TORSDOF 1
ENDMDL
MODEL 8
REMARK VINA RESULT:      -4.4      2.763      3.947
REMARK  1 active torsions:
REMARK  status: ('A' for Active; 'I' for Inactive)
REMARK    1  A    between atoms: C4_4  and  C10_10 
ROOT
HETATM    1  C5  UNL     1     -34.238  15.494  -5.854  1.00 20.00     0.135 C 
HETATM    2  C6  UNL     1     -33.587  16.082  -4.624  1.00 20.00     0.079 C 
HETATM    3  C7  UNL     1     -32.920  14.982  -3.814  1.00 20.00     0.007 C 
HETATM    4  C8  UNL     1     -33.903  13.865  -3.479  1.00 20.00     0.001 C 
HETATM    5  C9  UNL     1     -34.548  13.292  -4.744  1.00 20.00     0.017 C 
HETATM    6  C10 UNL     1     -35.226  14.350  -5.637  1.00 20.00     0.088 C 
HETATM    7  O11 UNL     1     -34.034  15.967  -6.973  1.00 20.00    -0.297 OA
ENDROOT
BRANCH   6   8
HETATM    8  C4  UNL     1     -36.593  14.871  -5.216  1.00 20.00    -0.040 A 
HETATM    9  C1  UNL     1     -37.192  14.600  -3.951  1.00 20.00     0.015 A 
HETATM   10  C2  UNL     1     -38.430  15.191  -3.828  1.00 20.00     0.050 A 
HETATM   11  S12 UNL     1     -38.866  16.067  -5.234  1.00 20.00    -0.113 SA
HETATM   12  C3  UNL     1     -37.396  15.658  -6.011  1.00 20.00     0.057 A 
ENDBRANCH   6   8
TORSDOF 1
ENDMDL
MODEL 9
REMARK VINA RESULT:      -4.4      2.854      4.578
REMARK  1 active torsions:
REMARK  status: ('A' for Active; 'I' for Inactive)
REMARK    1  A    between atoms: C4_4  and  C10_10 
ROOT
HETATM    1  C5  UNL     1     -33.787  17.562  -4.118  1.00 20.00     0.135 C 
HETATM    2  C6  UNL     1     -34.963  17.382  -3.185  1.00 20.00     0.079 C 
HETATM    3  C7  UNL     1     -34.667  16.277  -2.185  1.00 20.00     0.007 C 
HETATM    4  C8  UNL     1     -34.274  14.981  -2.886  1.00 20.00     0.001 C 
HETATM    5  C9  UNL     1     -33.082  15.196  -3.825  1.00 20.00     0.017 C 
HETATM    6  C10 UNL     1     -33.293  16.321  -4.858  1.00 20.00     0.088 C 
HETATM    7  O11 UNL     1     -33.299  18.673  -4.323  1.00 20.00    -0.297 OA
ENDROOT
BRANCH   6   8
HETATM    8  C4  UNL     1     -34.156  16.022  -6.075  1.00 20.00    -0.040 A 
HETATM    9  C1  UNL     1     -34.769  17.026  -6.881  1.00 20.00     0.015 A 
HETATM   10  C2  UNL     1     -35.496  16.485  -7.918  1.00 20.00     0.050 A 
HETATM   11  S12 UNL     1     -35.438  14.773  -7.918  1.00 20.00    -0.113 SA
HETATM   12  C3  UNL     1     -34.438  14.753  -6.528  1.00 20.00     0.057 A 
ENDBRANCH   6   8
TORSDOF 1
ENDMDL
