MODEL 1
REMARK VINA RESULT:      -4.7      0.000      0.000
REMARK  1 active torsions:
REMARK  status: ('A' for Active; 'I' for Inactive)
REMARK    1  A    between atoms: C7_7  and  C11_11 
ROOT
HETATM    1  C1  UNL     1     -37.075  15.676  -3.318  1.00 20.00     0.004 C 
HETATM    2  C2  UNL     1     -36.263  16.914  -3.699  1.00 20.00     0.005 C 
HETATM    3  C3  UNL     1     -33.890  15.974  -3.305  1.00 20.00     0.008 C 
HETATM    4  C4  UNL     1     -36.724  14.428  -4.121  1.00 20.00     0.040 C 
HETATM    5  C5  UNL     1     -34.354  14.539  -3.056  1.00 20.00     0.041 C 
HETATM    6  C6  UNL     1     -34.656  13.591  -5.457  1.00 20.00     0.207 A 
HETATM    7  C7  UNL     1     -34.912  17.076  -2.983  1.00 20.00    -0.011 C 
HETATM    8  C8  UNL     1     -35.268  14.053  -4.146  1.00 20.00     0.082 A 
HETATM    9  O12 UNL     1     -35.071  12.659  -4.458  1.00 20.00    -0.375 OA
ENDROOT
BRANCH   7  10
HETATM   10  C11 UNL     1     -35.074  17.268  -1.470  1.00 20.00    -0.019 C 
HETATM   11  C9  UNL     1     -33.717  17.504  -0.817  1.00 20.00     0.010 C 
HETATM   12  C10 UNL     1     -36.023  18.427  -1.183  1.00 20.00     0.010 C 
ENDBRANCH   7  10
TORSDOF 1
ENDMDL
MODEL 2
REMARK VINA RESULT:      -4.7      1.812      2.417
REMARK  1 active torsions:
REMARK  status: ('A' for Active; 'I' for Inactive)
REMARK    1  A    between atoms: C7_7  and  C11_11 
ROOT
HETATM    1  C1  UNL     1     -34.617  14.085  -3.714  1.00 20.00     0.004 C 
HETATM    2  C2  UNL     1     -35.697  15.042  -3.211  1.00 20.00     0.005 C 
HETATM    3  C3  UNL     1     -35.112  17.101  -4.657  1.00 20.00     0.008 C 
HETATM    4  C4  UNL     1     -34.641  13.852  -5.221  1.00 20.00     0.040 C 
HETATM    5  C5  UNL     1     -34.072  16.374  -5.510  1.00 20.00     0.041 C 
HETATM    6  C6  UNL     1     -35.518  15.156  -7.294  1.00 20.00     0.207 A 
HETATM    7  C7  UNL     1     -35.336  16.537  -3.245  1.00 20.00    -0.011 C 
HETATM    8  C8  UNL     1     -34.615  15.091  -6.075  1.00 20.00     0.082 A 
HETATM    9  O12 UNL     1     -34.135  14.822  -7.408  1.00 20.00    -0.375 OA
ENDROOT
BRANCH   7  10
HETATM   10  C11 UNL     1     -34.165  16.875  -2.313  1.00 20.00    -0.019 C 
HETATM   11  C9  UNL     1     -33.734  18.323  -2.508  1.00 20.00     0.010 C 
HETATM   12  C10 UNL     1     -34.554  16.615  -0.862  1.00 20.00     0.010 C 
ENDBRANCH   7  10
TORSDOF 1
ENDMDL
MODEL 3
REMARK VINA RESULT:      -4.4      2.612      4.855
REMARK  1 active torsions:
REMARK  status: ('A' for Active; 'I' for Inactive)
REMARK    1  A    between atoms: C7_7  and  C11_11 
ROOT
HETATM    1  C1  UNL     1     -34.419  15.516  -2.461  1.00 20.00     0.004 C 
HETATM    2  C2  UNL     1     -33.238  15.306  -3.409  1.00 20.00     0.005 C 
HETATM    3  C3  UNL     1     -33.540  17.397  -4.894  1.00 20.00     0.008 C 
HETATM    4  C4  UNL     1     -34.397  16.850  -1.723  1.00 20.00     0.040 C 
HETATM    5  C5  UNL     1     -34.647  18.012  -4.037  1.00 20.00     0.041 C 
HETATM    6  C6  UNL     1     -33.330  19.187  -2.128  1.00 20.00     0.207 A 
HETATM    7  C7  UNL     1     -33.412  15.867  -4.831  1.00 20.00    -0.011 C 
HETATM    8  C8  UNL     1     -34.256  18.074  -2.586  1.00 20.00     0.082 A 
HETATM    9  O12 UNL     1     -34.742  19.262  -1.928  1.00 20.00    -0.375 OA
ENDROOT
BRANCH   7  10
HETATM   10  C11 UNL     1     -34.548  15.176  -5.595  1.00 20.00    -0.019 C 
HETATM   11  C9  UNL     1     -34.409  15.427  -7.091  1.00 20.00     0.010 C 
HETATM   12  C10 UNL     1     -34.555  13.681  -5.293  1.00 20.00     0.010 C 
ENDBRANCH   7  10
TORSDOF 1
ENDMDL
MODEL 4
REMARK VINA RESULT:      -4.4      2.251      4.574
REMARK  1 active torsions:
REMARK  status: ('A' for Active; 'I' for Inactive)
REMARK    1  A    between atoms: C7_7  and  C11_11 
ROOT
HETATM    1  C1  UNL     1     -33.749  17.647  -4.468  1.00 20.00     0.004 C 
HETATM    2  C2  UNL     1     -35.098  17.141  -4.979  1.00 20.00     0.005 C 
HETATM    3  C3  UNL     1     -35.529  15.302  -3.217  1.00 20.00     0.008 C 
HETATM    4  C4  UNL     1     -33.769  18.123  -3.019  1.00 20.00     0.040 C 
HETATM    5  C5  UNL     1     -34.336  15.677  -2.337  1.00 20.00     0.041 C 
HETATM    6  C6  UNL     1     -35.245  17.663  -0.927  1.00 20.00     0.207 A 
HETATM    7  C7  UNL     1     -35.403  15.658  -4.706  1.00 20.00    -0.011 C 
HETATM    8  C8  UNL     1     -34.322  17.147  -2.017  1.00 20.00     0.082 A 
HETATM    9  O12 UNL     1     -33.859  17.421  -0.678  1.00 20.00    -0.375 OA
ENDROOT
BRANCH   7  10
HETATM   10  C11 UNL     1     -34.428  14.720  -5.428  1.00 20.00    -0.019 C 
HETATM   11  C9  UNL     1     -34.705  13.271  -5.047  1.00 20.00     0.010 C 
HETATM   12  C10 UNL     1     -34.528  14.913  -6.937  1.00 20.00     0.010 C 
ENDBRANCH   7  10
TORSDOF 1
ENDMDL
MODEL 5
REMARK VINA RESULT:      -4.3      2.222      3.756
REMARK  1 active torsions:
REMARK  status: ('A' for Active; 'I' for Inactive)
REMARK    1  A    between atoms: C7_7  and  C11_11 
ROOT
HETATM    1  C1  UNL     1     -34.812  14.522  -6.457  1.00 20.00     0.004 C 
HETATM    2  C2  UNL     1     -34.917  13.689  -5.180  1.00 20.00     0.005 C 
HETATM    3  C3  UNL     1     -36.380  15.289  -3.776  1.00 20.00     0.008 C 
HETATM    4  C4  UNL     1     -36.157  14.889  -7.075  1.00 20.00     0.040 C 
HETATM    5  C5  UNL     1     -36.649  16.264  -4.923  1.00 20.00     0.041 C 
HETATM    6  C6  UNL     1     -38.599  15.131  -6.214  1.00 20.00     0.207 A 
HETATM    7  C7  UNL     1     -35.074  14.484  -3.872  1.00 20.00    -0.011 C 
HETATM    8  C8  UNL     1     -37.142  15.553  -6.153  1.00 20.00     0.082 A 
HETATM    9  O12 UNL     1     -38.136  16.310  -6.873  1.00 20.00    -0.375 OA
ENDROOT
BRANCH   7  10
HETATM   10  C11 UNL     1     -33.850  15.358  -3.571  1.00 20.00    -0.019 C 
HETATM   11  C9  UNL     1     -34.050  16.117  -2.265  1.00 20.00     0.010 C 
HETATM   12  C10 UNL     1     -32.591  14.501  -3.514  1.00 20.00     0.010 C 
ENDBRANCH   7  10
TORSDOF 1
ENDMDL
MODEL 6
REMARK VINA RESULT:      -4.2      1.734      2.319
REMARK  1 active torsions:
REMARK  status: ('A' for Active; 'I' for Inactive)
REMARK    1  A    between atoms: C7_7  and  C11_11 
ROOT
HETATM    1  C1  UNL     1     -34.561  17.763  -5.098  1.00 20.00     0.004 C 
HETATM    2  C2  UNL     1     -33.373  17.222  -4.302  1.00 20.00     0.005 C 
HETATM    3  C3  UNL     1     -34.523  15.193  -3.193  1.00 20.00     0.008 C 
HETATM    4  C4  UNL     1     -35.177  16.754  -6.061  1.00 20.00     0.040 C 
HETATM    5  C5  UNL     1     -35.824  15.327  -3.984  1.00 20.00     0.041 C 
HETATM    6  C6  UNL     1     -35.266  14.161  -6.239  1.00 20.00     0.207 A 
HETATM    7  C7  UNL     1     -33.719  16.488  -2.996  1.00 20.00    -0.011 C 
HETATM    8  C8  UNL     1     -35.567  15.430  -5.463  1.00 20.00     0.082 A 
HETATM    9  O12 UNL     1     -36.567  14.751  -6.250  1.00 20.00    -0.375 OA
ENDROOT
BRANCH   7  10
HETATM   10  C11 UNL     1     -34.385  17.412  -1.968  1.00 20.00    -0.019 C 
HETATM   11  C9  UNL     1     -34.654  16.655  -0.672  1.00 20.00     0.010 C 
HETATM   12  C10 UNL     1     -33.510  18.634  -1.711  1.00 20.00     0.010 C 
ENDBRANCH   7  10
TORSDOF 1
ENDMDL
MODEL 7
REMARK VINA RESULT:      -4.0      2.348      3.877
REMARK  1 active torsions:
REMARK  status: ('A' for Active; 'I' for Inactive)
REMARK    1  A    between atoms: C7_7  and  C11_11 
ROOT
HETATM    1  C1  UNL     1     -35.777  14.932  -6.682  1.00 20.00     0.004 C 
HETATM    2  C2  UNL     1     -36.328  16.157  -5.953  1.00 20.00     0.005 C 
HETATM    3  C3  UNL     1     -36.582  15.139  -3.593  1.00 20.00     0.008 C 
HETATM    4  C4  UNL     1     -34.498  14.366  -6.073  1.00 20.00     0.040 C 
HETATM    5  C5  UNL     1     -35.882  13.825  -3.938  1.00 20.00     0.041 C 
HETATM    6  C6  UNL     1     -33.362  14.427  -3.734  1.00 20.00     0.207 A 
HETATM    7  C7  UNL     1     -37.260  15.867  -4.764  1.00 20.00    -0.011 C 
HETATM    8  C8  UNL     1     -34.553  14.060  -4.601  1.00 20.00     0.082 A 
HETATM    9  O12 UNL     1     -33.556  13.095  -4.209  1.00 20.00    -0.375 OA
ENDROOT
BRANCH   7  10
HETATM   10  C11 UNL     1     -38.551  15.159  -5.195  1.00 20.00    -0.019 C 
HETATM   11  C9  UNL     1     -39.430  14.876  -3.983  1.00 20.00     0.010 C 
HETATM   12  C10 UNL     1     -39.298  16.002  -6.223  1.00 20.00     0.010 C 
ENDBRANCH   7  10
TORSDOF 1
ENDMDL
MODEL 8
REMARK VINA RESULT:      -4.0      2.499      3.205
REMARK  1 active torsions:
REMARK  status: ('A' for Active; 'I' for Inactive)
REMARK    1  A    between atoms: C7_7  and  C11_11 
ROOT
HETATM    1  C1  UNL     1     -35.729  16.097  -6.796  1.00 20.00     0.004 C 
HETATM    2  C2  UNL     1     -34.211  16.266  -6.847  1.00 20.00     0.005 C 
HETATM    3  C3  UNL     1     -33.718  16.234  -4.312  1.00 20.00     0.008 C 
HETATM    4  C4  UNL     1     -36.194  14.848  -6.056  1.00 20.00     0.040 C 
HETATM    5  C5  UNL     1     -35.144  15.863  -3.903  1.00 20.00     0.041 C 
HETATM    6  C6  UNL     1     -35.199  13.285  -4.230  1.00 20.00     0.207 A 
HETATM    7  C7  UNL     1     -33.575  16.985  -5.645  1.00 20.00    -0.011 C 
HETATM    8  C8  UNL     1     -35.647  14.669  -4.666  1.00 20.00     0.082 A 
HETATM    9  O12 UNL     1     -36.477  13.805  -3.862  1.00 20.00    -0.375 OA
ENDROOT
BRANCH   7  10
HETATM   10  C11 UNL     1     -34.043  18.441  -5.524  1.00 20.00    -0.019 C 
HETATM   11  C9  UNL     1     -33.436  19.090  -4.286  1.00 20.00     0.010 C 
HETATM   12  C10 UNL     1     -33.675  19.220  -6.781  1.00 20.00     0.010 C 
ENDBRANCH   7  10
TORSDOF 1
ENDMDL
MODEL 9
REMARK VINA RESULT:      -4.0      1.946      2.954
REMARK  1 active torsions:
REMARK  status: ('A' for Active; 'I' for Inactive)
REMARK    1  A    between atoms: C7_7  and  C11_11 
ROOT
HETATM    1  C1  UNL     1     -35.510  15.913  -6.480  1.00 20.00     0.004 C 
HETATM    2  C2  UNL     1     -35.232  17.013  -5.456  1.00 20.00     0.005 C 
HETATM    3  C3  UNL     1     -36.004  15.778  -3.323  1.00 20.00     0.008 C 
HETATM    4  C4  UNL     1     -34.797  14.597  -6.193  1.00 20.00     0.040 C 
HETATM    5  C5  UNL     1     -36.209  14.431  -4.015  1.00 20.00     0.041 C 
HETATM    6  C6  UNL     1     -33.810  13.433  -4.086  1.00 20.00     0.207 A 
HETATM    7  C7  UNL     1     -36.143  17.021  -4.216  1.00 20.00    -0.011 C 
HETATM    8  C8  UNL     1     -35.002  14.028  -4.816  1.00 20.00     0.082 A 
HETATM    9  O12 UNL     1     -34.753  12.608  -4.772  1.00 20.00    -0.375 OA
ENDROOT
BRANCH   7  10
HETATM   10  C11 UNL     1     -37.609  17.296  -4.573  1.00 20.00    -0.019 C 
HETATM   11  C9  UNL     1     -38.478  17.241  -3.322  1.00 20.00     0.010 C 
HETATM   12  C10 UNL     1     -37.739  18.648  -5.266  1.00 20.00     0.010 C 
ENDBRANCH   7  10
TORSDOF 1
ENDMDL
