MODEL 1
REMARK VINA RESULT:      -4.5      0.000      0.000
REMARK  0 active torsions:
REMARK  status: ('A' for Active; 'I' for Inactive)
ROOT
HETATM    1  C1  UNL     1     -33.230  16.620  -4.505  1.00 20.00     0.004 C 
HETATM    2  C2  UNL     1     -33.930  15.501  -5.275  1.00 20.00     0.040 C 
HETATM    3  C3  UNL     1     -35.584  14.946  -3.360  1.00 20.00     0.041 C 
HETATM    4  C4  UNL     1     -34.219  17.576  -3.833  1.00 20.00     0.009 C 
HETATM    5  C5  UNL     1     -34.899  15.669  -2.197  1.00 20.00     0.012 C 
HETATM    6  C6  UNL     1     -34.729  13.068  -4.931  1.00 20.00     0.207 A 
HETATM    7  C7  UNL     1     -34.600  14.482  -4.400  1.00 20.00     0.082 A 
HETATM    8  C8  UNL     1     -34.662  17.186  -2.401  1.00 20.00    -0.048 C 
HETATM    9  C9  UNL     1     -33.590  17.642  -1.388  1.00 20.00     0.015 C 
HETATM   10  C10 UNL     1     -35.963  17.957  -2.078  1.00 20.00     0.015 C 
HETATM   11  O11 UNL     1     -33.734  13.423  -3.963  1.00 20.00    -0.375 OA
ENDROOT
TORSDOF 0
ENDMDL
MODEL 2
REMARK VINA RESULT:      -4.4      1.891      3.978
REMARK  0 active torsions:
REMARK  status: ('A' for Active; 'I' for Inactive)
ROOT
HETATM    1  C1  UNL     1     -33.823  17.464  -4.544  1.00 20.00     0.004 C 
HETATM    2  C2  UNL     1     -33.857  18.171  -3.190  1.00 20.00     0.040 C 
HETATM    3  C3  UNL     1     -34.668  16.081  -1.894  1.00 20.00     0.041 C 
HETATM    4  C4  UNL     1     -33.136  16.098  -4.474  1.00 20.00     0.009 C 
HETATM    5  C5  UNL     1     -35.132  15.206  -3.061  1.00 20.00     0.012 C 
HETATM    6  C6  UNL     1     -35.413  18.450  -1.147  1.00 20.00     0.207 A 
HETATM    7  C7  UNL     1     -34.794  17.550  -2.198  1.00 20.00     0.082 A 
HETATM    8  C8  UNL     1     -34.058  14.900  -4.135  1.00 20.00    -0.048 C 
HETATM    9  C9  UNL     1     -34.784  14.429  -5.414  1.00 20.00     0.015 C 
HETATM   10  C10 UNL     1     -33.166  13.734  -3.652  1.00 20.00     0.015 C 
HETATM   11  O11 UNL     1     -36.149  18.017  -2.297  1.00 20.00    -0.375 OA
ENDROOT
TORSDOF 0
ENDMDL
MODEL 3
REMARK VINA RESULT:      -4.3      1.383      1.767
REMARK  0 active torsions:
REMARK  status: ('A' for Active; 'I' for Inactive)
ROOT
HETATM    1  C1  UNL     1     -35.976  17.189  -4.249  1.00 20.00     0.004 C 
HETATM    2  C2  UNL     1     -36.238  15.765  -4.739  1.00 20.00     0.040 C 
HETATM    3  C3  UNL     1     -34.426  14.699  -3.225  1.00 20.00     0.041 C 
HETATM    4  C4  UNL     1     -35.880  17.276  -2.724  1.00 20.00     0.009 C 
HETATM    5  C5  UNL     1     -33.641  15.951  -2.825  1.00 20.00     0.012 C 
HETATM    6  C6  UNL     1     -34.937  13.689  -5.558  1.00 20.00     0.207 A 
HETATM    7  C7  UNL     1     -35.069  14.838  -4.579  1.00 20.00     0.082 A 
HETATM    8  C8  UNL     1     -34.466  17.061  -2.128  1.00 20.00    -0.048 C 
HETATM    9  C9  UNL     1     -33.664  18.378  -2.217  1.00 20.00     0.015 C 
HETATM   10  C10 UNL     1     -34.628  16.717  -0.630  1.00 20.00     0.015 C 
HETATM   11  O11 UNL     1     -34.138  14.873  -5.673  1.00 20.00    -0.375 OA
ENDROOT
TORSDOF 0
ENDMDL
MODEL 4
REMARK VINA RESULT:      -4.3      2.079      4.003
REMARK  0 active torsions:
REMARK  status: ('A' for Active; 'I' for Inactive)
ROOT
HETATM    1  C1  UNL     1     -34.592  16.989  -5.270  1.00 20.00     0.004 C 
HETATM    2  C2  UNL     1     -33.761  18.017  -4.503  1.00 20.00     0.040 C 
HETATM    3  C3  UNL     1     -33.579  16.570  -2.362  1.00 20.00     0.041 C 
HETATM    4  C4  UNL     1     -34.020  15.573  -5.158  1.00 20.00     0.009 C 
HETATM    5  C5  UNL     1     -34.679  15.542  -2.640  1.00 20.00     0.012 C 
HETATM    6  C6  UNL     1     -33.677  19.155  -2.186  1.00 20.00     0.207 A 
HETATM    7  C7  UNL     1     -33.864  17.898  -3.011  1.00 20.00     0.082 A 
HETATM    8  C8  UNL     1     -34.525  14.738  -3.955  1.00 20.00    -0.048 C 
HETATM    9  C9  UNL     1     -35.897  14.118  -4.298  1.00 20.00     0.015 C 
HETATM   10  C10 UNL     1     -33.533  13.574  -3.733  1.00 20.00     0.015 C 
HETATM   11  O11 UNL     1     -34.976  18.607  -2.440  1.00 20.00    -0.375 OA
ENDROOT
TORSDOF 0
ENDMDL
MODEL 5
REMARK VINA RESULT:      -4.3      2.509      4.241
REMARK  0 active torsions:
REMARK  status: ('A' for Active; 'I' for Inactive)
ROOT
HETATM    1  C1  UNL     1     -37.168  14.993  -4.359  1.00 20.00     0.004 C 
HETATM    2  C2  UNL     1     -35.808  14.807  -3.689  1.00 20.00     0.040 C 
HETATM    3  C3  UNL     1     -34.489  14.787  -5.919  1.00 20.00     0.041 C 
HETATM    4  C4  UNL     1     -37.149  16.087  -5.429  1.00 20.00     0.009 C 
HETATM    5  C5  UNL     1     -35.638  14.566  -6.906  1.00 20.00     0.012 C 
HETATM    6  C6  UNL     1     -33.679  13.359  -3.912  1.00 20.00     0.207 A 
HETATM    7  C7  UNL     1     -34.771  14.176  -4.572  1.00 20.00     0.082 A 
HETATM    8  C8  UNL     1     -36.772  15.621  -6.858  1.00 20.00    -0.048 C 
HETATM    9  C9  UNL     1     -38.014  15.018  -7.548  1.00 20.00     0.015 C 
HETATM   10  C10 UNL     1     -36.350  16.867  -7.669  1.00 20.00     0.015 C 
HETATM   11  O11 UNL     1     -34.792  12.740  -4.569  1.00 20.00    -0.375 OA
ENDROOT
TORSDOF 0
ENDMDL
MODEL 6
REMARK VINA RESULT:      -4.3      1.895      4.033
REMARK  0 active torsions:
REMARK  status: ('A' for Active; 'I' for Inactive)
ROOT
HETATM    1  C1  UNL     1     -34.031  13.682  -4.561  1.00 20.00     0.004 C 
HETATM    2  C2  UNL     1     -34.463  14.139  -3.168  1.00 20.00     0.040 C 
HETATM    3  C3  UNL     1     -35.709  16.242  -4.028  1.00 20.00     0.041 C 
HETATM    4  C4  UNL     1     -35.177  13.725  -5.574  1.00 20.00     0.009 C 
HETATM    5  C5  UNL     1     -35.144  16.325  -5.448  1.00 20.00     0.012 C 
HETATM    6  C6  UNL     1     -34.520  16.280  -1.723  1.00 20.00     0.207 A 
HETATM    7  C7  UNL     1     -34.738  15.611  -3.065  1.00 20.00     0.082 A 
HETATM    8  C8  UNL     1     -35.357  15.067  -6.327  1.00 20.00    -0.048 C 
HETATM    9  C9  UNL     1     -34.362  15.134  -7.505  1.00 20.00     0.015 C 
HETATM   10  C10 UNL     1     -36.784  15.092  -6.922  1.00 20.00     0.015 C 
HETATM   11  O11 UNL     1     -33.575  16.409  -2.793  1.00 20.00    -0.375 OA
ENDROOT
TORSDOF 0
ENDMDL
MODEL 7
REMARK VINA RESULT:      -4.2      2.197      3.017
REMARK  0 active torsions:
REMARK  status: ('A' for Active; 'I' for Inactive)
ROOT
HETATM    1  C1  UNL     1     -35.456  14.809  -5.839  1.00 20.00     0.004 C 
HETATM    2  C2  UNL     1     -36.935  15.174  -5.722  1.00 20.00     0.040 C 
HETATM    3  C3  UNL     1     -36.700  16.194  -3.352  1.00 20.00     0.041 C 
HETATM    4  C4  UNL     1     -34.535  15.955  -5.415  1.00 20.00     0.009 C 
HETATM    5  C5  UNL     1     -35.330  15.638  -2.957  1.00 20.00     0.012 C 
HETATM    6  C6  UNL     1     -38.888  14.983  -4.041  1.00 20.00     0.207 A 
HETATM    7  C7  UNL     1     -37.427  15.287  -4.309  1.00 20.00     0.082 A 
HETATM    8  C8  UNL     1     -34.163  15.996  -3.911  1.00 20.00    -0.048 C 
HETATM    9  C9  UNL     1     -33.005  15.012  -3.639  1.00 20.00     0.015 C 
HETATM   10  C10 UNL     1     -33.651  17.417  -3.586  1.00 20.00     0.015 C 
HETATM   11  O11 UNL     1     -37.853  14.042  -3.733  1.00 20.00    -0.375 OA
ENDROOT
TORSDOF 0
ENDMDL
MODEL 8
REMARK VINA RESULT:      -4.2      1.864      2.246
REMARK  0 active torsions:
REMARK  status: ('A' for Active; 'I' for Inactive)
ROOT
HETATM    1  C1  UNL     1     -34.096  14.534  -3.450  1.00 20.00     0.004 C 
HETATM    2  C2  UNL     1     -34.576  14.608  -4.899  1.00 20.00     0.040 C 
HETATM    3  C3  UNL     1     -35.721  16.914  -4.612  1.00 20.00     0.041 C 
HETATM    4  C4  UNL     1     -33.443  15.837  -2.982  1.00 20.00     0.009 C 
HETATM    5  C5  UNL     1     -35.770  17.000  -3.085  1.00 20.00     0.012 C 
HETATM    6  C6  UNL     1     -36.710  15.160  -6.246  1.00 20.00     0.207 A 
HETATM    7  C7  UNL     1     -35.771  15.492  -5.104  1.00 20.00     0.082 A 
HETATM    8  C8  UNL     1     -34.403  16.885  -2.365  1.00 20.00    -0.048 C 
HETATM    9  C9  UNL     1     -34.670  16.531  -0.886  1.00 20.00     0.015 C 
HETATM   10  C10 UNL     1     -33.691  18.257  -2.392  1.00 20.00     0.015 C 
HETATM   11  O11 UNL     1     -37.031  14.837  -4.887  1.00 20.00    -0.375 OA
ENDROOT
TORSDOF 0
ENDMDL
MODEL 9
REMARK VINA RESULT:      -4.2      1.967      3.908
REMARK  0 active torsions:
REMARK  status: ('A' for Active; 'I' for Inactive)
ROOT
HETATM    1  C1  UNL     1     -33.804  16.698  -2.513  1.00 20.00     0.004 C 
HETATM    2  C2  UNL     1     -34.478  17.908  -3.160  1.00 20.00     0.040 C 
HETATM    3  C3  UNL     1     -35.040  16.668  -5.364  1.00 20.00     0.041 C 
HETATM    4  C4  UNL     1     -34.628  15.417  -2.667  1.00 20.00     0.009 C 
HETATM    5  C5  UNL     1     -34.130  15.445  -5.222  1.00 20.00     0.012 C 
HETATM    6  C6  UNL     1     -34.487  19.201  -5.396  1.00 20.00     0.207 A 
HETATM    7  C7  UNL     1     -34.483  17.876  -4.660  1.00 20.00     0.082 A 
HETATM    8  C8  UNL     1     -34.352  14.591  -3.949  1.00 20.00    -0.048 C 
HETATM    9  C9  UNL     1     -33.097  13.716  -3.737  1.00 20.00     0.015 C 
HETATM   10  C10 UNL     1     -35.550  13.640  -4.170  1.00 20.00     0.015 C 
HETATM   11  O11 UNL     1     -33.296  18.415  -5.263  1.00 20.00    -0.375 OA
ENDROOT
TORSDOF 0
ENDMDL
