MODEL 1
REMARK VINA RESULT:      -4.1      0.000      0.000
REMARK  4 active torsions:
REMARK  status: ('A' for Active; 'I' for Inactive)
REMARK    1  A    between atoms: C5_5  and  C7_7 
REMARK    2  A    between atoms: C5_5  and  O10_10 
REMARK    3  A    between atoms: C6_6  and  C7_7 
REMARK    4  A    between atoms: C7_7  and  N8_8 
ROOT
HETATM    1  C1  UNL     1     -34.067  13.318  -4.167  1.00 20.00     0.332 C 
HETATM    2  N8  UNL     1     -33.222  13.977  -3.696  1.00 20.00    -0.240 NA
HETATM    3  O9  UNL     1     -34.910  12.648  -4.640  1.00 20.00    -0.260 OA
ENDROOT
BRANCH   2   4
HETATM    4  C7  UNL     1     -33.585  15.395  -3.542  1.00 20.00     0.139 C 
BRANCH   4   5
HETATM    5  C5  UNL     1     -33.851  15.970  -4.932  1.00 20.00     0.194 C 
BRANCH   5   6
HETATM    6  O10 UNL     1     -32.961  17.057  -5.164  1.00 20.00    -0.394 OA
HETATM    7  C4  UNL     1     -33.642  18.302  -5.123  1.00 20.00     0.201 C 
ENDBRANCH   5   6
ENDBRANCH   4   5
BRANCH   4   8
HETATM    8  C6  UNL     1     -34.796  15.527  -2.593  1.00 20.00     0.004 C 
HETATM    9  C2  UNL     1     -36.031  16.039  -3.341  1.00 20.00     0.012 C 
HETATM   10  C3  UNL     1     -34.526  16.409  -1.370  1.00 20.00     0.012 C 
ENDBRANCH   4   8
ENDBRANCH   2   4
TORSDOF 4
ENDMDL
MODEL 2
REMARK VINA RESULT:      -4.0      2.440      3.921
REMARK  4 active torsions:
REMARK  status: ('A' for Active; 'I' for Inactive)
REMARK    1  A    between atoms: C5_5  and  C7_7 
REMARK    2  A    between atoms: C5_5  and  O10_10 
REMARK    3  A    between atoms: C6_6  and  C7_7 
REMARK    4  A    between atoms: C7_7  and  N8_8 
ROOT
HETATM    1  C1  UNL     1     -33.904  13.150  -4.138  1.00 20.00     0.332 C 
HETATM    2  N8  UNL     1     -34.883  12.888  -4.725  1.00 20.00    -0.240 NA
HETATM    3  O9  UNL     1     -32.918  13.402  -3.547  1.00 20.00    -0.260 OA
ENDROOT
BRANCH   2   4
HETATM    4  C7  UNL     1     -35.646  14.066  -5.169  1.00 20.00     0.139 C 
BRANCH   4   5
HETATM    5  C5  UNL     1     -36.312  14.689  -3.944  1.00 20.00     0.194 C 
BRANCH   5   6
HETATM    6  O10 UNL     1     -37.604  14.113  -3.774  1.00 20.00    -0.394 OA
HETATM    7  C4  UNL     1     -38.606  15.112  -3.656  1.00 20.00     0.201 C 
ENDBRANCH   5   6
ENDBRANCH   4   5
BRANCH   4   8
HETATM    8  C6  UNL     1     -34.712  15.047  -5.911  1.00 20.00     0.004 C 
HETATM    9  C2  UNL     1     -35.035  16.500  -5.547  1.00 20.00     0.012 C 
HETATM   10  C3  UNL     1     -34.727  14.877  -7.434  1.00 20.00     0.012 C 
ENDBRANCH   4   8
ENDBRANCH   2   4
TORSDOF 4
ENDMDL
MODEL 3
REMARK VINA RESULT:      -4.0      1.184      1.686
REMARK  4 active torsions:
REMARK  status: ('A' for Active; 'I' for Inactive)
REMARK    1  A    between atoms: C5_5  and  C7_7 
REMARK    2  A    between atoms: C5_5  and  O10_10 
REMARK    3  A    between atoms: C6_6  and  C7_7 
REMARK    4  A    between atoms: C7_7  and  N8_8 
ROOT
HETATM    1  C1  UNL     1     -35.157  13.597  -4.168  1.00 20.00     0.332 C 
HETATM    2  N8  UNL     1     -35.423  14.624  -3.673  1.00 20.00    -0.240 NA
HETATM    3  O9  UNL     1     -34.899  12.564  -4.668  1.00 20.00    -0.260 OA
ENDROOT
BRANCH   2   4
HETATM    4  C7  UNL     1     -34.321  15.221  -2.903  1.00 20.00     0.139 C 
BRANCH   4   5
HETATM    5  C5  UNL     1     -33.103  15.323  -3.819  1.00 20.00     0.194 C 
BRANCH   5   6
HETATM    6  O10 UNL     1     -33.024  16.645  -4.342  1.00 20.00    -0.394 OA
HETATM    7  C4  UNL     1     -33.456  16.694  -5.694  1.00 20.00     0.201 C 
ENDBRANCH   5   6
ENDBRANCH   4   5
BRANCH   4   8
HETATM    8  C6  UNL     1     -34.759  16.586  -2.330  1.00 20.00     0.004 C 
HETATM    9  C2  UNL     1     -34.611  16.619  -0.805  1.00 20.00     0.012 C 
HETATM   10  C3  UNL     1     -36.184  16.989  -2.722  1.00 20.00     0.012 C 
ENDBRANCH   4   8
ENDBRANCH   2   4
TORSDOF 4
ENDMDL
MODEL 4
REMARK VINA RESULT:      -3.9      1.579      3.085
REMARK  4 active torsions:
REMARK  status: ('A' for Active; 'I' for Inactive)
REMARK    1  A    between atoms: C5_5  and  C7_7 
REMARK    2  A    between atoms: C5_5  and  O10_10 
REMARK    3  A    between atoms: C6_6  and  C7_7 
REMARK    4  A    between atoms: C7_7  and  N8_8 
ROOT
HETATM    1  C1  UNL     1     -34.227  13.468  -4.213  1.00 20.00     0.332 C 
HETATM    2  N8  UNL     1     -33.460  14.304  -3.927  1.00 20.00    -0.240 NA
HETATM    3  O9  UNL     1     -34.991  12.620  -4.500  1.00 20.00    -0.260 OA
ENDROOT
BRANCH   2   4
HETATM    4  C7  UNL     1     -34.016  15.666  -3.967  1.00 20.00     0.139 C 
BRANCH   4   5
HETATM    5  C5  UNL     1     -33.703  16.345  -2.634  1.00 20.00     0.194 C 
BRANCH   5   6
HETATM    6  O10 UNL     1     -34.707  15.993  -1.687  1.00 20.00    -0.394 OA
HETATM    7  C4  UNL     1     -34.661  16.838  -0.546  1.00 20.00     0.201 C 
ENDBRANCH   5   6
ENDBRANCH   4   5
BRANCH   4   8
HETATM    8  C6  UNL     1     -33.445  16.431  -5.181  1.00 20.00     0.004 C 
HETATM    9  C2  UNL     1     -33.519  17.946  -4.964  1.00 20.00     0.012 C 
HETATM   10  C3  UNL     1     -34.113  16.062  -6.509  1.00 20.00     0.012 C 
ENDBRANCH   4   8
ENDBRANCH   2   4
TORSDOF 4
ENDMDL
MODEL 5
REMARK VINA RESULT:      -3.9      2.066      3.194
REMARK  4 active torsions:
REMARK  status: ('A' for Active; 'I' for Inactive)
REMARK    1  A    between atoms: C5_5  and  C7_7 
REMARK    2  A    between atoms: C5_5  and  O10_10 
REMARK    3  A    between atoms: C6_6  and  C7_7 
REMARK    4  A    between atoms: C7_7  and  N8_8 
ROOT
HETATM    1  C1  UNL     1     -36.790  15.192  -3.436  1.00 20.00     0.332 C 
HETATM    2  N8  UNL     1     -35.907  15.957  -3.355  1.00 20.00    -0.240 NA
HETATM    3  O9  UNL     1     -37.682  14.431  -3.523  1.00 20.00    -0.260 OA
ENDROOT
BRANCH   2   4
HETATM    4  C7  UNL     1     -34.724  15.433  -2.654  1.00 20.00     0.139 C 
BRANCH   4   5
HETATM    5  C5  UNL     1     -33.800  14.800  -3.693  1.00 20.00     0.194 C 
BRANCH   5   6
HETATM    6  O10 UNL     1     -34.030  13.395  -3.725  1.00 20.00    -0.394 OA
HETATM    7  C4  UNL     1     -34.544  12.983  -4.984  1.00 20.00     0.201 C 
ENDBRANCH   5   6
ENDBRANCH   4   5
BRANCH   4   8
HETATM    8  C6  UNL     1     -34.044  16.565  -1.852  1.00 20.00     0.004 C 
HETATM    9  C2  UNL     1     -34.755  16.799  -0.515  1.00 20.00     0.012 C 
HETATM   10  C3  UNL     1     -33.936  17.884  -2.623  1.00 20.00     0.012 C 
ENDBRANCH   4   8
ENDBRANCH   2   4
TORSDOF 4
ENDMDL
MODEL 6
REMARK VINA RESULT:      -3.9      1.370      1.833
REMARK  4 active torsions:
REMARK  status: ('A' for Active; 'I' for Inactive)
REMARK    1  A    between atoms: C5_5  and  C7_7 
REMARK    2  A    between atoms: C5_5  and  O10_10 
REMARK    3  A    between atoms: C6_6  and  C7_7 
REMARK    4  A    between atoms: C7_7  and  N8_8 
ROOT
HETATM    1  C1  UNL     1     -34.805  13.514  -4.007  1.00 20.00     0.332 C 
HETATM    2  N8  UNL     1     -34.767  14.421  -3.268  1.00 20.00    -0.240 NA
HETATM    3  O9  UNL     1     -34.850  12.597  -4.743  1.00 20.00    -0.260 OA
ENDROOT
BRANCH   2   4
HETATM    4  C7  UNL     1     -33.972  15.558  -3.758  1.00 20.00     0.139 C 
BRANCH   4   5
HETATM    5  C5  UNL     1     -34.714  16.182  -4.939  1.00 20.00     0.194 C 
BRANCH   5   6
HETATM    6  O10 UNL     1     -33.854  16.195  -6.073  1.00 20.00    -0.394 OA
HETATM    7  C4  UNL     1     -34.333  15.334  -7.097  1.00 20.00     0.201 C 
ENDBRANCH   5   6
ENDBRANCH   4   5
BRANCH   4   8
HETATM    8  C6  UNL     1     -33.722  16.558  -2.608  1.00 20.00     0.004 C 
HETATM    9  C2  UNL     1     -34.681  16.308  -1.439  1.00 20.00     0.012 C 
HETATM   10  C3  UNL     1     -33.800  18.025  -3.040  1.00 20.00     0.012 C 
ENDBRANCH   4   8
ENDBRANCH   2   4
TORSDOF 4
ENDMDL
MODEL 7
REMARK VINA RESULT:      -3.8      1.698      3.201
REMARK  4 active torsions:
REMARK  status: ('A' for Active; 'I' for Inactive)
REMARK    1  A    between atoms: C5_5  and  C7_7 
REMARK    2  A    between atoms: C5_5  and  O10_10 
REMARK    3  A    between atoms: C6_6  and  C7_7 
REMARK    4  A    between atoms: C7_7  and  N8_8 
ROOT
HETATM    1  C1  UNL     1     -33.642  16.433  -5.870  1.00 20.00     0.332 C 
HETATM    2  N8  UNL     1     -33.081  16.510  -4.846  1.00 20.00    -0.240 NA
HETATM    3  O9  UNL     1     -34.198  16.361  -6.904  1.00 20.00    -0.260 OA
ENDROOT
BRANCH   2   4
HETATM    4  C7  UNL     1     -33.736  15.780  -3.748  1.00 20.00     0.139 C 
BRANCH   4   5
HETATM    5  C5  UNL     1     -33.063  14.414  -3.621  1.00 20.00     0.194 C 
BRANCH   5   6
HETATM    6  O10 UNL     1     -34.062  13.423  -3.399  1.00 20.00    -0.394 OA
HETATM    7  C4  UNL     1     -34.920  13.291  -4.523  1.00 20.00     0.201 C 
ENDBRANCH   5   6
ENDBRANCH   4   5
BRANCH   4   8
HETATM    8  C6  UNL     1     -33.664  16.610  -2.449  1.00 20.00     0.004 C 
HETATM    9  C2  UNL     1     -34.775  16.208  -1.473  1.00 20.00     0.012 C 
HETATM   10  C3  UNL     1     -33.700  18.124  -2.683  1.00 20.00     0.012 C 
ENDBRANCH   4   8
ENDBRANCH   2   4
TORSDOF 4
ENDMDL
MODEL 8
REMARK VINA RESULT:      -3.7      2.216      2.971
REMARK  4 active torsions:
REMARK  status: ('A' for Active; 'I' for Inactive)
REMARK    1  A    between atoms: C5_5  and  C7_7 
REMARK    2  A    between atoms: C5_5  and  O10_10 
REMARK    3  A    between atoms: C6_6  and  C7_7 
REMARK    4  A    between atoms: C7_7  and  N8_8 
ROOT
HETATM    1  C1  UNL     1     -37.377  14.993  -3.977  1.00 20.00     0.332 C 
HETATM    2  N8  UNL     1     -36.609  15.836  -4.243  1.00 20.00    -0.240 NA
HETATM    3  O9  UNL     1     -38.156  14.154  -3.708  1.00 20.00    -0.260 OA
ENDROOT
BRANCH   2   4
HETATM    4  C7  UNL     1     -35.287  15.334  -4.652  1.00 20.00     0.139 C 
BRANCH   4   5
HETATM    5  C5  UNL     1     -34.557  16.461  -5.381  1.00 20.00     0.194 C 
BRANCH   5   6
HETATM    6  O10 UNL     1     -33.823  15.911  -6.470  1.00 20.00    -0.394 OA
HETATM    7  C4  UNL     1     -34.591  14.950  -7.180  1.00 20.00     0.201 C 
ENDBRANCH   5   6
ENDBRANCH   4   5
BRANCH   4   8
HETATM    8  C6  UNL     1     -34.517  14.816  -3.418  1.00 20.00     0.004 C 
HETATM    9  C2  UNL     1     -33.853  15.969  -2.657  1.00 20.00     0.012 C 
HETATM   10  C3  UNL     1     -33.475  13.743  -3.750  1.00 20.00     0.012 C 
ENDBRANCH   4   8
ENDBRANCH   2   4
TORSDOF 4
ENDMDL
MODEL 9
REMARK VINA RESULT:      -3.7      2.621      4.291
REMARK  4 active torsions:
REMARK  status: ('A' for Active; 'I' for Inactive)
REMARK    1  A    between atoms: C5_5  and  C7_7 
REMARK    2  A    between atoms: C5_5  and  O10_10 
REMARK    3  A    between atoms: C6_6  and  C7_7 
REMARK    4  A    between atoms: C7_7  and  N8_8 
ROOT
HETATM    1  C1  UNL     1     -34.662  16.238  -1.660  1.00 20.00     0.332 C 
HETATM    2  N8  UNL     1     -34.599  15.935  -2.789  1.00 20.00    -0.240 NA
HETATM    3  O9  UNL     1     -34.718  16.549  -0.527  1.00 20.00    -0.260 OA
ENDROOT
BRANCH   2   4
HETATM    4  C7  UNL     1     -35.453  14.792  -3.150  1.00 20.00     0.139 C 
BRANCH   4   5
HETATM    5  C5  UNL     1     -36.798  15.337  -3.627  1.00 20.00     0.194 C 
BRANCH   5   6
HETATM    6  O10 UNL     1     -37.741  14.271  -3.674  1.00 20.00    -0.394 OA
HETATM    7  C4  UNL     1     -38.976  14.696  -4.232  1.00 20.00     0.201 C 
ENDBRANCH   5   6
ENDBRANCH   4   5
BRANCH   4   8
HETATM    8  C6  UNL     1     -34.745  13.923  -4.212  1.00 20.00     0.004 C 
HETATM    9  C2  UNL     1     -33.307  13.599  -3.792  1.00 20.00     0.012 C 
HETATM   10  C3  UNL     1     -34.751  14.539  -5.615  1.00 20.00     0.012 C 
ENDBRANCH   4   8
ENDBRANCH   2   4
TORSDOF 4
ENDMDL
