MODEL 1
REMARK VINA RESULT:      -4.9      0.000      0.000
REMARK  2 active torsions:
REMARK  status: ('A' for Active; 'I' for Inactive)
REMARK    1  A    between atoms: C6_6  and  C9_9 
REMARK    2  A    between atoms: C9_9  and  C10_10 
ROOT
HETATM    1  C1  UNL     1     -36.419  15.967  -4.142  1.00 20.00     0.002 C 
HETATM    2  C2  UNL     1     -35.110  16.749  -4.094  1.00 20.00     0.005 C 
HETATM    3  C3  UNL     1     -33.220  15.109  -3.613  1.00 20.00     0.006 C 
HETATM    4  C4  UNL     1     -36.388  14.441  -4.057  1.00 20.00     0.020 C 
HETATM    5  C5  UNL     1     -33.939  13.767  -3.714  1.00 20.00     0.020 C 
HETATM    6  C6  UNL     1     -34.033  16.306  -3.101  1.00 20.00    -0.014 C 
HETATM    7  C7  UNL     1     -35.179  13.689  -4.609  1.00 20.00     0.082 C 
HETATM    8 CL11 UNL     1     -34.828  14.126  -6.303  1.00 20.00    -0.125 Cl
ENDROOT
BRANCH   6   9
HETATM    9  C9  UNL     1     -34.549  16.124  -1.675  1.00 20.00     0.004 C 
BRANCH   9  10
HETATM   10  C10 UNL     1     -34.136  17.293  -0.792  1.00 20.00    -0.004 C 
HETATM   11  C8  UNL     1     -35.001  17.365   0.456  1.00 20.00     0.005 C 
ENDBRANCH   9  10
ENDBRANCH   6   9
TORSDOF 2
ENDMDL
MODEL 2
REMARK VINA RESULT:      -4.9      0.837      1.337
REMARK  2 active torsions:
REMARK  status: ('A' for Active; 'I' for Inactive)
REMARK    1  A    between atoms: C6_6  and  C9_9 
REMARK    2  A    between atoms: C9_9  and  C10_10 
ROOT
HETATM    1  C1  UNL     1     -34.831  17.084  -4.849  1.00 20.00     0.002 C 
HETATM    2  C2  UNL     1     -33.583  16.477  -4.214  1.00 20.00     0.005 C 
HETATM    3  C3  UNL     1     -34.083  14.044  -3.643  1.00 20.00     0.006 C 
HETATM    4  C4  UNL     1     -36.029  16.187  -5.159  1.00 20.00     0.020 C 
HETATM    5  C5  UNL     1     -35.447  13.845  -4.298  1.00 20.00     0.020 C 
HETATM    6  C6  UNL     1     -33.761  15.443  -3.100  1.00 20.00    -0.014 C 
HETATM    7  C7  UNL     1     -35.791  14.720  -5.506  1.00 20.00     0.082 C 
HETATM    8 CL11 UNL     1     -34.629  14.523  -6.846  1.00 20.00    -0.125 Cl
ENDROOT
BRANCH   6   9
HETATM    9  C9  UNL     1     -34.706  15.895  -1.989  1.00 20.00     0.004 C 
BRANCH   9  10
HETATM   10  C10 UNL     1     -34.081  17.007  -1.159  1.00 20.00    -0.004 C 
HETATM   11  C8  UNL     1     -34.877  17.251   0.114  1.00 20.00     0.005 C 
ENDBRANCH   9  10
ENDBRANCH   6   9
TORSDOF 2
ENDMDL
MODEL 3
REMARK VINA RESULT:      -4.6      1.180      2.115
REMARK  2 active torsions:
REMARK  status: ('A' for Active; 'I' for Inactive)
REMARK    1  A    between atoms: C6_6  and  C9_9 
REMARK    2  A    between atoms: C9_9  and  C10_10 
ROOT
HETATM    1  C1  UNL     1     -35.571  13.551  -4.150  1.00 20.00     0.002 C 
HETATM    2  C2  UNL     1     -36.349  14.778  -3.684  1.00 20.00     0.005 C 
HETATM    3  C3  UNL     1     -35.163  16.853  -4.568  1.00 20.00     0.006 C 
HETATM    4  C4  UNL     1     -34.397  13.724  -5.113  1.00 20.00     0.020 C 
HETATM    5  C5  UNL     1     -34.112  16.243  -5.491  1.00 20.00     0.020 C 
HETATM    6  C6  UNL     1     -35.566  16.044  -3.327  1.00 20.00    -0.014 C 
HETATM    7  C7  UNL     1     -34.419  14.878  -6.113  1.00 20.00     0.082 C 
HETATM    8 CL11 UNL     1     -35.908  14.893  -7.095  1.00 20.00    -0.125 Cl
ENDROOT
BRANCH   6   9
HETATM    9  C9  UNL     1     -34.409  15.799  -2.360  1.00 20.00     0.004 C 
BRANCH   9  10
HETATM   10  C10 UNL     1     -34.623  16.550  -1.053  1.00 20.00    -0.004 C 
HETATM   11  C8  UNL     1     -33.608  17.671  -0.897  1.00 20.00     0.005 C 
ENDBRANCH   9  10
ENDBRANCH   6   9
TORSDOF 2
ENDMDL
MODEL 4
REMARK VINA RESULT:      -4.3      2.537      4.551
REMARK  2 active torsions:
REMARK  status: ('A' for Active; 'I' for Inactive)
REMARK    1  A    between atoms: C6_6  and  C9_9 
REMARK    2  A    between atoms: C9_9  and  C10_10 
ROOT
HETATM    1  C1  UNL     1     -34.564  14.667  -3.480  1.00 20.00     0.002 C 
HETATM    2  C2  UNL     1     -33.328  15.340  -4.068  1.00 20.00     0.005 C 
HETATM    3  C3  UNL     1     -33.746  17.853  -4.135  1.00 20.00     0.006 C 
HETATM    4  C4  UNL     1     -35.700  15.528  -2.928  1.00 20.00     0.020 C 
HETATM    5  C5  UNL     1     -35.059  17.971  -3.367  1.00 20.00     0.020 C 
HETATM    6  C6  UNL     1     -33.521  16.574  -4.953  1.00 20.00    -0.014 C 
HETATM    7  C7  UNL     1     -35.374  16.893  -2.326  1.00 20.00     0.082 C 
HETATM    8 CL11 UNL     1     -34.130  16.789  -1.052  1.00 20.00    -0.125 Cl
ENDROOT
BRANCH   6   9
HETATM    9  C9  UNL     1     -34.548  16.376  -6.065  1.00 20.00     0.004 C 
BRANCH   9  10
HETATM   10  C10 UNL     1     -34.160  15.211  -6.965  1.00 20.00    -0.004 C 
HETATM   11  C8  UNL     1     -35.391  14.450  -7.432  1.00 20.00     0.005 C 
ENDBRANCH   9  10
ENDBRANCH   6   9
TORSDOF 2
ENDMDL
MODEL 5
REMARK VINA RESULT:      -4.3      2.391      4.499
REMARK  2 active torsions:
REMARK  status: ('A' for Active; 'I' for Inactive)
REMARK    1  A    between atoms: C6_6  and  C9_9 
REMARK    2  A    between atoms: C9_9  and  C10_10 
ROOT
HETATM    1  C1  UNL     1     -36.387  15.118  -3.630  1.00 20.00     0.002 C 
HETATM    2  C2  UNL     1     -35.162  14.236  -3.853  1.00 20.00     0.005 C 
HETATM    3  C3  UNL     1     -33.113  15.744  -4.000  1.00 20.00     0.006 C 
HETATM    4  C4  UNL     1     -36.203  16.617  -3.396  1.00 20.00     0.020 C 
HETATM    5  C5  UNL     1     -33.696  17.101  -3.614  1.00 20.00     0.020 C 
HETATM    6  C6  UNL     1     -34.034  14.767  -4.742  1.00 20.00    -0.014 C 
HETATM    7  C7  UNL     1     -34.931  17.113  -2.710  1.00 20.00     0.082 C 
HETATM    8 CL11 UNL     1     -34.645  16.300  -1.149  1.00 20.00    -0.125 Cl
ENDROOT
BRANCH   6   9
HETATM    9  C9  UNL     1     -34.514  15.293  -6.094  1.00 20.00     0.004 C 
BRANCH   9  10
HETATM   10  C10 UNL     1     -35.165  14.185  -6.910  1.00 20.00    -0.004 C 
HETATM   11  C8  UNL     1     -36.151  14.758  -7.916  1.00 20.00     0.005 C 
ENDBRANCH   9  10
ENDBRANCH   6   9
TORSDOF 2
ENDMDL
MODEL 6
REMARK VINA RESULT:      -4.2     10.917     11.971
REMARK  2 active torsions:
REMARK  status: ('A' for Active; 'I' for Inactive)
REMARK    1  A    between atoms: C6_6  and  C9_9 
REMARK    2  A    between atoms: C9_9  and  C10_10 
ROOT
HETATM    1  C1  UNL     1     -34.326   5.129   2.645  1.00 20.00     0.002 C 
HETATM    2  C2  UNL     1     -32.844   5.332   2.941  1.00 20.00     0.005 C 
HETATM    3  C3  UNL     1     -32.640   6.649   5.114  1.00 20.00     0.006 C 
HETATM    4  C4  UNL     1     -35.367   5.569   3.674  1.00 20.00     0.020 C 
HETATM    5  C5  UNL     1     -34.087   6.678   5.597  1.00 20.00     0.020 C 
HETATM    6  C6  UNL     1     -32.404   6.643   3.597  1.00 20.00    -0.014 C 
HETATM    7  C7  UNL     1     -35.007   5.536   5.158  1.00 20.00     0.082 C 
HETATM    8 CL11 UNL     1     -34.406   3.938   5.672  1.00 20.00    -0.125 Cl
ENDROOT
BRANCH   6   9
HETATM    9  C9  UNL     1     -32.940   7.890   2.895  1.00 20.00     0.004 C 
BRANCH   9  10
HETATM   10  C10 UNL     1     -31.996   8.341   1.789  1.00 20.00    -0.004 C 
HETATM   11  C8  UNL     1     -32.373   9.724   1.281  1.00 20.00     0.005 C 
ENDBRANCH   9  10
ENDBRANCH   6   9
TORSDOF 2
ENDMDL
MODEL 7
REMARK VINA RESULT:      -4.2      2.291      4.426
REMARK  2 active torsions:
REMARK  status: ('A' for Active; 'I' for Inactive)
REMARK    1  A    between atoms: C6_6  and  C9_9 
REMARK    2  A    between atoms: C9_9  and  C10_10 
ROOT
HETATM    1  C1  UNL     1     -35.903  16.788  -4.242  1.00 20.00     0.002 C 
HETATM    2  C2  UNL     1     -36.238  15.301  -4.191  1.00 20.00     0.005 C 
HETATM    3  C3  UNL     1     -34.103  14.024  -3.634  1.00 20.00     0.006 C 
HETATM    4  C4  UNL     1     -34.507  17.261  -3.839  1.00 20.00     0.020 C 
HETATM    5  C5  UNL     1     -33.136  15.160  -3.311  1.00 20.00     0.020 C 
HETATM    6  C6  UNL     1     -35.189  14.301  -4.683  1.00 20.00    -0.014 C 
HETATM    7  C7  UNL     1     -33.729  16.471  -2.788  1.00 20.00     0.082 C 
HETATM    8 CL11 UNL     1     -34.660  16.249  -1.283  1.00 20.00    -0.125 Cl
ENDROOT
BRANCH   6   9
HETATM    9  C9  UNL     1     -34.627  14.631  -6.065  1.00 20.00     0.004 C 
BRANCH   9  10
HETATM   10  C10 UNL     1     -35.722  14.590  -7.122  1.00 20.00    -0.004 C 
HETATM   11  C8  UNL     1     -35.763  15.888  -7.913  1.00 20.00     0.005 C 
ENDBRANCH   9  10
ENDBRANCH   6   9
TORSDOF 2
ENDMDL
MODEL 8
REMARK VINA RESULT:      -4.2      2.454      4.427
REMARK  2 active torsions:
REMARK  status: ('A' for Active; 'I' for Inactive)
REMARK    1  A    between atoms: C6_6  and  C9_9 
REMARK    2  A    between atoms: C9_9  and  C10_10 
ROOT
HETATM    1  C1  UNL     1     -35.148  17.929  -4.170  1.00 20.00     0.002 C 
HETATM    2  C2  UNL     1     -35.794  16.689  -3.558  1.00 20.00     0.005 C 
HETATM    3  C3  UNL     1     -34.627  16.195  -1.347  1.00 20.00     0.006 C 
HETATM    4  C4  UNL     1     -34.102  18.705  -3.371  1.00 20.00     0.020 C 
HETATM    5  C5  UNL     1     -33.739  17.424  -1.182  1.00 20.00     0.020 C 
HETATM    6  C6  UNL     1     -34.908  15.716  -2.778  1.00 20.00    -0.014 C 
HETATM    7  C7  UNL     1     -34.194  18.726  -1.847  1.00 20.00     0.082 C 
HETATM    8 CL11 UNL     1     -35.796  19.263  -1.274  1.00 20.00    -0.125 Cl
ENDROOT
BRANCH   6   9
HETATM    9  C9  UNL     1     -33.649  15.292  -3.533  1.00 20.00     0.004 C 
BRANCH   9  10
HETATM   10  C10 UNL     1     -33.600  13.780  -3.705  1.00 20.00    -0.004 C 
HETATM   11  C8  UNL     1     -34.616  13.315  -4.737  1.00 20.00     0.005 C 
ENDBRANCH   9  10
ENDBRANCH   6   9
TORSDOF 2
ENDMDL
MODEL 9
REMARK VINA RESULT:      -4.1      2.303      4.328
REMARK  2 active torsions:
REMARK  status: ('A' for Active; 'I' for Inactive)
REMARK    1  A    between atoms: C6_6  and  C9_9 
REMARK    2  A    between atoms: C9_9  and  C10_10 
ROOT
HETATM    1  C1  UNL     1     -35.364  13.878  -4.153  1.00 20.00     0.002 C 
HETATM    2  C2  UNL     1     -34.913  13.949  -5.609  1.00 20.00     0.005 C 
HETATM    3  C3  UNL     1     -33.730  16.178  -5.966  1.00 20.00     0.006 C 
HETATM    4  C4  UNL     1     -34.945  14.979  -3.180  1.00 20.00     0.020 C 
HETATM    5  C5  UNL     1     -33.641  16.715  -4.541  1.00 20.00     0.020 C 
HETATM    6  C6  UNL     1     -34.944  15.307  -6.316  1.00 20.00    -0.014 C 
HETATM    7  C7  UNL     1     -33.615  15.698  -3.397  1.00 20.00     0.082 C 
HETATM    8 CL11 UNL     1     -32.246  14.562  -3.523  1.00 20.00    -0.125 Cl
ENDROOT
BRANCH   6   9
HETATM    9  C9  UNL     1     -36.277  16.040  -6.178  1.00 20.00     0.004 C 
BRANCH   9  10
HETATM   10  C10 UNL     1     -37.383  15.307  -6.925  1.00 20.00    -0.004 C 
HETATM   11  C8  UNL     1     -38.662  15.268  -6.103  1.00 20.00     0.005 C 
ENDBRANCH   9  10
ENDBRANCH   6   9
TORSDOF 2
ENDMDL
