MODEL 1
REMARK VINA RESULT:      -4.6      0.000      0.000
REMARK  2 active torsions:
REMARK  status: ('A' for Active; 'I' for Inactive)
REMARK    1  A    between atoms: C8_8  and  C10_10 
REMARK    2  A    between atoms: C10_10  and  C11_11 
ROOT
HETATM    1  C1  UNL     1     -34.035  16.832  -1.844  1.00 20.00     0.064 C 
HETATM    2  C2  UNL     1     -36.443  15.777  -3.434  1.00 20.00     0.002 C 
HETATM    3  C3  UNL     1     -35.363  16.732  -3.942  1.00 20.00     0.019 C 
HETATM    4  C4  UNL     1     -33.299  15.222  -3.578  1.00 20.00     0.019 C 
HETATM    5  C5  UNL     1     -36.510  14.444  -4.172  1.00 20.00     0.005 C 
HETATM    6  C6  UNL     1     -34.113  13.961  -3.270  1.00 20.00     0.006 C 
HETATM    7  C7  UNL     1     -33.983  16.562  -3.295  1.00 20.00     0.093 C 
HETATM    8  C8  UNL     1     -35.225  13.605  -4.270  1.00 20.00    -0.014 C 
HETATM    9  N12 UNL     1     -34.074  17.043  -0.703  1.00 20.00    -0.197 NA
ENDROOT
BRANCH   8  10
HETATM   10  C10 UNL     1     -34.722  13.545  -5.718  1.00 20.00     0.004 C 
BRANCH  10  11
HETATM   11  C11 UNL     1     -35.550  14.448  -6.621  1.00 20.00    -0.004 C 
HETATM   12  C9  UNL     1     -34.664  15.423  -7.379  1.00 20.00     0.005 C 
ENDBRANCH  10  11
ENDBRANCH   8  10
TORSDOF 2
ENDMDL
MODEL 2
REMARK VINA RESULT:      -4.6      2.592      4.691
REMARK  2 active torsions:
REMARK  status: ('A' for Active; 'I' for Inactive)
REMARK    1  A    between atoms: C8_8  and  C10_10 
REMARK    2  A    between atoms: C10_10  and  C11_11 
ROOT
HETATM    1  C1  UNL     1     -35.868  14.816  -6.926  1.00 20.00     0.064 C 
HETATM    2  C2  UNL     1     -33.753  16.439  -5.400  1.00 20.00     0.002 C 
HETATM    3  C3  UNL     1     -35.231  16.792  -5.560  1.00 20.00     0.019 C 
HETATM    4  C4  UNL     1     -36.257  14.679  -4.483  1.00 20.00     0.019 C 
HETATM    5  C5  UNL     1     -33.308  16.197  -3.961  1.00 20.00     0.005 C 
HETATM    6  C6  UNL     1     -34.927  14.154  -3.933  1.00 20.00     0.006 C 
HETATM    7  C7  UNL     1     -36.176  15.593  -5.708  1.00 20.00     0.093 C 
HETATM    8  C8  UNL     1     -34.076  15.154  -3.132  1.00 20.00    -0.014 C 
HETATM    9  N12 UNL     1     -35.626  14.204  -7.883  1.00 20.00    -0.197 NA
ENDROOT
BRANCH   8  10
HETATM   10  C10 UNL     1     -34.864  15.827  -2.002  1.00 20.00     0.004 C 
BRANCH  10  11
HETATM   11  C11 UNL     1     -34.024  16.893  -1.311  1.00 20.00    -0.004 C 
HETATM   12  C9  UNL     1     -34.651  17.311   0.008  1.00 20.00     0.005 C 
ENDBRANCH  10  11
ENDBRANCH   8  10
TORSDOF 2
ENDMDL
MODEL 3
REMARK VINA RESULT:      -4.5      2.273      4.621
REMARK  2 active torsions:
REMARK  status: ('A' for Active; 'I' for Inactive)
REMARK    1  A    between atoms: C8_8  and  C10_10 
REMARK    2  A    between atoms: C10_10  and  C11_11 
ROOT
HETATM    1  C1  UNL     1     -35.032  14.129  -5.657  1.00 20.00     0.064 C 
HETATM    2  C2  UNL     1     -36.322  16.324  -3.937  1.00 20.00     0.002 C 
HETATM    3  C3  UNL     1     -36.059  14.877  -3.521  1.00 20.00     0.019 C 
HETATM    4  C4  UNL     1     -33.496  14.836  -3.846  1.00 20.00     0.019 C 
HETATM    5  C5  UNL     1     -35.575  17.368  -3.115  1.00 20.00     0.005 C 
HETATM    6  C6  UNL     1     -33.367  16.348  -4.050  1.00 20.00     0.006 C 
HETATM    7  C7  UNL     1     -34.851  14.213  -4.194  1.00 20.00     0.093 C 
HETATM    8  C8  UNL     1     -34.046  17.241  -2.999  1.00 20.00    -0.014 C 
HETATM    9  N12 UNL     1     -35.174  14.063  -6.808  1.00 20.00    -0.197 NA
ENDROOT
BRANCH   8  10
HETATM   10  C10 UNL     1     -33.636  16.883  -1.565  1.00 20.00     0.004 C 
BRANCH  10  11
HETATM   11  C11 UNL     1     -34.845  16.859  -0.641  1.00 20.00    -0.004 C 
HETATM   12  C9  UNL     1     -34.611  17.723   0.586  1.00 20.00     0.005 C 
ENDBRANCH  10  11
ENDBRANCH   8  10
TORSDOF 2
ENDMDL
MODEL 4
REMARK VINA RESULT:      -4.5      2.546      4.602
REMARK  2 active torsions:
REMARK  status: ('A' for Active; 'I' for Inactive)
REMARK    1  A    between atoms: C8_8  and  C10_10 
REMARK    2  A    between atoms: C10_10  and  C11_11 
ROOT
HETATM    1  C1  UNL     1     -36.712  15.421  -6.941  1.00 20.00     0.064 C 
HETATM    2  C2  UNL     1     -34.796  13.638  -5.332  1.00 20.00     0.002 C 
HETATM    3  C3  UNL     1     -34.430  14.908  -6.100  1.00 20.00     0.019 C 
HETATM    4  C4  UNL     1     -35.980  16.570  -4.871  1.00 20.00     0.019 C 
HETATM    5  C5  UNL     1     -34.557  13.714  -3.828  1.00 20.00     0.005 C 
HETATM    6  C6  UNL     1     -36.365  15.591  -3.758  1.00 20.00     0.006 C 
HETATM    7  C7  UNL     1     -35.548  15.953  -6.204  1.00 20.00     0.093 C 
HETATM    8  C8  UNL     1     -35.205  14.872  -3.049  1.00 20.00    -0.014 C 
HETATM    9  N12 UNL     1     -37.628  15.004  -7.520  1.00 20.00    -0.197 NA
ENDROOT
BRANCH   8  10
HETATM   10  C10 UNL     1     -34.139  15.843  -2.527  1.00 20.00     0.004 C 
BRANCH  10  11
HETATM   11  C11 UNL     1     -34.579  16.486  -1.220  1.00 20.00    -0.004 C 
HETATM   12  C9  UNL     1     -33.676  17.652  -0.854  1.00 20.00     0.005 C 
ENDBRANCH  10  11
ENDBRANCH   8  10
TORSDOF 2
ENDMDL
MODEL 5
REMARK VINA RESULT:      -4.4      2.298      4.236
REMARK  2 active torsions:
REMARK  status: ('A' for Active; 'I' for Inactive)
REMARK    1  A    between atoms: C8_8  and  C10_10 
REMARK    2  A    between atoms: C10_10  and  C11_11 
ROOT
HETATM    1  C1  UNL     1     -34.390  13.723  -3.971  1.00 20.00     0.064 C 
HETATM    2  C2  UNL     1     -36.071  16.206  -3.303  1.00 20.00     0.002 C 
HETATM    3  C3  UNL     1     -34.891  15.662  -2.500  1.00 20.00     0.019 C 
HETATM    4  C4  UNL     1     -33.075  15.791  -4.333  1.00 20.00     0.019 C 
HETATM    5  C5  UNL     1     -35.862  17.605  -3.873  1.00 20.00     0.005 C 
HETATM    6  C6  UNL     1     -33.934  16.600  -5.310  1.00 20.00     0.006 C 
HETATM    7  C7  UNL     1     -33.827  14.923  -3.320  1.00 20.00     0.093 C 
HETATM    8  C8  UNL     1     -34.618  17.854  -4.742  1.00 20.00    -0.014 C 
HETATM    9  N12 UNL     1     -34.833  12.779  -4.482  1.00 20.00    -0.197 NA
ENDROOT
BRANCH   8  10
HETATM   10  C10 UNL     1     -33.635  18.793  -4.032  1.00 20.00     0.004 C 
BRANCH  10  11
HETATM   11  C11 UNL     1     -34.197  19.262  -2.697  1.00 20.00    -0.004 C 
HETATM   12  C9  UNL     1     -33.243  18.940  -1.559  1.00 20.00     0.005 C 
ENDBRANCH  10  11
ENDBRANCH   8  10
TORSDOF 2
ENDMDL
MODEL 6
REMARK VINA RESULT:      -4.4      2.508      5.062
REMARK  2 active torsions:
REMARK  status: ('A' for Active; 'I' for Inactive)
REMARK    1  A    between atoms: C8_8  and  C10_10 
REMARK    2  A    between atoms: C10_10  and  C11_11 
ROOT
HETATM    1  C1  UNL     1     -34.075  15.608  -5.978  1.00 20.00     0.064 C 
HETATM    2  C2  UNL     1     -34.266  15.161  -2.945  1.00 20.00     0.002 C 
HETATM    3  C3  UNL     1     -32.996  15.440  -3.746  1.00 20.00     0.019 C 
HETATM    4  C4  UNL     1     -33.662  17.723  -4.755  1.00 20.00     0.019 C 
HETATM    5  C5  UNL     1     -34.610  16.222  -1.906  1.00 20.00     0.005 C 
HETATM    6  C6  UNL     1     -34.913  17.889  -3.886  1.00 20.00     0.006 C 
HETATM    7  C7  UNL     1     -33.192  16.288  -5.008  1.00 20.00     0.093 C 
HETATM    8  C8  UNL     1     -34.728  17.683  -2.374  1.00 20.00    -0.014 C 
HETATM    9  N12 UNL     1     -34.768  15.075  -6.741  1.00 20.00    -0.197 NA
ENDROOT
BRANCH   8  10
HETATM   10  C10 UNL     1     -33.590  18.534  -1.797  1.00 20.00     0.004 C 
BRANCH  10  11
HETATM   11  C11 UNL     1     -33.266  18.116  -0.369  1.00 20.00    -0.004 C 
HETATM   12  C9  UNL     1     -32.098  18.915   0.182  1.00 20.00     0.005 C 
ENDBRANCH  10  11
ENDBRANCH   8  10
TORSDOF 2
ENDMDL
MODEL 7
REMARK VINA RESULT:      -4.4      1.269      2.781
REMARK  2 active torsions:
REMARK  status: ('A' for Active; 'I' for Inactive)
REMARK    1  A    between atoms: C8_8  and  C10_10 
REMARK    2  A    between atoms: C10_10  and  C11_11 
ROOT
HETATM    1  C1  UNL     1     -34.890  16.594  -1.308  1.00 20.00     0.064 C 
HETATM    2  C2  UNL     1     -33.100  15.348  -3.472  1.00 20.00     0.002 C 
HETATM    3  C3  UNL     1     -34.551  14.979  -3.166  1.00 20.00     0.019 C 
HETATM    4  C4  UNL     1     -35.636  17.288  -3.567  1.00 20.00     0.019 C 
HETATM    5  C5  UNL     1     -32.867  15.909  -4.870  1.00 20.00     0.005 C 
HETATM    6  C6  UNL     1     -34.383  17.915  -4.186  1.00 20.00     0.006 C 
HETATM    7  C7  UNL     1     -35.411  16.118  -2.606  1.00 20.00     0.093 C 
HETATM    8  C8  UNL     1     -33.706  17.120  -5.313  1.00 20.00    -0.014 C 
HETATM    9  N12 UNL     1     -34.481  16.970  -0.289  1.00 20.00    -0.197 NA
ENDROOT
BRANCH   8  10
HETATM   10  C10 UNL     1     -34.683  16.727  -6.429  1.00 20.00     0.004 C 
BRANCH  10  11
HETATM   11  C11 UNL     1     -34.318  15.374  -7.023  1.00 20.00    -0.004 C 
HETATM   12  C9  UNL     1     -35.491  14.411  -6.947  1.00 20.00     0.005 C 
ENDBRANCH  10  11
ENDBRANCH   8  10
TORSDOF 2
ENDMDL
MODEL 8
REMARK VINA RESULT:      -4.3      2.256      4.614
REMARK  2 active torsions:
REMARK  status: ('A' for Active; 'I' for Inactive)
REMARK    1  A    between atoms: C8_8  and  C10_10 
REMARK    2  A    between atoms: C10_10  and  C11_11 
ROOT
HETATM    1  C1  UNL     1     -35.209  13.544  -4.400  1.00 20.00     0.064 C 
HETATM    2  C2  UNL     1     -35.009  16.421  -5.460  1.00 20.00     0.002 C 
HETATM    3  C3  UNL     1     -36.158  15.827  -4.646  1.00 20.00     0.019 C 
HETATM    4  C4  UNL     1     -34.830  15.136  -2.540  1.00 20.00     0.019 C 
HETATM    5  C5  UNL     1     -34.277  17.573  -4.781  1.00 20.00     0.005 C 
HETATM    6  C6  UNL     1     -33.549  15.871  -2.947  1.00 20.00     0.006 C 
HETATM    7  C7  UNL     1     -35.762  14.706  -3.677  1.00 20.00     0.093 C 
HETATM    8  C8  UNL     1     -33.709  17.340  -3.371  1.00 20.00    -0.014 C 
HETATM    9  N12 UNL     1     -34.773  12.629  -4.968  1.00 20.00    -0.197 NA
ENDROOT
BRANCH   8  10
HETATM   10  C10 UNL     1     -34.468  18.175  -2.332  1.00 20.00     0.004 C 
BRANCH  10  11
HETATM   11  C11 UNL     1     -33.698  18.244  -1.020  1.00 20.00    -0.004 C 
HETATM   12  C9  UNL     1     -34.521  17.677   0.125  1.00 20.00     0.005 C 
ENDBRANCH  10  11
ENDBRANCH   8  10
TORSDOF 2
ENDMDL
MODEL 9
REMARK VINA RESULT:      -4.2      2.470      3.639
REMARK  2 active torsions:
REMARK  status: ('A' for Active; 'I' for Inactive)
REMARK    1  A    between atoms: C8_8  and  C10_10 
REMARK    2  A    between atoms: C10_10  and  C11_11 
ROOT
HETATM    1  C1  UNL     1     -38.416  14.875  -4.293  1.00 20.00     0.064 C 
HETATM    2  C2  UNL     1     -36.254  15.063  -6.468  1.00 20.00     0.002 C 
HETATM    3  C3  UNL     1     -36.757  16.202  -5.582  1.00 20.00     0.019 C 
HETATM    4  C4  UNL     1     -36.178  15.191  -3.276  1.00 20.00     0.019 C 
HETATM    5  C5  UNL     1     -34.778  14.724  -6.291  1.00 20.00     0.005 C 
HETATM    6  C6  UNL     1     -35.355  14.032  -3.845  1.00 20.00     0.006 C 
HETATM    7  C7  UNL     1     -37.253  15.780  -4.194  1.00 20.00     0.093 C 
HETATM    8  C8  UNL     1     -34.274  14.402  -4.874  1.00 20.00    -0.014 C 
HETATM    9  N12 UNL     1     -39.329  14.163  -4.370  1.00 20.00    -0.197 NA
ENDROOT
BRANCH   8  10
HETATM   10  C10 UNL     1     -33.328  15.499  -4.369  1.00 20.00     0.004 C 
BRANCH  10  11
HETATM   11  C11 UNL     1     -33.241  16.646  -5.366  1.00 20.00    -0.004 C 
HETATM   12  C9  UNL     1     -33.612  17.966  -4.712  1.00 20.00     0.005 C 
ENDBRANCH  10  11
ENDBRANCH   8  10
TORSDOF 2
ENDMDL
