MODEL 1
REMARK VINA RESULT:      -4.9      0.000      0.000
REMARK  0 active torsions:
REMARK  status: ('A' for Active; 'I' for Inactive)
ROOT
HETATM    1  C1  UNL     1     -35.077  13.682  -4.741  1.00 20.00     0.085 C 
HETATM    2  C2  UNL     1     -33.382  16.357  -3.882  1.00 20.00     0.004 C 
HETATM    3  C3  UNL     1     -34.352  16.028  -5.019  1.00 20.00     0.041 C 
HETATM    4  C4  UNL     1     -36.112  15.328  -3.237  1.00 20.00     0.042 C 
HETATM    5  C5  UNL     1     -33.811  17.596  -3.091  1.00 20.00     0.009 C 
HETATM    6  C6  UNL     1     -36.259  16.794  -2.817  1.00 20.00     0.011 C 
HETATM    7  C7  UNL     1     -35.507  15.092  -4.632  1.00 20.00     0.125 C 
HETATM    8  C8  UNL     1     -35.020  17.441  -2.139  1.00 20.00    -0.048 C 
HETATM    9  C9  UNL     1     -35.434  18.859  -1.678  1.00 20.00     0.015 C 
HETATM   10  C10 UNL     1     -34.598  16.660  -0.878  1.00 20.00     0.015 C 
HETATM   11  N11 UNL     1     -34.739  12.575  -4.826  1.00 20.00    -0.195 NA
HETATM   12 CL12 UNL     1     -36.804  15.281  -5.879  1.00 20.00    -0.103 Cl
ENDROOT
TORSDOF 0
ENDMDL
MODEL 2
REMARK VINA RESULT:      -4.8      1.770      2.537
REMARK  0 active torsions:
REMARK  status: ('A' for Active; 'I' for Inactive)
ROOT
HETATM    1  C1  UNL     1     -34.534  15.072  -6.421  1.00 20.00     0.085 C 
HETATM    2  C2  UNL     1     -36.302  16.675  -4.169  1.00 20.00     0.004 C 
HETATM    3  C3  UNL     1     -36.163  15.204  -4.567  1.00 20.00     0.041 C 
HETATM    4  C4  UNL     1     -33.600  15.400  -4.172  1.00 20.00     0.042 C 
HETATM    5  C5  UNL     1     -36.044  16.901  -2.677  1.00 20.00     0.009 C 
HETATM    6  C6  UNL     1     -33.850  15.524  -2.665  1.00 20.00     0.011 C 
HETATM    7  C7  UNL     1     -34.748  14.780  -4.989  1.00 20.00     0.125 C 
HETATM    8  C8  UNL     1     -34.577  16.813  -2.194  1.00 20.00    -0.048 C 
HETATM    9  C9  UNL     1     -34.596  16.793  -0.647  1.00 20.00     0.015 C 
HETATM   10  C10 UNL     1     -33.808  18.081  -2.620  1.00 20.00     0.015 C 
HETATM   11  N11 UNL     1     -34.367  15.302  -7.546  1.00 20.00    -0.195 NA
HETATM   12 CL12 UNL     1     -34.658  12.978  -4.862  1.00 20.00    -0.103 Cl
ENDROOT
TORSDOF 0
ENDMDL
MODEL 3
REMARK VINA RESULT:      -4.8      2.713      4.420
REMARK  0 active torsions:
REMARK  status: ('A' for Active; 'I' for Inactive)
ROOT
HETATM    1  C1  UNL     1     -33.953  16.152  -2.412  1.00 20.00     0.085 C 
HETATM    2  C2  UNL     1     -34.493  17.217  -5.469  1.00 20.00     0.004 C 
HETATM    3  C3  UNL     1     -33.298  16.581  -4.757  1.00 20.00     0.041 C 
HETATM    4  C4  UNL     1     -34.829  14.587  -4.092  1.00 20.00     0.042 C 
HETATM    5  C5  UNL     1     -34.891  16.452  -6.734  1.00 20.00     0.009 C 
HETATM    6  C6  UNL     1     -34.874  14.143  -5.558  1.00 20.00     0.011 C 
HETATM    7  C7  UNL     1     -33.661  15.513  -3.712  1.00 20.00     0.125 C 
HETATM    8  C8  UNL     1     -35.610  15.095  -6.540  1.00 20.00    -0.048 C 
HETATM    9  C9  UNL     1     -35.656  14.392  -7.918  1.00 20.00     0.015 C 
HETATM   10  C10 UNL     1     -37.071  15.333  -6.105  1.00 20.00     0.015 C 
HETATM   11  N11 UNL     1     -34.182  16.654  -1.392  1.00 20.00    -0.195 NA
HETATM   12 CL12 UNL     1     -32.183  14.513  -3.418  1.00 20.00    -0.103 Cl
ENDROOT
TORSDOF 0
ENDMDL
MODEL 4
REMARK VINA RESULT:      -4.7      1.770      2.092
REMARK  0 active torsions:
REMARK  status: ('A' for Active; 'I' for Inactive)
ROOT
HETATM    1  C1  UNL     1     -37.607  15.163  -3.855  1.00 20.00     0.085 C 
HETATM    2  C2  UNL     1     -34.443  15.235  -2.988  1.00 20.00     0.004 C 
HETATM    3  C3  UNL     1     -35.218  15.667  -4.235  1.00 20.00     0.041 C 
HETATM    4  C4  UNL     1     -36.719  17.152  -2.717  1.00 20.00     0.042 C 
HETATM    5  C5  UNL     1     -33.596  16.371  -2.407  1.00 20.00     0.009 C 
HETATM    6  C6  UNL     1     -35.533  18.090  -2.474  1.00 20.00     0.011 C 
HETATM    7  C7  UNL     1     -36.613  16.251  -3.960  1.00 20.00     0.125 C 
HETATM    8  C8  UNL     1     -34.347  17.500  -1.663  1.00 20.00    -0.048 C 
HETATM    9  C9  UNL     1     -33.337  18.648  -1.419  1.00 20.00     0.015 C 
HETATM   10  C10 UNL     1     -34.805  17.001  -0.277  1.00 20.00     0.015 C 
HETATM   11  N11 UNL     1     -38.388  14.309  -3.773  1.00 20.00    -0.195 NA
HETATM   12 CL12 UNL     1     -37.107  17.196  -5.420  1.00 20.00    -0.103 Cl
ENDROOT
TORSDOF 0
ENDMDL
MODEL 5
REMARK VINA RESULT:      -4.6      2.641      4.467
REMARK  0 active torsions:
REMARK  status: ('A' for Active; 'I' for Inactive)
ROOT
HETATM    1  C1  UNL     1     -34.682  17.013  -1.095  1.00 20.00     0.085 C 
HETATM    2  C2  UNL     1     -36.630  15.949  -3.512  1.00 20.00     0.004 C 
HETATM    3  C3  UNL     1     -35.896  17.262  -3.234  1.00 20.00     0.041 C 
HETATM    4  C4  UNL     1     -33.678  15.916  -3.051  1.00 20.00     0.042 C 
HETATM    5  C5  UNL     1     -36.285  15.369  -4.886  1.00 20.00     0.009 C 
HETATM    6  C6  UNL     1     -33.729  15.642  -4.557  1.00 20.00     0.011 C 
HETATM    7  C7  UNL     1     -34.523  17.105  -2.561  1.00 20.00     0.125 C 
HETATM    8  C8  UNL     1     -34.885  14.729  -5.050  1.00 20.00    -0.048 C 
HETATM    9  C9  UNL     1     -34.663  14.476  -6.560  1.00 20.00     0.015 C 
HETATM   10  C10 UNL     1     -34.853  13.354  -4.351  1.00 20.00     0.015 C 
HETATM   11  N11 UNL     1     -34.808  16.942   0.056  1.00 20.00    -0.195 NA
HETATM   12 CL12 UNL     1     -33.602  18.637  -2.835  1.00 20.00    -0.103 Cl
ENDROOT
TORSDOF 0
ENDMDL
MODEL 6
REMARK VINA RESULT:      -4.5      2.096      2.936
REMARK  0 active torsions:
REMARK  status: ('A' for Active; 'I' for Inactive)
ROOT
HETATM    1  C1  UNL     1     -33.742  16.639  -4.438  1.00 20.00     0.085 C 
HETATM    2  C2  UNL     1     -34.812  19.109  -2.562  1.00 20.00     0.004 C 
HETATM    3  C3  UNL     1     -35.494  17.942  -3.279  1.00 20.00     0.041 C 
HETATM    4  C4  UNL     1     -33.912  16.315  -2.008  1.00 20.00     0.042 C 
HETATM    5  C5  UNL     1     -35.149  19.152  -1.069  1.00 20.00     0.009 C 
HETATM    6  C6  UNL     1     -34.642  16.638  -0.701  1.00 20.00     0.011 C 
HETATM    7  C7  UNL     1     -34.684  16.636  -3.300  1.00 20.00     0.125 C 
HETATM    8  C8  UNL     1     -34.483  18.087  -0.166  1.00 20.00    -0.048 C 
HETATM    9  C9  UNL     1     -35.177  18.149   1.216  1.00 20.00     0.015 C 
HETATM   10  C10 UNL     1     -32.999  18.445   0.058  1.00 20.00     0.015 C 
HETATM   11  N11 UNL     1     -33.002  16.643  -5.332  1.00 20.00    -0.195 NA
HETATM   12 CL12 UNL     1     -35.835  15.286  -3.651  1.00 20.00    -0.103 Cl
ENDROOT
TORSDOF 0
ENDMDL
MODEL 7
REMARK VINA RESULT:      -4.4      1.384      1.597
REMARK  0 active torsions:
REMARK  status: ('A' for Active; 'I' for Inactive)
ROOT
HETATM    1  C1  UNL     1     -34.596  13.629  -5.026  1.00 20.00     0.085 C 
HETATM    2  C2  UNL     1     -33.633  15.934  -2.898  1.00 20.00     0.004 C 
HETATM    3  C3  UNL     1     -33.294  15.620  -4.356  1.00 20.00     0.041 C 
HETATM    4  C4  UNL     1     -35.831  15.751  -4.914  1.00 20.00     0.042 C 
HETATM    5  C5  UNL     1     -34.111  17.376  -2.708  1.00 20.00     0.009 C 
HETATM    6  C6  UNL     1     -35.798  17.264  -4.671  1.00 20.00     0.011 C 
HETATM    7  C7  UNL     1     -34.469  15.092  -5.194  1.00 20.00     0.125 C 
HETATM    8  C8  UNL     1     -35.533  17.719  -3.210  1.00 20.00    -0.048 C 
HETATM    9  C9  UNL     1     -35.682  19.259  -3.172  1.00 20.00     0.015 C 
HETATM   10  C10 UNL     1     -36.585  17.139  -2.241  1.00 20.00     0.015 C 
HETATM   11  N11 UNL     1     -34.696  12.481  -4.893  1.00 20.00    -0.195 NA
HETATM   12 CL12 UNL     1     -34.046  15.325  -6.936  1.00 20.00    -0.103 Cl
ENDROOT
TORSDOF 0
ENDMDL
MODEL 8
REMARK VINA RESULT:      -4.4      1.716      2.216
REMARK  0 active torsions:
REMARK  status: ('A' for Active; 'I' for Inactive)
ROOT
HETATM    1  C1  UNL     1     -36.995  14.743  -4.055  1.00 20.00     0.085 C 
HETATM    2  C2  UNL     1     -34.785  15.768  -1.857  1.00 20.00     0.004 C 
HETATM    3  C3  UNL     1     -34.697  15.019  -3.188  1.00 20.00     0.041 C 
HETATM    4  C4  UNL     1     -35.997  16.974  -4.307  1.00 20.00     0.042 C 
HETATM    5  C5  UNL     1     -33.910  17.024  -1.836  1.00 20.00     0.009 C 
HETATM    6  C6  UNL     1     -34.776  17.881  -4.123  1.00 20.00     0.011 C 
HETATM    7  C7  UNL     1     -35.719  15.462  -4.247  1.00 20.00     0.125 C 
HETATM    8  C8  UNL     1     -34.402  18.239  -2.658  1.00 20.00    -0.048 C 
HETATM    9  C9  UNL     1     -33.243  19.263  -2.715  1.00 20.00     0.015 C 
HETATM   10  C10 UNL     1     -35.576  18.925  -1.929  1.00 20.00     0.015 C 
HETATM   11  N11 UNL     1     -37.997  14.177  -3.903  1.00 20.00    -0.195 NA
HETATM   12 CL12 UNL     1     -35.110  14.909  -5.858  1.00 20.00    -0.103 Cl
ENDROOT
TORSDOF 0
ENDMDL
MODEL 9
REMARK VINA RESULT:      -4.3      2.471      3.871
REMARK  0 active torsions:
REMARK  status: ('A' for Active; 'I' for Inactive)
ROOT
HETATM    1  C1  UNL     1     -33.757  14.286  -3.788  1.00 20.00     0.085 C 
HETATM    2  C2  UNL     1     -36.288  15.701  -5.326  1.00 20.00     0.004 C 
HETATM    3  C3  UNL     1     -35.715  15.791  -3.910  1.00 20.00     0.041 C 
HETATM    4  C4  UNL     1     -33.415  16.429  -4.943  1.00 20.00     0.042 C 
HETATM    5  C5  UNL     1     -36.405  17.074  -5.993  1.00 20.00     0.009 C 
HETATM    6  C6  UNL     1     -33.992  17.782  -5.371  1.00 20.00     0.011 C 
HETATM    7  C7  UNL     1     -34.183  15.701  -3.825  1.00 20.00     0.125 C 
HETATM    8  C8  UNL     1     -35.093  17.742  -6.466  1.00 20.00    -0.048 C 
HETATM    9  C9  UNL     1     -35.425  19.207  -6.841  1.00 20.00     0.015 C 
HETATM   10  C10 UNL     1     -34.586  17.052  -7.750  1.00 20.00     0.015 C 
HETATM   11  N11 UNL     1     -33.424  13.175  -3.759  1.00 20.00    -0.195 NA
HETATM   12 CL12 UNL     1     -33.684  16.380  -2.225  1.00 20.00    -0.103 Cl
ENDROOT
TORSDOF 0
ENDMDL
