MODEL 1
REMARK VINA RESULT:      -4.7      0.000      0.000
REMARK  1 active torsions:
REMARK  status: ('A' for Active; 'I' for Inactive)
REMARK    1  A    between atoms: C4_4  and  C8_8 
ROOT
HETATM    1  C5  UNL     1     -33.343  13.653  -3.734  1.00 20.00     0.002 C 
HETATM    2  C6  UNL     1     -32.964  15.132  -3.689  1.00 20.00     0.011 C 
HETATM    3  C7  UNL     1     -34.825  13.652  -4.076  1.00 20.00     0.021 C 
HETATM    4  C8  UNL     1     -34.274  15.904  -3.412  1.00 20.00     0.037 C 
HETATM    5  C9  UNL     1     -35.347  14.813  -3.242  1.00 20.00     0.090 C 
HETATM    6 CL11 UNL     1     -36.950  15.347  -3.787  1.00 20.00    -0.124 Cl
ENDROOT
BRANCH   4   7
HETATM    7  C4  UNL     1     -34.195  16.847  -2.232  1.00 20.00    -0.046 A 
HETATM    8  C1  UNL     1     -34.635  16.515  -0.918  1.00 20.00     0.015 A 
HETATM    9  C2  UNL     1     -34.451  17.554  -0.033  1.00 20.00     0.050 A 
HETATM   10  S10 UNL     1     -33.752  18.924  -0.786  1.00 20.00    -0.113 SA
HETATM   11  C3  UNL     1     -33.693  18.128  -2.301  1.00 20.00     0.057 A 
ENDBRANCH   4   7
TORSDOF 1
ENDMDL
MODEL 2
REMARK VINA RESULT:      -4.5      1.584      1.761
REMARK  1 active torsions:
REMARK  status: ('A' for Active; 'I' for Inactive)
REMARK    1  A    between atoms: C4_4  and  C8_8 
ROOT
HETATM    1  C5  UNL     1     -34.981  13.285  -4.477  1.00 20.00     0.002 C 
HETATM    2  C6  UNL     1     -33.996  13.917  -3.494  1.00 20.00     0.011 C 
HETATM    3  C7  UNL     1     -34.862  14.136  -5.732  1.00 20.00     0.021 C 
HETATM    4  C8  UNL     1     -33.807  15.380  -3.956  1.00 20.00     0.037 C 
HETATM    5  C9  UNL     1     -34.755  15.541  -5.158  1.00 20.00     0.090 C 
HETATM    6 CL11 UNL     1     -34.142  16.697  -6.357  1.00 20.00    -0.124 Cl
ENDROOT
BRANCH   4   7
HETATM    7  C4  UNL     1     -34.047  16.405  -2.869  1.00 20.00    -0.046 A 
HETATM    8  C1  UNL     1     -34.633  16.101  -1.606  1.00 20.00     0.015 A 
HETATM    9  C2  UNL     1     -34.738  17.215  -0.803  1.00 20.00     0.050 A 
HETATM   10  S10 UNL     1     -34.132  18.620  -1.572  1.00 20.00    -0.113 SA
HETATM   11  C3  UNL     1     -33.727  17.740  -2.983  1.00 20.00     0.057 A 
ENDBRANCH   4   7
TORSDOF 1
ENDMDL
MODEL 3
REMARK VINA RESULT:      -4.4      1.701      2.151
REMARK  1 active torsions:
REMARK  status: ('A' for Active; 'I' for Inactive)
REMARK    1  A    between atoms: C4_4  and  C8_8 
ROOT
HETATM    1  C5  UNL     1     -36.128  14.704  -4.984  1.00 20.00     0.002 C 
HETATM    2  C6  UNL     1     -36.308  15.153  -3.535  1.00 20.00     0.011 C 
HETATM    3  C7  UNL     1     -34.862  13.861  -4.964  1.00 20.00     0.021 C 
HETATM    4  C8  UNL     1     -34.907  15.081  -2.885  1.00 20.00     0.037 C 
HETATM    5  C9  UNL     1     -33.965  14.652  -4.024  1.00 20.00     0.090 C 
HETATM    6 CL11 UNL     1     -32.598  13.678  -3.444  1.00 20.00    -0.124 Cl
ENDROOT
BRANCH   4   7
HETATM    7  C4  UNL     1     -34.475  16.363  -2.209  1.00 20.00    -0.046 A 
HETATM    8  C1  UNL     1     -34.608  16.608  -0.811  1.00 20.00     0.015 A 
HETATM    9  C2  UNL     1     -34.138  17.854  -0.457  1.00 20.00     0.050 A 
HETATM   10  S10 UNL     1     -33.541  18.722  -1.807  1.00 20.00    -0.113 SA
HETATM   11  C3  UNL     1     -33.909  17.431  -2.870  1.00 20.00     0.057 A 
ENDBRANCH   4   7
TORSDOF 1
ENDMDL
MODEL 4
REMARK VINA RESULT:      -4.4      2.474      4.407
REMARK  1 active torsions:
REMARK  status: ('A' for Active; 'I' for Inactive)
REMARK    1  A    between atoms: C4_4  and  C8_8 
ROOT
HETATM    1  C5  UNL     1     -33.544  17.822  -0.417  1.00 20.00     0.002 C 
HETATM    2  C6  UNL     1     -34.556  16.717  -0.718  1.00 20.00     0.011 C 
HETATM    3  C7  UNL     1     -33.783  18.859  -1.503  1.00 20.00     0.021 C 
HETATM    4  C8  UNL     1     -34.900  16.846  -2.220  1.00 20.00     0.037 C 
HETATM    5  C9  UNL     1     -34.009  17.991  -2.733  1.00 20.00     0.090 C 
HETATM    6 CL11 UNL     1     -34.767  18.904  -4.053  1.00 20.00    -0.124 Cl
ENDROOT
BRANCH   4   7
HETATM    7  C4  UNL     1     -34.728  15.564  -3.003  1.00 20.00    -0.046 A 
HETATM    8  C1  UNL     1     -33.465  14.967  -3.283  1.00 20.00     0.015 A 
HETATM    9  C2  UNL     1     -33.591  13.806  -4.014  1.00 20.00     0.050 A 
HETATM   10  S10 UNL     1     -35.228  13.441  -4.361  1.00 20.00    -0.113 SA
HETATM   11  C3  UNL     1     -35.772  14.837  -3.532  1.00 20.00     0.057 A 
ENDBRANCH   4   7
TORSDOF 1
ENDMDL
MODEL 5
REMARK VINA RESULT:      -4.1      2.122      2.450
REMARK  1 active torsions:
REMARK  status: ('A' for Active; 'I' for Inactive)
REMARK    1  A    between atoms: C4_4  and  C8_8 
ROOT
HETATM    1  C5  UNL     1     -34.414  16.272  -7.018  1.00 20.00     0.002 C 
HETATM    2  C6  UNL     1     -35.224  16.927  -5.900  1.00 20.00     0.011 C 
HETATM    3  C7  UNL     1     -34.491  14.783  -6.718  1.00 20.00     0.021 C 
HETATM    4  C8  UNL     1     -35.224  15.923  -4.724  1.00 20.00     0.037 C 
HETATM    5  C9  UNL     1     -34.347  14.753  -5.204  1.00 20.00     0.090 C 
HETATM    6 CL11 UNL     1     -34.863  13.196  -4.524  1.00 20.00    -0.124 Cl
ENDROOT
BRANCH   4   7
HETATM    7  C4  UNL     1     -34.760  16.513  -3.411  1.00 20.00    -0.046 A 
HETATM    8  C1  UNL     1     -34.953  15.886  -2.146  1.00 20.00     0.015 A 
HETATM    9  C2  UNL     1     -34.437  16.637  -1.113  1.00 20.00     0.050 A 
HETATM   10  S10 UNL     1     -33.723  18.090  -1.669  1.00 20.00    -0.113 SA
HETATM   11  C3  UNL     1     -34.104  17.719  -3.296  1.00 20.00     0.057 A 
ENDBRANCH   4   7
TORSDOF 1
ENDMDL
MODEL 6
REMARK VINA RESULT:      -4.1      2.269      3.006
REMARK  1 active torsions:
REMARK  status: ('A' for Active; 'I' for Inactive)
REMARK    1  A    between atoms: C4_4  and  C8_8 
ROOT
HETATM    1  C5  UNL     1     -33.961  13.578  -3.493  1.00 20.00     0.002 C 
HETATM    2  C6  UNL     1     -32.981  14.747  -3.578  1.00 20.00     0.011 C 
HETATM    3  C7  UNL     1     -34.416  13.361  -4.927  1.00 20.00     0.021 C 
HETATM    4  C8  UNL     1     -33.344  15.520  -4.867  1.00 20.00     0.037 C 
HETATM    5  C9  UNL     1     -34.573  14.788  -5.433  1.00 20.00     0.090 C 
HETATM    6 CL11 UNL     1     -34.645  14.853  -7.206  1.00 20.00    -0.124 Cl
ENDROOT
BRANCH   4   7
HETATM    7  C4  UNL     1     -33.580  16.998  -4.652  1.00 20.00    -0.046 A 
HETATM    8  C1  UNL     1     -33.546  17.968  -5.696  1.00 20.00     0.015 A 
HETATM    9  C2  UNL     1     -33.793  19.240  -5.229  1.00 20.00     0.050 A 
HETATM   10  S10 UNL     1     -34.065  19.262  -3.539  1.00 20.00    -0.113 SA
HETATM   11  C3  UNL     1     -33.853  17.567  -3.427  1.00 20.00     0.057 A 
ENDBRANCH   4   7
TORSDOF 1
ENDMDL
MODEL 7
REMARK VINA RESULT:      -4.1      3.632      4.947
REMARK  1 active torsions:
REMARK  status: ('A' for Active; 'I' for Inactive)
REMARK    1  A    between atoms: C4_4  and  C8_8 
ROOT
HETATM    1  C5  UNL     1     -33.275  13.638  -3.747  1.00 20.00     0.002 C 
HETATM    2  C6  UNL     1     -34.791  13.777  -3.882  1.00 20.00     0.011 C 
HETATM    3  C7  UNL     1     -32.769  15.071  -3.670  1.00 20.00     0.021 C 
HETATM    4  C8  UNL     1     -35.043  15.187  -4.463  1.00 20.00     0.037 C 
HETATM    5  C9  UNL     1     -33.641  15.775  -4.700  1.00 20.00     0.090 C 
HETATM    6 CL11 UNL     1     -33.600  17.538  -4.502  1.00 20.00    -0.124 Cl
ENDROOT
BRANCH   4   7
HETATM    7  C4  UNL     1     -35.908  15.196  -5.704  1.00 20.00    -0.046 A 
HETATM    8  C1  UNL     1     -35.513  14.634  -6.952  1.00 20.00     0.015 A 
HETATM    9  C2  UNL     1     -36.486  14.778  -7.916  1.00 20.00     0.050 A 
HETATM   10  S10 UNL     1     -37.869  15.589  -7.316  1.00 20.00    -0.113 SA
HETATM   11  C3  UNL     1     -37.169  15.749  -5.762  1.00 20.00     0.057 A 
ENDBRANCH   4   7
TORSDOF 1
ENDMDL
MODEL 8
REMARK VINA RESULT:      -3.9      3.478      4.938
REMARK  1 active torsions:
REMARK  status: ('A' for Active; 'I' for Inactive)
REMARK    1  A    between atoms: C4_4  and  C8_8 
ROOT
HETATM    1  C5  UNL     1     -34.037  17.660  -2.921  1.00 20.00     0.002 C 
HETATM    2  C6  UNL     1     -33.686  17.660  -4.409  1.00 20.00     0.011 C 
HETATM    3  C7  UNL     1     -33.656  16.268  -2.443  1.00 20.00     0.021 C 
HETATM    4  C8  UNL     1     -33.695  16.180  -4.852  1.00 20.00     0.037 C 
HETATM    5  C9  UNL     1     -34.120  15.393  -3.599  1.00 20.00     0.090 C 
HETATM    6 CL11 UNL     1     -33.394  13.775  -3.534  1.00 20.00    -0.124 Cl
ENDROOT
BRANCH   4   7
HETATM    7  C4  UNL     1     -34.572  15.901  -6.053  1.00 20.00    -0.046 A 
HETATM    8  C1  UNL     1     -34.425  14.763  -6.898  1.00 20.00     0.015 A 
HETATM    9  C2  UNL     1     -35.351  14.753  -7.918  1.00 20.00     0.050 A 
HETATM   10  S10 UNL     1     -36.391  16.111  -7.855  1.00 20.00    -0.113 SA
HETATM   11  C3  UNL     1     -35.605  16.718  -6.460  1.00 20.00     0.057 A 
ENDBRANCH   4   7
TORSDOF 1
ENDMDL
MODEL 9
REMARK VINA RESULT:      -3.9      3.125      4.125
REMARK  1 active torsions:
REMARK  status: ('A' for Active; 'I' for Inactive)
REMARK    1  A    between atoms: C4_4  and  C8_8 
ROOT
HETATM    1  C5  UNL     1     -34.459  13.253  -4.889  1.00 20.00     0.002 C 
HETATM    2  C6  UNL     1     -35.355  14.330  -5.499  1.00 20.00     0.011 C 
HETATM    3  C7  UNL     1     -34.065  13.814  -3.531  1.00 20.00     0.021 C 
HETATM    4  C8  UNL     1     -34.978  15.653  -4.795  1.00 20.00     0.037 C 
HETATM    5  C9  UNL     1     -33.822  15.282  -3.848  1.00 20.00     0.090 C 
HETATM    6 CL11 UNL     1     -33.800  16.278  -2.379  1.00 20.00    -0.124 Cl
ENDROOT
BRANCH   4   7
HETATM    7  C4  UNL     1     -34.630  16.779  -5.743  1.00 20.00    -0.046 A 
HETATM    8  C1  UNL     1     -34.847  16.728  -7.151  1.00 20.00     0.015 A 
HETATM    9  C2  UNL     1     -34.440  17.884  -7.780  1.00 20.00     0.050 A 
HETATM   10  S10 UNL     1     -33.799  19.024  -6.675  1.00 20.00    -0.113 SA
HETATM   11  C3  UNL     1     -34.065  17.973  -5.351  1.00 20.00     0.057 A 
ENDBRANCH   4   7
TORSDOF 1
ENDMDL
