MODEL 1
REMARK VINA RESULT:      -5.2      0.000      0.000
REMARK  2 active torsions:
REMARK  status: ('A' for Active; 'I' for Inactive)
REMARK    1  A    between atoms: C7_7  and  C10_10 
REMARK    2  A    between atoms: C10_10  and  C11_11 
ROOT
HETATM    1  C1  UNL     1     -32.725  14.955  -3.515  1.00 20.00     0.004 C 
HETATM    2  C2  UNL     1     -33.562  16.184  -3.148  1.00 20.00     0.005 C 
HETATM    3  C3  UNL     1     -36.032  15.531  -3.183  1.00 20.00     0.007 C 
HETATM    4  C4  UNL     1     -33.472  13.657  -3.790  1.00 20.00     0.040 C 
HETATM    5  C5  UNL     1     -35.978  14.119  -3.763  1.00 20.00     0.040 C 
HETATM    6  C6  UNL     1     -34.685  14.231  -6.030  1.00 20.00     0.207 A 
HETATM    7  C7  UNL     1     -34.825  15.922  -2.306  1.00 20.00    -0.014 C 
HETATM    8  C8  UNL     1     -34.739  13.860  -4.565  1.00 20.00     0.082 A 
HETATM    9  O12 UNL     1     -34.932  12.885  -5.604  1.00 20.00    -0.375 OA
ENDROOT
BRANCH   7  10
HETATM   10  C10 UNL     1     -35.180  17.195  -1.525  1.00 20.00     0.004 C 
BRANCH  10  11
HETATM   11  C11 UNL     1     -34.762  17.077  -0.066  1.00 20.00    -0.004 C 
HETATM   12  C9  UNL     1     -33.803  18.192   0.318  1.00 20.00     0.005 C 
ENDBRANCH  10  11
ENDBRANCH   7  10
TORSDOF 2
ENDMDL
MODEL 2
REMARK VINA RESULT:      -4.8      1.546      1.930
REMARK  2 active torsions:
REMARK  status: ('A' for Active; 'I' for Inactive)
REMARK    1  A    between atoms: C7_7  and  C10_10 
REMARK    2  A    between atoms: C10_10  and  C11_11 
ROOT
HETATM    1  C1  UNL     1     -33.567  17.729  -4.895  1.00 20.00     0.004 C 
HETATM    2  C2  UNL     1     -34.133  17.950  -3.489  1.00 20.00     0.005 C 
HETATM    3  C3  UNL     1     -34.500  15.675  -2.387  1.00 20.00     0.007 C 
HETATM    4  C4  UNL     1     -33.324  16.290  -5.332  1.00 20.00     0.040 C 
HETATM    5  C5  UNL     1     -34.227  14.715  -3.542  1.00 20.00     0.040 C 
HETATM    6  C6  UNL     1     -35.770  15.399  -5.536  1.00 20.00     0.207 A 
HETATM    7  C7  UNL     1     -33.660  16.969  -2.401  1.00 20.00    -0.014 C 
HETATM    8  C8  UNL     1     -34.404  15.350  -4.889  1.00 20.00     0.082 A 
HETATM    9  O12 UNL     1     -34.797  14.414  -5.907  1.00 20.00    -0.375 OA
ENDROOT
BRANCH   7  10
HETATM   10  C10 UNL     1     -33.782  17.646  -1.028  1.00 20.00     0.004 C 
BRANCH  10  11
HETATM   11  C11 UNL     1     -34.846  16.966  -0.177  1.00 20.00    -0.004 C 
HETATM   12  C9  UNL     1     -35.067  17.722   1.124  1.00 20.00     0.005 C 
ENDBRANCH  10  11
ENDBRANCH   7  10
TORSDOF 2
ENDMDL
MODEL 3
REMARK VINA RESULT:      -4.8      1.290      1.671
REMARK  2 active torsions:
REMARK  status: ('A' for Active; 'I' for Inactive)
REMARK    1  A    between atoms: C7_7  and  C10_10 
REMARK    2  A    between atoms: C10_10  and  C11_11 
ROOT
HETATM    1  C1  UNL     1     -33.862  13.572  -4.025  1.00 20.00     0.004 C 
HETATM    2  C2  UNL     1     -33.372  14.885  -3.406  1.00 20.00     0.005 C 
HETATM    3  C3  UNL     1     -35.029  16.737  -3.997  1.00 20.00     0.007 C 
HETATM    4  C4  UNL     1     -35.170  13.613  -4.804  1.00 20.00     0.040 C 
HETATM    5  C5  UNL     1     -35.955  16.031  -4.984  1.00 20.00     0.040 C 
HETATM    6  C6  UNL     1     -34.479  15.023  -6.890  1.00 20.00     0.207 A 
HETATM    7  C7  UNL     1     -34.460  15.839  -2.880  1.00 20.00    -0.014 C 
HETATM    8  C8  UNL     1     -35.317  14.845  -5.644  1.00 20.00     0.082 A 
HETATM    9  O12 UNL     1     -35.840  14.580  -6.957  1.00 20.00    -0.375 OA
ENDROOT
BRANCH   7  10
HETATM   10  C10 UNL     1     -33.855  16.737  -1.791  1.00 20.00     0.004 C 
BRANCH  10  11
HETATM   11  C11 UNL     1     -34.754  16.788  -0.563  1.00 20.00    -0.004 C 
HETATM   12  C9  UNL     1     -35.562  18.075  -0.532  1.00 20.00     0.005 C 
ENDBRANCH  10  11
ENDBRANCH   7  10
TORSDOF 2
ENDMDL
MODEL 4
REMARK VINA RESULT:      -4.7      1.361      2.130
REMARK  2 active torsions:
REMARK  status: ('A' for Active; 'I' for Inactive)
REMARK    1  A    between atoms: C7_7  and  C10_10 
REMARK    2  A    between atoms: C10_10  and  C11_11 
ROOT
HETATM    1  C1  UNL     1     -35.058  16.303  -5.778  1.00 20.00     0.004 C 
HETATM    2  C2  UNL     1     -35.088  17.008  -4.418  1.00 20.00     0.005 C 
HETATM    3  C3  UNL     1     -33.663  15.672  -2.772  1.00 20.00     0.007 C 
HETATM    4  C4  UNL     1     -34.221  15.036  -5.889  1.00 20.00     0.040 C 
HETATM    5  C5  UNL     1     -33.337  14.418  -3.580  1.00 20.00     0.040 C 
HETATM    6  C6  UNL     1     -35.592  13.386  -4.402  1.00 20.00     0.207 A 
HETATM    7  C7  UNL     1     -33.784  16.968  -3.600  1.00 20.00    -0.014 C 
HETATM    8  C8  UNL     1     -34.321  14.155  -4.681  1.00 20.00     0.082 A 
HETATM    9  O12 UNL     1     -34.451  12.760  -5.002  1.00 20.00    -0.375 OA
ENDROOT
BRANCH   7  10
HETATM   10  C10 UNL     1     -33.757  18.165  -2.640  1.00 20.00     0.004 C 
BRANCH  10  11
HETATM   11  C11 UNL     1     -33.694  17.703  -1.191  1.00 20.00    -0.004 C 
HETATM   12  C9  UNL     1     -32.761  18.585  -0.377  1.00 20.00     0.005 C 
ENDBRANCH  10  11
ENDBRANCH   7  10
TORSDOF 2
ENDMDL
MODEL 5
REMARK VINA RESULT:      -4.7      1.603      2.206
REMARK  2 active torsions:
REMARK  status: ('A' for Active; 'I' for Inactive)
REMARK    1  A    between atoms: C7_7  and  C10_10 
REMARK    2  A    between atoms: C10_10  and  C11_11 
ROOT
HETATM    1  C1  UNL     1     -34.456  17.067  -5.640  1.00 20.00     0.004 C 
HETATM    2  C2  UNL     1     -35.085  16.797  -4.270  1.00 20.00     0.005 C 
HETATM    3  C3  UNL     1     -35.309  14.271  -3.957  1.00 20.00     0.007 C 
HETATM    4  C4  UNL     1     -34.086  15.859  -6.490  1.00 20.00     0.040 C 
HETATM    5  C5  UNL     1     -34.922  13.745  -5.337  1.00 20.00     0.040 C 
HETATM    6  C6  UNL     1     -36.446  14.924  -7.102  1.00 20.00     0.207 A 
HETATM    7  C7  UNL     1     -34.574  15.554  -3.518  1.00 20.00    -0.014 C 
HETATM    8  C8  UNL     1     -35.103  14.760  -6.426  1.00 20.00     0.082 A 
HETATM    9  O12 UNL     1     -35.386  14.171  -7.706  1.00 20.00    -0.375 OA
ENDROOT
BRANCH   7  10
HETATM   10  C10 UNL     1     -34.795  15.753  -2.012  1.00 20.00     0.004 C 
BRANCH  10  11
HETATM   11  C11 UNL     1     -33.974  16.924  -1.489  1.00 20.00    -0.004 C 
HETATM   12  C9  UNL     1     -34.488  17.389  -0.136  1.00 20.00     0.005 C 
ENDBRANCH  10  11
ENDBRANCH   7  10
TORSDOF 2
ENDMDL
MODEL 6
REMARK VINA RESULT:      -4.5      2.231      5.062
REMARK  2 active torsions:
REMARK  status: ('A' for Active; 'I' for Inactive)
REMARK    1  A    between atoms: C7_7  and  C10_10 
REMARK    2  A    between atoms: C10_10  and  C11_11 
ROOT
HETATM    1  C1  UNL     1     -33.962  13.514  -4.206  1.00 20.00     0.004 C 
HETATM    2  C2  UNL     1     -34.840  13.923  -5.392  1.00 20.00     0.005 C 
HETATM    3  C3  UNL     1     -34.483  16.410  -5.855  1.00 20.00     0.007 C 
HETATM    4  C4  UNL     1     -33.082  14.590  -3.583  1.00 20.00     0.040 C 
HETATM    5  C5  UNL     1     -33.622  16.833  -4.667  1.00 20.00     0.040 C 
HETATM    6  C6  UNL     1     -34.872  16.139  -2.481  1.00 20.00     0.207 A 
HETATM    7  C7  UNL     1     -34.246  14.969  -6.352  1.00 20.00    -0.014 C 
HETATM    8  C8  UNL     1     -33.762  15.922  -3.485  1.00 20.00     0.082 A 
HETATM    9  O12 UNL     1     -33.534  16.586  -2.230  1.00 20.00    -0.375 OA
ENDROOT
BRANCH   7  10
HETATM   10  C10 UNL     1     -34.902  14.815  -7.732  1.00 20.00     0.004 C 
BRANCH  10  11
HETATM   11  C11 UNL     1     -36.035  15.815  -7.913  1.00 20.00    -0.004 C 
HETATM   12  C9  UNL     1     -37.385  15.115  -7.918  1.00 20.00     0.005 C 
ENDBRANCH  10  11
ENDBRANCH   7  10
TORSDOF 2
ENDMDL
MODEL 7
REMARK VINA RESULT:      -4.5     11.204     12.203
REMARK  2 active torsions:
REMARK  status: ('A' for Active; 'I' for Inactive)
REMARK    1  A    between atoms: C7_7  and  C10_10 
REMARK    2  A    between atoms: C10_10  and  C11_11 
ROOT
HETATM    1  C1  UNL     1     -33.105   6.911   6.000  1.00 20.00     0.004 C 
HETATM    2  C2  UNL     1     -32.387   6.730   4.660  1.00 20.00     0.005 C 
HETATM    3  C3  UNL     1     -33.961   5.529   3.044  1.00 20.00     0.007 C 
HETATM    4  C4  UNL     1     -34.535   6.396   6.102  1.00 20.00     0.040 C 
HETATM    5  C5  UNL     1     -35.126   5.153   3.957  1.00 20.00     0.040 C 
HETATM    6  C6  UNL     1     -34.159   3.815   5.982  1.00 20.00     0.207 A 
HETATM    7  C7  UNL     1     -33.258   6.857   3.397  1.00 20.00    -0.014 C 
HETATM    8  C8  UNL     1     -34.741   5.086   5.405  1.00 20.00     0.082 A 
HETATM    9  O12 UNL     1     -35.539   4.158   6.159  1.00 20.00    -0.375 OA
ENDROOT
BRANCH   7  10
HETATM   10  C10 UNL     1     -32.370   7.268   2.214  1.00 20.00     0.004 C 
BRANCH  10  11
HETATM   11  C11 UNL     1     -32.243   8.783   2.127  1.00 20.00    -0.004 C 
HETATM   12  C9  UNL     1     -32.262   9.250   0.680  1.00 20.00     0.005 C 
ENDBRANCH  10  11
ENDBRANCH   7  10
TORSDOF 2
ENDMDL
MODEL 8
REMARK VINA RESULT:      -4.4     10.259     12.284
REMARK  2 active torsions:
REMARK  status: ('A' for Active; 'I' for Inactive)
REMARK    1  A    between atoms: C7_7  and  C10_10 
REMARK    2  A    between atoms: C10_10  and  C11_11 
ROOT
HETATM    1  C1  UNL     1     -42.854   4.698  -2.955  1.00 20.00     0.004 C 
HETATM    2  C2  UNL     1     -43.360   6.136  -3.097  1.00 20.00     0.005 C 
HETATM    3  C3  UNL     1     -41.984   7.643  -1.559  1.00 20.00     0.007 C 
HETATM    4  C4  UNL     1     -41.689   4.457  -2.005  1.00 20.00     0.040 C 
HETATM    5  C5  UNL     1     -41.159   6.626  -0.774  1.00 20.00     0.040 C 
HETATM    6  C6  UNL     1     -42.812   4.916   0.307  1.00 20.00     0.207 A 
HETATM    7  C7  UNL     1     -42.295   7.245  -3.017  1.00 20.00    -0.014 C 
HETATM    8  C8  UNL     1     -41.781   5.262  -0.744  1.00 20.00     0.082 A 
HETATM    9  O12 UNL     1     -41.442   4.513   0.435  1.00 20.00    -0.375 OA
ENDROOT
BRANCH   7  10
HETATM   10  C10 UNL     1     -42.805   8.486  -3.764  1.00 20.00     0.004 C 
BRANCH  10  11
HETATM   11  C11 UNL     1     -41.966   8.760  -5.005  1.00 20.00    -0.004 C 
HETATM   12  C9  UNL     1     -41.964  10.242  -5.345  1.00 20.00     0.005 C 
ENDBRANCH  10  11
ENDBRANCH   7  10
TORSDOF 2
ENDMDL
MODEL 9
REMARK VINA RESULT:      -4.4     11.725     13.840
REMARK  2 active torsions:
REMARK  status: ('A' for Active; 'I' for Inactive)
REMARK    1  A    between atoms: C7_7  and  C10_10 
REMARK    2  A    between atoms: C10_10  and  C11_11 
ROOT
HETATM    1  C1  UNL     1     -41.530   4.783   0.019  1.00 20.00     0.004 C 
HETATM    2  C2  UNL     1     -42.382   3.933  -0.929  1.00 20.00     0.005 C 
HETATM    3  C3  UNL     1     -42.831   5.279  -3.053  1.00 20.00     0.007 C 
HETATM    4  C4  UNL     1     -41.120   6.168  -0.462  1.00 20.00     0.040 C 
HETATM    5  C5  UNL     1     -42.273   6.651  -2.683  1.00 20.00     0.040 C 
HETATM    6  C6  UNL     1     -43.417   7.410  -0.460  1.00 20.00     0.207 A 
HETATM    7  C7  UNL     1     -42.083   4.082  -2.432  1.00 20.00    -0.014 C 
HETATM    8  C8  UNL     1     -42.211   6.881  -1.203  1.00 20.00     0.082 A 
HETATM    9  O12 UNL     1     -42.333   8.267  -0.841  1.00 20.00    -0.375 OA
ENDROOT
BRANCH   7  10
HETATM   10  C10 UNL     1     -42.520   2.802  -3.159  1.00 20.00     0.004 C 
BRANCH  10  11
HETATM   11  C11 UNL     1     -41.314   2.016  -3.656  1.00 20.00    -0.004 C 
HETATM   12  C9  UNL     1     -41.692   0.576  -3.965  1.00 20.00     0.005 C 
ENDBRANCH  10  11
ENDBRANCH   7  10
TORSDOF 2
ENDMDL
