MODEL 1
REMARK VINA RESULT:      -4.6      0.000      0.000
REMARK  3 active torsions:
REMARK  status: ('A' for Active; 'I' for Inactive)
REMARK    1  A    between atoms: C4_4  and  C9_9 
REMARK    2  A    between atoms: C8_8  and  C9_9 
REMARK    3  A    between atoms: C9_9  and  O10_10 
ROOT
HETATM    1  C9  UNL     1     -35.137  16.839  -2.196  1.00 20.00     0.155 C 
ENDROOT
BRANCH   1   2
HETATM    2  C4  UNL     1     -34.829  15.576  -2.970  1.00 20.00    -0.022 A 
HETATM    3  C1  UNL     1     -33.514  15.062  -3.160  1.00 20.00     0.017 A 
HETATM    4  C2  UNL     1     -33.515  13.901  -3.903  1.00 20.00     0.050 A 
HETATM    5  S11 UNL     1     -35.095  13.436  -4.367  1.00 20.00    -0.113 SA
HETATM    6  C3  UNL     1     -35.784  14.789  -3.575  1.00 20.00     0.059 A 
ENDBRANCH   1   2
BRANCH   1   7
HETATM    7  C8  UNL     1     -34.406  16.905  -0.872  1.00 20.00     0.019 C 
HETATM    8  C6  UNL     1     -35.188  17.511   0.324  1.00 20.00     0.007 C 
HETATM    9  C5  UNL     1     -33.855  18.141   0.779  1.00 20.00     0.001 C 
HETATM   10  C7  UNL     1     -33.399  18.072  -0.693  1.00 20.00     0.007 C 
ENDBRANCH   1   7
BRANCH   1  11
HETATM   11  O10 UNL     1     -36.545  16.880  -1.958  1.00 20.00    -0.391 OA
HETATM   12  H23 UNL     1     -36.714  16.280  -1.217  1.00 20.00     0.210 HD
ENDBRANCH   1  11
TORSDOF 3
ENDMDL
MODEL 2
REMARK VINA RESULT:      -4.4      3.067      5.144
REMARK  3 active torsions:
REMARK  status: ('A' for Active; 'I' for Inactive)
REMARK    1  A    between atoms: C4_4  and  C9_9 
REMARK    2  A    between atoms: C8_8  and  C9_9 
REMARK    3  A    between atoms: C9_9  and  O10_10 
ROOT
HETATM    1  C9  UNL     1     -33.302  16.217  -4.432  1.00 20.00     0.155 C 
ENDROOT
BRANCH   1   2
HETATM    2  C4  UNL     1     -33.778  16.750  -3.099  1.00 20.00    -0.022 A 
HETATM    3  C1  UNL     1     -34.335  15.937  -2.070  1.00 20.00     0.017 A 
HETATM    4  C2  UNL     1     -34.687  16.674  -0.961  1.00 20.00     0.050 A 
HETATM    5  S11 UNL     1     -34.346  18.339  -1.162  1.00 20.00    -0.113 SA
HETATM    6  C3  UNL     1     -33.727  18.079  -2.737  1.00 20.00     0.059 A 
ENDBRANCH   1   2
BRANCH   1   7
HETATM    7  C8  UNL     1     -34.436  15.697  -5.291  1.00 20.00     0.019 C 
HETATM    8  C6  UNL     1     -34.557  14.156  -5.424  1.00 20.00     0.007 C 
HETATM    9  C5  UNL     1     -34.984  14.390  -6.888  1.00 20.00     0.001 C 
HETATM   10  C7  UNL     1     -34.212  15.724  -6.826  1.00 20.00     0.007 C 
ENDBRANCH   1   7
BRANCH   1  11
HETATM   11  O10 UNL     1     -32.379  15.156  -4.181  1.00 20.00    -0.391 OA
HETATM   12  H23 UNL     1     -31.895  15.400  -3.379  1.00 20.00     0.210 HD
ENDBRANCH   1  11
TORSDOF 3
ENDMDL
MODEL 3
REMARK VINA RESULT:      -4.4      2.764      4.952
REMARK  3 active torsions:
REMARK  status: ('A' for Active; 'I' for Inactive)
REMARK    1  A    between atoms: C4_4  and  C9_9 
REMARK    2  A    between atoms: C8_8  and  C9_9 
REMARK    3  A    between atoms: C9_9  and  O10_10 
ROOT
HETATM    1  C9  UNL     1     -33.984  16.280  -4.240  1.00 20.00     0.155 C 
ENDROOT
BRANCH   1   2
HETATM    2  C4  UNL     1     -34.007  16.972  -2.895  1.00 20.00    -0.022 A 
HETATM    3  C1  UNL     1     -34.400  16.338  -1.682  1.00 20.00     0.017 A 
HETATM    4  C2  UNL     1     -34.330  17.194  -0.605  1.00 20.00     0.050 A 
HETATM    5  S11 UNL     1     -33.793  18.755  -1.057  1.00 20.00    -0.113 SA
HETATM    6  C3  UNL     1     -33.652  18.289  -2.699  1.00 20.00     0.059 A 
ENDBRANCH   1   2
BRANCH   1   7
HETATM    7  C8  UNL     1     -34.677  14.934  -4.216  1.00 20.00     0.019 C 
HETATM    8  C6  UNL     1     -33.770  13.689  -4.035  1.00 20.00     0.007 C 
HETATM    9  C5  UNL     1     -34.712  12.953  -5.010  1.00 20.00     0.001 C 
HETATM   10  C7  UNL     1     -35.077  14.335  -5.590  1.00 20.00     0.007 C 
ENDBRANCH   1   7
BRANCH   1  11
HETATM   11  O10 UNL     1     -32.619  16.099  -4.622  1.00 20.00    -0.391 OA
HETATM   12  H23 UNL     1     -32.256  16.985  -4.766  1.00 20.00     0.210 HD
ENDBRANCH   1  11
TORSDOF 3
ENDMDL
MODEL 4
REMARK VINA RESULT:      -4.4      2.750      3.635
REMARK  3 active torsions:
REMARK  status: ('A' for Active; 'I' for Inactive)
REMARK    1  A    between atoms: C4_4  and  C9_9 
REMARK    2  A    between atoms: C8_8  and  C9_9 
REMARK    3  A    between atoms: C9_9  and  O10_10 
ROOT
HETATM    1  C9  UNL     1     -35.503  14.026  -4.044  1.00 20.00     0.155 C 
ENDROOT
BRANCH   1   2
HETATM    2  C4  UNL     1     -35.530  14.694  -5.401  1.00 20.00    -0.022 A 
HETATM    3  C1  UNL     1     -34.717  14.294  -6.500  1.00 20.00     0.017 A 
HETATM    4  C2  UNL     1     -34.937  15.070  -7.616  1.00 20.00     0.050 A 
HETATM    5  S11 UNL     1     -36.121  16.275  -7.338  1.00 20.00    -0.113 SA
HETATM    6  C3  UNL     1     -36.341  15.761  -5.719  1.00 20.00     0.059 A 
ENDBRANCH   1   2
BRANCH   1   7
HETATM    7  C8  UNL     1     -34.517  14.672  -3.094  1.00 20.00     0.019 C 
HETATM    8  C6  UNL     1     -35.034  15.881  -2.271  1.00 20.00     0.007 C 
HETATM    9  C5  UNL     1     -33.633  16.503  -2.445  1.00 20.00     0.001 C 
HETATM   10  C7  UNL     1     -33.488  15.649  -3.721  1.00 20.00     0.007 C 
ENDBRANCH   1   7
BRANCH   1  11
HETATM   11  O10 UNL     1     -35.145  12.655  -4.232  1.00 20.00    -0.391 OA
HETATM   12  H23 UNL     1     -35.387  12.433  -5.143  1.00 20.00     0.210 HD
ENDBRANCH   1  11
TORSDOF 3
ENDMDL
MODEL 5
REMARK VINA RESULT:      -4.3      1.093      1.165
REMARK  3 active torsions:
REMARK  status: ('A' for Active; 'I' for Inactive)
REMARK    1  A    between atoms: C4_4  and  C9_9 
REMARK    2  A    between atoms: C8_8  and  C9_9 
REMARK    3  A    between atoms: C9_9  and  O10_10 
ROOT
HETATM    1  C9  UNL     1     -35.331  16.631  -2.894  1.00 20.00     0.155 C 
ENDROOT
BRANCH   1   2
HETATM    2  C4  UNL     1     -35.056  15.501  -3.861  1.00 20.00    -0.022 A 
HETATM    3  C1  UNL     1     -34.398  14.290  -3.501  1.00 20.00     0.017 A 
HETATM    4  C2  UNL     1     -34.274  13.431  -4.571  1.00 20.00     0.050 A 
HETATM    5  S11 UNL     1     -34.951  14.085  -6.001  1.00 20.00    -0.113 SA
HETATM    6  C3  UNL     1     -35.411  15.522  -5.192  1.00 20.00     0.059 A 
ENDBRANCH   1   2
BRANCH   1   7
HETATM    7  C8  UNL     1     -34.259  16.765  -1.832  1.00 20.00     0.019 C 
HETATM    8  C6  UNL     1     -34.747  16.921  -0.368  1.00 20.00     0.007 C 
HETATM    9  C5  UNL     1     -33.566  17.892  -0.157  1.00 20.00     0.001 C 
HETATM   10  C7  UNL     1     -33.611  18.165  -1.674  1.00 20.00     0.007 C 
ENDBRANCH   1   7
BRANCH   1  11
HETATM   11  O10 UNL     1     -36.588  16.378  -2.262  1.00 20.00    -0.391 OA
HETATM   12  H23 UNL     1     -36.448  15.625  -1.670  1.00 20.00     0.210 HD
ENDBRANCH   1  11
TORSDOF 3
ENDMDL
MODEL 6
REMARK VINA RESULT:      -4.3      1.577      1.734
REMARK  3 active torsions:
REMARK  status: ('A' for Active; 'I' for Inactive)
REMARK    1  A    between atoms: C4_4  and  C9_9 
REMARK    2  A    between atoms: C8_8  and  C9_9 
REMARK    3  A    between atoms: C9_9  and  O10_10 
ROOT
HETATM    1  C9  UNL     1     -33.673  16.837  -3.419  1.00 20.00     0.155 C 
ENDROOT
BRANCH   1   2
HETATM    2  C4  UNL     1     -34.090  15.624  -4.222  1.00 20.00    -0.022 A 
HETATM    3  C1  UNL     1     -33.872  14.280  -3.801  1.00 20.00     0.017 A 
HETATM    4  C2  UNL     1     -34.346  13.368  -4.718  1.00 20.00     0.050 A 
HETATM    5  S11 UNL     1     -35.049  14.132  -6.079  1.00 20.00    -0.113 SA
HETATM    6  C3  UNL     1     -34.721  15.688  -5.445  1.00 20.00     0.059 A 
ENDBRANCH   1   2
BRANCH   1   7
HETATM    7  C8  UNL     1     -33.761  16.607  -1.925  1.00 20.00     0.019 C 
HETATM    8  C6  UNL     1     -35.183  16.600  -1.305  1.00 20.00     0.007 C 
HETATM    9  C5  UNL     1     -34.571  17.304  -0.077  1.00 20.00     0.001 C 
HETATM   10  C7  UNL     1     -33.466  17.829  -1.017  1.00 20.00     0.007 C 
ENDBRANCH   1   7
BRANCH   1  11
HETATM   11  O10 UNL     1     -34.531  17.922  -3.778  1.00 20.00    -0.391 OA
HETATM   12  H23 UNL     1     -34.205  18.697  -3.299  1.00 20.00     0.210 HD
ENDBRANCH   1  11
TORSDOF 3
ENDMDL
MODEL 7
REMARK VINA RESULT:      -4.2      2.862      5.286
REMARK  3 active torsions:
REMARK  status: ('A' for Active; 'I' for Inactive)
REMARK    1  A    between atoms: C4_4  and  C9_9 
REMARK    2  A    between atoms: C8_8  and  C9_9 
REMARK    3  A    between atoms: C9_9  and  O10_10 
ROOT
HETATM    1  C9  UNL     1     -34.416  13.733  -4.813  1.00 20.00     0.155 C 
ENDROOT
BRANCH   1   2
HETATM    2  C4  UNL     1     -34.429  14.924  -3.881  1.00 20.00    -0.022 A 
HETATM    3  C1  UNL     1     -35.453  15.170  -2.921  1.00 20.00     0.017 A 
HETATM    4  C2  UNL     1     -35.223  16.324  -2.204  1.00 20.00     0.050 A 
HETATM    5  S11 UNL     1     -33.779  17.105  -2.689  1.00 20.00    -0.113 SA
HETATM    6  C3  UNL     1     -33.457  15.900  -3.862  1.00 20.00     0.059 A 
ENDBRANCH   1   2
BRANCH   1   7
HETATM    7  C8  UNL     1     -35.080  14.023  -6.142  1.00 20.00     0.019 C 
HETATM    8  C6  UNL     1     -34.344  15.010  -7.086  1.00 20.00     0.007 C 
HETATM    9  C5  UNL     1     -35.734  15.540  -7.494  1.00 20.00     0.001 C 
HETATM   10  C7  UNL     1     -36.247  15.045  -6.126  1.00 20.00     0.007 C 
ENDBRANCH   1   7
BRANCH   1  11
HETATM   11  O10 UNL     1     -35.104  12.659  -4.169  1.00 20.00    -0.391 OA
HETATM   12  H23 UNL     1     -35.984  12.618  -4.573  1.00 20.00     0.210 HD
ENDBRANCH   1  11
TORSDOF 3
ENDMDL
MODEL 8
REMARK VINA RESULT:      -4.2      2.677      4.694
REMARK  3 active torsions:
REMARK  status: ('A' for Active; 'I' for Inactive)
REMARK    1  A    between atoms: C4_4  and  C9_9 
REMARK    2  A    between atoms: C8_8  and  C9_9 
REMARK    3  A    between atoms: C9_9  and  O10_10 
ROOT
HETATM    1  C9  UNL     1     -34.669  16.338  -1.460  1.00 20.00     0.155 C 
ENDROOT
BRANCH   1   2
HETATM    2  C4  UNL     1     -34.382  17.300  -0.329  1.00 20.00    -0.022 A 
HETATM    3  C1  UNL     1     -33.239  18.149  -0.278  1.00 20.00     0.017 A 
HETATM    4  C2  UNL     1     -33.220  18.923   0.861  1.00 20.00     0.050 A 
HETATM    5  S11 UNL     1     -34.575  18.625   1.864  1.00 20.00    -0.113 SA
HETATM    6  C3  UNL     1     -35.192  17.456   0.775  1.00 20.00     0.059 A 
ENDBRANCH   1   2
BRANCH   1   7
HETATM    7  C8  UNL     1     -33.637  16.412  -2.566  1.00 20.00     0.019 C 
HETATM    8  C6  UNL     1     -34.036  17.207  -3.837  1.00 20.00     0.007 C 
HETATM    9  C5  UNL     1     -33.262  16.148  -4.651  1.00 20.00     0.001 C 
HETATM   10  C7  UNL     1     -33.516  15.169  -3.486  1.00 20.00     0.007 C 
ENDBRANCH   1   7
BRANCH   1  11
HETATM   11  O10 UNL     1     -35.955  16.656  -1.997  1.00 20.00    -0.391 OA
HETATM   12  H23 UNL     1     -36.527  16.845  -1.239  1.00 20.00     0.210 HD
ENDBRANCH   1  11
TORSDOF 3
ENDMDL
MODEL 9
REMARK VINA RESULT:      -4.2      2.622      3.396
REMARK  3 active torsions:
REMARK  status: ('A' for Active; 'I' for Inactive)
REMARK    1  A    between atoms: C4_4  and  C9_9 
REMARK    2  A    between atoms: C8_8  and  C9_9 
REMARK    3  A    between atoms: C9_9  and  O10_10 
ROOT
HETATM    1  C9  UNL     1     -33.615  14.381  -3.906  1.00 20.00     0.155 C 
ENDROOT
BRANCH   1   2
HETATM    2  C4  UNL     1     -34.185  14.762  -5.254  1.00 20.00    -0.022 A 
HETATM    3  C1  UNL     1     -33.873  15.974  -5.935  1.00 20.00     0.017 A 
HETATM    4  C2  UNL     1     -34.528  16.072  -7.142  1.00 20.00     0.050 A 
HETATM    5  S11 UNL     1     -35.514  14.707  -7.452  1.00 20.00    -0.113 SA
HETATM    6  C3  UNL     1     -35.066  13.980  -5.967  1.00 20.00     0.059 A 
ENDBRANCH   1   2
BRANCH   1   7
HETATM    7  C8  UNL     1     -34.351  15.035  -2.755  1.00 20.00     0.019 C 
HETATM    8  C6  UNL     1     -35.694  15.733  -3.095  1.00 20.00     0.007 C 
HETATM    9  C5  UNL     1     -35.313  16.807  -2.055  1.00 20.00     0.001 C 
HETATM   10  C7  UNL     1     -33.839  16.429  -2.307  1.00 20.00     0.007 C 
ENDBRANCH   1   7
BRANCH   1  11
HETATM   11  O10 UNL     1     -32.244  14.783  -3.875  1.00 20.00    -0.391 OA
HETATM   12  H23 UNL     1     -31.746  14.028  -3.529  1.00 20.00     0.210 HD
ENDBRANCH   1  11
TORSDOF 3
ENDMDL
