MODEL 1
REMARK VINA RESULT:      -5.4      0.000      0.000
REMARK  1 active torsions:
REMARK  status: ('A' for Active; 'I' for Inactive)
REMARK    1  A    between atoms: C4_4  and  C10_10 
ROOT
HETATM    1  C5  UNL     1     -34.526  13.544  -4.267  1.00 20.00     0.001 C 
HETATM    2  C6  UNL     1     -35.071  13.883  -5.650  1.00 20.00     0.001 C 
HETATM    3  C7  UNL     1     -34.800  14.637  -3.238  1.00 20.00     0.009 C 
HETATM    4  C8  UNL     1     -34.288  14.955  -6.399  1.00 20.00     0.020 C 
HETATM    5  C9  UNL     1     -33.255  16.360  -4.504  1.00 20.00     0.029 C 
HETATM    6  C10 UNL     1     -33.716  15.725  -3.171  1.00 20.00     0.020 C 
HETATM    7  C11 UNL     1     -34.160  16.331  -5.739  1.00 20.00     0.083 C 
HETATM    8 CL13 UNL     1     -35.744  17.097  -5.456  1.00 20.00    -0.125 Cl
ENDROOT
BRANCH   6   9
HETATM    9  C4  UNL     1     -33.997  16.799  -2.122  1.00 20.00    -0.047 A 
HETATM   10  C1  UNL     1     -34.612  16.538  -0.864  1.00 20.00     0.015 A 
HETATM   11  C2  UNL     1     -34.748  17.682  -0.107  1.00 20.00     0.050 A 
HETATM   12  S12 UNL     1     -34.135  19.062  -0.914  1.00 20.00    -0.113 SA
HETATM   13  C3  UNL     1     -33.685  18.132  -2.279  1.00 20.00     0.057 A 
ENDBRANCH   6   9
TORSDOF 1
ENDMDL
MODEL 2
REMARK VINA RESULT:      -5.0      1.503      2.268
REMARK  1 active torsions:
REMARK  status: ('A' for Active; 'I' for Inactive)
REMARK    1  A    between atoms: C4_4  and  C10_10 
ROOT
HETATM    1  C5  UNL     1     -34.962  16.152  -6.259  1.00 20.00     0.001 C 
HETATM    2  C6  UNL     1     -34.455  14.736  -6.507  1.00 20.00     0.001 C 
HETATM    3  C7  UNL     1     -34.371  16.782  -5.002  1.00 20.00     0.009 C 
HETATM    4  C8  UNL     1     -35.021  13.681  -5.563  1.00 20.00     0.020 C 
HETATM    5  C9  UNL     1     -35.566  15.026  -3.436  1.00 20.00     0.029 C 
HETATM    6  C10 UNL     1     -35.169  16.494  -3.719  1.00 20.00     0.020 C 
HETATM    7  C11 UNL     1     -34.782  13.869  -4.063  1.00 20.00     0.083 C 
HETATM    8 CL13 UNL     1     -33.049  13.902  -3.652  1.00 20.00    -0.125 Cl
ENDROOT
BRANCH   6   9
HETATM    9  C4  UNL     1     -34.574  17.149  -2.474  1.00 20.00    -0.047 A 
HETATM   10  C1  UNL     1     -34.751  16.648  -1.151  1.00 20.00     0.015 A 
HETATM   11  C2  UNL     1     -34.110  17.428  -0.213  1.00 20.00     0.050 A 
HETATM   12  S12 UNL     1     -33.300  18.757  -0.927  1.00 20.00    -0.113 SA
HETATM   13  C3  UNL     1     -33.805  18.292  -2.495  1.00 20.00     0.057 A 
ENDBRANCH   6   9
TORSDOF 1
ENDMDL
MODEL 3
REMARK VINA RESULT:      -4.7      2.544      4.775
REMARK  1 active torsions:
REMARK  status: ('A' for Active; 'I' for Inactive)
REMARK    1  A    between atoms: C4_4  and  C10_10 
ROOT
HETATM    1  C5  UNL     1     -34.721  17.011  -0.419  1.00 20.00     0.001 C 
HETATM    2  C6  UNL     1     -34.313  18.466  -0.617  1.00 20.00     0.001 C 
HETATM    3  C7  UNL     1     -34.436  16.144  -1.642  1.00 20.00     0.009 C 
HETATM    4  C8  UNL     1     -35.221  19.263  -1.546  1.00 20.00     0.020 C 
HETATM    5  C9  UNL     1     -36.187  17.461  -3.111  1.00 20.00     0.029 C 
HETATM    6  C10 UNL     1     -35.580  16.109  -2.668  1.00 20.00     0.020 C 
HETATM    7  C11 UNL     1     -35.385  18.759  -2.983  1.00 20.00     0.083 C 
HETATM    8 CL13 UNL     1     -33.837  18.707  -3.863  1.00 20.00    -0.125 Cl
ENDROOT
BRANCH   6   9
HETATM    9  C4  UNL     1     -35.286  15.220  -3.876  1.00 20.00    -0.047 A 
HETATM   10  C1  UNL     1     -34.874  13.860  -3.779  1.00 20.00     0.015 A 
HETATM   11  C2  UNL     1     -34.676  13.289  -5.017  1.00 20.00     0.050 A 
HETATM   12  S12 UNL     1     -34.988  14.393  -6.289  1.00 20.00    -0.113 SA
HETATM   13  C3  UNL     1     -35.388  15.638  -5.185  1.00 20.00     0.057 A 
ENDBRANCH   6   9
TORSDOF 1
ENDMDL
MODEL 4
REMARK VINA RESULT:      -4.5      1.671      2.177
REMARK  1 active torsions:
REMARK  status: ('A' for Active; 'I' for Inactive)
REMARK    1  A    between atoms: C4_4  and  C10_10 
ROOT
HETATM    1  C5  UNL     1     -34.118  15.492  -6.649  1.00 20.00     0.001 C 
HETATM    2  C6  UNL     1     -35.280  14.548  -6.936  1.00 20.00     0.001 C 
HETATM    3  C7  UNL     1     -33.891  15.716  -5.157  1.00 20.00     0.009 C 
HETATM    4  C8  UNL     1     -36.661  15.142  -6.689  1.00 20.00     0.020 C 
HETATM    5  C9  UNL     1     -36.222  16.918  -4.877  1.00 20.00     0.029 C 
HETATM    6  C10 UNL     1     -34.709  16.874  -4.563  1.00 20.00     0.020 C 
HETATM    7  C11 UNL     1     -36.976  15.646  -5.278  1.00 20.00     0.083 C 
HETATM    8 CL13 UNL     1     -36.857  14.356  -4.055  1.00 20.00    -0.125 Cl
ENDROOT
BRANCH   6   9
HETATM    9  C4  UNL     1     -34.453  17.097  -3.073  1.00 20.00    -0.047 A 
HETATM   10  C1  UNL     1     -34.887  16.204  -2.051  1.00 20.00     0.015 A 
HETATM   11  C2  UNL     1     -34.526  16.642  -0.794  1.00 20.00     0.050 A 
HETATM   12  S12 UNL     1     -33.667  18.122  -0.852  1.00 20.00    -0.113 SA
HETATM   13  C3  UNL     1     -33.777  18.182  -2.559  1.00 20.00     0.057 A 
ENDBRANCH   6   9
TORSDOF 1
ENDMDL
MODEL 5
REMARK VINA RESULT:      -4.5      1.807      2.379
REMARK  1 active torsions:
REMARK  status: ('A' for Active; 'I' for Inactive)
REMARK    1  A    between atoms: C4_4  and  C10_10 
ROOT
HETATM    1  C5  UNL     1     -34.542  15.202  -3.303  1.00 20.00     0.001 C 
HETATM    2  C6  UNL     1     -35.434  15.826  -4.370  1.00 20.00     0.001 C 
HETATM    3  C7  UNL     1     -34.717  15.848  -1.932  1.00 20.00     0.009 C 
HETATM    4  C8  UNL     1     -35.001  17.212  -4.832  1.00 20.00     0.020 C 
HETATM    5  C9  UNL     1     -33.759  18.154  -2.783  1.00 20.00     0.029 C 
HETATM    6  C10 UNL     1     -33.806  17.063  -1.688  1.00 20.00     0.020 C 
HETATM    7  C11 UNL     1     -34.913  18.318  -3.776  1.00 20.00     0.083 C 
HETATM    8 CL13 UNL     1     -36.477  18.618  -2.978  1.00 20.00    -0.125 Cl
ENDROOT
BRANCH   6   9
HETATM    9  C4  UNL     1     -33.980  17.684  -0.303  1.00 20.00    -0.047 A 
HETATM   10  C1  UNL     1     -35.056  17.372   0.578  1.00 20.00     0.015 A 
HETATM   11  C2  UNL     1     -34.975  18.072   1.762  1.00 20.00     0.050 A 
HETATM   12  S12 UNL     1     -33.605  19.100   1.807  1.00 20.00    -0.113 SA
HETATM   13  C3  UNL     1     -33.118  18.610   0.241  1.00 20.00     0.057 A 
ENDBRANCH   6   9
TORSDOF 1
ENDMDL
MODEL 6
REMARK VINA RESULT:      -4.4      2.591      3.073
REMARK  1 active torsions:
REMARK  status: ('A' for Active; 'I' for Inactive)
REMARK    1  A    between atoms: C4_4  and  C10_10 
ROOT
HETATM    1  C5  UNL     1     -35.450  13.367  -4.164  1.00 20.00     0.001 C 
HETATM    2  C6  UNL     1     -33.999  13.410  -4.628  1.00 20.00     0.001 C 
HETATM    3  C7  UNL     1     -36.146  14.721  -4.268  1.00 20.00     0.009 C 
HETATM    4  C8  UNL     1     -33.043  14.112  -3.670  1.00 20.00     0.020 C 
HETATM    5  C9  UNL     1     -34.566  15.788  -2.444  1.00 20.00     0.029 C 
HETATM    6  C10 UNL     1     -35.990  15.606  -3.020  1.00 20.00     0.020 C 
HETATM    7  C11 UNL     1     -33.332  15.576  -3.326  1.00 20.00     0.083 C 
HETATM    8 CL13 UNL     1     -33.319  16.626  -4.765  1.00 20.00    -0.125 Cl
ENDROOT
BRANCH   6   9
HETATM    9  C4  UNL     1     -36.710  16.949  -3.133  1.00 20.00    -0.047 A 
HETATM   10  C1  UNL     1     -36.064  18.210  -2.987  1.00 20.00     0.015 A 
HETATM   11  C2  UNL     1     -36.943  19.261  -3.136  1.00 20.00     0.050 A 
HETATM   12  S12 UNL     1     -38.538  18.725  -3.452  1.00 20.00    -0.113 SA
HETATM   13  C3  UNL     1     -38.057  17.083  -3.389  1.00 20.00     0.057 A 
ENDBRANCH   6   9
TORSDOF 1
ENDMDL
MODEL 7
REMARK VINA RESULT:      -4.4      2.508      5.528
REMARK  1 active torsions:
REMARK  status: ('A' for Active; 'I' for Inactive)
REMARK    1  A    between atoms: C4_4  and  C10_10 
ROOT
HETATM    1  C5  UNL     1     -32.488  18.721   0.671  1.00 20.00     0.001 C 
HETATM    2  C6  UNL     1     -33.603  19.224   1.580  1.00 20.00     0.001 C 
HETATM    3  C7  UNL     1     -32.888  18.698  -0.801  1.00 20.00     0.009 C 
HETATM    4  C8  UNL     1     -34.753  18.243   1.781  1.00 20.00     0.020 C 
HETATM    5  C9  UNL     1     -34.718  16.845  -0.380  1.00 20.00     0.029 C 
HETATM    6  C10 UNL     1     -33.561  17.390  -1.250  1.00 20.00     0.020 C 
HETATM    7  C11 UNL     1     -35.514  17.777   0.537  1.00 20.00     0.083 C 
HETATM    8 CL13 UNL     1     -36.274  19.130  -0.339  1.00 20.00    -0.125 Cl
ENDROOT
BRANCH   6   9
HETATM    9  C4  UNL     1     -33.936  17.376  -2.731  1.00 20.00    -0.047 A 
HETATM   10  C1  UNL     1     -33.542  16.353  -3.640  1.00 20.00     0.015 A 
HETATM   11  C2  UNL     1     -34.014  16.583  -4.914  1.00 20.00     0.050 A 
HETATM   12  S12 UNL     1     -34.927  18.029  -5.009  1.00 20.00    -0.113 SA
HETATM   13  C3  UNL     1     -34.693  18.350  -3.344  1.00 20.00     0.057 A 
ENDBRANCH   6   9
TORSDOF 1
ENDMDL
MODEL 8
REMARK VINA RESULT:      -4.4     13.136     14.960
REMARK  1 active torsions:
REMARK  status: ('A' for Active; 'I' for Inactive)
REMARK    1  A    between atoms: C4_4  and  C10_10 
ROOT
HETATM    1  C5  UNL     1     -40.574   5.927  -0.200  1.00 20.00     0.001 C 
HETATM    2  C6  UNL     1     -40.905   7.272  -0.837  1.00 20.00     0.001 C 
HETATM    3  C7  UNL     1     -40.818   4.750  -1.139  1.00 20.00     0.009 C 
HETATM    4  C8  UNL     1     -42.395   7.551  -0.999  1.00 20.00     0.020 C 
HETATM    5  C9  UNL     1     -43.417   5.195  -1.187  1.00 20.00     0.029 C 
HETATM    6  C10 UNL     1     -42.248   4.189  -1.085  1.00 20.00     0.020 C 
HETATM    7  C11 UNL     1     -43.215   6.567  -1.838  1.00 20.00     0.083 C 
HETATM    8 CL13 UNL     1     -42.631   6.459  -3.518  1.00 20.00    -0.125 Cl
ENDROOT
BRANCH   6   9
HETATM    9  C4  UNL     1     -42.469   2.998  -2.016  1.00 20.00    -0.047 A 
HETATM   10  C1  UNL     1     -43.417   1.963  -1.771  1.00 20.00     0.015 A 
HETATM   11  C2  UNL     1     -43.414   1.011  -2.767  1.00 20.00     0.050 A 
HETATM   12  S12 UNL     1     -42.270   1.367  -3.991  1.00 20.00    -0.113 SA
HETATM   13  C3  UNL     1     -41.777   2.797  -3.190  1.00 20.00     0.057 A 
ENDBRANCH   6   9
TORSDOF 1
ENDMDL
MODEL 9
REMARK VINA RESULT:      -4.3      3.202      4.678
REMARK  1 active torsions:
REMARK  status: ('A' for Active; 'I' for Inactive)
REMARK    1  A    between atoms: C4_4  and  C10_10 
ROOT
HETATM    1  C5  UNL     1     -33.931  13.627  -3.746  1.00 20.00     0.001 C 
HETATM    2  C6  UNL     1     -32.942  14.786  -3.775  1.00 20.00     0.001 C 
HETATM    3  C7  UNL     1     -35.192  13.903  -4.559  1.00 20.00     0.009 C 
HETATM    4  C8  UNL     1     -33.356  15.999  -2.951  1.00 20.00     0.020 C 
HETATM    5  C9  UNL     1     -35.927  15.859  -2.948  1.00 20.00     0.029 C 
HETATM    6  C10 UNL     1     -36.309  14.605  -3.770  1.00 20.00     0.020 C 
HETATM    7  C11 UNL     1     -34.682  16.678  -3.303  1.00 20.00     0.083 C 
HETATM    8 CL13 UNL     1     -34.708  17.288  -4.977  1.00 20.00    -0.125 Cl
ENDROOT
BRANCH   6   9
HETATM    9  C4  UNL     1     -37.571  14.856  -4.594  1.00 20.00    -0.047 A 
HETATM   10  C1  UNL     1     -37.560  15.306  -5.946  1.00 20.00     0.015 A 
HETATM   11  C2  UNL     1     -38.833  15.450  -6.453  1.00 20.00     0.050 A 
HETATM   12  S12 UNL     1     -40.033  15.044  -5.301  1.00 20.00    -0.113 SA
HETATM   13  C3  UNL     1     -38.851  14.673  -4.120  1.00 20.00     0.057 A 
ENDBRANCH   6   9
TORSDOF 1
ENDMDL
