MODEL 1
REMARK VINA RESULT:      -5.0      0.000      0.000
REMARK  0 active torsions:
REMARK  status: ('A' for Active; 'I' for Inactive)
ROOT
HETATM    1  C1  UNL     1     -34.158  16.255  -2.015  1.00 20.00     0.064 C 
HETATM    2  C2  UNL     1     -34.788  13.724  -4.038  1.00 20.00     0.002 C 
HETATM    3  C3  UNL     1     -33.522  14.411  -3.529  1.00 20.00     0.019 C 
HETATM    4  C4  UNL     1     -34.442  16.678  -4.417  1.00 20.00     0.020 C 
HETATM    5  C5  UNL     1     -34.857  13.679  -5.566  1.00 20.00     0.008 C 
HETATM    6  C6  UNL     1     -34.264  16.180  -5.854  1.00 20.00     0.010 C 
HETATM    7  C7  UNL     1     -33.624  15.931  -3.355  1.00 20.00     0.093 C 
HETATM    8  C8  UNL     1     -35.176  15.005  -6.293  1.00 20.00    -0.048 C 
HETATM    9  C9  UNL     1     -36.669  15.355  -6.119  1.00 20.00     0.015 C 
HETATM   10  C10 UNL     1     -34.938  14.774  -7.806  1.00 20.00     0.015 C 
HETATM   11  N11 UNL     1     -34.576  16.509  -0.963  1.00 20.00    -0.197 NA
ENDROOT
TORSDOF 0
ENDMDL
MODEL 2
REMARK VINA RESULT:      -4.7      2.463      4.247
REMARK  0 active torsions:
REMARK  status: ('A' for Active; 'I' for Inactive)
ROOT
HETATM    1  C1  UNL     1     -34.368  13.709  -4.138  1.00 20.00     0.064 C 
HETATM    2  C2  UNL     1     -33.781  16.860  -4.925  1.00 20.00     0.002 C 
HETATM    3  C3  UNL     1     -32.929  15.694  -4.427  1.00 20.00     0.019 C 
HETATM    4  C4  UNL     1     -34.541  15.434  -2.400  1.00 20.00     0.020 C 
HETATM    5  C5  UNL     1     -33.669  18.094  -4.028  1.00 20.00     0.008 C 
HETATM    6  C6  UNL     1     -34.041  16.767  -1.839  1.00 20.00     0.010 C 
HETATM    7  C7  UNL     1     -33.616  14.761  -3.423  1.00 20.00     0.093 C 
HETATM    8  C8  UNL     1     -34.389  18.035  -2.662  1.00 20.00    -0.048 C 
HETATM    9  C9  UNL     1     -35.913  18.175  -2.863  1.00 20.00     0.015 C 
HETATM   10  C10 UNL     1     -33.926  19.263  -1.839  1.00 20.00     0.015 C 
HETATM   11  N11 UNL     1     -34.958  12.882  -4.700  1.00 20.00    -0.197 NA
ENDROOT
TORSDOF 0
ENDMDL
MODEL 3
REMARK VINA RESULT:      -4.6      2.817      5.124
REMARK  0 active torsions:
REMARK  status: ('A' for Active; 'I' for Inactive)
ROOT
HETATM    1  C1  UNL     1     -36.874  15.012  -3.706  1.00 20.00     0.064 C 
HETATM    2  C2  UNL     1     -36.512  18.051  -2.468  1.00 20.00     0.002 C 
HETATM    3  C3  UNL     1     -36.142  17.369  -3.784  1.00 20.00     0.019 C 
HETATM    4  C4  UNL     1     -34.844  15.559  -2.438  1.00 20.00     0.020 C 
HETATM    5  C5  UNL     1     -35.306  18.697  -1.783  1.00 20.00     0.008 C 
HETATM    6  C6  UNL     1     -33.802  16.609  -2.044  1.00 20.00     0.010 C 
HETATM    7  C7  UNL     1     -35.698  15.907  -3.664  1.00 20.00     0.093 C 
HETATM    8  C8  UNL     1     -34.289  17.747  -1.110  1.00 20.00    -0.048 C 
HETATM    9  C9  UNL     1     -34.880  17.185   0.201  1.00 20.00     0.015 C 
HETATM   10  C10 UNL     1     -33.050  18.592  -0.723  1.00 20.00     0.015 C 
HETATM   11  N11 UNL     1     -37.797  14.310  -3.739  1.00 20.00    -0.197 NA
ENDROOT
TORSDOF 0
ENDMDL
MODEL 4
REMARK VINA RESULT:      -4.5      2.473      4.330
REMARK  0 active torsions:
REMARK  status: ('A' for Active; 'I' for Inactive)
ROOT
HETATM    1  C1  UNL     1     -35.392  14.309  -6.502  1.00 20.00     0.064 C 
HETATM    2  C2  UNL     1     -33.192  15.230  -4.220  1.00 20.00     0.002 C 
HETATM    3  C3  UNL     1     -34.001  13.963  -4.491  1.00 20.00     0.019 C 
HETATM    4  C4  UNL     1     -36.177  15.389  -4.442  1.00 20.00     0.020 C 
HETATM    5  C5  UNL     1     -33.409  15.774  -2.806  1.00 20.00     0.008 C 
HETATM    6  C6  UNL     1     -35.987  15.616  -2.940  1.00 20.00     0.010 C 
HETATM    7  C7  UNL     1     -35.418  14.192  -5.028  1.00 20.00     0.093 C 
HETATM    8  C8  UNL     1     -34.760  16.468  -2.521  1.00 20.00    -0.048 C 
HETATM    9  C9  UNL     1     -34.788  17.860  -3.187  1.00 20.00     0.015 C 
HETATM   10  C10 UNL     1     -34.853  16.694  -0.992  1.00 20.00     0.015 C 
HETATM   11  N11 UNL     1     -35.371  14.400  -7.658  1.00 20.00    -0.197 NA
ENDROOT
TORSDOF 0
ENDMDL
MODEL 5
REMARK VINA RESULT:      -4.5      2.337      4.414
REMARK  0 active torsions:
REMARK  status: ('A' for Active; 'I' for Inactive)
ROOT
HETATM    1  C1  UNL     1     -34.654  13.731  -4.687  1.00 20.00     0.064 C 
HETATM    2  C2  UNL     1     -36.580  16.035  -3.317  1.00 20.00     0.002 C 
HETATM    3  C3  UNL     1     -35.902  15.861  -4.675  1.00 20.00     0.019 C 
HETATM    4  C4  UNL     1     -33.619  15.585  -3.455  1.00 20.00     0.020 C 
HETATM    5  C5  UNL     1     -36.205  17.354  -2.638  1.00 20.00     0.008 C 
HETATM    6  C6  UNL     1     -33.668  17.059  -3.043  1.00 20.00     0.010 C 
HETATM    7  C7  UNL     1     -34.518  15.202  -4.638  1.00 20.00     0.093 C 
HETATM    8  C8  UNL     1     -34.783  17.457  -2.041  1.00 20.00    -0.048 C 
HETATM    9  C9  UNL     1     -34.695  16.628  -0.742  1.00 20.00     0.015 C 
HETATM   10  C10 UNL     1     -34.549  18.937  -1.651  1.00 20.00     0.015 C 
HETATM   11  N11 UNL     1     -34.760  12.576  -4.727  1.00 20.00    -0.197 NA
ENDROOT
TORSDOF 0
ENDMDL
MODEL 6
REMARK VINA RESULT:      -4.4      1.225      2.189
REMARK  0 active torsions:
REMARK  status: ('A' for Active; 'I' for Inactive)
ROOT
HETATM    1  C1  UNL     1     -34.964  16.796  -1.488  1.00 20.00     0.064 C 
HETATM    2  C2  UNL     1     -33.329  16.313  -4.315  1.00 20.00     0.002 C 
HETATM    3  C3  UNL     1     -34.313  17.363  -3.802  1.00 20.00     0.019 C 
HETATM    4  C4  UNL     1     -36.004  15.458  -3.265  1.00 20.00     0.020 C 
HETATM    5  C5  UNL     1     -33.791  15.663  -5.620  1.00 20.00     0.008 C 
HETATM    6  C6  UNL     1     -36.189  15.208  -4.764  1.00 20.00     0.010 C 
HETATM    7  C7  UNL     1     -35.426  16.830  -2.892  1.00 20.00     0.093 C 
HETATM    8  C8  UNL     1     -34.958  14.653  -5.527  1.00 20.00    -0.048 C 
HETATM    9  C9  UNL     1     -34.461  13.330  -4.907  1.00 20.00     0.015 C 
HETATM   10  C10 UNL     1     -35.413  14.335  -6.972  1.00 20.00     0.015 C 
HETATM   11  N11 UNL     1     -34.601  16.771  -0.386  1.00 20.00    -0.197 NA
ENDROOT
TORSDOF 0
ENDMDL
MODEL 7
REMARK VINA RESULT:      -4.4      1.429      2.359
REMARK  0 active torsions:
REMARK  status: ('A' for Active; 'I' for Inactive)
ROOT
HETATM    1  C1  UNL     1     -34.562  16.573  -1.087  1.00 20.00     0.064 C 
HETATM    2  C2  UNL     1     -36.200  17.010  -3.919  1.00 20.00     0.002 C 
HETATM    3  C3  UNL     1     -36.070  15.869  -2.912  1.00 20.00     0.019 C 
HETATM    4  C4  UNL     1     -33.485  15.958  -3.206  1.00 20.00     0.020 C 
HETATM    5  C5  UNL     1     -35.838  16.580  -5.342  1.00 20.00     0.008 C 
HETATM    6  C6  UNL     1     -33.636  15.424  -4.633  1.00 20.00     0.010 C 
HETATM    7  C7  UNL     1     -34.682  15.707  -2.280  1.00 20.00     0.093 C 
HETATM    8  C8  UNL     1     -34.339  16.362  -5.649  1.00 20.00    -0.048 C 
HETATM    9  C9  UNL     1     -33.618  17.723  -5.750  1.00 20.00     0.015 C 
HETATM   10  C10 UNL     1     -34.242  15.692  -7.042  1.00 20.00     0.015 C 
HETATM   11  N11 UNL     1     -34.468  17.252  -0.151  1.00 20.00    -0.197 NA
ENDROOT
TORSDOF 0
ENDMDL
MODEL 8
REMARK VINA RESULT:      -4.3      2.406      4.353
REMARK  0 active torsions:
REMARK  status: ('A' for Active; 'I' for Inactive)
ROOT
HETATM    1  C1  UNL     1     -37.007  15.135  -7.068  1.00 20.00     0.064 C 
HETATM    2  C2  UNL     1     -34.353  16.696  -5.880  1.00 20.00     0.002 C 
HETATM    3  C3  UNL     1     -34.617  15.751  -7.051  1.00 20.00     0.019 C 
HETATM    4  C4  UNL     1     -35.614  14.022  -5.381  1.00 20.00     0.020 C 
HETATM    5  C5  UNL     1     -33.245  16.189  -4.954  1.00 20.00     0.008 C 
HETATM    6  C6  UNL     1     -34.219  13.799  -4.789  1.00 20.00     0.010 C 
HETATM    7  C7  UNL     1     -35.643  14.644  -6.783  1.00 20.00     0.093 C 
HETATM    8  C8  UNL     1     -33.592  14.998  -4.032  1.00 20.00    -0.048 C 
HETATM    9  C9  UNL     1     -34.500  15.472  -2.878  1.00 20.00     0.015 C 
HETATM   10  C10 UNL     1     -32.270  14.503  -3.395  1.00 20.00     0.015 C 
HETATM   11  N11 UNL     1     -38.079  15.520  -7.292  1.00 20.00    -0.197 NA
ENDROOT
TORSDOF 0
ENDMDL
MODEL 9
REMARK VINA RESULT:      -4.2      2.786      4.400
REMARK  0 active torsions:
REMARK  status: ('A' for Active; 'I' for Inactive)
ROOT
HETATM    1  C1  UNL     1     -37.922  15.167  -7.335  1.00 20.00     0.064 C 
HETATM    2  C2  UNL     1     -36.997  14.949  -4.174  1.00 20.00     0.002 C 
HETATM    3  C3  UNL     1     -37.275  16.098  -5.141  1.00 20.00     0.019 C 
HETATM    4  C4  UNL     1     -35.531  15.084  -6.785  1.00 20.00     0.020 C 
HETATM    5  C5  UNL     1     -35.603  15.033  -3.548  1.00 20.00     0.008 C 
HETATM    6  C6  UNL     1     -34.410  15.441  -5.806  1.00 20.00     0.010 C 
HETATM    7  C7  UNL     1     -36.844  15.854  -6.592  1.00 20.00     0.093 C 
HETATM    8  C8  UNL     1     -34.404  14.677  -4.456  1.00 20.00    -0.048 C 
HETATM    9  C9  UNL     1     -34.343  13.150  -4.674  1.00 20.00     0.015 C 
HETATM   10  C10 UNL     1     -33.114  15.079  -3.701  1.00 20.00     0.015 C 
HETATM   11  N11 UNL     1     -38.769  14.629  -7.918  1.00 20.00    -0.197 NA
ENDROOT
TORSDOF 0
ENDMDL
