MODEL 1
REMARK VINA RESULT:      -4.9      0.000      0.000
REMARK  1 active torsions:
REMARK  status: ('A' for Active; 'I' for Inactive)
REMARK    1  A    between atoms: C7_7  and  C10_10 
ROOT
HETATM    1  C1  UNL     1     -33.923  13.608  -3.888  1.00 20.00     0.004 C 
HETATM    2  C2  UNL     1     -34.344  14.781  -3.004  1.00 20.00     0.005 C 
HETATM    3  C3  UNL     1     -34.095  16.680  -4.735  1.00 20.00     0.007 C 
HETATM    4  C4  UNL     1     -34.765  13.440  -5.148  1.00 20.00     0.040 C 
HETATM    5  C5  UNL     1     -33.869  15.750  -5.926  1.00 20.00     0.040 C 
HETATM    6  C6  UNL     1     -36.283  15.020  -6.552  1.00 20.00     0.207 A 
HETATM    7  C7  UNL     1     -33.657  16.106  -3.378  1.00 20.00    -0.015 C 
HETATM    8  C8  UNL     1     -34.914  14.673  -5.996  1.00 20.00     0.082 A 
HETATM    9  O11 UNL     1     -35.301  14.358  -7.350  1.00 20.00    -0.375 OA
ENDROOT
BRANCH   7  10
HETATM   10  C10 UNL     1     -33.916  17.146  -2.282  1.00 20.00     0.000 C 
HETATM   11  C9  UNL     1     -34.592  16.538  -1.101  1.00 20.00     0.005 C 
ENDBRANCH   7  10
TORSDOF 1
ENDMDL
MODEL 2
REMARK VINA RESULT:      -4.7      1.348      1.873
REMARK  1 active torsions:
REMARK  status: ('A' for Active; 'I' for Inactive)
REMARK    1  A    between atoms: C7_7  and  C10_10 
ROOT
HETATM    1  C1  UNL     1     -36.758  15.152  -3.540  1.00 20.00     0.004 C 
HETATM    2  C2  UNL     1     -35.910  16.259  -2.914  1.00 20.00     0.005 C 
HETATM    3  C3  UNL     1     -33.572  15.264  -3.372  1.00 20.00     0.007 C 
HETATM    4  C4  UNL     1     -36.452  14.884  -5.010  1.00 20.00     0.040 C 
HETATM    5  C5  UNL     1     -34.079  14.135  -4.269  1.00 20.00     0.040 C 
HETATM    6  C6  UNL     1     -34.407  15.324  -6.557  1.00 20.00     0.207 A 
HETATM    7  C7  UNL     1     -34.584  15.753  -2.322  1.00 20.00    -0.015 C 
HETATM    8  C8  UNL     1     -35.004  14.646  -5.336  1.00 20.00     0.082 A 
HETATM    9  O11 UNL     1     -34.836  13.962  -6.596  1.00 20.00    -0.375 OA
ENDROOT
BRANCH   7  10
HETATM   10  C10 UNL     1     -33.941  16.861  -1.480  1.00 20.00     0.000 C 
HETATM   11  C9  UNL     1     -34.686  17.083  -0.208  1.00 20.00     0.005 C 
ENDBRANCH   7  10
TORSDOF 1
ENDMDL
MODEL 3
REMARK VINA RESULT:      -4.5     11.962     13.468
REMARK  1 active torsions:
REMARK  status: ('A' for Active; 'I' for Inactive)
REMARK    1  A    between atoms: C7_7  and  C10_10 
ROOT
HETATM    1  C1  UNL     1     -35.334   5.604   3.204  1.00 20.00     0.004 C 
HETATM    2  C2  UNL     1     -33.867   5.817   2.834  1.00 20.00     0.005 C 
HETATM    3  C3  UNL     1     -33.017   6.696   5.108  1.00 20.00     0.007 C 
HETATM    4  C4  UNL     1     -35.553   4.657   4.379  1.00 20.00     0.040 C 
HETATM    5  C5  UNL     1     -34.308   6.385   5.865  1.00 20.00     0.040 C 
HETATM    6  C6  UNL     1     -34.082   3.845   6.365  1.00 20.00     0.207 A 
HETATM    7  C7  UNL     1     -33.203   6.970   3.607  1.00 20.00    -0.015 C 
HETATM    8  C8  UNL     1     -34.769   4.976   5.622  1.00 20.00     0.082 A 
HETATM    9  O11 UNL     1     -35.340   4.364   6.797  1.00 20.00    -0.375 OA
ENDROOT
BRANCH   7  10
HETATM   10  C10 UNL     1     -31.840   7.291   2.980  1.00 20.00     0.000 C 
HETATM   11  C9  UNL     1     -31.968   8.281   1.873  1.00 20.00     0.005 C 
ENDBRANCH   7  10
TORSDOF 1
ENDMDL
MODEL 4
REMARK VINA RESULT:      -4.5      1.522      2.651
REMARK  1 active torsions:
REMARK  status: ('A' for Active; 'I' for Inactive)
REMARK    1  A    between atoms: C7_7  and  C10_10 
ROOT
HETATM    1  C1  UNL     1     -34.503  16.536  -5.535  1.00 20.00     0.004 C 
HETATM    2  C2  UNL     1     -33.698  17.233  -4.438  1.00 20.00     0.005 C 
HETATM    3  C3  UNL     1     -34.635  15.955  -2.399  1.00 20.00     0.007 C 
HETATM    4  C4  UNL     1     -34.315  15.024  -5.585  1.00 20.00     0.040 C 
HETATM    5  C5  UNL     1     -35.396  14.920  -3.225  1.00 20.00     0.040 C 
HETATM    6  C6  UNL     1     -33.535  13.225  -3.874  1.00 20.00     0.207 A 
HETATM    7  C7  UNL     1     -34.440  17.313  -3.093  1.00 20.00    -0.015 C 
HETATM    8  C8  UNL     1     -34.524  14.302  -4.282  1.00 20.00     0.082 A 
HETATM    9  O11 UNL     1     -34.789  12.897  -4.475  1.00 20.00    -0.375 OA
ENDROOT
BRANCH   7  10
HETATM   10  C10 UNL     1     -33.689  18.260  -2.148  1.00 20.00     0.000 C 
HETATM   11  C9  UNL     1     -33.589  17.692  -0.773  1.00 20.00     0.005 C 
ENDBRANCH   7  10
TORSDOF 1
ENDMDL
MODEL 5
REMARK VINA RESULT:      -4.4      1.793      3.136
REMARK  1 active torsions:
REMARK  status: ('A' for Active; 'I' for Inactive)
REMARK    1  A    between atoms: C7_7  and  C10_10 
ROOT
HETATM    1  C1  UNL     1     -32.929  15.418  -3.723  1.00 20.00     0.004 C 
HETATM    2  C2  UNL     1     -33.413  16.772  -4.239  1.00 20.00     0.005 C 
HETATM    3  C3  UNL     1     -34.706  15.953  -6.319  1.00 20.00     0.007 C 
HETATM    4  C4  UNL     1     -34.046  14.423  -3.431  1.00 20.00     0.040 C 
HETATM    5  C5  UNL     1     -34.604  14.470  -5.967  1.00 20.00     0.040 C 
HETATM    6  C6  UNL     1     -36.510  14.161  -4.226  1.00 20.00     0.207 A 
HETATM    7  C7  UNL     1     -33.564  16.824  -5.770  1.00 20.00    -0.015 C 
HETATM    8  C8  UNL     1     -35.027  14.205  -4.550  1.00 20.00     0.082 A 
HETATM    9  O11 UNL     1     -35.751  12.965  -4.405  1.00 20.00    -0.375 OA
ENDROOT
BRANCH   7  10
HETATM   10  C10 UNL     1     -33.777  18.276  -6.216  1.00 20.00     0.000 C 
HETATM   11  C9  UNL     1     -34.395  18.345  -7.571  1.00 20.00     0.005 C 
ENDBRANCH   7  10
TORSDOF 1
ENDMDL
MODEL 6
REMARK VINA RESULT:      -4.3      1.906      2.907
REMARK  1 active torsions:
REMARK  status: ('A' for Active; 'I' for Inactive)
REMARK    1  A    between atoms: C7_7  and  C10_10 
ROOT
HETATM    1  C1  UNL     1     -36.617  16.044  -3.405  1.00 20.00     0.004 C 
HETATM    2  C2  UNL     1     -35.779  17.086  -4.145  1.00 20.00     0.005 C 
HETATM    3  C3  UNL     1     -33.460  15.984  -3.872  1.00 20.00     0.007 C 
HETATM    4  C4  UNL     1     -36.507  14.633  -3.973  1.00 20.00     0.040 C 
HETATM    5  C5  UNL     1     -33.999  14.674  -3.300  1.00 20.00     0.040 C 
HETATM    6  C6  UNL     1     -34.749  13.385  -5.429  1.00 20.00     0.207 A 
HETATM    7  C7  UNL     1     -34.345  17.213  -3.604  1.00 20.00    -0.015 C 
HETATM    8  C8  UNL     1     -35.107  14.113  -4.146  1.00 20.00     0.082 A 
HETATM    9  O11 UNL     1     -35.070  12.673  -4.234  1.00 20.00    -0.375 OA
ENDROOT
BRANCH   7  10
HETATM   10  C10 UNL     1     -33.677  18.456  -4.206  1.00 20.00     0.000 C 
HETATM   11  C9  UNL     1     -33.620  18.378  -5.694  1.00 20.00     0.005 C 
ENDBRANCH   7  10
TORSDOF 1
ENDMDL
MODEL 7
REMARK VINA RESULT:      -4.3      2.202      3.677
REMARK  1 active torsions:
REMARK  status: ('A' for Active; 'I' for Inactive)
REMARK    1  A    between atoms: C7_7  and  C10_10 
ROOT
HETATM    1  C1  UNL     1     -34.061  18.510  -3.546  1.00 20.00     0.004 C 
HETATM    2  C2  UNL     1     -33.482  18.577  -2.133  1.00 20.00     0.005 C 
HETATM    3  C3  UNL     1     -34.479  16.385  -1.202  1.00 20.00     0.007 C 
HETATM    4  C4  UNL     1     -33.680  17.253  -4.321  1.00 20.00     0.040 C 
HETATM    5  C5  UNL     1     -35.003  15.890  -2.549  1.00 20.00     0.040 C 
HETATM    6  C6  UNL     1     -32.882  14.869  -3.650  1.00 20.00     0.207 A 
HETATM    7  C7  UNL     1     -34.379  17.913  -1.073  1.00 20.00    -0.015 C 
HETATM    8  C8  UNL     1     -33.945  15.952  -3.614  1.00 20.00     0.082 A 
HETATM    9  O11 UNL     1     -34.007  14.839  -4.529  1.00 20.00    -0.375 OA
ENDROOT
BRANCH   7  10
HETATM   10  C10 UNL     1     -33.867  18.269   0.328  1.00 20.00     0.000 C 
HETATM   11  C9  UNL     1     -32.476  18.803   0.282  1.00 20.00     0.005 C 
ENDBRANCH   7  10
TORSDOF 1
ENDMDL
MODEL 8
REMARK VINA RESULT:      -4.2      2.021      4.373
REMARK  1 active torsions:
REMARK  status: ('A' for Active; 'I' for Inactive)
REMARK    1  A    between atoms: C7_7  and  C10_10 
ROOT
HETATM    1  C1  UNL     1     -33.232  16.641  -5.427  1.00 20.00     0.004 C 
HETATM    2  C2  UNL     1     -34.329  16.246  -6.416  1.00 20.00     0.005 C 
HETATM    3  C3  UNL     1     -35.168  14.112  -5.230  1.00 20.00     0.007 C 
HETATM    4  C4  UNL     1     -33.723  16.853  -3.999  1.00 20.00     0.040 C 
HETATM    5  C5  UNL     1     -34.353  14.334  -3.957  1.00 20.00     0.040 C 
HETATM    6  C6  UNL     1     -35.795  16.053  -2.645  1.00 20.00     0.207 A 
HETATM    7  C7  UNL     1     -34.557  14.727  -6.500  1.00 20.00    -0.015 C 
HETATM    8  C8  UNL     1     -34.531  15.726  -3.419  1.00 20.00     0.082 A 
HETATM    9  O11 UNL     1     -34.566  15.767  -1.978  1.00 20.00    -0.375 OA
ENDROOT
BRANCH   7  10
HETATM   10  C10 UNL     1     -35.459  14.409  -7.699  1.00 20.00     0.000 C 
HETATM   11  C9  UNL     1     -36.802  15.039  -7.555  1.00 20.00     0.005 C 
ENDBRANCH   7  10
TORSDOF 1
ENDMDL
MODEL 9
REMARK VINA RESULT:      -4.2      2.441      4.168
REMARK  1 active torsions:
REMARK  status: ('A' for Active; 'I' for Inactive)
REMARK    1  A    between atoms: C7_7  and  C10_10 
ROOT
HETATM    1  C1  UNL     1     -33.415  17.300  -5.241  1.00 20.00     0.004 C 
HETATM    2  C2  UNL     1     -33.825  15.835  -5.090  1.00 20.00     0.005 C 
HETATM    3  C3  UNL     1     -34.056  15.760  -2.520  1.00 20.00     0.007 C 
HETATM    4  C4  UNL     1     -34.415  18.293  -4.658  1.00 20.00     0.040 C 
HETATM    5  C5  UNL     1     -33.910  17.268  -2.326  1.00 20.00     0.040 C 
HETATM    6  C6  UNL     1     -36.295  18.149  -2.865  1.00 20.00     0.207 A 
HETATM    7  C7  UNL     1     -33.355  15.202  -3.769  1.00 20.00    -0.015 C 
HETATM    8  C8  UNL     1     -34.827  18.036  -3.235  1.00 20.00     0.082 A 
HETATM    9  O11 UNL     1     -35.378  19.213  -2.608  1.00 20.00    -0.375 OA
ENDROOT
BRANCH   7  10
HETATM   10  C10 UNL     1     -33.559  13.683  -3.827  1.00 20.00     0.000 C 
HETATM   11  C9  UNL     1     -34.923  13.334  -4.316  1.00 20.00     0.005 C 
ENDBRANCH   7  10
TORSDOF 1
ENDMDL
