MODEL 1
REMARK VINA RESULT:      -4.7      0.000      0.000
REMARK  1 active torsions:
REMARK  status: ('A' for Active; 'I' for Inactive)
REMARK    1  A    between atoms: C4_4  and  C9_9 
ROOT
HETATM    1  C5  UNL     1     -33.340  16.303  -5.117  1.00 20.00     0.002 C 
HETATM    2  C6  UNL     1     -32.979  15.494  -3.867  1.00 20.00     0.009 C 
HETATM    3  C7  UNL     1     -34.707  15.927  -5.676  1.00 20.00     0.020 C 
HETATM    4  C8  UNL     1     -35.434  15.125  -3.402  1.00 20.00     0.029 C 
HETATM    5  C9  UNL     1     -34.071  15.494  -2.772  1.00 20.00     0.020 C 
HETATM    6  C10 UNL     1     -35.784  16.014  -4.598  1.00 20.00     0.083 C 
HETATM    7 CL12 UNL     1     -37.358  15.514  -5.281  1.00 20.00    -0.125 Cl
ENDROOT
BRANCH   5   8
HETATM    8  C4  UNL     1     -34.155  16.728  -1.877  1.00 20.00    -0.047 A 
HETATM    9  C1  UNL     1     -34.693  16.717  -0.557  1.00 20.00     0.015 A 
HETATM   10  C2  UNL     1     -34.651  17.963   0.029  1.00 20.00     0.050 A 
HETATM   11  S11 UNL     1     -33.965  19.139  -1.009  1.00 20.00    -0.113 SA
HETATM   12  C3  UNL     1     -33.722  17.982  -2.248  1.00 20.00     0.057 A 
ENDBRANCH   5   8
TORSDOF 1
ENDMDL
MODEL 2
REMARK VINA RESULT:      -4.5      0.632      1.173
REMARK  1 active torsions:
REMARK  status: ('A' for Active; 'I' for Inactive)
REMARK    1  A    between atoms: C4_4  and  C9_9 
ROOT
HETATM    1  C5  UNL     1     -33.297  16.311  -5.059  1.00 20.00     0.002 C 
HETATM    2  C6  UNL     1     -32.945  15.488  -3.816  1.00 20.00     0.009 C 
HETATM    3  C7  UNL     1     -34.660  15.940  -5.632  1.00 20.00     0.020 C 
HETATM    4  C8  UNL     1     -35.402  15.112  -3.371  1.00 20.00     0.029 C 
HETATM    5  C9  UNL     1     -34.043  15.476  -2.729  1.00 20.00     0.020 C 
HETATM    6  C10 UNL     1     -35.744  16.013  -4.560  1.00 20.00     0.083 C 
HETATM    7 CL12 UNL     1     -37.314  15.520  -5.259  1.00 20.00    -0.125 Cl
ENDROOT
BRANCH   5   8
HETATM    8  C4  UNL     1     -34.135  16.700  -1.821  1.00 20.00    -0.047 A 
HETATM    9  C1  UNL     1     -33.622  17.984  -2.165  1.00 20.00     0.015 A 
HETATM   10  C2  UNL     1     -33.836  18.911  -1.168  1.00 20.00     0.050 A 
HETATM   11  S11 UNL     1     -34.650  18.232   0.177  1.00 20.00    -0.113 SA
HETATM   12  C3  UNL     1     -34.719  16.694  -0.573  1.00 20.00     0.057 A 
ENDBRANCH   5   8
TORSDOF 1
ENDMDL
MODEL 3
REMARK VINA RESULT:      -4.4      2.059      2.766
REMARK  1 active torsions:
REMARK  status: ('A' for Active; 'I' for Inactive)
REMARK    1  A    between atoms: C4_4  and  C9_9 
ROOT
HETATM    1  C5  UNL     1     -36.831  14.825  -3.886  1.00 20.00     0.002 C 
HETATM    2  C6  UNL     1     -36.541  16.297  -4.195  1.00 20.00     0.009 C 
HETATM    3  C7  UNL     1     -35.616  13.934  -4.116  1.00 20.00     0.020 C 
HETATM    4  C8  UNL     1     -34.086  15.902  -3.755  1.00 20.00     0.029 C 
HETATM    5  C9  UNL     1     -35.277  16.855  -3.502  1.00 20.00     0.020 C 
HETATM    6  C10 UNL     1     -34.400  14.458  -3.357  1.00 20.00     0.083 C 
HETATM    7 CL12 UNL     1     -32.987  13.417  -3.697  1.00 20.00    -0.125 Cl
ENDROOT
BRANCH   5   8
HETATM    8  C4  UNL     1     -35.408  17.250  -2.033  1.00 20.00    -0.047 A 
HETATM    9  C1  UNL     1     -34.589  16.723  -0.993  1.00 20.00     0.015 A 
HETATM   10  C2  UNL     1     -34.916  17.247   0.239  1.00 20.00     0.050 A 
HETATM   11  S11 UNL     1     -36.208  18.367   0.138  1.00 20.00    -0.113 SA
HETATM   12  C3  UNL     1     -36.330  18.155  -1.557  1.00 20.00     0.057 A 
ENDBRANCH   5   8
TORSDOF 1
ENDMDL
MODEL 4
REMARK VINA RESULT:      -4.4      3.076      4.874
REMARK  1 active torsions:
REMARK  status: ('A' for Active; 'I' for Inactive)
REMARK    1  A    between atoms: C4_4  and  C9_9 
ROOT
HETATM    1  C5  UNL     1     -34.347  14.957  -2.850  1.00 20.00     0.002 C 
HETATM    2  C6  UNL     1     -33.149  15.108  -3.793  1.00 20.00     0.009 C 
HETATM    3  C7  UNL     1     -34.722  16.270  -2.174  1.00 20.00     0.020 C 
HETATM    4  C8  UNL     1     -33.681  17.561  -4.070  1.00 20.00     0.029 C 
HETATM    5  C9  UNL     1     -33.282  16.264  -4.811  1.00 20.00     0.020 C 
HETATM    6  C10 UNL     1     -34.929  17.378  -3.203  1.00 20.00     0.083 C 
HETATM    7 CL12 UNL     1     -35.313  18.910  -2.366  1.00 20.00    -0.125 Cl
ENDROOT
BRANCH   5   8
HETATM    8  C4  UNL     1     -34.146  16.006  -6.044  1.00 20.00    -0.047 A 
HETATM    9  C1  UNL     1     -34.672  17.038  -6.874  1.00 20.00     0.015 A 
HETATM   10  C2  UNL     1     -35.417  16.532  -7.918  1.00 20.00     0.050 A 
HETATM   11  S11 UNL     1     -35.479  14.821  -7.892  1.00 20.00    -0.113 SA
HETATM   12  C3  UNL     1     -34.508  14.753  -6.484  1.00 20.00     0.057 A 
ENDBRANCH   5   8
TORSDOF 1
ENDMDL
MODEL 5
REMARK VINA RESULT:      -4.4      1.703      2.316
REMARK  1 active torsions:
REMARK  status: ('A' for Active; 'I' for Inactive)
REMARK    1  A    between atoms: C4_4  and  C9_9 
ROOT
HETATM    1  C5  UNL     1     -34.438  13.877  -5.341  1.00 20.00     0.002 C 
HETATM    2  C6  UNL     1     -35.363  13.556  -4.163  1.00 20.00     0.009 C 
HETATM    3  C7  UNL     1     -35.199  14.416  -6.546  1.00 20.00     0.020 C 
HETATM    4  C8  UNL     1     -37.048  15.222  -5.037  1.00 20.00     0.029 C 
HETATM    5  C9  UNL     1     -36.321  14.705  -3.774  1.00 20.00     0.020 C 
HETATM    6  C10 UNL     1     -36.076  15.603  -6.155  1.00 20.00     0.083 C 
HETATM    7 CL12 UNL     1     -36.990  16.169  -7.583  1.00 20.00    -0.125 Cl
ENDROOT
BRANCH   5   8
HETATM    8  C4  UNL     1     -35.738  15.838  -2.931  1.00 20.00    -0.047 A 
HETATM    9  C1  UNL     1     -34.487  15.761  -2.253  1.00 20.00     0.015 A 
HETATM   10  C2  UNL     1     -34.199  16.919  -1.565  1.00 20.00     0.050 A 
HETATM   11  S11 UNL     1     -35.435  18.092  -1.737  1.00 20.00    -0.113 SA
HETATM   12  C3  UNL     1     -36.359  17.051  -2.734  1.00 20.00     0.057 A 
ENDBRANCH   5   8
TORSDOF 1
ENDMDL
MODEL 6
REMARK VINA RESULT:      -4.4      1.316      1.656
REMARK  1 active torsions:
REMARK  status: ('A' for Active; 'I' for Inactive)
REMARK    1  A    between atoms: C4_4  and  C9_9 
ROOT
HETATM    1  C5  UNL     1     -35.100  16.891  -5.570  1.00 20.00     0.002 C 
HETATM    2  C6  UNL     1     -33.703  17.255  -5.060  1.00 20.00     0.009 C 
HETATM    3  C7  UNL     1     -35.325  15.384  -5.618  1.00 20.00     0.020 C 
HETATM    4  C8  UNL     1     -33.581  15.053  -3.830  1.00 20.00     0.029 C 
HETATM    5  C9  UNL     1     -33.314  16.572  -3.728  1.00 20.00     0.020 C 
HETATM    6  C10 UNL     1     -35.014  14.740  -4.269  1.00 20.00     0.083 C 
HETATM    7 CL12 UNL     1     -35.239  12.971  -4.383  1.00 20.00    -0.125 Cl
ENDROOT
BRANCH   5   8
HETATM    8  C4  UNL     1     -33.878  17.180  -2.446  1.00 20.00    -0.047 A 
HETATM    9  C1  UNL     1     -34.478  16.418  -1.403  1.00 20.00     0.015 A 
HETATM   10  C2  UNL     1     -34.903  17.212  -0.360  1.00 20.00     0.050 A 
HETATM   11  S11 UNL     1     -34.579  18.870  -0.642  1.00 20.00    -0.113 SA
HETATM   12  C3  UNL     1     -33.868  18.528  -2.162  1.00 20.00     0.057 A 
ENDBRANCH   5   8
TORSDOF 1
ENDMDL
MODEL 7
REMARK VINA RESULT:      -4.4      1.721      2.316
REMARK  1 active torsions:
REMARK  status: ('A' for Active; 'I' for Inactive)
REMARK    1  A    between atoms: C4_4  and  C9_9 
ROOT
HETATM    1  C5  UNL     1     -35.157  13.683  -4.219  1.00 20.00     0.002 C 
HETATM    2  C6  UNL     1     -36.301  14.509  -3.623  1.00 20.00     0.009 C 
HETATM    3  C7  UNL     1     -34.903  14.017  -5.684  1.00 20.00     0.020 C 
HETATM    4  C8  UNL     1     -35.897  16.308  -5.349  1.00 20.00     0.029 C 
HETATM    5  C9  UNL     1     -36.172  16.033  -3.853  1.00 20.00     0.020 C 
HETATM    6  C10 UNL     1     -34.697  15.518  -5.877  1.00 20.00     0.083 C 
HETATM    7 CL12 UNL     1     -34.456  15.872  -7.612  1.00 20.00    -0.125 Cl
ENDROOT
BRANCH   5   8
HETATM    8  C4  UNL     1     -35.219  16.795  -2.934  1.00 20.00    -0.047 A 
HETATM    9  C1  UNL     1     -34.738  16.287  -1.692  1.00 20.00     0.015 A 
HETATM   10  C2  UNL     1     -33.894  17.176  -1.062  1.00 20.00     0.050 A 
HETATM   11  S11 UNL     1     -33.688  18.616  -1.966  1.00 20.00    -0.113 SA
HETATM   12  C3  UNL     1     -34.727  18.052  -3.204  1.00 20.00     0.057 A 
ENDBRANCH   5   8
TORSDOF 1
ENDMDL
MODEL 8
REMARK VINA RESULT:      -4.3      2.715      4.323
REMARK  1 active torsions:
REMARK  status: ('A' for Active; 'I' for Inactive)
REMARK    1  A    between atoms: C4_4  and  C9_9 
ROOT
HETATM    1  C5  UNL     1     -35.778  14.453  -4.505  1.00 20.00     0.002 C 
HETATM    2  C6  UNL     1     -34.412  14.370  -5.194  1.00 20.00     0.009 C 
HETATM    3  C7  UNL     1     -35.662  14.824  -3.032  1.00 20.00     0.020 C 
HETATM    4  C8  UNL     1     -33.451  15.948  -3.473  1.00 20.00     0.029 C 
HETATM    5  C9  UNL     1     -33.515  15.610  -4.980  1.00 20.00     0.020 C 
HETATM    6  C10 UNL     1     -34.840  16.098  -2.849  1.00 20.00     0.083 C 
HETATM    7 CL12 UNL     1     -34.684  16.465  -1.107  1.00 20.00    -0.125 Cl
ENDROOT
BRANCH   5   8
HETATM    8  C4  UNL     1     -33.809  16.836  -5.842  1.00 20.00    -0.047 A 
HETATM    9  C1  UNL     1     -34.437  16.777  -7.120  1.00 20.00     0.015 A 
HETATM   10  C2  UNL     1     -34.583  18.026  -7.683  1.00 20.00     0.050 A 
HETATM   11  S11 UNL     1     -33.963  19.262  -6.673  1.00 20.00    -0.113 SA
HETATM   12  C3  UNL     1     -33.498  18.128  -5.478  1.00 20.00     0.057 A 
ENDBRANCH   5   8
TORSDOF 1
ENDMDL
MODEL 9
REMARK VINA RESULT:      -4.3      2.742      4.256
REMARK  1 active torsions:
REMARK  status: ('A' for Active; 'I' for Inactive)
REMARK    1  A    between atoms: C4_4  and  C9_9 
ROOT
HETATM    1  C5  UNL     1     -34.790  16.753  -0.759  1.00 20.00     0.002 C 
HETATM    2  C6  UNL     1     -33.563  16.895  -1.666  1.00 20.00     0.009 C 
HETATM    3  C7  UNL     1     -35.820  17.850  -1.003  1.00 20.00     0.020 C 
HETATM    4  C8  UNL     1     -34.956  18.161  -3.349  1.00 20.00     0.029 C 
HETATM    5  C9  UNL     1     -33.896  17.050  -3.167  1.00 20.00     0.020 C 
HETATM    6  C10 UNL     1     -36.195  17.932  -2.481  1.00 20.00     0.083 C 
HETATM    7 CL12 UNL     1     -37.362  19.263  -2.730  1.00 20.00    -0.125 Cl
ENDROOT
BRANCH   5   8
HETATM    8  C4  UNL     1     -34.244  15.778  -3.936  1.00 20.00    -0.047 A 
HETATM    9  C1  UNL     1     -34.044  14.462  -3.426  1.00 20.00     0.015 A 
HETATM   10  C2  UNL     1     -34.442  13.494  -4.322  1.00 20.00     0.050 A 
HETATM   11  S11 UNL     1     -35.052  14.172  -5.772  1.00 20.00    -0.113 SA
HETATM   12  C3  UNL     1     -34.785  15.765  -5.202  1.00 20.00     0.057 A 
ENDBRANCH   5   8
TORSDOF 1
ENDMDL
