MODEL 1
REMARK VINA RESULT:      -5.1      0.000      0.000
REMARK  1 active torsions:
REMARK  status: ('A' for Active; 'I' for Inactive)
REMARK    1  A    between atoms: C8_8  and  C11_11 
ROOT
HETATM    1  C1  UNL     1     -35.147  14.387  -6.854  1.00 20.00     0.064 C 
HETATM    2  C2  UNL     1     -36.156  14.776  -3.736  1.00 20.00     0.002 C 
HETATM    3  C3  UNL     1     -35.250  13.782  -4.461  1.00 20.00     0.019 C 
HETATM    4  C4  UNL     1     -33.825  15.779  -5.323  1.00 20.00     0.019 C 
HETATM    5  C5  UNL     1     -35.457  15.469  -2.567  1.00 20.00     0.005 C 
HETATM    6  C6  UNL     1     -33.318  16.020  -3.902  1.00 20.00     0.006 C 
HETATM    7  C7  UNL     1     -34.390  14.377  -5.583  1.00 20.00     0.093 C 
HETATM    8  C8  UNL     1     -34.415  16.529  -2.952  1.00 20.00    -0.011 C 
HETATM    9  N12 UNL     1     -35.740  14.395  -7.850  1.00 20.00    -0.197 NA
ENDROOT
BRANCH   8  10
HETATM   10  C11 UNL     1     -33.772  17.087  -1.675  1.00 20.00    -0.019 C 
HETATM   11  C9  UNL     1     -33.483  18.575  -1.835  1.00 20.00     0.010 C 
HETATM   12  C10 UNL     1     -34.676  16.836  -0.474  1.00 20.00     0.010 C 
ENDBRANCH   8  10
TORSDOF 1
ENDMDL
MODEL 2
REMARK VINA RESULT:      -4.8      1.518      2.176
REMARK  1 active torsions:
REMARK  status: ('A' for Active; 'I' for Inactive)
REMARK    1  A    between atoms: C8_8  and  C11_11 
ROOT
HETATM    1  C1  UNL     1     -33.934  16.000  -6.159  1.00 20.00     0.064 C 
HETATM    2  C2  UNL     1     -34.487  15.167  -3.014  1.00 20.00     0.002 C 
HETATM    3  C3  UNL     1     -33.243  15.309  -3.890  1.00 20.00     0.019 C 
HETATM    4  C4  UNL     1     -33.962  17.748  -4.435  1.00 20.00     0.019 C 
HETATM    5  C5  UNL     1     -34.425  16.030  -1.754  1.00 20.00     0.005 C 
HETATM    6  C6  UNL     1     -33.646  18.154  -2.996  1.00 20.00     0.006 C 
HETATM    7  C7  UNL     1     -33.287  16.455  -4.909  1.00 20.00     0.093 C 
HETATM    8  C8  UNL     1     -34.615  17.538  -1.973  1.00 20.00    -0.011 C 
HETATM    9  N12 UNL     1     -34.441  15.643  -7.139  1.00 20.00    -0.197 NA
ENDROOT
BRANCH   8  10
HETATM   10  C11 UNL     1     -34.472  18.262  -0.628  1.00 20.00    -0.019 C 
HETATM   11  C9  UNL     1     -35.002  17.387   0.503  1.00 20.00     0.010 C 
HETATM   12  C10 UNL     1     -33.016  18.643  -0.383  1.00 20.00     0.010 C 
ENDBRANCH   8  10
TORSDOF 1
ENDMDL
MODEL 3
REMARK VINA RESULT:      -4.8      3.521      5.248
REMARK  1 active torsions:
REMARK  status: ('A' for Active; 'I' for Inactive)
REMARK    1  A    between atoms: C8_8  and  C11_11 
ROOT
HETATM    1  C1  UNL     1     -34.328  18.033  -2.805  1.00 20.00     0.064 C 
HETATM    2  C2  UNL     1     -35.413  17.590   0.280  1.00 20.00     0.002 C 
HETATM    3  C3  UNL     1     -34.546  16.783  -0.686  1.00 20.00     0.019 C 
HETATM    4  C4  UNL     1     -32.974  18.841  -0.923  1.00 20.00     0.019 C 
HETATM    5  C5  UNL     1     -34.711  17.874   1.608  1.00 20.00     0.005 C 
HETATM    6  C6  UNL     1     -32.499  18.634   0.515  1.00 20.00     0.006 C 
HETATM    7  C7  UNL     1     -33.615  17.612  -1.580  1.00 20.00     0.093 C 
HETATM    8  C8  UNL     1     -33.593  18.926   1.555  1.00 20.00    -0.011 C 
HETATM    9  N12 UNL     1     -34.888  18.362  -3.766  1.00 20.00    -0.197 NA
ENDROOT
BRANCH   8  10
HETATM   10  C11 UNL     1     -32.960  19.055   2.946  1.00 20.00    -0.019 C 
HETATM   11  C9  UNL     1     -33.684  18.158   3.943  1.00 20.00     0.010 C 
HETATM   12  C10 UNL     1     -31.475  18.712   2.886  1.00 20.00     0.010 C 
ENDBRANCH   8  10
TORSDOF 1
ENDMDL
MODEL 4
REMARK VINA RESULT:      -4.6      2.570      5.187
REMARK  1 active torsions:
REMARK  status: ('A' for Active; 'I' for Inactive)
REMARK    1  A    between atoms: C8_8  and  C11_11 
ROOT
HETATM    1  C1  UNL     1     -34.401  16.636  -1.378  1.00 20.00     0.064 C 
HETATM    2  C2  UNL     1     -33.409  16.435  -4.519  1.00 20.00     0.002 C 
HETATM    3  C3  UNL     1     -33.296  15.532  -3.291  1.00 20.00     0.019 C 
HETATM    4  C4  UNL     1     -35.884  15.616  -3.048  1.00 20.00     0.019 C 
HETATM    5  C5  UNL     1     -34.074  15.738  -5.706  1.00 20.00     0.005 C 
HETATM    6  C6  UNL     1     -36.023  14.774  -4.315  1.00 20.00     0.006 C 
HETATM    7  C7  UNL     1     -34.515  15.537  -2.360  1.00 20.00     0.093 C 
HETATM    8  C8  UNL     1     -35.590  15.524  -5.585  1.00 20.00    -0.011 C 
HETATM    9  N12 UNL     1     -34.310  17.499  -0.608  1.00 20.00    -0.197 NA
ENDROOT
BRANCH   8  10
HETATM   10  C11 UNL     1     -36.091  14.772  -6.824  1.00 20.00    -0.019 C 
HETATM   11  C9  UNL     1     -37.394  15.385  -7.325  1.00 20.00     0.010 C 
HETATM   12  C10 UNL     1     -35.029  14.785  -7.918  1.00 20.00     0.010 C 
ENDBRANCH   8  10
TORSDOF 1
ENDMDL
MODEL 5
REMARK VINA RESULT:      -4.6      1.689      2.800
REMARK  1 active torsions:
REMARK  status: ('A' for Active; 'I' for Inactive)
REMARK    1  A    between atoms: C8_8  and  C11_11 
ROOT
HETATM    1  C1  UNL     1     -35.125  13.866  -4.091  1.00 20.00     0.064 C 
HETATM    2  C2  UNL     1     -33.825  16.864  -4.554  1.00 20.00     0.002 C 
HETATM    3  C3  UNL     1     -35.239  16.283  -4.588  1.00 20.00     0.019 C 
HETATM    4  C4  UNL     1     -34.877  15.383  -2.175  1.00 20.00     0.019 C 
HETATM    5  C5  UNL     1     -33.688  18.027  -3.571  1.00 20.00     0.005 C 
HETATM    6  C6  UNL     1     -34.906  16.815  -1.644  1.00 20.00     0.006 C 
HETATM    7  C7  UNL     1     -35.521  15.186  -3.554  1.00 20.00     0.093 C 
HETATM    8  C8  UNL     1     -33.686  17.642  -2.084  1.00 20.00    -0.011 C 
HETATM    9  N12 UNL     1     -34.814  12.832  -4.512  1.00 20.00    -0.197 NA
ENDROOT
BRANCH   8  10
HETATM   10  C11 UNL     1     -33.596  18.917  -1.236  1.00 20.00    -0.019 C 
HETATM   11  C9  UNL     1     -34.939  19.211  -0.577  1.00 20.00     0.010 C 
HETATM   12  C10 UNL     1     -32.496  18.779  -0.189  1.00 20.00     0.010 C 
ENDBRANCH   8  10
TORSDOF 1
ENDMDL
MODEL 6
REMARK VINA RESULT:      -4.6      3.324      5.380
REMARK  1 active torsions:
REMARK  status: ('A' for Active; 'I' for Inactive)
REMARK    1  A    between atoms: C8_8  and  C11_11 
ROOT
HETATM    1  C1  UNL     1     -36.749  18.429   0.477  1.00 20.00     0.064 C 
HETATM    2  C2  UNL     1     -36.671  17.301  -2.624  1.00 20.00     0.002 C 
HETATM    3  C3  UNL     1     -36.212  18.583  -1.929  1.00 20.00     0.019 C 
HETATM    4  C4  UNL     1     -34.806  17.136  -0.288  1.00 20.00     0.019 C 
HETATM    5  C5  UNL     1     -35.540  16.599  -3.375  1.00 20.00     0.005 C 
HETATM    6  C6  UNL     1     -33.854  16.781  -1.429  1.00 20.00     0.006 C 
HETATM    7  C7  UNL     1     -35.651  18.396  -0.514  1.00 20.00     0.093 C 
HETATM    8  C8  UNL     1     -34.504  15.884  -2.495  1.00 20.00    -0.011 C 
HETATM    9  N12 UNL     1     -37.610  18.454   1.253  1.00 20.00    -0.197 NA
ENDROOT
BRANCH   8  10
HETATM   10  C11 UNL     1     -33.416  15.279  -3.393  1.00 20.00    -0.019 C 
HETATM   11  C9  UNL     1     -33.793  13.859  -3.798  1.00 20.00     0.010 C 
HETATM   12  C10 UNL     1     -33.197  16.155  -4.622  1.00 20.00     0.010 C 
ENDBRANCH   8  10
TORSDOF 1
ENDMDL
MODEL 7
REMARK VINA RESULT:      -4.6      1.220      1.420
REMARK  1 active torsions:
REMARK  status: ('A' for Active; 'I' for Inactive)
REMARK    1  A    between atoms: C8_8  and  C11_11 
ROOT
HETATM    1  C1  UNL     1     -36.590  15.030  -7.282  1.00 20.00     0.064 C 
HETATM    2  C2  UNL     1     -35.319  13.860  -4.470  1.00 20.00     0.002 C 
HETATM    3  C3  UNL     1     -34.763  14.167  -5.860  1.00 20.00     0.019 C 
HETATM    4  C4  UNL     1     -35.663  16.596  -5.632  1.00 20.00     0.019 C 
HETATM    5  C5  UNL     1     -34.572  14.598  -3.359  1.00 20.00     0.005 C 
HETATM    6  C6  UNL     1     -34.608  16.879  -4.565  1.00 20.00     0.006 C 
HETATM    7  C7  UNL     1     -35.361  15.401  -6.546  1.00 20.00     0.093 C 
HETATM    8  C8  UNL     1     -34.852  16.104  -3.260  1.00 20.00    -0.011 C 
HETATM    9  N12 UNL     1     -37.553  14.738  -7.858  1.00 20.00    -0.197 NA
ENDROOT
BRANCH   8  10
HETATM   10  C11 UNL     1     -33.992  16.701  -2.138  1.00 20.00    -0.019 C 
HETATM   11  C9  UNL     1     -33.669  18.160  -2.438  1.00 20.00     0.010 C 
HETATM   12  C10 UNL     1     -34.705  16.568  -0.796  1.00 20.00     0.010 C 
ENDBRANCH   8  10
TORSDOF 1
ENDMDL
MODEL 8
REMARK VINA RESULT:      -4.6      4.383      6.850
REMARK  1 active torsions:
REMARK  status: ('A' for Active; 'I' for Inactive)
REMARK    1  A    between atoms: C8_8  and  C11_11 
ROOT
HETATM    1  C1  UNL     1     -32.681  18.912   3.027  1.00 20.00     0.064 C 
HETATM    2  C2  UNL     1     -34.958  17.426   1.157  1.00 20.00     0.002 C 
HETATM    3  C3  UNL     1     -34.697  18.865   1.601  1.00 20.00     0.019 C 
HETATM    4  C4  UNL     1     -32.298  18.686   0.612  1.00 20.00     0.019 C 
HETATM    5  C5  UNL     1     -35.023  17.279  -0.363  1.00 20.00     0.005 C 
HETATM    6  C6  UNL     1     -32.889  18.664  -0.796  1.00 20.00     0.006 C 
HETATM    7  C7  UNL     1     -33.219  19.263   1.696  1.00 20.00     0.093 C 
HETATM    8  C8  UNL     1     -33.678  17.379  -1.097  1.00 20.00    -0.011 C 
HETATM    9  N12 UNL     1     -32.260  18.636   4.072  1.00 20.00    -0.197 NA
ENDROOT
BRANCH   8  10
HETATM   10  C11 UNL     1     -33.920  17.265  -2.607  1.00 20.00    -0.019 C 
HETATM   11  C9  UNL     1     -33.649  15.841  -3.081  1.00 20.00     0.010 C 
HETATM   12  C10 UNL     1     -35.345  17.688  -2.948  1.00 20.00     0.010 C 
ENDBRANCH   8  10
TORSDOF 1
ENDMDL
MODEL 9
REMARK VINA RESULT:      -4.5      2.894      5.121
REMARK  1 active torsions:
REMARK  status: ('A' for Active; 'I' for Inactive)
REMARK    1  A    between atoms: C8_8  and  C11_11 
ROOT
HETATM    1  C1  UNL     1     -34.589  18.018  -0.557  1.00 20.00     0.064 C 
HETATM    2  C2  UNL     1     -34.922  18.077  -3.839  1.00 20.00     0.002 C 
HETATM    3  C3  UNL     1     -33.738  18.016  -2.875  1.00 20.00     0.019 C 
HETATM    4  C4  UNL     1     -34.792  15.903  -1.787  1.00 20.00     0.019 C 
HETATM    5  C5  UNL     1     -34.933  16.919  -4.837  1.00 20.00     0.005 C 
HETATM    6  C6  UNL     1     -34.486  15.106  -3.054  1.00 20.00     0.006 C 
HETATM    7  C7  UNL     1     -33.968  17.184  -1.608  1.00 20.00     0.093 C 
HETATM    8  C8  UNL     1     -35.329  15.552  -4.261  1.00 20.00    -0.011 C 
HETATM    9  N12 UNL     1     -35.076  18.673   0.267  1.00 20.00    -0.197 NA
ENDROOT
BRANCH   8  10
HETATM   10  C11 UNL     1     -35.240  14.496  -5.370  1.00 20.00    -0.019 C 
HETATM   11  C9  UNL     1     -34.503  15.059  -6.579  1.00 20.00     0.010 C 
HETATM   12  C10 UNL     1     -34.550  13.239  -4.850  1.00 20.00     0.010 C 
ENDBRANCH   8  10
TORSDOF 1
ENDMDL
