MODEL 1
REMARK VINA RESULT:      -4.6      0.000      0.000
REMARK  1 active torsions:
REMARK  status: ('A' for Active; 'I' for Inactive)
REMARK    1  A    between atoms: C4_4  and  C8_8 
ROOT
HETATM    1  C5  UNL     1     -35.519  17.830  -1.010  1.00 20.00     0.002 C 
HETATM    2  C6  UNL     1     -34.585  16.624  -0.847  1.00 20.00     0.011 C 
HETATM    3  C7  UNL     1     -35.244  18.414  -2.394  1.00 20.00     0.021 C 
HETATM    4  C8  UNL     1     -33.851  16.443  -2.189  1.00 20.00     0.037 C 
HETATM    5  C9  UNL     1     -33.869  17.874  -2.758  1.00 20.00     0.090 C 
HETATM    6 CL11 UNL     1     -33.528  18.016  -4.490  1.00 20.00    -0.124 Cl
ENDROOT
BRANCH   4   7
HETATM    7  C4  UNL     1     -34.438  15.360  -3.080  1.00 20.00    -0.046 A 
HETATM    8  C1  UNL     1     -35.835  15.173  -3.288  1.00 20.00     0.015 A 
HETATM    9  C2  UNL     1     -36.096  14.122  -4.139  1.00 20.00     0.050 A 
HETATM   10  S10 UNL     1     -34.660  13.364  -4.683  1.00 20.00    -0.113 SA
HETATM   11  C3  UNL     1     -33.684  14.444  -3.780  1.00 20.00     0.057 A 
ENDBRANCH   4   7
TORSDOF 1
ENDMDL
MODEL 2
REMARK VINA RESULT:      -4.3      2.456      4.202
REMARK  1 active torsions:
REMARK  status: ('A' for Active; 'I' for Inactive)
REMARK    1  A    between atoms: C4_4  and  C8_8 
ROOT
HETATM    1  C5  UNL     1     -34.450  14.312  -5.665  1.00 20.00     0.002 C 
HETATM    2  C6  UNL     1     -33.850  14.050  -4.278  1.00 20.00     0.011 C 
HETATM    3  C7  UNL     1     -35.849  14.881  -5.438  1.00 20.00     0.021 C 
HETATM    4  C8  UNL     1     -34.865  14.578  -3.246  1.00 20.00     0.037 C 
HETATM    5  C9  UNL     1     -36.193  14.463  -4.016  1.00 20.00     0.090 C 
HETATM    6 CL11 UNL     1     -37.549  15.390  -3.353  1.00 20.00    -0.124 Cl
ENDROOT
BRANCH   4   7
HETATM    7  C4  UNL     1     -34.530  15.953  -2.689  1.00 20.00    -0.046 A 
HETATM    8  C1  UNL     1     -34.686  16.314  -1.320  1.00 20.00     0.015 A 
HETATM    9  C2  UNL     1     -34.311  17.618  -1.083  1.00 20.00     0.050 A 
HETATM   10  S10 UNL     1     -33.773  18.401  -2.508  1.00 20.00    -0.113 SA
HETATM   11  C3  UNL     1     -34.042  16.994  -3.447  1.00 20.00     0.057 A 
ENDBRANCH   4   7
TORSDOF 1
ENDMDL
MODEL 3
REMARK VINA RESULT:      -4.3      2.421      4.042
REMARK  1 active torsions:
REMARK  status: ('A' for Active; 'I' for Inactive)
REMARK    1  A    between atoms: C4_4  and  C8_8 
ROOT
HETATM    1  C5  UNL     1     -36.202  14.360  -4.241  1.00 20.00     0.002 C 
HETATM    2  C6  UNL     1     -35.989  15.854  -4.516  1.00 20.00     0.011 C 
HETATM    3  C7  UNL     1     -34.847  13.793  -3.825  1.00 20.00     0.021 C 
HETATM    4  C8  UNL     1     -34.528  16.172  -4.145  1.00 20.00     0.037 C 
HETATM    5  C9  UNL     1     -33.843  14.808  -4.349  1.00 20.00     0.090 C 
HETATM    6 CL11 UNL     1     -32.250  14.629  -3.595  1.00 20.00    -0.124 Cl
ENDROOT
BRANCH   4   7
HETATM    7  C4  UNL     1     -34.357  16.811  -2.776  1.00 20.00    -0.046 A 
HETATM    8  C1  UNL     1     -34.811  16.220  -1.562  1.00 20.00     0.015 A 
HETATM    9  C2  UNL     1     -34.531  17.007  -0.467  1.00 20.00     0.050 A 
HETATM   10  S10 UNL     1     -33.725  18.453  -0.904  1.00 20.00    -0.113 SA
HETATM   11  C3  UNL     1     -33.748  18.028  -2.563  1.00 20.00     0.057 A 
ENDBRANCH   4   7
TORSDOF 1
ENDMDL
MODEL 4
REMARK VINA RESULT:      -4.3      2.247      3.890
REMARK  1 active torsions:
REMARK  status: ('A' for Active; 'I' for Inactive)
REMARK    1  A    between atoms: C4_4  and  C8_8 
ROOT
HETATM    1  C5  UNL     1     -33.661  13.972  -3.689  1.00 20.00     0.002 C 
HETATM    2  C6  UNL     1     -35.145  14.334  -3.544  1.00 20.00     0.011 C 
HETATM    3  C7  UNL     1     -32.928  15.260  -4.054  1.00 20.00     0.021 C 
HETATM    4  C8  UNL     1     -35.249  15.862  -3.713  1.00 20.00     0.037 C 
HETATM    5  C9  UNL     1     -34.022  16.170  -4.591  1.00 20.00     0.090 C 
HETATM    6 CL11 UNL     1     -33.520  17.869  -4.640  1.00 20.00    -0.124 Cl
ENDROOT
BRANCH   4   7
HETATM    7  C4  UNL     1     -35.347  16.629  -2.404  1.00 20.00    -0.046 A 
HETATM    8  C1  UNL     1     -34.542  16.356  -1.261  1.00 20.00     0.015 A 
HETATM    9  C2  UNL     1     -34.834  17.196  -0.210  1.00 20.00     0.050 A 
HETATM   10  S10 UNL     1     -36.074  18.310  -0.602  1.00 20.00    -0.113 SA
HETATM   11  C3  UNL     1     -36.224  17.669  -2.183  1.00 20.00     0.057 A 
ENDBRANCH   4   7
TORSDOF 1
ENDMDL
MODEL 5
REMARK VINA RESULT:      -4.1      2.652      4.127
REMARK  1 active torsions:
REMARK  status: ('A' for Active; 'I' for Inactive)
REMARK    1  A    between atoms: C4_4  and  C8_8 
ROOT
HETATM    1  C5  UNL     1     -33.531  15.898  -5.300  1.00 20.00     0.002 C 
HETATM    2  C6  UNL     1     -32.966  15.401  -3.962  1.00 20.00     0.011 C 
HETATM    3  C7  UNL     1     -35.036  16.065  -5.105  1.00 20.00     0.021 C 
HETATM    4  C8  UNL     1     -34.136  15.393  -2.960  1.00 20.00     0.037 C 
HETATM    5  C9  UNL     1     -35.351  15.208  -3.887  1.00 20.00     0.090 C 
HETATM    6 CL11 UNL     1     -36.926  15.601  -3.178  1.00 20.00    -0.124 Cl
ENDROOT
BRANCH   4   7
HETATM    7  C4  UNL     1     -34.174  16.600  -2.036  1.00 20.00    -0.046 A 
HETATM    8  C1  UNL     1     -34.702  16.572  -0.714  1.00 20.00     0.015 A 
HETATM    9  C2  UNL     1     -34.616  17.800  -0.096  1.00 20.00     0.050 A 
HETATM   10  S10 UNL     1     -33.900  18.981  -1.109  1.00 20.00    -0.113 SA
HETATM   11  C3  UNL     1     -33.704  17.849  -2.380  1.00 20.00     0.057 A 
ENDBRANCH   4   7
TORSDOF 1
ENDMDL
MODEL 6
REMARK VINA RESULT:      -4.1      2.615      4.198
REMARK  1 active torsions:
REMARK  status: ('A' for Active; 'I' for Inactive)
REMARK    1  A    between atoms: C4_4  and  C8_8 
ROOT
HETATM    1  C5  UNL     1     -34.333  13.409  -4.727  1.00 20.00     0.002 C 
HETATM    2  C6  UNL     1     -33.411  14.187  -3.778  1.00 20.00     0.011 C 
HETATM    3  C7  UNL     1     -35.707  14.068  -4.643  1.00 20.00     0.021 C 
HETATM    4  C8  UNL     1     -34.231  15.372  -3.233  1.00 20.00     0.037 C 
HETATM    5  C9  UNL     1     -35.671  14.835  -3.329  1.00 20.00     0.090 C 
HETATM    6 CL11 UNL     1     -36.953  16.054  -3.227  1.00 20.00    -0.124 Cl
ENDROOT
BRANCH   4   7
HETATM    7  C4  UNL     1     -33.959  16.693  -3.934  1.00 20.00    -0.046 A 
HETATM    8  C1  UNL     1     -33.747  16.819  -5.337  1.00 20.00     0.015 A 
HETATM    9  C2  UNL     1     -33.522  18.125  -5.711  1.00 20.00     0.050 A 
HETATM   10  S10 UNL     1     -33.566  19.194  -4.374  1.00 20.00    -0.113 SA
HETATM   11  C3  UNL     1     -33.887  17.908  -3.289  1.00 20.00     0.057 A 
ENDBRANCH   4   7
TORSDOF 1
ENDMDL
MODEL 7
REMARK VINA RESULT:      -4.0      2.832      4.111
REMARK  1 active torsions:
REMARK  status: ('A' for Active; 'I' for Inactive)
REMARK    1  A    between atoms: C4_4  and  C8_8 
ROOT
HETATM    1  C5  UNL     1     -34.488  13.284  -4.918  1.00 20.00     0.002 C 
HETATM    2  C6  UNL     1     -35.032  14.505  -5.671  1.00 20.00     0.011 C 
HETATM    3  C7  UNL     1     -34.269  13.722  -3.472  1.00 20.00     0.021 C 
HETATM    4  C8  UNL     1     -35.236  15.619  -4.626  1.00 20.00     0.037 C 
HETATM    5  C9  UNL     1     -34.202  15.240  -3.550  1.00 20.00     0.090 C 
HETATM    6 CL11 UNL     1     -34.426  16.005  -1.968  1.00 20.00    -0.124 Cl
ENDROOT
BRANCH   4   7
HETATM    7  C4  UNL     1     -36.673  15.774  -4.153  1.00 20.00    -0.046 A 
HETATM    8  C1  UNL     1     -37.588  14.690  -4.026  1.00 20.00     0.015 A 
HETATM    9  C2  UNL     1     -38.822  15.105  -3.578  1.00 20.00     0.050 A 
HETATM   10  S10 UNL     1     -38.875  16.796  -3.312  1.00 20.00    -0.113 SA
HETATM   11  C3  UNL     1     -37.242  16.977  -3.797  1.00 20.00     0.057 A 
ENDBRANCH   4   7
TORSDOF 1
ENDMDL
MODEL 8
REMARK VINA RESULT:      -4.0      3.159      4.511
REMARK  1 active torsions:
REMARK  status: ('A' for Active; 'I' for Inactive)
REMARK    1  A    between atoms: C4_4  and  C8_8 
ROOT
HETATM    1  C5  UNL     1     -33.759  16.761  -3.921  1.00 20.00     0.002 C 
HETATM    2  C6  UNL     1     -33.703  15.859  -2.681  1.00 20.00     0.011 C 
HETATM    3  C7  UNL     1     -34.989  17.651  -3.762  1.00 20.00     0.021 C 
HETATM    4  C8  UNL     1     -34.843  16.313  -1.748  1.00 20.00     0.037 C 
HETATM    5  C9  UNL     1     -35.849  16.916  -2.745  1.00 20.00     0.090 C 
HETATM    6 CL11 UNL     1     -37.096  17.959  -2.040  1.00 20.00    -0.124 Cl
ENDROOT
BRANCH   4   7
HETATM    7  C4  UNL     1     -34.396  17.220  -0.613  1.00 20.00    -0.046 A 
HETATM    8  C1  UNL     1     -33.222  18.025  -0.655  1.00 20.00     0.015 A 
HETATM    9  C2  UNL     1     -33.049  18.750   0.503  1.00 20.00     0.050 A 
HETATM   10  S10 UNL     1     -34.301  18.460   1.635  1.00 20.00    -0.113 SA
HETATM   11  C3  UNL     1     -35.078  17.360   0.576  1.00 20.00     0.057 A 
ENDBRANCH   4   7
TORSDOF 1
ENDMDL
MODEL 9
REMARK VINA RESULT:      -4.0      2.882      4.318
REMARK  1 active torsions:
REMARK  status: ('A' for Active; 'I' for Inactive)
REMARK    1  A    between atoms: C4_4  and  C8_8 
ROOT
HETATM    1  C5  UNL     1     -34.817  16.160  -6.942  1.00 20.00     0.002 C 
HETATM    2  C6  UNL     1     -33.660  16.562  -6.019  1.00 20.00     0.011 C 
HETATM    3  C7  UNL     1     -35.479  14.938  -6.310  1.00 20.00     0.021 C 
HETATM    4  C8  UNL     1     -33.727  15.636  -4.790  1.00 20.00     0.037 C 
HETATM    5  C9  UNL     1     -34.417  14.387  -5.369  1.00 20.00     0.090 C 
HETATM    6 CL11 UNL     1     -35.093  13.262  -4.179  1.00 20.00    -0.124 Cl
ENDROOT
BRANCH   4   7
HETATM    7  C4  UNL     1     -34.386  16.263  -3.571  1.00 20.00    -0.046 A 
HETATM    8  C1  UNL     1     -34.043  15.937  -2.228  1.00 20.00     0.015 A 
HETATM    9  C2  UNL     1     -34.792  16.648  -1.316  1.00 20.00     0.050 A 
HETATM   10  S10 UNL     1     -35.903  17.703  -2.080  1.00 20.00    -0.113 SA
HETATM   11  C3  UNL     1     -35.384  17.210  -3.636  1.00 20.00     0.057 A 
ENDBRANCH   4   7
TORSDOF 1
ENDMDL
