MODEL 1
REMARK VINA RESULT:      -5.2      0.000      0.000
REMARK  2 active torsions:
REMARK  status: ('A' for Active; 'I' for Inactive)
REMARK    1  A    between atoms: C6_6  and  C9_9 
REMARK    2  A    between atoms: C9_9  and  C10_10 
ROOT
HETATM    1  C1  UNL     1     -34.700   5.133   2.918  1.00 20.00     0.002 C 
HETATM    2  C2  UNL     1     -33.274   5.672   2.986  1.00 20.00     0.005 C 
HETATM    3  C3  UNL     1     -32.953   6.744   5.269  1.00 20.00     0.006 C 
HETATM    4  C4  UNL     1     -35.625   5.363   4.110  1.00 20.00     0.020 C 
HETATM    5  C5  UNL     1     -34.254   6.412   5.997  1.00 20.00     0.020 C 
HETATM    6  C6  UNL     1     -33.089   6.986   3.756  1.00 20.00    -0.014 C 
HETATM    7  C7  UNL     1     -35.048   5.197   5.516  1.00 20.00     0.082 C 
HETATM    8 CL11 UNL     1     -34.130   3.678   5.703  1.00 20.00    -0.125 Cl
ENDROOT
BRANCH   6   9
HETATM    9  C9  UNL     1     -31.818   7.687   3.254  1.00 20.00     0.004 C 
BRANCH   9  10
HETATM   10  C10 UNL     1     -31.968   8.114   1.801  1.00 20.00    -0.004 C 
HETATM   11  C8  UNL     1     -32.486   9.540   1.702  1.00 20.00     0.005 C 
ENDBRANCH   9  10
ENDBRANCH   6   9
TORSDOF 2
ENDMDL
MODEL 2
REMARK VINA RESULT:      -5.0     11.327     12.025
REMARK  2 active torsions:
REMARK  status: ('A' for Active; 'I' for Inactive)
REMARK    1  A    between atoms: C6_6  and  C9_9 
REMARK    2  A    between atoms: C9_9  and  C10_10 
ROOT
HETATM    1  C1  UNL     1     -36.505  15.168  -3.926  1.00 20.00     0.002 C 
HETATM    2  C2  UNL     1     -35.543  16.236  -3.414  1.00 20.00     0.005 C 
HETATM    3  C3  UNL     1     -33.223  15.202  -3.294  1.00 20.00     0.006 C 
HETATM    4  C4  UNL     1     -35.963  13.767  -4.199  1.00 20.00     0.020 C 
HETATM    5  C5  UNL     1     -33.422  13.823  -3.917  1.00 20.00     0.020 C 
HETATM    6  C6  UNL     1     -34.420  15.741  -2.493  1.00 20.00    -0.014 C 
HETATM    7  C7  UNL     1     -34.599  13.639  -4.877  1.00 20.00     0.082 C 
HETATM    8 CL11 UNL     1     -34.453  14.674  -6.324  1.00 20.00    -0.125 Cl
ENDROOT
BRANCH   6   9
HETATM    9  C9  UNL     1     -33.941  16.907  -1.616  1.00 20.00     0.004 C 
BRANCH   9  10
HETATM   10  C10 UNL     1     -34.729  16.973  -0.316  1.00 20.00    -0.004 C 
HETATM   11  C8  UNL     1     -34.197  18.073   0.589  1.00 20.00     0.005 C 
ENDBRANCH   9  10
ENDBRANCH   6   9
TORSDOF 2
ENDMDL
MODEL 3
REMARK VINA RESULT:      -4.8     11.525     12.683
REMARK  2 active torsions:
REMARK  status: ('A' for Active; 'I' for Inactive)
REMARK    1  A    between atoms: C6_6  and  C9_9 
REMARK    2  A    between atoms: C9_9  and  C10_10 
ROOT
HETATM    1  C1  UNL     1     -35.098  13.935  -3.820  1.00 20.00     0.002 C 
HETATM    2  C2  UNL     1     -35.073  15.210  -2.982  1.00 20.00     0.005 C 
HETATM    3  C3  UNL     1     -33.801  16.980  -4.292  1.00 20.00     0.006 C 
HETATM    4  C4  UNL     1     -34.367  13.928  -5.160  1.00 20.00     0.020 C 
HETATM    5  C5  UNL     1     -33.541  16.301  -5.634  1.00 20.00     0.020 C 
HETATM    6  C6  UNL     1     -33.790  16.046  -3.069  1.00 20.00    -0.014 C 
HETATM    7  C7  UNL     1     -34.477  15.165  -6.051  1.00 20.00     0.082 C 
HETATM    8 CL11 UNL     1     -36.162  15.721  -6.245  1.00 20.00    -0.125 Cl
ENDROOT
BRANCH   6   9
HETATM    9  C9  UNL     1     -33.660  16.899  -1.799  1.00 20.00     0.004 C 
BRANCH   9  10
HETATM   10  C10 UNL     1     -34.766  16.574  -0.806  1.00 20.00    -0.004 C 
HETATM   11  C8  UNL     1     -34.734  17.527   0.378  1.00 20.00     0.005 C 
ENDBRANCH   9  10
ENDBRANCH   6   9
TORSDOF 2
ENDMDL
MODEL 4
REMARK VINA RESULT:      -4.6     11.566     12.449
REMARK  2 active torsions:
REMARK  status: ('A' for Active; 'I' for Inactive)
REMARK    1  A    between atoms: C6_6  and  C9_9 
REMARK    2  A    between atoms: C9_9  and  C10_10 
ROOT
HETATM    1  C1  UNL     1     -33.003  15.859  -4.539  1.00 20.00     0.002 C 
HETATM    2  C2  UNL     1     -33.409  15.646  -3.084  1.00 20.00     0.005 C 
HETATM    3  C3  UNL     1     -35.935  15.365  -3.011  1.00 20.00     0.006 C 
HETATM    4  C4  UNL     1     -34.098  15.919  -5.601  1.00 20.00     0.020 C 
HETATM    5  C5  UNL     1     -36.327  15.343  -4.486  1.00 20.00     0.020 C 
HETATM    6  C6  UNL     1     -34.743  16.273  -2.660  1.00 20.00    -0.014 C 
HETATM    7  C7  UNL     1     -35.259  14.929  -5.500  1.00 20.00     0.082 C 
HETATM    8 CL11 UNL     1     -34.707  13.251  -5.246  1.00 20.00    -0.125 Cl
ENDROOT
BRANCH   6   9
HETATM    9  C9  UNL     1     -34.729  16.502  -1.142  1.00 20.00     0.004 C 
BRANCH   9  10
HETATM   10  C10 UNL     1     -33.733  17.588  -0.762  1.00 20.00    -0.004 C 
HETATM   11  C8  UNL     1     -34.055  18.171   0.605  1.00 20.00     0.005 C 
ENDBRANCH   9  10
ENDBRANCH   6   9
TORSDOF 2
ENDMDL
MODEL 5
REMARK VINA RESULT:      -4.4     11.618     12.730
REMARK  2 active torsions:
REMARK  status: ('A' for Active; 'I' for Inactive)
REMARK    1  A    between atoms: C6_6  and  C9_9 
REMARK    2  A    between atoms: C9_9  and  C10_10 
ROOT
HETATM    1  C1  UNL     1     -35.603  13.610  -4.155  1.00 20.00     0.002 C 
HETATM    2  C2  UNL     1     -36.069  14.906  -3.498  1.00 20.00     0.005 C 
HETATM    3  C3  UNL     1     -34.674  16.808  -4.447  1.00 20.00     0.006 C 
HETATM    4  C4  UNL     1     -34.439  13.669  -5.141  1.00 20.00     0.020 C 
HETATM    5  C5  UNL     1     -33.846  16.126  -5.533  1.00 20.00     0.020 C 
HETATM    6  C6  UNL     1     -34.976  15.944  -3.211  1.00 20.00    -0.014 C 
HETATM    7  C7  UNL     1     -34.391  14.829  -6.135  1.00 20.00     0.082 C 
HETATM    8 CL11 UNL     1     -35.949  15.080  -6.969  1.00 20.00    -0.125 Cl
ENDROOT
BRANCH   6   9
HETATM    9  C9  UNL     1     -35.444  16.862  -2.072  1.00 20.00     0.004 C 
BRANCH   9  10
HETATM   10  C10 UNL     1     -34.570  16.690  -0.837  1.00 20.00    -0.004 C 
HETATM   11  C8  UNL     1     -33.477  17.746  -0.791  1.00 20.00     0.005 C 
ENDBRANCH   9  10
ENDBRANCH   6   9
TORSDOF 2
ENDMDL
MODEL 6
REMARK VINA RESULT:      -4.3      9.541     10.797
REMARK  2 active torsions:
REMARK  status: ('A' for Active; 'I' for Inactive)
REMARK    1  A    between atoms: C6_6  and  C9_9 
REMARK    2  A    between atoms: C9_9  and  C10_10 
ROOT
HETATM    1  C1  UNL     1     -41.211   7.272  -0.605  1.00 20.00     0.002 C 
HETATM    2  C2  UNL     1     -42.350   7.501  -1.595  1.00 20.00     0.005 C 
HETATM    3  C3  UNL     1     -42.852   5.283  -2.733  1.00 20.00     0.006 C 
HETATM    4  C4  UNL     1     -40.587   5.882  -0.520  1.00 20.00     0.020 C 
HETATM    5  C5  UNL     1     -41.956   4.297  -1.988  1.00 20.00     0.020 C 
HETATM    6  C6  UNL     1     -42.275   6.699  -2.901  1.00 20.00    -0.014 C 
HETATM    7  C7  UNL     1     -41.514   4.668  -0.571  1.00 20.00     0.082 C 
HETATM    8 CL11 UNL     1     -42.899   4.816   0.546  1.00 20.00    -0.125 Cl
ENDROOT
BRANCH   6   9
HETATM    9  C9  UNL     1     -43.078   7.432  -3.986  1.00 20.00     0.004 C 
BRANCH   9  10
HETATM   10  C10 UNL     1     -42.594   8.866  -4.149  1.00 20.00    -0.004 C 
HETATM   11  C8  UNL     1     -41.780   9.025  -5.424  1.00 20.00     0.005 C 
ENDBRANCH   9  10
ENDBRANCH   6   9
TORSDOF 2
ENDMDL
MODEL 7
REMARK VINA RESULT:      -4.3     11.161     13.292
REMARK  2 active torsions:
REMARK  status: ('A' for Active; 'I' for Inactive)
REMARK    1  A    between atoms: C6_6  and  C9_9 
REMARK    2  A    between atoms: C9_9  and  C10_10 
ROOT
HETATM    1  C1  UNL     1     -33.309  16.571  -4.942  1.00 20.00     0.002 C 
HETATM    2  C2  UNL     1     -34.403  16.246  -5.955  1.00 20.00     0.005 C 
HETATM    3  C3  UNL     1     -35.229  13.888  -5.483  1.00 20.00     0.006 C 
HETATM    4  C4  UNL     1     -32.896  15.493  -3.943  1.00 20.00     0.020 C 
HETATM    5  C5  UNL     1     -34.487  13.507  -4.205  1.00 20.00     0.020 C 
HETATM    6  C6  UNL     1     -34.450  14.795  -6.451  1.00 20.00    -0.014 C 
HETATM    7  C7  UNL     1     -33.993  14.640  -3.304  1.00 20.00     0.082 C 
HETATM    8 CL11 UNL     1     -35.338  15.623  -2.664  1.00 20.00    -0.125 Cl
ENDROOT
BRANCH   6   9
HETATM    9  C9  UNL     1     -35.138  14.756  -7.823  1.00 20.00     0.004 C 
BRANCH   9  10
HETATM   10  C10 UNL     1     -36.249  15.794  -7.907  1.00 20.00    -0.004 C 
HETATM   11  C8  UNL     1     -37.616  15.129  -7.918  1.00 20.00     0.005 C 
ENDBRANCH   9  10
ENDBRANCH   6   9
TORSDOF 2
ENDMDL
MODEL 8
REMARK VINA RESULT:      -4.3     11.242     12.803
REMARK  2 active torsions:
REMARK  status: ('A' for Active; 'I' for Inactive)
REMARK    1  A    between atoms: C6_6  and  C9_9 
REMARK    2  A    between atoms: C9_9  and  C10_10 
ROOT
HETATM    1  C1  UNL     1     -33.715  18.600  -3.669  1.00 20.00     0.002 C 
HETATM    2  C2  UNL     1     -33.918  17.140  -4.062  1.00 20.00     0.005 C 
HETATM    3  C3  UNL     1     -34.577  15.854  -1.969  1.00 20.00     0.006 C 
HETATM    4  C4  UNL     1     -33.873  18.990  -2.202  1.00 20.00     0.020 C 
HETATM    5  C5  UNL     1     -34.728  16.951  -0.918  1.00 20.00     0.020 C 
HETATM    6  C6  UNL     1     -33.483  16.098  -3.022  1.00 20.00    -0.014 C 
HETATM    7  C7  UNL     1     -35.022  18.370  -1.408  1.00 20.00     0.082 C 
HETATM    8 CL11 UNL     1     -36.583  18.473  -2.268  1.00 20.00    -0.125 Cl
ENDROOT
BRANCH   6   9
HETATM    9  C9  UNL     1     -33.182  14.773  -3.737  1.00 20.00     0.004 C 
BRANCH   9  10
HETATM   10  C10 UNL     1     -34.338  13.795  -3.584  1.00 20.00    -0.004 C 
HETATM   11  C8  UNL     1     -34.782  13.259  -4.936  1.00 20.00     0.005 C 
ENDBRANCH   9  10
ENDBRANCH   6   9
TORSDOF 2
ENDMDL
MODEL 9
REMARK VINA RESULT:      -4.3     12.054     13.609
REMARK  2 active torsions:
REMARK  status: ('A' for Active; 'I' for Inactive)
REMARK    1  A    between atoms: C6_6  and  C9_9 
REMARK    2  A    between atoms: C9_9  and  C10_10 
ROOT
HETATM    1  C1  UNL     1     -34.913  14.201  -5.910  1.00 20.00     0.002 C 
HETATM    2  C2  UNL     1     -34.896  14.862  -4.535  1.00 20.00     0.005 C 
HETATM    3  C3  UNL     1     -34.127  17.267  -4.835  1.00 20.00     0.006 C 
HETATM    4  C4  UNL     1     -34.449  15.013  -7.116  1.00 20.00     0.020 C 
HETATM    5  C5  UNL     1     -34.036  17.418  -6.352  1.00 20.00     0.020 C 
HETATM    6  C6  UNL     1     -33.769  15.874  -4.290  1.00 20.00    -0.014 C 
HETATM    7  C7  UNL     1     -34.880  16.476  -7.212  1.00 20.00     0.082 C 
HETATM    8 CL11 UNL     1     -36.629  16.695  -6.929  1.00 20.00    -0.125 Cl
ENDROOT
BRANCH   6   9
HETATM    9  C9  UNL     1     -33.515  15.987  -2.780  1.00 20.00     0.004 C 
BRANCH   9  10
HETATM   10  C10 UNL     1     -34.826  16.075  -2.011  1.00 20.00    -0.004 C 
HETATM   11  C8  UNL     1     -34.622  16.744  -0.661  1.00 20.00     0.005 C 
ENDBRANCH   9  10
ENDBRANCH   6   9
TORSDOF 2
ENDMDL
