MODEL 1
REMARK VINA RESULT:      -4.6      0.000      0.000
REMARK  1 active torsions:
REMARK  status: ('A' for Active; 'I' for Inactive)
REMARK    1  A    between atoms: C4_4  and  C8_8 
ROOT
HETATM    1  C5  UNL     1     -34.338  14.053  -3.473  1.00 20.00     0.011 C 
HETATM    2  C6  UNL     1     -34.458  13.456  -4.879  1.00 20.00     0.021 C 
HETATM    3  C7  UNL     1     -35.293  15.691  -4.966  1.00 20.00     0.029 C 
HETATM    4  C8  UNL     1     -35.165  15.358  -3.472  1.00 20.00     0.020 C 
HETATM    5  C9  UNL     1     -35.492  14.318  -5.589  1.00 20.00     0.083 C 
HETATM    6 CL11 UNL     1     -35.268  14.335  -7.345  1.00 20.00    -0.125 Cl
ENDROOT
BRANCH   4   7
HETATM    7  C4  UNL     1     -34.618  16.440  -2.566  1.00 20.00    -0.047 A 
HETATM    8  C1  UNL     1     -34.656  16.381  -1.144  1.00 20.00     0.015 A 
HETATM    9  C2  UNL     1     -34.092  17.495  -0.562  1.00 20.00     0.050 A 
HETATM   10  S10 UNL     1     -33.519  18.607  -1.732  1.00 20.00    -0.113 SA
HETATM   11  C3  UNL     1     -34.025  17.599  -3.019  1.00 20.00     0.057 A 
ENDBRANCH   4   7
TORSDOF 1
ENDMDL
MODEL 2
REMARK VINA RESULT:      -4.6      3.658      5.307
REMARK  1 active torsions:
REMARK  status: ('A' for Active; 'I' for Inactive)
REMARK    1  A    between atoms: C4_4  and  C8_8 
ROOT
HETATM    1  C5  UNL     1     -33.644  17.977  -2.323  1.00 20.00     0.011 C 
HETATM    2  C6  UNL     1     -33.360  18.699  -1.002  1.00 20.00     0.021 C 
HETATM    3  C7  UNL     1     -34.676  16.771  -0.506  1.00 20.00     0.029 C 
HETATM    4  C8  UNL     1     -34.747  16.935  -2.031  1.00 20.00     0.020 C 
HETATM    5  C9  UNL     1     -34.423  18.195  -0.037  1.00 20.00     0.083 C 
HETATM    6 CL11 UNL     1     -33.893  18.265   1.651  1.00 20.00    -0.125 Cl
ENDROOT
BRANCH   4   7
HETATM    7  C4  UNL     1     -34.651  15.677  -2.868  1.00 20.00    -0.047 A 
HETATM    8  C1  UNL     1     -33.421  15.062  -3.240  1.00 20.00     0.015 A 
HETATM    9  C2  UNL     1     -33.617  13.931  -4.002  1.00 20.00     0.050 A 
HETATM   10  S10 UNL     1     -35.279  13.616  -4.266  1.00 20.00    -0.113 SA
HETATM   11  C3  UNL     1     -35.741  14.993  -3.360  1.00 20.00     0.057 A 
ENDBRANCH   4   7
TORSDOF 1
ENDMDL
MODEL 3
REMARK VINA RESULT:      -4.6      1.451      1.984
REMARK  1 active torsions:
REMARK  status: ('A' for Active; 'I' for Inactive)
REMARK    1  A    between atoms: C4_4  and  C8_8 
ROOT
HETATM    1  C5  UNL     1     -33.589  16.888  -4.263  1.00 20.00     0.011 C 
HETATM    2  C6  UNL     1     -33.958  15.795  -5.273  1.00 20.00     0.021 C 
HETATM    3  C7  UNL     1     -34.303  14.907  -3.084  1.00 20.00     0.029 C 
HETATM    4  C8  UNL     1     -33.508  16.205  -2.879  1.00 20.00     0.020 C 
HETATM    5  C9  UNL     1     -33.894  14.492  -4.489  1.00 20.00     0.083 C 
HETATM    6 CL11 UNL     1     -34.957  13.246  -5.161  1.00 20.00    -0.125 Cl
ENDROOT
BRANCH   4   7
HETATM    7  C4  UNL     1     -33.916  17.092  -1.723  1.00 20.00    -0.047 A 
HETATM    8  C1  UNL     1     -34.700  16.649  -0.620  1.00 20.00     0.015 A 
HETATM    9  C2  UNL     1     -34.928  17.656   0.292  1.00 20.00     0.050 A 
HETATM   10  S10 UNL     1     -34.197  19.130  -0.184  1.00 20.00    -0.113 SA
HETATM   11  C3  UNL     1     -33.573  18.422  -1.613  1.00 20.00     0.057 A 
ENDBRANCH   4   7
TORSDOF 1
ENDMDL
MODEL 4
REMARK VINA RESULT:      -4.4      4.372      6.559
REMARK  1 active torsions:
REMARK  status: ('A' for Active; 'I' for Inactive)
REMARK    1  A    between atoms: C4_4  and  C8_8 
ROOT
HETATM    1  C5  UNL     1     -31.960  18.879   0.379  1.00 20.00     0.011 C 
HETATM    2  C6  UNL     1     -31.688  18.981   1.884  1.00 20.00     0.021 C 
HETATM    3  C7  UNL     1     -33.945  18.257   1.601  1.00 20.00     0.029 C 
HETATM    4  C8  UNL     1     -33.489  18.729   0.213  1.00 20.00     0.020 C 
HETATM    5  C9  UNL     1     -33.063  19.076   2.530  1.00 20.00     0.083 C 
HETATM    6 CL11 UNL     1     -33.075  18.460   4.189  1.00 20.00    -0.125 Cl
ENDROOT
BRANCH   4   7
HETATM    7  C4  UNL     1     -33.905  17.888  -0.976  1.00 20.00    -0.047 A 
HETATM    8  C1  UNL     1     -34.563  16.630  -0.868  1.00 20.00     0.015 A 
HETATM    9  C2  UNL     1     -34.828  16.076  -2.101  1.00 20.00     0.050 A 
HETATM   10  S10 UNL     1     -34.283  17.073  -3.382  1.00 20.00    -0.113 SA
HETATM   11  C3  UNL     1     -33.691  18.250  -2.288  1.00 20.00     0.057 A 
ENDBRANCH   4   7
TORSDOF 1
ENDMDL
MODEL 5
REMARK VINA RESULT:      -4.4     13.274     14.681
REMARK  1 active torsions:
REMARK  status: ('A' for Active; 'I' for Inactive)
REMARK    1  A    between atoms: C4_4  and  C8_8 
ROOT
HETATM    1  C5  UNL     1     -40.792   4.671  -0.962  1.00 20.00     0.011 C 
HETATM    2  C6  UNL     1     -41.106   6.049  -0.369  1.00 20.00     0.021 C 
HETATM    3  C7  UNL     1     -42.639   5.661  -2.157  1.00 20.00     0.029 C 
HETATM    4  C8  UNL     1     -41.562   4.576  -2.298  1.00 20.00     0.020 C 
HETATM    5  C9  UNL     1     -41.886   6.779  -1.453  1.00 20.00     0.083 C 
HETATM    6 CL11 UNL     1     -42.970   8.012  -0.792  1.00 20.00    -0.125 Cl
ENDROOT
BRANCH   4   7
HETATM    7  C4  UNL     1     -42.027   3.179  -2.650  1.00 20.00    -0.047 A 
HETATM    8  C1  UNL     1     -41.313   2.296  -3.509  1.00 20.00     0.015 A 
HETATM    9  C2  UNL     1     -41.957   1.088  -3.661  1.00 20.00     0.050 A 
HETATM   10  S10 UNL     1     -43.417   1.022  -2.770  1.00 20.00    -0.113 SA
HETATM   11  C3  UNL     1     -43.192   2.612  -2.177  1.00 20.00     0.057 A 
ENDBRANCH   4   7
TORSDOF 1
ENDMDL
MODEL 6
REMARK VINA RESULT:      -4.3     13.633     14.765
REMARK  1 active torsions:
REMARK  status: ('A' for Active; 'I' for Inactive)
REMARK    1  A    between atoms: C4_4  and  C8_8 
ROOT
HETATM    1  C5  UNL     1     -43.344   2.094  -2.392  1.00 20.00     0.011 C 
HETATM    2  C6  UNL     1     -43.053   0.655  -2.832  1.00 20.00     0.021 C 
HETATM    3  C7  UNL     1     -41.254   2.025  -3.596  1.00 20.00     0.029 C 
HETATM    4  C8  UNL     1     -42.356   3.002  -3.159  1.00 20.00     0.020 C 
HETATM    5  C9  UNL     1     -42.049   0.783  -3.968  1.00 20.00     0.083 C 
HETATM    6 CL11 UNL     1     -41.023  -0.651  -4.128  1.00 20.00    -0.125 Cl
ENDROOT
BRANCH   4   7
HETATM    7  C4  UNL     1     -41.924   4.236  -2.396  1.00 20.00    -0.047 A 
HETATM    8  C1  UNL     1     -40.962   4.225  -1.346  1.00 20.00     0.015 A 
HETATM    9  C2  UNL     1     -40.753   5.481  -0.821  1.00 20.00     0.050 A 
HETATM   10  S10 UNL     1     -41.717   6.667  -1.593  1.00 20.00    -0.113 SA
HETATM   11  C3  UNL     1     -42.417   5.501  -2.633  1.00 20.00     0.057 A 
ENDBRANCH   4   7
TORSDOF 1
ENDMDL
MODEL 7
REMARK VINA RESULT:      -4.3      3.321      4.737
REMARK  1 active torsions:
REMARK  status: ('A' for Active; 'I' for Inactive)
REMARK    1  A    between atoms: C4_4  and  C8_8 
ROOT
HETATM    1  C5  UNL     1     -34.770  16.986  -0.085  1.00 20.00     0.011 C 
HETATM    2  C6  UNL     1     -34.823  16.441  -1.517  1.00 20.00     0.021 C 
HETATM    3  C7  UNL     1     -33.264  18.249  -1.486  1.00 20.00     0.029 C 
HETATM    4  C8  UNL     1     -34.019  18.335  -0.151  1.00 20.00     0.020 C 
HETATM    5  C9  UNL     1     -34.277  17.563  -2.389  1.00 20.00     0.083 C 
HETATM    6 CL11 UNL     1     -33.549  16.963  -3.886  1.00 20.00    -0.125 Cl
ENDROOT
BRANCH   4   7
HETATM    7  C4  UNL     1     -33.205  18.654   1.086  1.00 20.00    -0.047 A 
HETATM    8  C1  UNL     1     -31.832  19.029   1.058  1.00 20.00     0.015 A 
HETATM    9  C2  UNL     1     -31.332  19.263   2.320  1.00 20.00     0.050 A 
HETATM   10  S10 UNL     1     -32.519  19.030   3.532  1.00 20.00    -0.113 SA
HETATM   11  C3  UNL     1     -33.705  18.615   2.369  1.00 20.00     0.057 A 
ENDBRANCH   4   7
TORSDOF 1
ENDMDL
MODEL 8
REMARK VINA RESULT:      -4.2      1.392      1.941
REMARK  1 active torsions:
REMARK  status: ('A' for Active; 'I' for Inactive)
REMARK    1  A    between atoms: C4_4  and  C8_8 
ROOT
HETATM    1  C5  UNL     1     -33.732  17.393  -5.467  1.00 20.00     0.011 C 
HETATM    2  C6  UNL     1     -34.237  16.694  -6.735  1.00 20.00     0.021 C 
HETATM    3  C7  UNL     1     -34.554  15.194  -4.904  1.00 20.00     0.029 C 
HETATM    4  C8  UNL     1     -33.644  16.310  -4.368  1.00 20.00     0.020 C 
HETATM    5  C9  UNL     1     -34.246  15.211  -6.394  1.00 20.00     0.083 C 
HETATM    6 CL11 UNL     1     -35.438  14.307  -7.339  1.00 20.00    -0.125 Cl
ENDROOT
BRANCH   4   7
HETATM    7  C4  UNL     1     -33.923  16.819  -2.970  1.00 20.00    -0.047 A 
HETATM    8  C1  UNL     1     -34.449  16.012  -1.921  1.00 20.00     0.015 A 
HETATM    9  C2  UNL     1     -34.608  16.721  -0.751  1.00 20.00     0.050 A 
HETATM   10  S10 UNL     1     -34.123  18.355  -0.921  1.00 20.00    -0.113 SA
HETATM   11  C3  UNL     1     -33.699  18.116  -2.562  1.00 20.00     0.057 A 
ENDBRANCH   4   7
TORSDOF 1
ENDMDL
MODEL 9
REMARK VINA RESULT:      -4.2      1.955      2.603
REMARK  1 active torsions:
REMARK  status: ('A' for Active; 'I' for Inactive)
REMARK    1  A    between atoms: C4_4  and  C8_8 
ROOT
HETATM    1  C5  UNL     1     -33.646  15.896  -2.729  1.00 20.00     0.011 C 
HETATM    2  C6  UNL     1     -34.332  15.642  -4.076  1.00 20.00     0.021 C 
HETATM    3  C7  UNL     1     -35.950  16.603  -2.608  1.00 20.00     0.029 C 
HETATM    4  C8  UNL     1     -34.767  16.207  -1.712  1.00 20.00     0.020 C 
HETATM    5  C9  UNL     1     -35.822  15.627  -3.767  1.00 20.00     0.083 C 
HETATM    6 CL11 UNL     1     -36.806  16.100  -5.159  1.00 20.00    -0.125 Cl
ENDROOT
BRANCH   4   7
HETATM    7  C4  UNL     1     -34.366  17.181  -0.624  1.00 20.00    -0.047 A 
HETATM    8  C1  UNL     1     -33.213  18.014  -0.688  1.00 20.00     0.015 A 
HETATM    9  C2  UNL     1     -33.080  18.804   0.432  1.00 20.00     0.050 A 
HETATM   10  S10 UNL     1     -34.344  18.538   1.557  1.00 20.00    -0.113 SA
HETATM   11  C3  UNL     1     -35.073  17.365   0.545  1.00 20.00     0.057 A 
ENDBRANCH   4   7
TORSDOF 1
ENDMDL
