MODEL 1
REMARK VINA RESULT:      -5.3      0.000      0.000
REMARK  2 active torsions:
REMARK  status: ('A' for Active; 'I' for Inactive)
REMARK    1  A    between atoms: C8_8  and  C10_10 
REMARK    2  A    between atoms: C10_10  and  C11_11 
ROOT
HETATM    1  C1  UNL     1     -34.748  14.302  -6.043  1.00 20.00     0.064 C 
HETATM    2  C2  UNL     1     -36.453  15.809  -4.005  1.00 20.00     0.002 C 
HETATM    3  C3  UNL     1     -36.292  14.291  -4.090  1.00 20.00     0.019 C 
HETATM    4  C4  UNL     1     -33.727  14.093  -3.796  1.00 20.00     0.019 C 
HETATM    5  C5  UNL     1     -35.883  16.462  -2.750  1.00 20.00     0.005 C 
HETATM    6  C6  UNL     1     -33.548  15.533  -3.305  1.00 20.00     0.006 C 
HETATM    7  C7  UNL     1     -34.954  13.806  -4.668  1.00 20.00     0.093 C 
HETATM    8  C8  UNL     1     -34.554  15.913  -2.210  1.00 20.00    -0.014 C 
HETATM    9  N12 UNL     1     -34.586  14.693  -7.124  1.00 20.00    -0.197 NA
ENDROOT
BRANCH   8  10
HETATM   10  C10 UNL     1     -33.938  16.944  -1.255  1.00 20.00     0.004 C 
BRANCH  10  11
HETATM   11  C11 UNL     1     -34.819  17.147  -0.029  1.00 20.00    -0.004 C 
HETATM   12  C9  UNL     1     -34.233  18.206   0.891  1.00 20.00     0.005 C 
ENDBRANCH  10  11
ENDBRANCH   8  10
TORSDOF 2
ENDMDL
MODEL 2
REMARK VINA RESULT:      -5.1      1.388      2.033
REMARK  2 active torsions:
REMARK  status: ('A' for Active; 'I' for Inactive)
REMARK    1  A    between atoms: C8_8  and  C10_10 
REMARK    2  A    between atoms: C10_10  and  C11_11 
ROOT
HETATM    1  C1  UNL     1     -36.053  14.928  -7.010  1.00 20.00     0.064 C 
HETATM    2  C2  UNL     1     -35.487  13.761  -4.244  1.00 20.00     0.002 C 
HETATM    3  C3  UNL     1     -34.652  13.527  -5.502  1.00 20.00     0.019 C 
HETATM    4  C4  UNL     1     -34.009  15.969  -6.078  1.00 20.00     0.019 C 
HETATM    5  C5  UNL     1     -34.794  14.539  -3.129  1.00 20.00     0.005 C 
HETATM    6  C6  UNL     1     -34.433  16.531  -4.717  1.00 20.00     0.006 C 
HETATM    7  C7  UNL     1     -34.682  14.669  -6.530  1.00 20.00     0.093 C 
HETATM    8  C8  UNL     1     -33.889  15.708  -3.541  1.00 20.00    -0.014 C 
HETATM    9  N12 UNL     1     -37.132  15.131  -7.387  1.00 20.00    -0.197 NA
ENDROOT
BRANCH   8  10
HETATM   10  C10 UNL     1     -33.652  16.611  -2.324  1.00 20.00     0.004 C 
BRANCH  10  11
HETATM   11  C11 UNL     1     -34.744  16.418  -1.280  1.00 20.00    -0.004 C 
HETATM   12  C9  UNL     1     -34.538  17.351  -0.097  1.00 20.00     0.005 C 
ENDBRANCH  10  11
ENDBRANCH   8  10
TORSDOF 2
ENDMDL
MODEL 3
REMARK VINA RESULT:      -4.9      1.335      2.281
REMARK  2 active torsions:
REMARK  status: ('A' for Active; 'I' for Inactive)
REMARK    1  A    between atoms: C8_8  and  C10_10 
REMARK    2  A    between atoms: C10_10  and  C11_11 
ROOT
HETATM    1  C1  UNL     1     -34.830  13.750  -5.079  1.00 20.00     0.064 C 
HETATM    2  C2  UNL     1     -33.092  15.613  -3.393  1.00 20.00     0.002 C 
HETATM    3  C3  UNL     1     -33.532  15.861  -4.836  1.00 20.00     0.019 C 
HETATM    4  C4  UNL     1     -36.104  15.803  -4.538  1.00 20.00     0.019 C 
HETATM    5  C5  UNL     1     -33.656  16.580  -2.357  1.00 20.00     0.005 C 
HETATM    6  C6  UNL     1     -36.053  15.912  -3.011  1.00 20.00     0.006 C 
HETATM    7  C7  UNL     1     -34.870  15.218  -5.232  1.00 20.00     0.093 C 
HETATM    8  C8  UNL     1     -35.114  17.027  -2.529  1.00 20.00    -0.014 C 
HETATM    9  N12 UNL     1     -34.798  12.596  -4.959  1.00 20.00    -0.197 NA
ENDROOT
BRANCH   8  10
HETATM   10  C10 UNL     1     -35.619  17.611  -1.203  1.00 20.00     0.004 C 
BRANCH  10  11
HETATM   11  C11 UNL     1     -34.795  17.094  -0.030  1.00 20.00    -0.004 C 
HETATM   12  C9  UNL     1     -35.331  17.628   1.288  1.00 20.00     0.005 C 
ENDBRANCH  10  11
ENDBRANCH   8  10
TORSDOF 2
ENDMDL
MODEL 4
REMARK VINA RESULT:      -4.8      2.045      2.589
REMARK  2 active torsions:
REMARK  status: ('A' for Active; 'I' for Inactive)
REMARK    1  A    between atoms: C8_8  and  C10_10 
REMARK    2  A    between atoms: C10_10  and  C11_11 
ROOT
HETATM    1  C1  UNL     1     -33.932  13.917  -3.721  1.00 20.00     0.064 C 
HETATM    2  C2  UNL     1     -33.516  16.711  -4.884  1.00 20.00     0.002 C 
HETATM    3  C3  UNL     1     -34.844  15.958  -4.816  1.00 20.00     0.019 C 
HETATM    4  C4  UNL     1     -35.024  15.591  -2.259  1.00 20.00     0.019 C 
HETATM    5  C5  UNL     1     -33.429  17.973  -4.030  1.00 20.00     0.005 C 
HETATM    6  C6  UNL     1     -33.922  16.597  -1.912  1.00 20.00     0.006 C 
HETATM    7  C7  UNL     1     -34.973  14.961  -3.654  1.00 20.00     0.093 C 
HETATM    8  C8  UNL     1     -34.091  17.935  -2.645  1.00 20.00    -0.014 C 
HETATM    9  N12 UNL     1     -33.112  13.096  -3.773  1.00 20.00    -0.197 NA
ENDROOT
BRANCH   8  10
HETATM   10  C10 UNL     1     -33.534  19.083  -1.793  1.00 20.00     0.004 C 
BRANCH  10  11
HETATM   11  C11 UNL     1     -33.283  18.627  -0.362  1.00 20.00    -0.004 C 
HETATM   12  C9  UNL     1     -31.941  19.134   0.143  1.00 20.00     0.005 C 
ENDBRANCH  10  11
ENDBRANCH   8  10
TORSDOF 2
ENDMDL
MODEL 5
REMARK VINA RESULT:      -4.7      2.508      4.937
REMARK  2 active torsions:
REMARK  status: ('A' for Active; 'I' for Inactive)
REMARK    1  A    between atoms: C8_8  and  C10_10 
REMARK    2  A    between atoms: C10_10  and  C11_11 
ROOT
HETATM    1  C1  UNL     1     -35.995  18.594  -1.630  1.00 20.00     0.064 C 
HETATM    2  C2  UNL     1     -33.960  18.089  -3.853  1.00 20.00     0.002 C 
HETATM    3  C3  UNL     1     -33.641  18.588  -2.443  1.00 20.00     0.019 C 
HETATM    4  C4  UNL     1     -34.602  16.632  -1.045  1.00 20.00     0.019 C 
HETATM    5  C5  UNL     1     -33.420  16.706  -4.200  1.00 20.00     0.005 C 
HETATM    6  C6  UNL     1     -34.733  15.680  -2.238  1.00 20.00     0.006 C 
HETATM    7  C7  UNL     1     -34.620  18.133  -1.350  1.00 20.00     0.093 C 
HETATM    8  C8  UNL     1     -33.463  15.635  -3.101  1.00 20.00    -0.014 C 
HETATM    9  N12 UNL     1     -37.075  18.957  -1.850  1.00 20.00    -0.197 NA
ENDROOT
BRANCH   8  10
HETATM   10  C10 UNL     1     -33.306  14.251  -3.743  1.00 20.00     0.004 C 
BRANCH  10  11
HETATM   11  C11 UNL     1     -34.662  13.592  -3.958  1.00 20.00    -0.004 C 
HETATM   12  C9  UNL     1     -35.046  13.604  -5.429  1.00 20.00     0.005 C 
ENDBRANCH  10  11
ENDBRANCH   8  10
TORSDOF 2
ENDMDL
MODEL 6
REMARK VINA RESULT:      -4.6      1.767      2.651
REMARK  2 active torsions:
REMARK  status: ('A' for Active; 'I' for Inactive)
REMARK    1  A    between atoms: C8_8  and  C10_10 
REMARK    2  A    between atoms: C10_10  and  C11_11 
ROOT
HETATM    1  C1  UNL     1     -37.925  14.826  -4.483  1.00 20.00     0.064 C 
HETATM    2  C2  UNL     1     -35.038  14.105  -3.789  1.00 20.00     0.002 C 
HETATM    3  C3  UNL     1     -35.516  14.723  -5.103  1.00 20.00     0.019 C 
HETATM    4  C4  UNL     1     -36.599  16.899  -4.211  1.00 20.00     0.019 C 
HETATM    5  C5  UNL     1     -34.133  14.989  -2.936  1.00 20.00     0.005 C 
HETATM    6  C6  UNL     1     -35.969  16.789  -2.819  1.00 20.00     0.006 C 
HETATM    7  C7  UNL     1     -36.776  15.596  -4.997  1.00 20.00     0.093 C 
HETATM    8  C8  UNL     1     -34.464  16.487  -2.874  1.00 20.00    -0.014 C 
HETATM    9  N12 UNL     1     -38.829  14.219  -4.079  1.00 20.00    -0.197 NA
ENDROOT
BRANCH   8  10
HETATM   10  C10 UNL     1     -33.752  17.107  -1.664  1.00 20.00     0.004 C 
BRANCH  10  11
HETATM   11  C11 UNL     1     -34.582  16.939  -0.398  1.00 20.00    -0.004 C 
HETATM   12  C9  UNL     1     -34.268  18.037   0.607  1.00 20.00     0.005 C 
ENDBRANCH  10  11
ENDBRANCH   8  10
TORSDOF 2
ENDMDL
MODEL 7
REMARK VINA RESULT:      -4.6      2.661      4.002
REMARK  2 active torsions:
REMARK  status: ('A' for Active; 'I' for Inactive)
REMARK    1  A    between atoms: C8_8  and  C10_10 
REMARK    2  A    between atoms: C10_10  and  C11_11 
ROOT
HETATM    1  C1  UNL     1     -34.579  13.653  -3.840  1.00 20.00     0.064 C 
HETATM    2  C2  UNL     1     -35.981  16.364  -3.699  1.00 20.00     0.002 C 
HETATM    3  C3  UNL     1     -35.131  15.737  -2.594  1.00 20.00     0.019 C 
HETATM    4  C4  UNL     1     -32.886  15.461  -3.855  1.00 20.00     0.019 C 
HETATM    5  C5  UNL     1     -35.417  17.637  -4.323  1.00 20.00     0.005 C 
HETATM    6  C6  UNL     1     -33.287  16.372  -5.020  1.00 20.00     0.006 C 
HETATM    7  C7  UNL     1     -34.023  14.789  -3.078  1.00 20.00     0.093 C 
HETATM    8  C8  UNL     1     -33.900  17.699  -4.549  1.00 20.00    -0.014 C 
HETATM    9  N12 UNL     1     -35.016  12.760  -4.439  1.00 20.00    -0.197 NA
ENDROOT
BRANCH   8  10
HETATM   10  C10 UNL     1     -33.589  18.815  -5.555  1.00 20.00     0.004 C 
BRANCH  10  11
HETATM   11  C11 UNL     1     -34.728  18.984  -6.551  1.00 20.00    -0.004 C 
HETATM   12  C9  UNL     1     -34.345  18.432  -7.915  1.00 20.00     0.005 C 
ENDBRANCH  10  11
ENDBRANCH   8  10
TORSDOF 2
ENDMDL
MODEL 8
REMARK VINA RESULT:      -4.6      2.415      5.331
REMARK  2 active torsions:
REMARK  status: ('A' for Active; 'I' for Inactive)
REMARK    1  A    between atoms: C8_8  and  C10_10 
REMARK    2  A    between atoms: C10_10  and  C11_11 
ROOT
HETATM    1  C1  UNL     1     -34.630  15.863  -2.365  1.00 20.00     0.064 C 
HETATM    2  C2  UNL     1     -33.497  16.565  -5.114  1.00 20.00     0.002 C 
HETATM    3  C3  UNL     1     -32.891  15.571  -4.123  1.00 20.00     0.019 C 
HETATM    4  C4  UNL     1     -34.867  13.916  -3.877  1.00 20.00     0.019 C 
HETATM    5  C5  UNL     1     -34.017  15.962  -6.416  1.00 20.00     0.005 C 
HETATM    6  C6  UNL     1     -35.627  14.450  -5.096  1.00 20.00     0.006 C 
HETATM    7  C7  UNL     1     -33.897  14.881  -3.189  1.00 20.00     0.093 C 
HETATM    8  C8  UNL     1     -34.728  14.604  -6.332  1.00 20.00    -0.014 C 
HETATM    9  N12 UNL     1     -35.206  16.635  -1.717  1.00 20.00    -0.197 NA
ENDROOT
BRANCH   8  10
HETATM   10  C10 UNL     1     -35.542  14.385  -7.613  1.00 20.00     0.004 C 
BRANCH  10  11
HETATM   11  C11 UNL     1     -36.510  15.537  -7.849  1.00 20.00    -0.004 C 
HETATM   12  C9  UNL     1     -37.944  15.038  -7.918  1.00 20.00     0.005 C 
ENDBRANCH  10  11
ENDBRANCH   8  10
TORSDOF 2
ENDMDL
MODEL 9
REMARK VINA RESULT:      -4.5      1.931      2.944
REMARK  2 active torsions:
REMARK  status: ('A' for Active; 'I' for Inactive)
REMARK    1  A    between atoms: C8_8  and  C10_10 
REMARK    2  A    between atoms: C10_10  and  C11_11 
ROOT
HETATM    1  C1  UNL     1     -36.393  16.264  -7.496  1.00 20.00     0.064 C 
HETATM    2  C2  UNL     1     -34.975  14.162  -5.792  1.00 20.00     0.002 C 
HETATM    3  C3  UNL     1     -34.404  14.839  -7.037  1.00 20.00     0.019 C 
HETATM    4  C4  UNL     1     -34.503  17.316  -6.290  1.00 20.00     0.019 C 
HETATM    5  C5  UNL     1     -34.262  14.483  -4.482  1.00 20.00     0.005 C 
HETATM    6  C6  UNL     1     -34.743  16.989  -4.812  1.00 20.00     0.006 C 
HETATM    7  C7  UNL     1     -34.928  16.257  -7.311  1.00 20.00     0.093 C 
HETATM    8  C8  UNL     1     -33.774  15.924  -4.278  1.00 20.00    -0.014 C 
HETATM    9  N12 UNL     1     -37.545  16.270  -7.641  1.00 20.00    -0.197 NA
ENDROOT
BRANCH   8  10
HETATM   10  C10 UNL     1     -33.501  16.154  -2.786  1.00 20.00     0.004 C 
BRANCH  10  11
HETATM   11  C11 UNL     1     -34.784  16.044  -1.973  1.00 20.00    -0.004 C 
HETATM   12  C9  UNL     1     -34.653  16.780  -0.649  1.00 20.00     0.005 C 
ENDBRANCH  10  11
ENDBRANCH   8  10
TORSDOF 2
ENDMDL
