MODEL 1
REMARK VINA RESULT:      -5.1      0.000      0.000
REMARK  1 active torsions:
REMARK  status: ('A' for Active; 'I' for Inactive)
REMARK    1  A    between atoms: C3_3  and  C8_8 
ROOT
HETATM    1  C1  UNL     1     -34.448  16.192  -1.504  1.00 20.00     0.022 A 
HETATM    2  C2  UNL     1     -33.781  17.776  -3.068  1.00 20.00     0.057 A 
HETATM    3  C3  UNL     1     -33.939  16.431  -2.813  1.00 20.00    -0.046 A 
HETATM    4  C4  UNL     1     -34.660  17.362  -0.808  1.00 20.00    -0.021 A 
HETATM    5  C10 UNL     1     -35.175  17.535   0.567  1.00 20.00     0.056 C 
HETATM    6  S11 UNL     1     -34.247  18.743  -1.733  1.00 20.00    -0.106 SA
ENDROOT
BRANCH   3   7
HETATM    7  C8  UNL     1     -33.611  15.337  -3.804  1.00 20.00     0.020 C 
HETATM    8  C5  UNL     1     -34.277  13.978  -3.497  1.00 20.00     0.010 C 
HETATM    9  C6  UNL     1     -35.189  13.687  -4.686  1.00 20.00     0.016 C 
HETATM   10  C9  UNL     1     -34.483  14.373  -5.839  1.00 20.00     0.058 C 
HETATM   11  C7  UNL     1     -34.035  15.696  -5.241  1.00 20.00     0.025 C 
HETATM   12 BR12 UNL     1     -35.668  14.632  -7.343  1.00 20.00    -0.091 Br
ENDBRANCH   3   7
TORSDOF 1
ENDMDL
MODEL 2
REMARK VINA RESULT:      -4.7      3.152      5.273
REMARK  1 active torsions:
REMARK  status: ('A' for Active; 'I' for Inactive)
REMARK    1  A    between atoms: C3_3  and  C8_8 
ROOT
HETATM    1  C1  UNL     1     -34.205  15.025  -2.969  1.00 20.00     0.022 A 
HETATM    2  C2  UNL     1     -33.676  17.017  -4.042  1.00 20.00     0.057 A 
HETATM    3  C3  UNL     1     -33.821  16.390  -2.825  1.00 20.00    -0.046 A 
HETATM    4  C4  UNL     1     -34.339  14.662  -4.292  1.00 20.00    -0.021 A 
HETATM    5  C10 UNL     1     -34.720  13.347  -4.851  1.00 20.00     0.056 C 
HETATM    6  S11 UNL     1     -34.001  15.963  -5.352  1.00 20.00    -0.106 SA
ENDROOT
BRANCH   3   7
HETATM    7  C8  UNL     1     -33.599  17.067  -1.491  1.00 20.00     0.020 C 
HETATM    8  C5  UNL     1     -33.431  18.599  -1.575  1.00 20.00     0.010 C 
HETATM    9  C6  UNL     1     -34.596  19.187  -0.782  1.00 20.00     0.016 C 
HETATM   10  C9  UNL     1     -34.867  18.129   0.269  1.00 20.00     0.058 C 
HETATM   11  C7  UNL     1     -34.760  16.826  -0.507  1.00 20.00     0.025 C 
HETATM   12 BR12 UNL     1     -36.614  18.348   1.063  1.00 20.00    -0.091 Br
ENDBRANCH   3   7
TORSDOF 1
ENDMDL
MODEL 3
REMARK VINA RESULT:      -4.6      3.123      5.350
REMARK  1 active torsions:
REMARK  status: ('A' for Active; 'I' for Inactive)
REMARK    1  A    between atoms: C3_3  and  C8_8 
ROOT
HETATM    1  C1  UNL     1     -34.049  15.948  -4.896  1.00 20.00     0.022 A 
HETATM    2  C2  UNL     1     -34.514  14.338  -3.287  1.00 20.00     0.057 A 
HETATM    3  C3  UNL     1     -34.078  15.625  -3.509  1.00 20.00    -0.046 A 
HETATM    4  C4  UNL     1     -34.463  14.895  -5.682  1.00 20.00    -0.021 A 
HETATM    5  C10 UNL     1     -34.572  14.833  -7.156  1.00 20.00     0.056 C 
HETATM    6  S11 UNL     1     -34.886  13.524  -4.747  1.00 20.00    -0.106 SA
ENDROOT
BRANCH   3   7
HETATM    7  C8  UNL     1     -33.678  16.585  -2.410  1.00 20.00     0.020 C 
HETATM    8  C5  UNL     1     -33.689  18.071  -2.827  1.00 20.00     0.010 C 
HETATM    9  C6  UNL     1     -34.736  18.742  -1.941  1.00 20.00     0.016 C 
HETATM   10  C9  UNL     1     -34.691  17.918  -0.670  1.00 20.00     0.058 C 
HETATM   11  C7  UNL     1     -34.599  16.488  -1.179  1.00 20.00     0.025 C 
HETATM   12 BR12 UNL     1     -36.268  18.193   0.411  1.00 20.00    -0.091 Br
ENDBRANCH   3   7
TORSDOF 1
ENDMDL
MODEL 4
REMARK VINA RESULT:      -4.5      3.562      5.299
REMARK  1 active torsions:
REMARK  status: ('A' for Active; 'I' for Inactive)
REMARK    1  A    between atoms: C3_3  and  C8_8 
ROOT
HETATM    1  C1  UNL     1     -36.196  15.859  -2.896  1.00 20.00     0.022 A 
HETATM    2  C2  UNL     1     -34.275  14.638  -3.366  1.00 20.00     0.057 A 
HETATM    3  C3  UNL     1     -34.796  15.712  -2.677  1.00 20.00    -0.046 A 
HETATM    4  C4  UNL     1     -36.692  14.892  -3.743  1.00 20.00    -0.021 A 
HETATM    5  C10 UNL     1     -38.082  14.705  -4.213  1.00 20.00     0.056 C 
HETATM    6  S11 UNL     1     -35.472  13.812  -4.270  1.00 20.00    -0.106 SA
ENDROOT
BRANCH   3   7
HETATM    7  C8  UNL     1     -33.979  16.627  -1.793  1.00 20.00     0.020 C 
HETATM    8  C5  UNL     1     -33.748  18.038  -2.377  1.00 20.00     0.010 C 
HETATM    9  C6  UNL     1     -34.419  19.003  -1.403  1.00 20.00     0.016 C 
HETATM   10  C9  UNL     1     -34.297  18.290  -0.071  1.00 20.00     0.058 C 
HETATM   11  C7  UNL     1     -34.627  16.846  -0.413  1.00 20.00     0.025 C 
HETATM   12 BR12 UNL     1     -35.521  19.014   1.237  1.00 20.00    -0.091 Br
ENDBRANCH   3   7
TORSDOF 1
ENDMDL
MODEL 5
REMARK VINA RESULT:      -4.5      1.846      2.361
REMARK  1 active torsions:
REMARK  status: ('A' for Active; 'I' for Inactive)
REMARK    1  A    between atoms: C3_3  and  C8_8 
ROOT
HETATM    1  C1  UNL     1     -34.945  17.140  -0.162  1.00 20.00     0.022 A 
HETATM    2  C2  UNL     1     -33.161  18.475  -0.821  1.00 20.00     0.057 A 
HETATM    3  C3  UNL     1     -34.096  17.550  -1.230  1.00 20.00    -0.046 A 
HETATM    4  C4  UNL     1     -34.627  17.767   1.023  1.00 20.00    -0.021 A 
HETATM    5  C10 UNL     1     -35.267  17.613   2.347  1.00 20.00     0.056 C 
HETATM    6  S11 UNL     1     -33.310  18.847   0.844  1.00 20.00    -0.106 SA
ENDROOT
BRANCH   3   7
HETATM    7  C8  UNL     1     -34.210  17.030  -2.645  1.00 20.00     0.020 C 
HETATM    8  C5  UNL     1     -33.520  15.669  -2.882  1.00 20.00     0.010 C 
HETATM    9  C6  UNL     1     -34.632  14.705  -3.284  1.00 20.00     0.016 C 
HETATM   10  C9  UNL     1     -35.636  15.606  -3.976  1.00 20.00     0.058 C 
HETATM   11  C7  UNL     1     -35.673  16.840  -3.088  1.00 20.00     0.025 C 
HETATM   12 BR12 UNL     1     -37.371  14.767  -4.107  1.00 20.00    -0.091 Br
ENDBRANCH   3   7
TORSDOF 1
ENDMDL
MODEL 6
REMARK VINA RESULT:      -4.3      3.565      5.612
REMARK  1 active torsions:
REMARK  status: ('A' for Active; 'I' for Inactive)
REMARK    1  A    between atoms: C3_3  and  C8_8 
ROOT
HETATM    1  C1  UNL     1     -34.285  15.359  -2.998  1.00 20.00     0.022 A 
HETATM    2  C2  UNL     1     -36.516  16.004  -3.076  1.00 20.00     0.057 A 
HETATM    3  C3  UNL     1     -35.266  16.306  -2.583  1.00 20.00    -0.046 A 
HETATM    4  C4  UNL     1     -34.823  14.369  -3.792  1.00 20.00    -0.021 A 
HETATM    5  C10 UNL     1     -34.140  13.215  -4.415  1.00 20.00     0.056 C 
HETATM    6  S11 UNL     1     -36.504  14.585  -4.036  1.00 20.00    -0.106 SA
ENDROOT
BRANCH   3   7
HETATM    7  C8  UNL     1     -34.967  17.500  -1.706  1.00 20.00     0.020 C 
HETATM    8  C5  UNL     1     -36.128  18.510  -1.587  1.00 20.00     0.010 C 
HETATM    9  C6  UNL     1     -36.515  18.525  -0.110  1.00 20.00     0.016 C 
HETATM   10  C9  UNL     1     -35.210  18.205   0.591  1.00 20.00     0.058 C 
HETATM   11  C7  UNL     1     -34.613  17.097  -0.261  1.00 20.00     0.025 C 
HETATM   12 BR12 UNL     1     -35.505  17.628   2.411  1.00 20.00    -0.091 Br
ENDBRANCH   3   7
TORSDOF 1
ENDMDL
MODEL 7
REMARK VINA RESULT:      -4.3      2.209      3.362
REMARK  1 active torsions:
REMARK  status: ('A' for Active; 'I' for Inactive)
REMARK    1  A    between atoms: C3_3  and  C8_8 
ROOT
HETATM    1  C1  UNL     1     -33.347  18.221  -0.410  1.00 20.00     0.022 A 
HETATM    2  C2  UNL     1     -35.443  17.935   0.552  1.00 20.00     0.057 A 
HETATM    3  C3  UNL     1     -34.688  17.773  -0.589  1.00 20.00    -0.046 A 
HETATM    4  C4  UNL     1     -33.129  18.709   0.860  1.00 20.00    -0.021 A 
HETATM    5  C10 UNL     1     -31.881  19.263   1.431  1.00 20.00     0.056 C 
HETATM    6  S11 UNL     1     -34.536  18.625   1.831  1.00 20.00    -0.106 SA
ENDROOT
BRANCH   3   7
HETATM    7  C8  UNL     1     -35.217  17.188  -1.878  1.00 20.00     0.020 C 
HETATM    8  C5  UNL     1     -34.659  17.850  -3.156  1.00 20.00     0.010 C 
HETATM    9  C6  UNL     1     -33.902  16.750  -3.896  1.00 20.00     0.016 C 
HETATM   10  C9  UNL     1     -34.650  15.492  -3.501  1.00 20.00     0.058 C 
HETATM   11  C7  UNL     1     -34.907  15.685  -2.016  1.00 20.00     0.025 C 
HETATM   12 BR12 UNL     1     -33.603  13.906  -3.847  1.00 20.00    -0.091 Br
ENDBRANCH   3   7
TORSDOF 1
ENDMDL
MODEL 8
REMARK VINA RESULT:      -4.2      3.513      5.239
REMARK  1 active torsions:
REMARK  status: ('A' for Active; 'I' for Inactive)
REMARK    1  A    between atoms: C3_3  and  C8_8 
ROOT
HETATM    1  C1  UNL     1     -36.566  15.327  -5.422  1.00 20.00     0.022 A 
HETATM    2  C2  UNL     1     -34.885  14.863  -6.957  1.00 20.00     0.057 A 
HETATM    3  C3  UNL     1     -35.168  15.163  -5.643  1.00 20.00    -0.046 A 
HETATM    4  C4  UNL     1     -37.298  15.147  -6.575  1.00 20.00    -0.021 A 
HETATM    5  C10 UNL     1     -38.763  15.233  -6.758  1.00 20.00     0.056 C 
HETATM    6  S11 UNL     1     -36.301  14.779  -7.918  1.00 20.00    -0.106 SA
ENDROOT
BRANCH   3   7
HETATM    7  C8  UNL     1     -34.121  15.301  -4.562  1.00 20.00     0.020 C 
HETATM    8  C5  UNL     1     -33.312  16.615  -4.623  1.00 20.00     0.010 C 
HETATM    9  C6  UNL     1     -33.613  17.347  -3.318  1.00 20.00     0.016 C 
HETATM   10  C9  UNL     1     -33.876  16.218  -2.341  1.00 20.00     0.058 C 
HETATM   11  C7  UNL     1     -34.724  15.247  -3.146  1.00 20.00     0.025 C 
HETATM   12 BR12 UNL     1     -34.802  16.843  -0.766  1.00 20.00    -0.091 Br
ENDBRANCH   3   7
TORSDOF 1
ENDMDL
MODEL 9
REMARK VINA RESULT:      -4.1      3.872      6.257
REMARK  1 active torsions:
REMARK  status: ('A' for Active; 'I' for Inactive)
REMARK    1  A    between atoms: C3_3  and  C8_8 
ROOT
HETATM    1  C1  UNL     1     -33.967  16.915  -1.313  1.00 20.00     0.022 A 
HETATM    2  C2  UNL     1     -36.129  17.617  -1.794  1.00 20.00     0.057 A 
HETATM    3  C3  UNL     1     -35.075  17.716  -0.913  1.00 20.00    -0.046 A 
HETATM    4  C4  UNL     1     -34.217  16.233  -2.485  1.00 20.00    -0.021 A 
HETATM    5  C10 UNL     1     -33.327  15.307  -3.218  1.00 20.00     0.056 C 
HETATM    6  S11 UNL     1     -35.781  16.562  -3.098  1.00 20.00    -0.106 SA
ENDROOT
BRANCH   3   7
HETATM    7  C8  UNL     1     -35.090  18.573   0.333  1.00 20.00     0.020 C 
HETATM    8  C5  UNL     1     -35.837  17.946   1.530  1.00 20.00     0.010 C 
HETATM    9  C6  UNL     1     -34.788  17.770   2.625  1.00 20.00     0.016 C 
HETATM   10  C9  UNL     1     -33.816  18.903   2.358  1.00 20.00     0.058 C 
HETATM   11  C7  UNL     1     -33.673  18.894   0.845  1.00 20.00     0.025 C 
HETATM   12 BR12 UNL     1     -32.123  18.607   3.239  1.00 20.00    -0.091 Br
ENDBRANCH   3   7
TORSDOF 1
ENDMDL
