MODEL 1
REMARK VINA RESULT:      -5.2      0.000      0.000
REMARK  2 active torsions:
REMARK  status: ('A' for Active; 'I' for Inactive)
REMARK    1  A    between atoms: C2_2  and  C9_9 
REMARK    2  A    between atoms: C4_4  and  C9_9 
ROOT
HETATM    1  C1  UNL     1     -33.195   6.554   5.039  1.00 20.00    -0.004 C 
HETATM    2  C2  UNL     1     -33.656   6.004   3.898  1.00 20.00    -0.079 C 
HETATM    3  C5  UNL     1     -34.735   4.944   3.927  1.00 20.00     0.034 C 
HETATM    4  C6  UNL     1     -34.967   4.331   5.310  1.00 20.00     0.006 C 
HETATM    5  C7  UNL     1     -35.022   5.418   6.378  1.00 20.00     0.024 C 
HETATM    6  C8  UNL     1     -33.712   6.208   6.406  1.00 20.00     0.105 C 
HETATM    7 CL10 UNL     1     -33.939   7.700   7.362  1.00 20.00    -0.121 Cl
ENDROOT
BRANCH   2   8
HETATM    8  C9  UNL     1     -33.135   6.356   2.555  1.00 20.00     0.060 C 
BRANCH   8   9
HETATM    9  C4  UNL     1     -32.123   7.456   2.620  1.00 20.00    -0.033 C 
HETATM   10  C3  UNL     1     -32.095   8.495   1.776  1.00 20.00     0.007 C 
ENDBRANCH   8   9
ENDBRANCH   2   8
TORSDOF 2
ENDMDL
MODEL 2
REMARK VINA RESULT:      -5.0      1.737      2.366
REMARK  2 active torsions:
REMARK  status: ('A' for Active; 'I' for Inactive)
REMARK    1  A    between atoms: C2_2  and  C9_9 
REMARK    2  A    between atoms: C4_4  and  C9_9 
ROOT
HETATM    1  C1  UNL     1     -34.108   5.648   3.861  1.00 20.00    -0.004 C 
HETATM    2  C2  UNL     1     -33.051   6.483   3.888  1.00 20.00    -0.079 C 
HETATM    3  C5  UNL     1     -32.645   7.179   5.169  1.00 20.00     0.034 C 
HETATM    4  C6  UNL     1     -33.710   7.133   6.266  1.00 20.00     0.006 C 
HETATM    5  C7  UNL     1     -34.300   5.733   6.386  1.00 20.00     0.024 C 
HETATM    6  C8  UNL     1     -34.940   5.307   5.063  1.00 20.00     0.105 C 
HETATM    7 CL10 UNL     1     -35.262   3.549   5.098  1.00 20.00    -0.121 Cl
ENDROOT
BRANCH   2   8
HETATM    8  C9  UNL     1     -32.239   6.810   2.691  1.00 20.00     0.060 C 
BRANCH   8   9
HETATM    9  C4  UNL     1     -32.279   8.272   2.373  1.00 20.00    -0.033 C 
HETATM   10  C3  UNL     1     -31.967   8.783   1.177  1.00 20.00     0.007 C 
ENDBRANCH   8   9
ENDBRANCH   2   8
TORSDOF 2
ENDMDL
MODEL 3
REMARK VINA RESULT:      -4.7     11.741     12.442
REMARK  2 active torsions:
REMARK  status: ('A' for Active; 'I' for Inactive)
REMARK    1  A    between atoms: C2_2  and  C9_9 
REMARK    2  A    between atoms: C4_4  and  C9_9 
ROOT
HETATM    1  C1  UNL     1     -35.688  15.415  -3.148  1.00 20.00    -0.004 C 
HETATM    2  C2  UNL     1     -34.381  15.628  -2.898  1.00 20.00    -0.079 C 
HETATM    3  C5  UNL     1     -33.316  14.779  -3.558  1.00 20.00     0.034 C 
HETATM    4  C6  UNL     1     -33.853  13.499  -4.202  1.00 20.00     0.006 C 
HETATM    5  C7  UNL     1     -35.115  13.789  -5.005  1.00 20.00     0.024 C 
HETATM    6  C8  UNL     1     -36.202  14.375  -4.100  1.00 20.00     0.105 C 
HETATM    7 CL10 UNL     1     -37.504  15.068  -5.110  1.00 20.00    -0.121 Cl
ENDROOT
BRANCH   2   8
HETATM    8  C9  UNL     1     -33.889  16.660  -1.954  1.00 20.00     0.060 C 
BRANCH   8   9
HETATM    9  C4  UNL     1     -34.673  16.668  -0.679  1.00 20.00    -0.033 C 
HETATM   10  C3  UNL     1     -34.564  17.619   0.257  1.00 20.00     0.007 C 
ENDBRANCH   8   9
ENDBRANCH   2   8
TORSDOF 2
ENDMDL
MODEL 4
REMARK VINA RESULT:      -4.6     11.810     13.077
REMARK  2 active torsions:
REMARK  status: ('A' for Active; 'I' for Inactive)
REMARK    1  A    between atoms: C2_2  and  C9_9 
REMARK    2  A    between atoms: C4_4  and  C9_9 
ROOT
HETATM    1  C1  UNL     1     -33.883  15.173  -3.051  1.00 20.00    -0.004 C 
HETATM    2  C2  UNL     1     -33.773  16.510  -2.927  1.00 20.00    -0.079 C 
HETATM    3  C5  UNL     1     -33.702  17.400  -4.150  1.00 20.00     0.034 C 
HETATM    4  C6  UNL     1     -33.408  16.648  -5.449  1.00 20.00     0.006 C 
HETATM    5  C7  UNL     1     -34.262  15.388  -5.548  1.00 20.00     0.024 C 
HETATM    6  C8  UNL     1     -33.977  14.456  -4.367  1.00 20.00     0.105 C 
HETATM    7 CL10 UNL     1     -35.247  13.201  -4.283  1.00 20.00    -0.121 Cl
ENDROOT
BRANCH   2   8
HETATM    8  C9  UNL     1     -33.680  17.203  -1.620  1.00 20.00     0.060 C 
BRANCH   8   9
HETATM    9  C4  UNL     1     -34.716  16.717  -0.656  1.00 20.00    -0.033 C 
HETATM   10  C3  UNL     1     -35.040  17.355   0.475  1.00 20.00     0.007 C 
ENDBRANCH   8   9
ENDBRANCH   2   8
TORSDOF 2
ENDMDL
MODEL 5
REMARK VINA RESULT:      -4.6     11.941     13.100
REMARK  2 active torsions:
REMARK  status: ('A' for Active; 'I' for Inactive)
REMARK    1  A    between atoms: C2_2  and  C9_9 
REMARK    2  A    between atoms: C4_4  and  C9_9 
ROOT
HETATM    1  C1  UNL     1     -34.711  16.209  -4.675  1.00 20.00    -0.004 C 
HETATM    2  C2  UNL     1     -34.242  15.629  -3.554  1.00 20.00    -0.079 C 
HETATM    3  C5  UNL     1     -34.228  14.123  -3.407  1.00 20.00     0.034 C 
HETATM    4  C6  UNL     1     -35.089  13.390  -4.437  1.00 20.00     0.006 C 
HETATM    5  C7  UNL     1     -34.862  13.960  -5.833  1.00 20.00     0.024 C 
HETATM    6  C8  UNL     1     -35.217  15.448  -5.866  1.00 20.00     0.105 C 
HETATM    7 CL10 UNL     1     -34.577  16.177  -7.368  1.00 20.00    -0.121 Cl
ENDROOT
BRANCH   2   8
HETATM    8  C9  UNL     1     -33.745  16.395  -2.385  1.00 20.00     0.060 C 
BRANCH   8   9
HETATM    9  C4  UNL     1     -34.724  16.381  -1.253  1.00 20.00    -0.033 C 
HETATM   10  C3  UNL     1     -34.637  17.180  -0.183  1.00 20.00     0.007 C 
ENDBRANCH   8   9
ENDBRANCH   2   8
TORSDOF 2
ENDMDL
MODEL 6
REMARK VINA RESULT:      -4.4     10.253     11.075
REMARK  2 active torsions:
REMARK  status: ('A' for Active; 'I' for Inactive)
REMARK    1  A    between atoms: C2_2  and  C9_9 
REMARK    2  A    between atoms: C4_4  and  C9_9 
ROOT
HETATM    1  C1  UNL     1     -42.555   5.534  -2.352  1.00 20.00    -0.004 C 
HETATM    2  C2  UNL     1     -42.192   6.807  -2.101  1.00 20.00    -0.079 C 
HETATM    3  C5  UNL     1     -41.125   7.122  -1.074  1.00 20.00     0.034 C 
HETATM    4  C6  UNL     1     -40.792   5.953  -0.146  1.00 20.00     0.006 C 
HETATM    5  C7  UNL     1     -40.641   4.660  -0.939  1.00 20.00     0.024 C 
HETATM    6  C8  UNL     1     -41.937   4.338  -1.688  1.00 20.00     0.105 C 
HETATM    7 CL10 UNL     1     -41.619   3.067  -2.905  1.00 20.00    -0.121 Cl
ENDROOT
BRANCH   2   8
HETATM    8  C9  UNL     1     -42.813   7.979  -2.765  1.00 20.00     0.060 C 
BRANCH   8   9
HETATM    9  C4  UNL     1     -42.616   7.948  -4.248  1.00 20.00    -0.033 C 
HETATM   10  C3  UNL     1     -42.145   8.979  -4.959  1.00 20.00     0.007 C 
ENDBRANCH   8   9
ENDBRANCH   2   8
TORSDOF 2
ENDMDL
MODEL 7
REMARK VINA RESULT:      -4.3     11.327     12.589
REMARK  2 active torsions:
REMARK  status: ('A' for Active; 'I' for Inactive)
REMARK    1  A    between atoms: C2_2  and  C9_9 
REMARK    2  A    between atoms: C4_4  and  C9_9 
ROOT
HETATM    1  C1  UNL     1     -34.782  15.605  -2.224  1.00 20.00    -0.004 C 
HETATM    2  C2  UNL     1     -34.014  15.250  -3.272  1.00 20.00    -0.079 C 
HETATM    3  C5  UNL     1     -33.280  16.295  -4.086  1.00 20.00     0.034 C 
HETATM    4  C6  UNL     1     -33.767  17.725  -3.844  1.00 20.00     0.006 C 
HETATM    5  C7  UNL     1     -33.939  17.991  -2.353  1.00 20.00     0.024 C 
HETATM    6  C8  UNL     1     -34.955  17.019  -1.750  1.00 20.00     0.105 C 
HETATM    7 CL10 UNL     1     -34.847  17.077   0.034  1.00 20.00    -0.121 Cl
ENDROOT
BRANCH   2   8
HETATM    8  C9  UNL     1     -33.852  13.849  -3.729  1.00 20.00     0.060 C 
BRANCH   8   9
HETATM    9  C4  UNL     1     -34.985  13.414  -4.604  1.00 20.00    -0.033 C 
HETATM   10  C3  UNL     1     -35.136  13.802  -5.876  1.00 20.00     0.007 C 
ENDBRANCH   8   9
ENDBRANCH   2   8
TORSDOF 2
ENDMDL
MODEL 8
REMARK VINA RESULT:      -4.2      9.991     11.235
REMARK  2 active torsions:
REMARK  status: ('A' for Active; 'I' for Inactive)
REMARK    1  A    between atoms: C2_2  and  C9_9 
REMARK    2  A    between atoms: C4_4  and  C9_9 
ROOT
HETATM    1  C1  UNL     1     -42.305   5.641  -2.734  1.00 20.00    -0.004 C 
HETATM    2  C2  UNL     1     -42.128   4.577  -1.928  1.00 20.00    -0.079 C 
HETATM    3  C5  UNL     1     -41.449   4.725  -0.584  1.00 20.00     0.034 C 
HETATM    4  C6  UNL     1     -40.697   6.046  -0.410  1.00 20.00     0.006 C 
HETATM    5  C7  UNL     1     -41.543   7.216  -0.900  1.00 20.00     0.024 C 
HETATM    6  C8  UNL     1     -41.891   7.041  -2.380  1.00 20.00     0.105 C 
HETATM    7 CL10 UNL     1     -43.189   8.187  -2.825  1.00 20.00    -0.121 Cl
ENDROOT
BRANCH   2   8
HETATM    8  C9  UNL     1     -42.542   3.200  -2.292  1.00 20.00     0.060 C 
BRANCH   8   9
HETATM    9  C4  UNL     1     -41.573   2.557  -3.234  1.00 20.00    -0.033 C 
HETATM   10  C3  UNL     1     -41.694   1.304  -3.687  1.00 20.00     0.007 C 
ENDBRANCH   8   9
ENDBRANCH   2   8
TORSDOF 2
ENDMDL
MODEL 9
REMARK VINA RESULT:      -4.2     11.494     12.183
REMARK  2 active torsions:
REMARK  status: ('A' for Active; 'I' for Inactive)
REMARK    1  A    between atoms: C2_2  and  C9_9 
REMARK    2  A    between atoms: C4_4  and  C9_9 
ROOT
HETATM    1  C1  UNL     1     -34.008  15.484  -3.073  1.00 20.00    -0.004 C 
HETATM    2  C2  UNL     1     -35.214  15.948  -2.690  1.00 20.00    -0.079 C 
HETATM    3  C5  UNL     1     -36.488  15.319  -3.211  1.00 20.00     0.034 C 
HETATM    4  C6  UNL     1     -36.282  14.409  -4.424  1.00 20.00     0.006 C 
HETATM    5  C7  UNL     1     -35.083  13.492  -4.212  1.00 20.00     0.024 C 
HETATM    6  C8  UNL     1     -33.811  14.316  -3.995  1.00 20.00     0.105 C 
HETATM    7 CL10 UNL     1     -32.519  13.256  -3.361  1.00 20.00    -0.121 Cl
ENDROOT
BRANCH   2   8
HETATM    8  C9  UNL     1     -35.392  17.104  -1.779  1.00 20.00     0.060 C 
BRANCH   8   9
HETATM    9  C4  UNL     1     -34.631  16.929  -0.502  1.00 20.00    -0.033 C 
HETATM   10  C3  UNL     1     -35.041  17.403   0.680  1.00 20.00     0.007 C 
ENDBRANCH   8   9
ENDBRANCH   2   8
TORSDOF 2
ENDMDL
