MODEL 1
REMARK VINA RESULT:      -4.6      0.000      0.000
REMARK  1 active torsions:
REMARK  status: ('A' for Active; 'I' for Inactive)
REMARK    1  A    between atoms: C2_2  and  C9_9 
ROOT
HETATM    1  C1  UNL     1     -36.141  15.488  -3.279  1.00 20.00    -0.004 C 
HETATM    2  C2  UNL     1     -35.017  15.919  -2.673  1.00 20.00    -0.078 C 
HETATM    3  C3  UNL     1     -33.691  15.225  -2.905  1.00 20.00     0.034 C 
HETATM    4  C4  UNL     1     -33.683  14.275  -4.105  1.00 20.00     0.006 C 
HETATM    5  C5  UNL     1     -34.950  13.426  -4.136  1.00 20.00     0.024 C 
HETATM    6  C8  UNL     1     -36.210  14.296  -4.187  1.00 20.00     0.105 C 
HETATM    7 CL10 UNL     1     -36.496  14.882  -5.856  1.00 20.00    -0.121 Cl
ENDROOT
BRANCH   2   8
HETATM    8  C9  UNL     1     -34.975  17.092  -1.767  1.00 20.00     0.014 A 
HETATM    9  C6  UNL     1     -34.727  16.850  -0.317  1.00 20.00     0.010 A 
HETATM   10  C7  UNL     1     -33.661  17.470  -1.170  1.00 20.00     0.010 A 
ENDBRANCH   2   8
TORSDOF 1
ENDMDL
MODEL 2
REMARK VINA RESULT:      -4.5     11.587     12.312
REMARK  1 active torsions:
REMARK  status: ('A' for Active; 'I' for Inactive)
REMARK    1  A    between atoms: C2_2  and  C9_9 
ROOT
HETATM    1  C1  UNL     1     -33.036   5.718   4.827  1.00 20.00    -0.004 C 
HETATM    2  C2  UNL     1     -33.217   6.009   3.525  1.00 20.00    -0.078 C 
HETATM    3  C3  UNL     1     -34.528   5.703   2.832  1.00 20.00     0.034 C 
HETATM    4  C4  UNL     1     -35.682   5.387   3.787  1.00 20.00     0.006 C 
HETATM    5  C5  UNL     1     -35.226   4.452   4.903  1.00 20.00     0.024 C 
HETATM    6  C8  UNL     1     -34.059   5.049   5.696  1.00 20.00     0.105 C 
HETATM    7 CL10 UNL     1     -34.661   6.254   6.878  1.00 20.00    -0.121 Cl
ENDROOT
BRANCH   2   8
HETATM    8  C9  UNL     1     -32.185   6.659   2.680  1.00 20.00     0.014 A 
HETATM    9  C6  UNL     1     -32.400   8.078   2.277  1.00 20.00     0.010 A 
HETATM   10  C7  UNL     1     -31.353   7.735   3.294  1.00 20.00     0.010 A 
ENDBRANCH   2   8
TORSDOF 1
ENDMDL
MODEL 3
REMARK VINA RESULT:      -4.4     11.227     13.066
REMARK  1 active torsions:
REMARK  status: ('A' for Active; 'I' for Inactive)
REMARK    1  A    between atoms: C2_2  and  C9_9 
ROOT
HETATM    1  C1  UNL     1     -42.477   6.224  -2.502  1.00 20.00    -0.004 C 
HETATM    2  C2  UNL     1     -42.069   4.959  -2.280  1.00 20.00    -0.078 C 
HETATM    3  C3  UNL     1     -41.117   4.634  -1.148  1.00 20.00     0.034 C 
HETATM    4  C4  UNL     1     -40.964   5.756  -0.117  1.00 20.00     0.006 C 
HETATM    5  C5  UNL     1     -40.824   7.111  -0.804  1.00 20.00     0.024 C 
HETATM    6  C8  UNL     1     -42.025   7.412  -1.706  1.00 20.00     0.105 C 
HETATM    7 CL10 UNL     1     -43.411   7.989  -0.728  1.00 20.00    -0.121 Cl
ENDROOT
BRANCH   2   8
HETATM    8  C9  UNL     1     -42.518   3.800  -3.090  1.00 20.00     0.014 A 
HETATM    9  C6  UNL     1     -41.648   2.591  -3.126  1.00 20.00     0.010 A 
HETATM   10  C7  UNL     1     -42.942   2.565  -2.369  1.00 20.00     0.010 A 
ENDBRANCH   2   8
TORSDOF 1
ENDMDL
MODEL 4
REMARK VINA RESULT:      -4.4      2.829      4.591
REMARK  1 active torsions:
REMARK  status: ('A' for Active; 'I' for Inactive)
REMARK    1  A    between atoms: C2_2  and  C9_9 
ROOT
HETATM    1  C1  UNL     1     -33.676  15.855  -5.035  1.00 20.00    -0.004 C 
HETATM    2  C2  UNL     1     -34.508  15.088  -5.767  1.00 20.00    -0.078 C 
HETATM    3  C3  UNL     1     -34.855  13.680  -5.332  1.00 20.00     0.034 C 
HETATM    4  C4  UNL     1     -34.484  13.362  -3.881  1.00 20.00     0.006 C 
HETATM    5  C5  UNL     1     -33.093  13.893  -3.546  1.00 20.00     0.024 C 
HETATM    6  C8  UNL     1     -32.997  15.405  -3.775  1.00 20.00     0.105 C 
HETATM    7 CL10 UNL     1     -33.727  16.292  -2.400  1.00 20.00    -0.121 Cl
ENDROOT
BRANCH   2   8
HETATM    8  C9  UNL     1     -35.157  15.550  -7.018  1.00 20.00     0.014 A 
HETATM    9  C6  UNL     1     -35.770  14.524  -7.909  1.00 20.00     0.010 A 
HETATM   10  C7  UNL     1     -36.642  15.448  -7.115  1.00 20.00     0.010 A 
ENDBRANCH   2   8
TORSDOF 1
ENDMDL
MODEL 5
REMARK VINA RESULT:      -4.4      1.262      1.262
REMARK  1 active torsions:
REMARK  status: ('A' for Active; 'I' for Inactive)
REMARK    1  A    between atoms: C2_2  and  C9_9 
ROOT
HETATM    1  C1  UNL     1     -35.407  15.778  -4.652  1.00 20.00    -0.004 C 
HETATM    2  C2  UNL     1     -34.842  15.734  -3.430  1.00 20.00    -0.078 C 
HETATM    3  C3  UNL     1     -34.049  14.526  -2.980  1.00 20.00     0.034 C 
HETATM    4  C4  UNL     1     -33.664  13.572  -4.114  1.00 20.00     0.006 C 
HETATM    5  C5  UNL     1     -34.841  13.346  -5.058  1.00 20.00     0.024 C 
HETATM    6  C8  UNL     1     -35.348  14.663  -5.654  1.00 20.00     0.105 C 
HETATM    7 CL10 UNL     1     -34.293  15.183  -7.005  1.00 20.00    -0.121 Cl
ENDROOT
BRANCH   2   8
HETATM    8  C9  UNL     1     -34.927  16.845  -2.449  1.00 20.00     0.014 A 
HETATM    9  C6  UNL     1     -34.740  16.521  -1.006  1.00 20.00     0.010 A 
HETATM   10  C7  UNL     1     -33.674  17.262  -1.755  1.00 20.00     0.010 A 
ENDBRANCH   2   8
TORSDOF 1
ENDMDL
MODEL 6
REMARK VINA RESULT:      -4.4      1.503      2.160
REMARK  1 active torsions:
REMARK  status: ('A' for Active; 'I' for Inactive)
REMARK    1  A    between atoms: C2_2  and  C9_9 
ROOT
HETATM    1  C1  UNL     1     -34.364  15.275  -2.945  1.00 20.00    -0.004 C 
HETATM    2  C2  UNL     1     -34.259  16.442  -2.280  1.00 20.00    -0.078 C 
HETATM    3  C3  UNL     1     -33.779  17.697  -2.979  1.00 20.00     0.034 C 
HETATM    4  C4  UNL     1     -33.777  17.601  -4.507  1.00 20.00     0.006 C 
HETATM    5  C5  UNL     1     -33.208  16.262  -4.968  1.00 20.00     0.024 C 
HETATM    6  C8  UNL     1     -33.998  15.085  -4.387  1.00 20.00     0.105 C 
HETATM    7 CL10 UNL     1     -35.507  14.827  -5.317  1.00 20.00    -0.121 Cl
ENDROOT
BRANCH   2   8
HETATM    8  C9  UNL     1     -34.614  16.603  -0.849  1.00 20.00     0.014 A 
HETATM    9  C6  UNL     1     -34.009  17.741  -0.100  1.00 20.00     0.010 A 
HETATM   10  C7  UNL     1     -35.463  17.767  -0.465  1.00 20.00     0.010 A 
ENDBRANCH   2   8
TORSDOF 1
ENDMDL
MODEL 7
REMARK VINA RESULT:      -4.3      2.947      4.316
REMARK  1 active torsions:
REMARK  status: ('A' for Active; 'I' for Inactive)
REMARK    1  A    between atoms: C2_2  and  C9_9 
ROOT
HETATM    1  C1  UNL     1     -33.437  15.993  -4.986  1.00 20.00    -0.004 C 
HETATM    2  C2  UNL     1     -34.208  15.476  -5.962  1.00 20.00    -0.078 C 
HETATM    3  C3  UNL     1     -34.830  14.103  -5.820  1.00 20.00     0.034 C 
HETATM    4  C4  UNL     1     -34.800  13.546  -4.395  1.00 20.00     0.006 C 
HETATM    5  C5  UNL     1     -33.442  13.789  -3.743  1.00 20.00     0.024 C 
HETATM    6  C8  UNL     1     -33.089  15.279  -3.714  1.00 20.00     0.105 C 
HETATM    7 CL10 UNL     1     -33.942  16.095  -2.366  1.00 20.00    -0.121 Cl
ENDROOT
BRANCH   2   8
HETATM    8  C9  UNL     1     -34.527  16.196  -7.220  1.00 20.00     0.014 A 
HETATM    9  C6  UNL     1     -35.802  16.966  -7.282  1.00 20.00     0.010 A 
HETATM   10  C7  UNL     1     -34.490  17.686  -7.203  1.00 20.00     0.010 A 
ENDBRANCH   2   8
TORSDOF 1
ENDMDL
MODEL 8
REMARK VINA RESULT:      -4.2     12.481     14.416
REMARK  1 active torsions:
REMARK  status: ('A' for Active; 'I' for Inactive)
REMARK    1  A    between atoms: C2_2  and  C9_9 
ROOT
HETATM    1  C1  UNL     1     -41.140   4.174  -1.926  1.00 20.00    -0.004 C 
HETATM    2  C2  UNL     1     -42.239   3.438  -2.179  1.00 20.00    -0.078 C 
HETATM    3  C3  UNL     1     -43.397   3.405  -1.203  1.00 20.00     0.034 C 
HETATM    4  C4  UNL     1     -43.355   4.509  -0.144  1.00 20.00     0.006 C 
HETATM    5  C5  UNL     1     -41.946   4.668   0.421  1.00 20.00     0.024 C 
HETATM    6  C8  UNL     1     -40.930   4.984  -0.681  1.00 20.00     0.105 C 
HETATM    7 CL10 UNL     1     -41.009   6.719  -1.123  1.00 20.00    -0.121 Cl
ENDROOT
BRANCH   2   8
HETATM    8  C9  UNL     1     -42.419   2.634  -3.412  1.00 20.00     0.014 A 
HETATM    9  C6  UNL     1     -41.264   1.823  -3.895  1.00 20.00     0.010 A 
HETATM   10  C7  UNL     1     -42.454   1.148  -3.281  1.00 20.00     0.010 A 
ENDBRANCH   2   8
TORSDOF 1
ENDMDL
MODEL 9
REMARK VINA RESULT:      -4.1      2.093      2.635
REMARK  1 active torsions:
REMARK  status: ('A' for Active; 'I' for Inactive)
REMARK    1  A    between atoms: C2_2  and  C9_9 
ROOT
HETATM    1  C1  UNL     1     -35.299  14.360  -5.201  1.00 20.00    -0.004 C 
HETATM    2  C2  UNL     1     -34.422  15.168  -4.573  1.00 20.00    -0.078 C 
HETATM    3  C3  UNL     1     -33.619  16.194  -5.343  1.00 20.00     0.034 C 
HETATM    4  C4  UNL     1     -34.135  16.460  -6.760  1.00 20.00     0.006 C 
HETATM    5  C5  UNL     1     -34.490  15.153  -7.464  1.00 20.00     0.024 C 
HETATM    6  C8  UNL     1     -35.541  14.360  -6.681  1.00 20.00     0.105 C 
HETATM    7 CL10 UNL     1     -37.177  15.029  -6.978  1.00 20.00    -0.121 Cl
ENDROOT
BRANCH   2   8
HETATM    8  C9  UNL     1     -34.189  15.140  -3.109  1.00 20.00     0.014 A 
HETATM    9  C6  UNL     1     -33.669  16.377  -2.459  1.00 20.00     0.010 A 
HETATM   10  C7  UNL     1     -35.089  15.952  -2.240  1.00 20.00     0.010 A 
ENDBRANCH   2   8
TORSDOF 1
ENDMDL
