MODEL 1
REMARK VINA RESULT:      -4.5      0.000      0.000
REMARK  1 active torsions:
REMARK  status: ('A' for Active; 'I' for Inactive)
REMARK    1  A    between atoms: C2_2  and  C9_9 
ROOT
HETATM    1  C1  UNL     1     -35.706  14.594  -3.710  1.00 20.00    -0.004 C 
HETATM    2  C2  UNL     1     -34.753  15.171  -2.968  1.00 20.00    -0.076 C 
HETATM    3  C3  UNL     1     -33.390  14.668  -3.332  1.00 20.00     0.036 C 
HETATM    4  C4  UNL     1     -33.710  13.420  -4.159  1.00 20.00     0.028 C 
HETATM    5  C8  UNL     1     -35.135  13.616  -4.684  1.00 20.00     0.105 C 
HETATM    6 CL11 UNL     1     -35.143  14.322  -6.315  1.00 20.00    -0.121 Cl
ENDROOT
BRANCH   2   7
HETATM    7  C9  UNL     1     -34.939  16.220  -1.914  1.00 20.00     0.040 C 
HETATM    8  C5  UNL     1     -33.711  17.086  -1.726  1.00 20.00     0.037 C 
HETATM    9  C6  UNL     1     -33.880  18.154  -2.788  1.00 20.00     0.168 C 
HETATM   10  O10 UNL     1     -35.288  18.313  -3.000  1.00 20.00    -0.390 OA
HETATM   11  C7  UNL     1     -35.980  17.249  -2.327  1.00 20.00     0.176 C 
ENDBRANCH   2   7
TORSDOF 1
ENDMDL
MODEL 2
REMARK VINA RESULT:      -4.5      2.928      4.489
REMARK  1 active torsions:
REMARK  status: ('A' for Active; 'I' for Inactive)
REMARK    1  A    between atoms: C2_2  and  C9_9 
ROOT
HETATM    1  C1  UNL     1     -34.638  16.457  -1.127  1.00 20.00    -0.004 C 
HETATM    2  C2  UNL     1     -33.986  16.652  -2.281  1.00 20.00    -0.076 C 
HETATM    3  C3  UNL     1     -33.868  18.108  -2.607  1.00 20.00     0.036 C 
HETATM    4  C4  UNL     1     -34.879  18.744  -1.650  1.00 20.00     0.028 C 
HETATM    5  C8  UNL     1     -35.057  17.746  -0.502  1.00 20.00     0.105 C 
HETATM    6 CL11 UNL     1     -33.989  18.123   0.868  1.00 20.00    -0.121 Cl
ENDROOT
BRANCH   2   7
HETATM    7  C9  UNL     1     -33.390  15.604  -3.170  1.00 20.00     0.040 C 
HETATM    8  C5  UNL     1     -34.328  14.440  -3.414  1.00 20.00     0.037 C 
HETATM    9  C6  UNL     1     -35.172  14.919  -4.578  1.00 20.00     0.168 C 
HETATM   10  O10 UNL     1     -34.363  15.826  -5.335  1.00 20.00    -0.390 OA
HETATM   11  C7  UNL     1     -33.177  16.126  -4.583  1.00 20.00     0.176 C 
ENDBRANCH   2   7
TORSDOF 1
ENDMDL
MODEL 3
REMARK VINA RESULT:      -4.4      2.946      4.293
REMARK  1 active torsions:
REMARK  status: ('A' for Active; 'I' for Inactive)
REMARK    1  A    between atoms: C2_2  and  C9_9 
ROOT
HETATM    1  C1  UNL     1     -33.558  15.878  -4.809  1.00 20.00    -0.004 C 
HETATM    2  C2  UNL     1     -34.112  15.029  -5.684  1.00 20.00    -0.076 C 
HETATM    3  C3  UNL     1     -34.389  13.697  -5.057  1.00 20.00     0.036 C 
HETATM    4  C4  UNL     1     -33.573  13.763  -3.765  1.00 20.00     0.028 C 
HETATM    5  C8  UNL     1     -33.379  15.252  -3.465  1.00 20.00     0.105 C 
HETATM    6 CL11 UNL     1     -34.619  15.864  -2.348  1.00 20.00    -0.121 Cl
ENDROOT
BRANCH   2   7
HETATM    7  C9  UNL     1     -34.470  15.308  -7.111  1.00 20.00     0.040 C 
HETATM    8  C5  UNL     1     -35.621  14.456  -7.603  1.00 20.00     0.037 C 
HETATM    9  C6  UNL     1     -36.841  15.242  -7.165  1.00 20.00     0.168 C 
HETATM   10  O10 UNL     1     -36.459  16.623  -7.135  1.00 20.00    -0.390 OA
HETATM   11  C7  UNL     1     -35.032  16.711  -7.282  1.00 20.00     0.176 C 
ENDBRANCH   2   7
TORSDOF 1
ENDMDL
MODEL 4
REMARK VINA RESULT:      -4.3      2.736      4.286
REMARK  1 active torsions:
REMARK  status: ('A' for Active; 'I' for Inactive)
REMARK    1  A    between atoms: C2_2  and  C9_9 
ROOT
HETATM    1  C1  UNL     1     -33.628  16.487  -3.271  1.00 20.00    -0.004 C 
HETATM    2  C2  UNL     1     -34.865  16.001  -3.431  1.00 20.00    -0.076 C 
HETATM    3  C3  UNL     1     -35.694  16.190  -2.199  1.00 20.00     0.036 C 
HETATM    4  C4  UNL     1     -34.641  16.535  -1.143  1.00 20.00     0.028 C 
HETATM    5  C8  UNL     1     -33.434  17.075  -1.913  1.00 20.00     0.105 C 
HETATM    6 CL11 UNL     1     -33.462  18.850  -2.019  1.00 20.00    -0.121 Cl
ENDROOT
BRANCH   2   7
HETATM    7  C9  UNL     1     -35.435  15.367  -4.663  1.00 20.00     0.040 C 
HETATM    8  C5  UNL     1     -34.399  14.605  -5.463  1.00 20.00     0.037 C 
HETATM    9  C6  UNL     1     -34.385  13.244  -4.794  1.00 20.00     0.168 C 
HETATM   10  O10 UNL     1     -35.693  13.034  -4.248  1.00 20.00    -0.390 OA
HETATM   11  C7  UNL     1     -36.427  14.267  -4.317  1.00 20.00     0.176 C 
ENDBRANCH   2   7
TORSDOF 1
ENDMDL
MODEL 5
REMARK VINA RESULT:      -4.3      2.538      4.267
REMARK  1 active torsions:
REMARK  status: ('A' for Active; 'I' for Inactive)
REMARK    1  A    between atoms: C2_2  and  C9_9 
ROOT
HETATM    1  C1  UNL     1     -33.907  17.997  -2.578  1.00 20.00    -0.004 C 
HETATM    2  C2  UNL     1     -33.916  16.671  -2.391  1.00 20.00    -0.076 C 
HETATM    3  C3  UNL     1     -34.631  16.298  -1.129  1.00 20.00     0.036 C 
HETATM    4  C4  UNL     1     -34.728  17.638  -0.397  1.00 20.00     0.028 C 
HETATM    5  C8  UNL     1     -34.611  18.718  -1.476  1.00 20.00     0.105 C 
HETATM    6 CL11 UNL     1     -36.207  19.261  -2.038  1.00 20.00    -0.121 Cl
ENDROOT
BRANCH   2   7
HETATM    7  C9  UNL     1     -33.340  15.627  -3.297  1.00 20.00     0.040 C 
HETATM    8  C5  UNL     1     -34.252  14.430  -3.466  1.00 20.00     0.037 C 
HETATM    9  C6  UNL     1     -35.177  14.861  -4.587  1.00 20.00     0.168 C 
HETATM   10  O10 UNL     1     -34.443  15.779  -5.405  1.00 20.00    -0.390 OA
HETATM   11  C7  UNL     1     -33.225  16.130  -4.728  1.00 20.00     0.176 C 
ENDBRANCH   2   7
TORSDOF 1
ENDMDL
MODEL 6
REMARK VINA RESULT:      -4.3      1.270      1.703
REMARK  1 active torsions:
REMARK  status: ('A' for Active; 'I' for Inactive)
REMARK    1  A    between atoms: C2_2  and  C9_9 
ROOT
HETATM    1  C1  UNL     1     -35.481  14.920  -3.512  1.00 20.00    -0.004 C 
HETATM    2  C2  UNL     1     -34.576  15.861  -3.218  1.00 20.00    -0.076 C 
HETATM    3  C3  UNL     1     -33.184  15.401  -3.526  1.00 20.00     0.036 C 
HETATM    4  C4  UNL     1     -33.368  13.892  -3.706  1.00 20.00     0.028 C 
HETATM    5  C8  UNL     1     -34.842  13.687  -4.061  1.00 20.00     0.105 C 
HETATM    6 CL11 UNL     1     -35.091  13.615  -5.820  1.00 20.00    -0.121 Cl
ENDROOT
BRANCH   2   7
HETATM    7  C9  UNL     1     -34.840  17.234  -2.681  1.00 20.00     0.040 C 
HETATM    8  C5  UNL     1     -35.686  17.219  -1.425  1.00 20.00     0.037 C 
HETATM    9  C6  UNL     1     -34.662  17.010  -0.327  1.00 20.00     0.168 C 
HETATM   10  O10 UNL     1     -33.431  17.578  -0.790  1.00 20.00    -0.390 OA
HETATM   11  C7  UNL     1     -33.564  17.896  -2.185  1.00 20.00     0.176 C 
ENDBRANCH   2   7
TORSDOF 1
ENDMDL
MODEL 7
REMARK VINA RESULT:      -4.3      2.766      4.233
REMARK  1 active torsions:
REMARK  status: ('A' for Active; 'I' for Inactive)
REMARK    1  A    between atoms: C2_2  and  C9_9 
ROOT
HETATM    1  C1  UNL     1     -35.748  16.242  -2.401  1.00 20.00    -0.004 C 
HETATM    2  C2  UNL     1     -34.967  15.393  -3.080  1.00 20.00    -0.076 C 
HETATM    3  C3  UNL     1     -33.522  15.770  -2.974  1.00 20.00     0.036 C 
HETATM    4  C4  UNL     1     -33.593  17.198  -2.428  1.00 20.00     0.028 C 
HETATM    5  C8  UNL     1     -34.953  17.317  -1.736  1.00 20.00     0.105 C 
HETATM    6 CL11 UNL     1     -34.836  16.985   0.006  1.00 20.00    -0.121 Cl
ENDROOT
BRANCH   2   7
HETATM    7  C9  UNL     1     -35.401  14.179  -3.843  1.00 20.00     0.040 C 
HETATM    8  C5  UNL     1     -36.506  14.475  -4.835  1.00 20.00     0.037 C 
HETATM    9  C6  UNL     1     -35.749  14.948  -6.060  1.00 20.00     0.168 C 
HETATM   10  O10 UNL     1     -34.469  14.305  -6.034  1.00 20.00    -0.390 OA
HETATM   11  C7  UNL     1     -34.297  13.670  -4.757  1.00 20.00     0.176 C 
ENDBRANCH   2   7
TORSDOF 1
ENDMDL
MODEL 8
REMARK VINA RESULT:      -4.2      2.441      4.177
REMARK  1 active torsions:
REMARK  status: ('A' for Active; 'I' for Inactive)
REMARK    1  A    between atoms: C2_2  and  C9_9 
ROOT
HETATM    1  C1  UNL     1     -33.668  17.427  -3.673  1.00 20.00    -0.004 C 
HETATM    2  C2  UNL     1     -33.861  16.154  -3.304  1.00 20.00    -0.076 C 
HETATM    3  C3  UNL     1     -34.330  16.058  -1.885  1.00 20.00     0.036 C 
HETATM    4  C4  UNL     1     -34.032  17.458  -1.343  1.00 20.00     0.028 C 
HETATM    5  C8  UNL     1     -33.975  18.379  -2.564  1.00 20.00     0.105 C 
HETATM    6 CL11 UNL     1     -35.541  19.165  -2.867  1.00 20.00    -0.121 Cl
ENDROOT
BRANCH   2   7
HETATM    7  C9  UNL     1     -33.687  14.931  -4.151  1.00 20.00     0.040 C 
HETATM    8  C5  UNL     1     -34.487  13.749  -3.645  1.00 20.00     0.037 C 
HETATM    9  C6  UNL     1     -35.850  13.965  -4.274  1.00 20.00     0.168 C 
HETATM   10  O10 UNL     1     -35.636  14.676  -5.499  1.00 20.00    -0.390 OA
HETATM   11  C7  UNL     1     -34.273  15.127  -5.541  1.00 20.00     0.176 C 
ENDBRANCH   2   7
TORSDOF 1
ENDMDL
MODEL 9
REMARK VINA RESULT:      -4.1      2.255      3.251
REMARK  1 active torsions:
REMARK  status: ('A' for Active; 'I' for Inactive)
REMARK    1  A    between atoms: C2_2  and  C9_9 
ROOT
HETATM    1  C1  UNL     1     -35.910  16.059  -5.551  1.00 20.00    -0.004 C 
HETATM    2  C2  UNL     1     -35.365  14.874  -5.248  1.00 20.00    -0.076 C 
HETATM    3  C3  UNL     1     -35.083  14.067  -6.477  1.00 20.00     0.036 C 
HETATM    4  C4  UNL     1     -35.889  14.806  -7.548  1.00 20.00     0.028 C 
HETATM    5  C8  UNL     1     -36.079  16.231  -7.024  1.00 20.00     0.105 C 
HETATM    6 CL11 UNL     1     -34.829  17.332  -7.646  1.00 20.00    -0.121 Cl
ENDROOT
BRANCH   2   7
HETATM    7  C9  UNL     1     -35.018  14.361  -3.884  1.00 20.00     0.040 C 
HETATM    8  C5  UNL     1     -33.649  13.715  -3.832  1.00 20.00     0.037 C 
HETATM    9  C6  UNL     1     -32.723  14.892  -3.602  1.00 20.00     0.168 C 
HETATM   10  O10 UNL     1     -33.475  15.881  -2.888  1.00 20.00    -0.390 OA
HETATM   11  C7  UNL     1     -34.859  15.497  -2.884  1.00 20.00     0.176 C 
ENDBRANCH   2   7
TORSDOF 1
ENDMDL
