MODEL 1
REMARK VINA RESULT:      -6.8      0.000      0.000
REMARK  3 active torsions:
REMARK  status: ('A' for Active; 'I' for Inactive)
REMARK    1  A    between atoms: C4_4  and  C10_10 
REMARK    2  A    between atoms: C8_8  and  O11_11 
REMARK    3  A    between atoms: C9_9  and  C10_10 
ROOT
HETATM    1  C1  UNL     1     -32.364   9.479   0.910  1.00 20.00     0.012 C 
HETATM    2  C2  UNL     1     -32.142   8.704   1.800  1.00 20.00    -0.117 C 
HETATM    3  C9  UNL     1     -31.870   7.757   2.893  1.00 20.00     0.097 C 
ENDROOT
BRANCH   3   4
HETATM    4  C10 UNL     1     -32.606   6.440   2.704  1.00 20.00     0.046 C 
BRANCH   4   5
HETATM    5  C4  UNL     1     -33.420   6.108   3.920  1.00 20.00    -0.080 C 
HETATM    6  C3  UNL     1     -34.461   5.256   3.868  1.00 20.00     0.007 C 
HETATM    7  C8  UNL     1     -35.280   4.874   5.066  1.00 20.00     0.141 C 
HETATM    8  C7  UNL     1     -34.620   5.263   6.392  1.00 20.00     0.036 C 
HETATM    9  C6  UNL     1     -34.043   6.670   6.322  1.00 20.00     0.007 C 
HETATM   10  C5  UNL     1     -33.004   6.783   5.203  1.00 20.00     0.034 C 
BRANCH   7  11
HETATM   11  O11 UNL     1     -35.484   3.464   5.047  1.00 20.00    -0.392 OA
HETATM   12  H25 UNL     1     -35.325   3.173   4.136  1.00 20.00     0.210 HD
ENDBRANCH   7  11
ENDBRANCH   4   5
ENDBRANCH   3   4
TORSDOF 3
ENDMDL
MODEL 2
REMARK VINA RESULT:      -5.8      1.465      2.103
REMARK  3 active torsions:
REMARK  status: ('A' for Active; 'I' for Inactive)
REMARK    1  A    between atoms: C4_4  and  C10_10 
REMARK    2  A    between atoms: C8_8  and  O11_11 
REMARK    3  A    between atoms: C9_9  and  C10_10 
ROOT
HETATM    1  C1  UNL     1     -32.290   9.502   1.060  1.00 20.00     0.012 C 
HETATM    2  C2  UNL     1     -32.156   8.573   1.809  1.00 20.00    -0.117 C 
HETATM    3  C9  UNL     1     -31.989   7.437   2.728  1.00 20.00     0.097 C 
ENDROOT
BRANCH   3   4
HETATM    4  C10 UNL     1     -33.086   6.397   2.556  1.00 20.00     0.046 C 
BRANCH   4   5
HETATM    5  C4  UNL     1     -33.642   5.987   3.888  1.00 20.00    -0.080 C 
HETATM    6  C3  UNL     1     -33.242   6.566   5.035  1.00 20.00     0.007 C 
HETATM    7  C8  UNL     1     -33.796   6.207   6.382  1.00 20.00     0.141 C 
HETATM    8  C7  UNL     1     -35.083   5.383   6.301  1.00 20.00     0.036 C 
HETATM    9  C6  UNL     1     -34.967   4.291   5.246  1.00 20.00     0.007 C 
HETATM   10  C5  UNL     1     -34.676   4.888   3.866  1.00 20.00     0.034 C 
BRANCH   7  11
HETATM   11  O11 UNL     1     -34.060   7.408   7.101  1.00 20.00    -0.392 OA
HETATM   12  H25 UNL     1     -33.804   8.141   6.520  1.00 20.00     0.210 HD
ENDBRANCH   7  11
ENDBRANCH   4   5
ENDBRANCH   3   4
TORSDOF 3
ENDMDL
MODEL 3
REMARK VINA RESULT:      -5.5     11.096     12.311
REMARK  3 active torsions:
REMARK  status: ('A' for Active; 'I' for Inactive)
REMARK    1  A    between atoms: C4_4  and  C10_10 
REMARK    2  A    between atoms: C8_8  and  O11_11 
REMARK    3  A    between atoms: C9_9  and  C10_10 
ROOT
HETATM    1  C1  UNL     1     -34.442  18.087   0.765  1.00 20.00     0.012 C 
HETATM    2  C2  UNL     1     -34.584  17.329  -0.156  1.00 20.00    -0.117 C 
HETATM    3  C9  UNL     1     -34.761  16.402  -1.283  1.00 20.00     0.097 C 
ENDROOT
BRANCH   3   4
HETATM    4  C10 UNL     1     -33.637  16.520  -2.302  1.00 20.00     0.046 C 
BRANCH   4   5
HETATM    5  C4  UNL     1     -33.928  15.682  -3.512  1.00 20.00    -0.080 C 
HETATM    6  C3  UNL     1     -34.046  14.343  -3.439  1.00 20.00     0.007 C 
HETATM    7  C8  UNL     1     -34.368  13.473  -4.619  1.00 20.00     0.141 C 
HETATM    8  C7  UNL     1     -34.884  14.265  -5.823  1.00 20.00     0.036 C 
HETATM    9  C6  UNL     1     -34.053  15.520  -6.049  1.00 20.00     0.007 C 
HETATM   10  C5  UNL     1     -34.081  16.427  -4.815  1.00 20.00     0.034 C 
BRANCH   7  11
HETATM   11  O11 UNL     1     -35.358  12.526  -4.230  1.00 20.00    -0.392 OA
HETATM   12  H25 UNL     1     -36.211  12.876  -4.531  1.00 20.00     0.210 HD
ENDBRANCH   7  11
ENDBRANCH   4   5
ENDBRANCH   3   4
TORSDOF 3
ENDMDL
MODEL 4
REMARK VINA RESULT:      -5.0     11.218     11.942
REMARK  3 active torsions:
REMARK  status: ('A' for Active; 'I' for Inactive)
REMARK    1  A    between atoms: C4_4  and  C10_10 
REMARK    2  A    between atoms: C8_8  and  O11_11 
REMARK    3  A    between atoms: C9_9  and  C10_10 
ROOT
HETATM    1  C1  UNL     1     -34.092  18.735   1.294  1.00 20.00     0.012 C 
HETATM    2  C2  UNL     1     -34.377  17.864   0.519  1.00 20.00    -0.117 C 
HETATM    3  C9  UNL     1     -34.730  16.796  -0.429  1.00 20.00     0.097 C 
ENDROOT
BRANCH   3   4
HETATM    4  C10 UNL     1     -33.995  16.943  -1.753  1.00 20.00     0.046 C 
BRANCH   4   5
HETATM    5  C4  UNL     1     -34.407  15.863  -2.711  1.00 20.00    -0.080 C 
HETATM    6  C3  UNL     1     -33.503  15.139  -3.397  1.00 20.00     0.007 C 
HETATM    7  C8  UNL     1     -33.872  14.030  -4.338  1.00 20.00     0.141 C 
HETATM    8  C7  UNL     1     -35.325  13.573  -4.185  1.00 20.00     0.036 C 
HETATM    9  C6  UNL     1     -36.262  14.766  -4.062  1.00 20.00     0.007 C 
HETATM   10  C5  UNL     1     -35.891  15.634  -2.857  1.00 20.00     0.034 C 
BRANCH   7  11
HETATM   11  O11 UNL     1     -33.010  12.922  -4.097  1.00 20.00    -0.392 OA
HETATM   12  H25 UNL     1     -32.104  13.268  -4.108  1.00 20.00     0.210 HD
ENDBRANCH   7  11
ENDBRANCH   4   5
ENDBRANCH   3   4
TORSDOF 3
ENDMDL
MODEL 5
REMARK VINA RESULT:      -4.8     11.323     12.060
REMARK  3 active torsions:
REMARK  status: ('A' for Active; 'I' for Inactive)
REMARK    1  A    between atoms: C4_4  and  C10_10 
REMARK    2  A    between atoms: C8_8  and  O11_11 
REMARK    3  A    between atoms: C9_9  and  C10_10 
ROOT
HETATM    1  C1  UNL     1     -34.092  18.631   0.992  1.00 20.00     0.012 C 
HETATM    2  C2  UNL     1     -34.378  17.731   0.251  1.00 20.00    -0.117 C 
HETATM    3  C9  UNL     1     -34.731  16.627  -0.655  1.00 20.00     0.097 C 
ENDROOT
BRANCH   3   4
HETATM    4  C10 UNL     1     -33.900  16.645  -1.929  1.00 20.00     0.046 C 
BRANCH   4   5
HETATM    5  C4  UNL     1     -34.363  15.581  -2.880  1.00 20.00    -0.080 C 
HETATM    6  C3  UNL     1     -35.669  15.350  -3.107  1.00 20.00     0.007 C 
HETATM    7  C8  UNL     1     -36.173  14.319  -4.074  1.00 20.00     0.141 C 
HETATM    8  C7  UNL     1     -35.086  13.802  -5.020  1.00 20.00     0.036 C 
HETATM    9  C6  UNL     1     -33.793  13.524  -4.265  1.00 20.00     0.007 C 
HETATM   10  C5  UNL     1     -33.280  14.787  -3.568  1.00 20.00     0.034 C 
BRANCH   7  11
HETATM   11  O11 UNL     1     -37.223  14.893  -4.847  1.00 20.00    -0.392 OA
HETATM   12  H25 UNL     1     -37.954  14.255  -4.838  1.00 20.00     0.210 HD
ENDBRANCH   7  11
ENDBRANCH   4   5
ENDBRANCH   3   4
TORSDOF 3
ENDMDL
MODEL 6
REMARK VINA RESULT:      -4.7     11.172     12.390
REMARK  3 active torsions:
REMARK  status: ('A' for Active; 'I' for Inactive)
REMARK    1  A    between atoms: C4_4  and  C10_10 
REMARK    2  A    between atoms: C8_8  and  O11_11 
REMARK    3  A    between atoms: C9_9  and  C10_10 
ROOT
HETATM    1  C1  UNL     1     -35.263  14.487  -6.954  1.00 20.00     0.012 C 
HETATM    2  C2  UNL     1     -35.076  13.933  -5.905  1.00 20.00    -0.117 C 
HETATM    3  C9  UNL     1     -34.850  13.251  -4.622  1.00 20.00     0.097 C 
ENDROOT
BRANCH   3   4
HETATM    4  C10 UNL     1     -33.642  13.809  -3.884  1.00 20.00     0.046 C 
BRANCH   4   5
HETATM    5  C4  UNL     1     -33.924  15.190  -3.371  1.00 20.00    -0.080 C 
HETATM    6  C3  UNL     1     -34.758  15.409  -2.338  1.00 20.00     0.007 C 
HETATM    7  C8  UNL     1     -35.041  16.771  -1.775  1.00 20.00     0.141 C 
HETATM    8  C7  UNL     1     -34.045  17.833  -2.247  1.00 20.00     0.036 C 
HETATM    9  C6  UNL     1     -33.776  17.703  -3.740  1.00 20.00     0.007 C 
HETATM   10  C5  UNL     1     -33.217  16.319  -4.080  1.00 20.00     0.034 C 
BRANCH   7  11
HETATM   11  O11 UNL     1     -34.995  16.694  -0.353  1.00 20.00    -0.392 OA
HETATM   12  H25 UNL     1     -34.385  15.972  -0.134  1.00 20.00     0.210 HD
ENDBRANCH   7  11
ENDBRANCH   4   5
ENDBRANCH   3   4
TORSDOF 3
ENDMDL
MODEL 7
REMARK VINA RESULT:      -4.6     11.449     12.650
REMARK  3 active torsions:
REMARK  status: ('A' for Active; 'I' for Inactive)
REMARK    1  A    between atoms: C4_4  and  C10_10 
REMARK    2  A    between atoms: C8_8  and  O11_11 
REMARK    3  A    between atoms: C9_9  and  C10_10 
ROOT
HETATM    1  C1  UNL     1     -34.377  18.159   0.793  1.00 20.00     0.012 C 
HETATM    2  C2  UNL     1     -34.526  17.338  -0.070  1.00 20.00    -0.117 C 
HETATM    3  C9  UNL     1     -34.713  16.330  -1.126  1.00 20.00     0.097 C 
ENDROOT
BRANCH   3   4
HETATM    4  C10 UNL     1     -33.966  16.693  -2.400  1.00 20.00     0.046 C 
BRANCH   4   5
HETATM    5  C4  UNL     1     -34.324  15.752  -3.512  1.00 20.00    -0.080 C 
HETATM    6  C3  UNL     1     -34.349  16.147  -4.798  1.00 20.00     0.007 C 
HETATM    7  C8  UNL     1     -34.671  15.229  -5.942  1.00 20.00     0.141 C 
HETATM    8  C7  UNL     1     -34.628  13.749  -5.552  1.00 20.00     0.036 C 
HETATM    9  C6  UNL     1     -35.316  13.516  -4.214  1.00 20.00     0.007 C 
HETATM   10  C5  UNL     1     -34.653  14.337  -3.104  1.00 20.00     0.034 C 
BRANCH   7  11
HETATM   11  O11 UNL     1     -33.733  15.459  -6.988  1.00 20.00    -0.392 OA
HETATM   12  H25 UNL     1     -34.004  16.279  -7.429  1.00 20.00     0.210 HD
ENDBRANCH   7  11
ENDBRANCH   4   5
ENDBRANCH   3   4
TORSDOF 3
ENDMDL
MODEL 8
REMARK VINA RESULT:      -4.5     11.197     12.130
REMARK  3 active torsions:
REMARK  status: ('A' for Active; 'I' for Inactive)
REMARK    1  A    between atoms: C4_4  and  C10_10 
REMARK    2  A    between atoms: C8_8  and  O11_11 
REMARK    3  A    between atoms: C9_9  and  C10_10 
ROOT
HETATM    1  C1  UNL     1     -33.392  14.089  -3.641  1.00 20.00     0.012 C 
HETATM    2  C2  UNL     1     -33.742  15.151  -3.204  1.00 20.00    -0.117 C 
HETATM    3  C9  UNL     1     -34.169  16.454  -2.671  1.00 20.00     0.097 C 
ENDROOT
BRANCH   3   4
HETATM    4  C10 UNL     1     -34.923  16.314  -1.357  1.00 20.00     0.046 C 
BRANCH   4   5
HETATM    5  C4  UNL     1     -34.402  17.287  -0.340  1.00 20.00    -0.080 C 
HETATM    6  C3  UNL     1     -35.039  17.509   0.824  1.00 20.00     0.007 C 
HETATM    7  C8  UNL     1     -34.534  18.448   1.880  1.00 20.00     0.141 C 
HETATM    8  C7  UNL     1     -33.075  18.861   1.667  1.00 20.00     0.036 C 
HETATM    9  C6  UNL     1     -32.811  19.196   0.206  1.00 20.00     0.007 C 
HETATM   10  C5  UNL     1     -33.121  18.000  -0.698  1.00 20.00     0.034 C 
BRANCH   7  11
HETATM   11  O11 UNL     1     -34.655  17.814   3.150  1.00 20.00    -0.392 OA
HETATM   12  H25 UNL     1     -34.435  18.484   3.816  1.00 20.00     0.210 HD
ENDBRANCH   7  11
ENDBRANCH   4   5
ENDBRANCH   3   4
TORSDOF 3
ENDMDL
MODEL 9
REMARK VINA RESULT:      -4.5     10.176     10.961
REMARK  3 active torsions:
REMARK  status: ('A' for Active; 'I' for Inactive)
REMARK    1  A    between atoms: C4_4  and  C10_10 
REMARK    2  A    between atoms: C8_8  and  O11_11 
REMARK    3  A    between atoms: C9_9  and  C10_10 
ROOT
HETATM    1  C1  UNL     1     -41.543   9.327  -6.108  1.00 20.00     0.012 C 
HETATM    2  C2  UNL     1     -42.047   9.006  -5.067  1.00 20.00    -0.117 C 
HETATM    3  C9  UNL     1     -42.665   8.616  -3.791  1.00 20.00     0.097 C 
ENDROOT
BRANCH   3   4
HETATM    4  C10 UNL     1     -43.153   7.175  -3.809  1.00 20.00     0.046 C 
BRANCH   4   5
HETATM    5  C4  UNL     1     -42.447   6.362  -2.764  1.00 20.00    -0.080 C 
HETATM    6  C3  UNL     1     -42.591   5.027  -2.683  1.00 20.00     0.007 C 
HETATM    7  C8  UNL     1     -41.878   4.174  -1.675  1.00 20.00     0.141 C 
HETATM    8  C7  UNL     1     -40.724   4.905  -0.982  1.00 20.00     0.036 C 
HETATM    9  C6  UNL     1     -41.131   6.317  -0.586  1.00 20.00     0.007 C 
HETATM   10  C5  UNL     1     -41.564   7.129  -1.810  1.00 20.00     0.034 C 
BRANCH   7  11
HETATM   11  O11 UNL     1     -41.365   3.020  -2.334  1.00 20.00    -0.392 OA
HETATM   12  H25 UNL     1     -40.961   3.330  -3.160  1.00 20.00     0.210 HD
ENDBRANCH   7  11
ENDBRANCH   4   5
ENDBRANCH   3   4
TORSDOF 3
ENDMDL
