MODEL 1
REMARK VINA RESULT:      -6.0      0.000      0.000
REMARK  1 active torsions:
REMARK  status: ('A' for Active; 'I' for Inactive)
REMARK    1  A    between atoms: C4_4  and  C8_8 
ROOT
HETATM    1  C1  UNL     1     -32.256   8.757   1.466  1.00 20.00     0.012 C 
HETATM    2  C2  UNL     1     -32.076   7.977   2.360  1.00 20.00    -0.113 C 
HETATM    3  C8  UNL     1     -31.848   7.026   3.452  1.00 20.00     0.126 C 
ENDROOT
BRANCH   3   4
HETATM    4  C4  UNL     1     -33.125   6.372   3.836  1.00 20.00    -0.071 C 
HETATM    5  C3  UNL     1     -33.694   6.362   5.049  1.00 20.00    -0.003 C 
HETATM    6  C7  UNL     1     -34.960   5.570   5.062  1.00 20.00     0.105 C 
HETATM    7  C6  UNL     1     -35.263   5.405   3.570  1.00 20.00     0.028 C 
HETATM    8 CL9  UNL     1     -34.677   4.003   5.851  1.00 20.00    -0.121 Cl
HETATM    9  C5  UNL     1     -33.926   5.583   2.847  1.00 20.00     0.036 C 
ENDBRANCH   3   4
TORSDOF 1
ENDMDL
MODEL 2
REMARK VINA RESULT:      -4.9      2.437      4.260
REMARK  1 active torsions:
REMARK  status: ('A' for Active; 'I' for Inactive)
REMARK    1  A    between atoms: C4_4  and  C8_8 
ROOT
HETATM    1  C1  UNL     1     -35.151   4.097   6.067  1.00 20.00     0.012 C 
HETATM    2  C2  UNL     1     -34.631   5.174   5.960  1.00 20.00    -0.113 C 
HETATM    3  C8  UNL     1     -34.000   6.491   5.838  1.00 20.00     0.126 C 
ENDROOT
BRANCH   3   4
HETATM    4  C4  UNL     1     -33.301   6.604   4.532  1.00 20.00    -0.071 C 
HETATM    5  C3  UNL     1     -32.223   7.350   4.255  1.00 20.00    -0.003 C 
HETATM    6  C7  UNL     1     -31.823   7.236   2.821  1.00 20.00     0.105 C 
HETATM    7  C6  UNL     1     -32.613   6.011   2.352  1.00 20.00     0.028 C 
HETATM    8 CL9  UNL     1     -32.310   8.705   1.946  1.00 20.00    -0.121 Cl
HETATM    9  C5  UNL     1     -33.791   5.875   3.319  1.00 20.00     0.036 C 
ENDBRANCH   3   4
TORSDOF 1
ENDMDL
MODEL 3
REMARK VINA RESULT:      -4.5     11.232     11.763
REMARK  1 active torsions:
REMARK  status: ('A' for Active; 'I' for Inactive)
REMARK    1  A    between atoms: C4_4  and  C8_8 
ROOT
HETATM    1  C1  UNL     1     -34.920  17.131   0.083  1.00 20.00     0.012 C 
HETATM    2  C2  UNL     1     -34.384  16.814  -0.943  1.00 20.00    -0.113 C 
HETATM    3  C8  UNL     1     -33.722  16.431  -2.194  1.00 20.00     0.126 C 
ENDROOT
BRANCH   3   4
HETATM    4  C4  UNL     1     -34.594  15.518  -2.976  1.00 20.00    -0.071 C 
HETATM    5  C3  UNL     1     -34.261  14.325  -3.487  1.00 20.00    -0.003 C 
HETATM    6  C7  UNL     1     -35.392  13.712  -4.245  1.00 20.00     0.105 C 
HETATM    7  C6  UNL     1     -36.587  14.560  -3.802  1.00 20.00     0.028 C 
HETATM    8 CL9  UNL     1     -35.092  13.861  -5.991  1.00 20.00    -0.121 Cl
HETATM    9  C5  UNL     1     -36.003  15.889  -3.318  1.00 20.00     0.036 C 
ENDBRANCH   3   4
TORSDOF 1
ENDMDL
MODEL 4
REMARK VINA RESULT:      -4.4      2.554      4.427
REMARK  1 active torsions:
REMARK  status: ('A' for Active; 'I' for Inactive)
REMARK    1  A    between atoms: C4_4  and  C8_8 
ROOT
HETATM    1  C1  UNL     1     -34.857   4.663   5.957  1.00 20.00     0.012 C 
HETATM    2  C2  UNL     1     -34.793   4.991   4.805  1.00 20.00    -0.113 C 
HETATM    3  C8  UNL     1     -34.722   5.388   3.395  1.00 20.00     0.126 C 
ENDROOT
BRANCH   3   4
HETATM    4  C4  UNL     1     -33.588   6.324   3.184  1.00 20.00    -0.071 C 
HETATM    5  C3  UNL     1     -33.661   7.611   2.820  1.00 20.00    -0.003 C 
HETATM    6  C7  UNL     1     -32.307   8.223   2.670  1.00 20.00     0.105 C 
HETATM    7  C6  UNL     1     -31.402   7.199   3.361  1.00 20.00     0.028 C 
HETATM    8 CL9  UNL     1     -31.912   8.389   0.945  1.00 20.00    -0.121 Cl
HETATM    9  C5  UNL     1     -32.167   5.875   3.332  1.00 20.00     0.036 C 
ENDBRANCH   3   4
TORSDOF 1
ENDMDL
MODEL 5
REMARK VINA RESULT:      -4.3     11.409     11.938
REMARK  1 active torsions:
REMARK  status: ('A' for Active; 'I' for Inactive)
REMARK    1  A    between atoms: C4_4  and  C8_8 
ROOT
HETATM    1  C1  UNL     1     -32.936  18.573  -0.634  1.00 20.00     0.012 C 
HETATM    2  C2  UNL     1     -33.716  17.667  -0.743  1.00 20.00    -0.113 C 
HETATM    3  C8  UNL     1     -34.671  16.562  -0.868  1.00 20.00     0.126 C 
ENDROOT
BRANCH   3   4
HETATM    4  C4  UNL     1     -34.626  16.000  -2.243  1.00 20.00    -0.071 C 
HETATM    5  C3  UNL     1     -35.653  15.508  -2.948  1.00 20.00    -0.003 C 
HETATM    6  C7  UNL     1     -35.217  14.998  -4.282  1.00 20.00     0.105 C 
HETATM    7  C6  UNL     1     -33.814  15.595  -4.423  1.00 20.00     0.028 C 
HETATM    8 CL9  UNL     1     -35.175  13.221  -4.258  1.00 20.00    -0.121 Cl
HETATM    9  C5  UNL     1     -33.338  15.891  -2.999  1.00 20.00     0.036 C 
ENDBRANCH   3   4
TORSDOF 1
ENDMDL
MODEL 6
REMARK VINA RESULT:      -4.2     11.285     12.226
REMARK  1 active torsions:
REMARK  status: ('A' for Active; 'I' for Inactive)
REMARK    1  A    between atoms: C4_4  and  C8_8 
ROOT
HETATM    1  C1  UNL     1     -34.801  16.551  -0.951  1.00 20.00     0.012 C 
HETATM    2  C2  UNL     1     -34.103  16.371  -1.910  1.00 20.00    -0.113 C 
HETATM    3  C8  UNL     1     -33.243  16.157  -3.079  1.00 20.00     0.126 C 
ENDROOT
BRANCH   3   4
HETATM    4  C4  UNL     1     -33.919  15.261  -4.053  1.00 20.00    -0.071 C 
HETATM    5  C3  UNL     1     -34.083  15.474  -5.365  1.00 20.00    -0.003 C 
HETATM    6  C7  UNL     1     -34.844  14.366  -6.015  1.00 20.00     0.105 C 
HETATM    7  C6  UNL     1     -34.798  13.264  -4.954  1.00 20.00     0.028 C 
HETATM    8 CL9  UNL     1     -36.510  14.894  -6.340  1.00 20.00    -0.121 Cl
HETATM    9  C5  UNL     1     -34.549  13.973  -3.622  1.00 20.00     0.036 C 
ENDBRANCH   3   4
TORSDOF 1
ENDMDL
MODEL 7
REMARK VINA RESULT:      -4.1      9.365     10.546
REMARK  1 active torsions:
REMARK  status: ('A' for Active; 'I' for Inactive)
REMARK    1  A    between atoms: C4_4  and  C8_8 
ROOT
HETATM    1  C1  UNL     1     -42.041   8.900  -4.956  1.00 20.00     0.012 C 
HETATM    2  C2  UNL     1     -42.582   8.076  -4.272  1.00 20.00    -0.113 C 
HETATM    3  C8  UNL     1     -43.250   7.070  -3.441  1.00 20.00     0.126 C 
ENDROOT
BRANCH   3   4
HETATM    4  C4  UNL     1     -42.347   6.628  -2.347  1.00 20.00    -0.071 C 
HETATM    5  C3  UNL     1     -41.863   5.395  -2.148  1.00 20.00    -0.003 C 
HETATM    6  C7  UNL     1     -41.015   5.323  -0.921  1.00 20.00     0.105 C 
HETATM    7  C6  UNL     1     -40.759   6.799  -0.608  1.00 20.00     0.028 C 
HETATM    8 CL9  UNL     1     -41.916   4.521   0.384  1.00 20.00    -0.121 Cl
HETATM    9  C5  UNL     1     -41.895   7.574  -1.278  1.00 20.00     0.036 C 
ENDBRANCH   3   4
TORSDOF 1
ENDMDL
MODEL 8
REMARK VINA RESULT:      -4.1     11.269     12.070
REMARK  1 active torsions:
REMARK  status: ('A' for Active; 'I' for Inactive)
REMARK    1  A    between atoms: C4_4  and  C8_8 
ROOT
HETATM    1  C1  UNL     1     -35.238  17.531   1.002  1.00 20.00     0.012 C 
HETATM    2  C2  UNL     1     -34.477  17.543   0.074  1.00 20.00    -0.113 C 
HETATM    3  C8  UNL     1     -33.542  17.563  -1.055  1.00 20.00     0.126 C 
ENDROOT
BRANCH   3   4
HETATM    4  C4  UNL     1     -34.086  16.767  -2.185  1.00 20.00    -0.071 C 
HETATM    5  C3  UNL     1     -34.913  15.715  -2.106  1.00 20.00    -0.003 C 
HETATM    6  C7  UNL     1     -35.217  15.147  -3.453  1.00 20.00     0.105 C 
HETATM    7  C6  UNL     1     -34.734  16.252  -4.396  1.00 20.00     0.028 C 
HETATM    8 CL9  UNL     1     -34.305  13.639  -3.686  1.00 20.00    -0.121 Cl
HETATM    9  C5  UNL     1     -33.708  17.063  -3.603  1.00 20.00     0.036 C 
ENDBRANCH   3   4
TORSDOF 1
ENDMDL
MODEL 9
REMARK VINA RESULT:      -4.0      9.683     10.934
REMARK  1 active torsions:
REMARK  status: ('A' for Active; 'I' for Inactive)
REMARK    1  A    between atoms: C4_4  and  C8_8 
ROOT
HETATM    1  C1  UNL     1     -41.661   2.536  -3.208  1.00 20.00     0.012 C 
HETATM    2  C2  UNL     1     -41.319   3.359  -2.404  1.00 20.00    -0.113 C 
HETATM    3  C8  UNL     1     -40.896   4.358  -1.418  1.00 20.00     0.126 C 
ENDROOT
BRANCH   3   4
HETATM    4  C4  UNL     1     -41.561   5.658  -1.690  1.00 20.00    -0.071 C 
HETATM    5  C3  UNL     1     -42.559   5.890  -2.553  1.00 20.00    -0.003 C 
HETATM    6  C7  UNL     1     -42.945   7.332  -2.582  1.00 20.00     0.105 C 
HETATM    7  C6  UNL     1     -42.267   7.882  -1.324  1.00 20.00     0.028 C 
HETATM    8 CL9  UNL     1     -42.308   8.092  -4.057  1.00 20.00    -0.121 Cl
HETATM    9  C5  UNL     1     -41.122   6.917  -1.008  1.00 20.00     0.036 C 
ENDBRANCH   3   4
TORSDOF 1
ENDMDL
