MODEL 1
REMARK VINA RESULT:      -4.8      0.000      0.000
REMARK  4 active torsions:
REMARK  status: ('A' for Active; 'I' for Inactive)
REMARK    1  A    between atoms: C2_2  and  C8_8 
REMARK    2  A    between atoms: C8_8  and  C11_11 
REMARK    3  A    between atoms: C9_9  and  C10_10 
REMARK    4  A    between atoms: C10_10  and  C11_11 
ROOT
HETATM    1  C1  UNL     1     -35.259  15.166  -3.575  1.00 20.00    -0.004 C 
HETATM    2  C2  UNL     1     -34.157  15.852  -3.250  1.00 20.00    -0.082 C 
HETATM    3  C3  UNL     1     -32.914  15.068  -3.539  1.00 20.00     0.036 C 
HETATM    4  C4  UNL     1     -33.458  13.652  -3.744  1.00 20.00     0.028 C 
HETATM    5  C5  UNL     1     -34.930  13.819  -4.130  1.00 20.00     0.105 C 
HETATM    6 CL12 UNL     1     -35.150  13.828  -5.894  1.00 20.00    -0.121 Cl
ENDROOT
BRANCH   2   7
HETATM    7  C8  UNL     1     -34.090  17.231  -2.703  1.00 20.00     0.038 C 
BRANCH   7   8
HETATM    8  C11 UNL     1     -33.640  17.322  -1.231  1.00 20.00    -0.015 C 
HETATM    9  C7  UNL     1     -34.776  16.926  -0.279  1.00 20.00     0.010 C 
BRANCH   8  10
HETATM   10  C10 UNL     1     -33.082  18.704  -0.827  1.00 20.00     0.004 C 
BRANCH  10  11
HETATM   11  C9  UNL     1     -33.094  18.949   0.683  1.00 20.00    -0.004 C 
HETATM   12  C6  UNL     1     -31.683  19.086   1.233  1.00 20.00     0.005 C 
ENDBRANCH  10  11
ENDBRANCH   8  10
ENDBRANCH   7   8
ENDBRANCH   2   7
TORSDOF 4
ENDMDL
MODEL 2
REMARK VINA RESULT:      -4.7      2.986      5.831
REMARK  4 active torsions:
REMARK  status: ('A' for Active; 'I' for Inactive)
REMARK    1  A    between atoms: C2_2  and  C8_8 
REMARK    2  A    between atoms: C8_8  and  C11_11 
REMARK    3  A    between atoms: C9_9  and  C10_10 
REMARK    4  A    between atoms: C10_10  and  C11_11 
ROOT
HETATM    1  C1  UNL     1     -35.281  17.613   0.409  1.00 20.00    -0.004 C 
HETATM    2  C2  UNL     1     -34.401  17.266  -0.538  1.00 20.00    -0.082 C 
HETATM    3  C3  UNL     1     -33.150  18.084  -0.452  1.00 20.00     0.036 C 
HETATM    4  C4  UNL     1     -33.569  19.233   0.468  1.00 20.00     0.028 C 
HETATM    5  C5  UNL     1     -34.760  18.712   1.275  1.00 20.00     0.105 C 
HETATM    6 CL12 UNL     1     -34.252  18.050   2.844  1.00 20.00    -0.121 Cl
ENDROOT
BRANCH   2   7
HETATM    7  C8  UNL     1     -34.556  16.197  -1.556  1.00 20.00     0.038 C 
BRANCH   7   8
HETATM    8  C11 UNL     1     -33.749  16.414  -2.851  1.00 20.00    -0.015 C 
HETATM    9  C7  UNL     1     -34.516  17.299  -3.842  1.00 20.00     0.010 C 
BRANCH   8  10
HETATM   10  C10 UNL     1     -33.317  15.107  -3.551  1.00 20.00     0.004 C 
BRANCH  10  11
HETATM   11  C9  UNL     1     -34.368  13.997  -3.476  1.00 20.00    -0.004 C 
HETATM   12  C6  UNL     1     -34.531  13.297  -4.816  1.00 20.00     0.005 C 
ENDBRANCH  10  11
ENDBRANCH   8  10
ENDBRANCH   7   8
ENDBRANCH   2   7
TORSDOF 4
ENDMDL
MODEL 3
REMARK VINA RESULT:      -4.7      1.367      2.817
REMARK  4 active torsions:
REMARK  status: ('A' for Active; 'I' for Inactive)
REMARK    1  A    between atoms: C2_2  and  C8_8 
REMARK    2  A    between atoms: C8_8  and  C11_11 
REMARK    3  A    between atoms: C9_9  and  C10_10 
REMARK    4  A    between atoms: C10_10  and  C11_11 
ROOT
HETATM    1  C1  UNL     1     -35.829  14.629  -3.820  1.00 20.00    -0.004 C 
HETATM    2  C2  UNL     1     -34.749  14.972  -3.107  1.00 20.00    -0.082 C 
HETATM    3  C3  UNL     1     -33.510  14.317  -3.636  1.00 20.00     0.036 C 
HETATM    4  C4  UNL     1     -34.077  13.232  -4.555  1.00 20.00     0.028 C 
HETATM    5  C5  UNL     1     -35.485  13.695  -4.934  1.00 20.00     0.105 C 
HETATM    6 CL12 UNL     1     -35.494  14.575  -6.478  1.00 20.00    -0.121 Cl
ENDROOT
BRANCH   2   7
HETATM    7  C8  UNL     1     -34.697  15.901  -1.951  1.00 20.00     0.038 C 
BRANCH   7   8
HETATM    8  C11 UNL     1     -33.844  17.166  -2.175  1.00 20.00    -0.015 C 
HETATM    9  C7  UNL     1     -33.520  17.859  -0.845  1.00 20.00     0.010 C 
BRANCH   8  10
HETATM   10  C10 UNL     1     -34.471  18.184  -3.151  1.00 20.00     0.004 C 
BRANCH  10  11
HETATM   11  C9  UNL     1     -33.537  18.588  -4.294  1.00 20.00    -0.004 C 
HETATM   12  C6  UNL     1     -33.571  17.569  -5.423  1.00 20.00     0.005 C 
ENDBRANCH  10  11
ENDBRANCH   8  10
ENDBRANCH   7   8
ENDBRANCH   2   7
TORSDOF 4
ENDMDL
MODEL 4
REMARK VINA RESULT:      -4.6      1.296      1.706
REMARK  4 active torsions:
REMARK  status: ('A' for Active; 'I' for Inactive)
REMARK    1  A    between atoms: C2_2  and  C8_8 
REMARK    2  A    between atoms: C8_8  and  C11_11 
REMARK    3  A    between atoms: C9_9  and  C10_10 
REMARK    4  A    between atoms: C10_10  and  C11_11 
ROOT
HETATM    1  C1  UNL     1     -35.128  15.486  -4.597  1.00 20.00    -0.004 C 
HETATM    2  C2  UNL     1     -34.224  15.234  -3.642  1.00 20.00    -0.082 C 
HETATM    3  C3  UNL     1     -33.603  13.883  -3.815  1.00 20.00     0.036 C 
HETATM    4  C4  UNL     1     -34.548  13.210  -4.814  1.00 20.00     0.028 C 
HETATM    5  C5  UNL     1     -35.254  14.347  -5.555  1.00 20.00     0.105 C 
HETATM    6 CL12 UNL     1     -34.429  14.752  -7.077  1.00 20.00    -0.121 Cl
ENDROOT
BRANCH   2   7
HETATM    7  C8  UNL     1     -33.809  16.140  -2.541  1.00 20.00     0.038 C 
BRANCH   7   8
HETATM    8  C11 UNL     1     -34.972  16.808  -1.780  1.00 20.00    -0.015 C 
HETATM    9  C7  UNL     1     -35.294  18.190  -2.362  1.00 20.00     0.010 C 
BRANCH   8  10
HETATM   10  C10 UNL     1     -34.742  16.926  -0.258  1.00 20.00     0.004 C 
BRANCH  10  11
HETATM   11  C9  UNL     1     -33.821  18.084   0.133  1.00 20.00    -0.004 C 
HETATM   12  C6  UNL     1     -34.005  18.470   1.592  1.00 20.00     0.005 C 
ENDBRANCH  10  11
ENDBRANCH   8  10
ENDBRANCH   7   8
ENDBRANCH   2   7
TORSDOF 4
ENDMDL
MODEL 5
REMARK VINA RESULT:      -4.6      2.325      3.546
REMARK  4 active torsions:
REMARK  status: ('A' for Active; 'I' for Inactive)
REMARK    1  A    between atoms: C2_2  and  C8_8 
REMARK    2  A    between atoms: C8_8  and  C11_11 
REMARK    3  A    between atoms: C9_9  and  C10_10 
REMARK    4  A    between atoms: C10_10  and  C11_11 
ROOT
HETATM    1  C1  UNL     1     -35.903  15.741  -5.557  1.00 20.00    -0.004 C 
HETATM    2  C2  UNL     1     -34.583  15.674  -5.772  1.00 20.00    -0.082 C 
HETATM    3  C3  UNL     1     -34.274  15.071  -7.108  1.00 20.00     0.036 C 
HETATM    4  C4  UNL     1     -35.613  14.446  -7.506  1.00 20.00     0.028 C 
HETATM    5  C5  UNL     1     -36.682  15.197  -6.709  1.00 20.00     0.105 C 
HETATM    6 CL12 UNL     1     -37.380  16.536  -7.646  1.00 20.00    -0.121 Cl
ENDROOT
BRANCH   2   7
HETATM    7  C8  UNL     1     -33.503  16.146  -4.869  1.00 20.00     0.038 C 
BRANCH   7   8
HETATM    8  C11 UNL     1     -33.365  15.352  -3.555  1.00 20.00    -0.015 C 
HETATM    9  C7  UNL     1     -33.447  13.841  -3.809  1.00 20.00     0.010 C 
BRANCH   8  10
HETATM   10  C10 UNL     1     -34.385  15.751  -2.468  1.00 20.00     0.004 C 
BRANCH  10  11
HETATM   11  C9  UNL     1     -33.888  16.862  -1.541  1.00 20.00    -0.004 C 
HETATM   12  C6  UNL     1     -34.770  16.994  -0.310  1.00 20.00     0.005 C 
ENDBRANCH  10  11
ENDBRANCH   8  10
ENDBRANCH   7   8
ENDBRANCH   2   7
TORSDOF 4
ENDMDL
MODEL 6
REMARK VINA RESULT:      -4.5      2.761      5.377
REMARK  4 active torsions:
REMARK  status: ('A' for Active; 'I' for Inactive)
REMARK    1  A    between atoms: C2_2  and  C8_8 
REMARK    2  A    between atoms: C8_8  and  C11_11 
REMARK    3  A    between atoms: C9_9  and  C10_10 
REMARK    4  A    between atoms: C10_10  and  C11_11 
ROOT
HETATM    1  C1  UNL     1     -34.716  16.086  -1.833  1.00 20.00    -0.004 C 
HETATM    2  C2  UNL     1     -34.209  15.570  -2.959  1.00 20.00    -0.082 C 
HETATM    3  C3  UNL     1     -33.582  16.626  -3.815  1.00 20.00     0.036 C 
HETATM    4  C4  UNL     1     -34.121  17.917  -3.195  1.00 20.00     0.028 C 
HETATM    5  C5  UNL     1     -34.508  17.563  -1.757  1.00 20.00     0.105 C 
HETATM    6 CL12 UNL     1     -33.196  17.926  -0.615  1.00 20.00    -0.121 Cl
ENDROOT
BRANCH   2   7
HETATM    7  C8  UNL     1     -34.199  14.142  -3.364  1.00 20.00     0.038 C 
BRANCH   7   8
HETATM    8  C11 UNL     1     -35.338  13.731  -4.317  1.00 20.00    -0.015 C 
HETATM    9  C7  UNL     1     -34.933  13.930  -5.784  1.00 20.00     0.010 C 
BRANCH   8  10
HETATM   10  C10 UNL     1     -36.677  14.450  -4.047  1.00 20.00     0.004 C 
BRANCH  10  11
HETATM   11  C9  UNL     1     -37.131  15.349  -5.199  1.00 20.00    -0.004 C 
HETATM   12  C6  UNL     1     -37.302  16.790  -4.743  1.00 20.00     0.005 C 
ENDBRANCH  10  11
ENDBRANCH   8  10
ENDBRANCH   7   8
ENDBRANCH   2   7
TORSDOF 4
ENDMDL
MODEL 7
REMARK VINA RESULT:      -4.5      2.868      5.671
REMARK  4 active torsions:
REMARK  status: ('A' for Active; 'I' for Inactive)
REMARK    1  A    between atoms: C2_2  and  C8_8 
REMARK    2  A    between atoms: C8_8  and  C11_11 
REMARK    3  A    between atoms: C9_9  and  C10_10 
REMARK    4  A    between atoms: C10_10  and  C11_11 
ROOT
HETATM    1  C1  UNL     1     -34.683  16.663  -0.835  1.00 20.00    -0.004 C 
HETATM    2  C2  UNL     1     -34.046  16.815  -2.003  1.00 20.00    -0.082 C 
HETATM    3  C3  UNL     1     -33.792  18.259  -2.306  1.00 20.00     0.036 C 
HETATM    4  C4  UNL     1     -34.708  18.973  -1.310  1.00 20.00     0.028 C 
HETATM    5  C5  UNL     1     -34.953  17.975  -0.176  1.00 20.00     0.105 C 
HETATM    6 CL12 UNL     1     -33.816  18.216   1.169  1.00 20.00    -0.121 Cl
ENDROOT
BRANCH   2   7
HETATM    7  C8  UNL     1     -33.588  15.741  -2.919  1.00 20.00     0.038 C 
BRANCH   7   8
HETATM    8  C11 UNL     1     -34.718  14.913  -3.563  1.00 20.00    -0.015 C 
HETATM    9  C7  UNL     1     -34.273  13.467  -3.814  1.00 20.00     0.010 C 
BRANCH   8  10
HETATM   10  C10 UNL     1     -35.275  15.518  -4.870  1.00 20.00     0.004 C 
BRANCH  10  11
HETATM   11  C9  UNL     1     -34.200  15.790  -5.925  1.00 20.00    -0.004 C 
HETATM   12  C6  UNL     1     -34.463  15.003  -7.199  1.00 20.00     0.005 C 
ENDBRANCH  10  11
ENDBRANCH   8  10
ENDBRANCH   7   8
ENDBRANCH   2   7
TORSDOF 4
ENDMDL
MODEL 8
REMARK VINA RESULT:      -4.5      2.420      3.707
REMARK  4 active torsions:
REMARK  status: ('A' for Active; 'I' for Inactive)
REMARK    1  A    between atoms: C2_2  and  C8_8 
REMARK    2  A    between atoms: C8_8  and  C11_11 
REMARK    3  A    between atoms: C9_9  and  C10_10 
REMARK    4  A    between atoms: C10_10  and  C11_11 
ROOT
HETATM    1  C1  UNL     1     -34.077  15.989  -6.297  1.00 20.00    -0.004 C 
HETATM    2  C2  UNL     1     -33.480  16.409  -5.174  1.00 20.00    -0.082 C 
HETATM    3  C3  UNL     1     -33.519  17.901  -5.055  1.00 20.00     0.036 C 
HETATM    4  C4  UNL     1     -33.908  18.335  -6.470  1.00 20.00     0.028 C 
HETATM    5  C5  UNL     1     -34.607  17.129  -7.102  1.00 20.00     0.105 C 
HETATM    6 CL12 UNL     1     -36.372  17.223  -6.920  1.00 20.00    -0.121 Cl
ENDROOT
BRANCH   2   7
HETATM    7  C8  UNL     1     -32.868  15.565  -4.117  1.00 20.00     0.038 C 
BRANCH   7   8
HETATM    8  C11 UNL     1     -33.869  14.938  -3.127  1.00 20.00    -0.015 C 
HETATM    9  C7  UNL     1     -34.553  13.707  -3.734  1.00 20.00     0.010 C 
BRANCH   8  10
HETATM   10  C10 UNL     1     -34.939  15.921  -2.606  1.00 20.00     0.004 C 
BRANCH  10  11
HETATM   11  C9  UNL     1     -34.679  16.407  -1.178  1.00 20.00    -0.004 C 
HETATM   12  C6  UNL     1     -33.664  17.539  -1.154  1.00 20.00     0.005 C 
ENDBRANCH  10  11
ENDBRANCH   8  10
ENDBRANCH   7   8
ENDBRANCH   2   7
TORSDOF 4
ENDMDL
MODEL 9
REMARK VINA RESULT:      -4.4     10.967     12.231
REMARK  4 active torsions:
REMARK  status: ('A' for Active; 'I' for Inactive)
REMARK    1  A    between atoms: C2_2  and  C8_8 
REMARK    2  A    between atoms: C8_8  and  C11_11 
REMARK    3  A    between atoms: C9_9  and  C10_10 
REMARK    4  A    between atoms: C10_10  and  C11_11 
ROOT
HETATM    1  C1  UNL     1     -34.981   5.233   4.304  1.00 20.00    -0.004 C 
HETATM    2  C2  UNL     1     -34.302   6.370   4.495  1.00 20.00    -0.082 C 
HETATM    3  C3  UNL     1     -33.877   6.524   5.923  1.00 20.00     0.036 C 
HETATM    4  C4  UNL     1     -34.733   5.475   6.637  1.00 20.00     0.028 C 
HETATM    5  C5  UNL     1     -35.118   4.450   5.569  1.00 20.00     0.105 C 
HETATM    6 CL12 UNL     1     -33.996   3.072   5.544  1.00 20.00    -0.121 Cl
ENDROOT
BRANCH   2   7
HETATM    7  C8  UNL     1     -33.944   7.382   3.470  1.00 20.00     0.038 C 
BRANCH   7   8
HETATM    8  C11 UNL     1     -32.728   7.016   2.595  1.00 20.00    -0.015 C 
HETATM    9  C7  UNL     1     -31.938   5.850   3.203  1.00 20.00     0.010 C 
BRANCH   8  10
HETATM   10  C10 UNL     1     -31.775   8.197   2.315  1.00 20.00     0.004 C 
BRANCH  10  11
HETATM   11  C9  UNL     1     -32.454   9.378   1.616  1.00 20.00    -0.004 C 
HETATM   12  C6  UNL     1     -32.532   9.162   0.113  1.00 20.00     0.005 C 
ENDBRANCH  10  11
ENDBRANCH   8  10
ENDBRANCH   7   8
ENDBRANCH   2   7
TORSDOF 4
ENDMDL
