MODEL 1
REMARK VINA RESULT:      -5.0      0.000      0.000
REMARK  1 active torsions:
REMARK  status: ('A' for Active; 'I' for Inactive)
REMARK    1  A    between atoms: C3_3  and  C5_5 
ROOT
HETATM    1  C1  UNL     1     -34.047  18.641  -0.782  1.00 20.00     0.109 A 
HETATM    2  C2  UNL     1     -34.480  17.800   0.205  1.00 20.00     0.107 A 
HETATM    3  C3  UNL     1     -34.594  16.711  -1.718  1.00 20.00     0.113 A 
HETATM    4  C10 UNL     1     -33.760  18.464  -3.263  1.00 20.00     0.157 C 
HETATM    5  N11 UNL     1     -34.127  17.940  -1.961  1.00 20.00    -0.346 N 
HETATM    6  N12 UNL     1     -34.812  16.614  -0.404  1.00 20.00    -0.350 N 
HETATM    7  H27 UNL     1     -35.169  15.790   0.075  1.00 20.00     0.166 HD
ENDROOT
BRANCH   3   8
HETATM    8  C5  UNL     1     -34.834  15.633  -2.709  1.00 20.00    -0.016 C 
HETATM    9  C4  UNL     1     -36.070  15.403  -3.196  1.00 20.00     0.004 C 
HETATM   10  C9  UNL     1     -36.392  14.322  -4.187  1.00 20.00     0.105 C 
HETATM   11  C8  UNL     1     -35.257  13.310  -4.373  1.00 20.00     0.024 C 
HETATM   12 CL13 UNL     1     -36.788  15.105  -5.750  1.00 20.00    -0.121 Cl
HETATM   13  C7  UNL     1     -33.894  13.995  -4.417  1.00 20.00     0.006 C 
HETATM   14  C6  UNL     1     -33.648  14.797  -3.136  1.00 20.00     0.042 C 
ENDBRANCH   3   8
TORSDOF 1
ENDMDL
MODEL 2
REMARK VINA RESULT:      -4.6      2.890      4.832
REMARK  1 active torsions:
REMARK  status: ('A' for Active; 'I' for Inactive)
REMARK    1  A    between atoms: C3_3  and  C5_5 
ROOT
HETATM    1  C1  UNL     1     -34.375  14.477  -5.583  1.00 20.00     0.109 A 
HETATM    2  C2  UNL     1     -35.282  13.646  -4.989  1.00 20.00     0.107 A 
HETATM    3  C3  UNL     1     -35.055  15.436  -3.708  1.00 20.00     0.113 A 
HETATM    4  C10 UNL     1     -33.389  16.712  -5.031  1.00 20.00     0.157 C 
HETATM    5  N11 UNL     1     -34.255  15.578  -4.769  1.00 20.00    -0.346 N 
HETATM    6  N12 UNL     1     -35.686  14.264  -3.831  1.00 20.00    -0.350 N 
HETATM    7  H27 UNL     1     -36.360  13.887  -3.169  1.00 20.00     0.166 HD
ENDROOT
BRANCH   3   8
HETATM    8  C5  UNL     1     -35.230  16.390  -2.585  1.00 20.00    -0.016 C 
HETATM    9  C4  UNL     1     -34.505  16.270  -1.456  1.00 20.00     0.004 C 
HETATM   10  C9  UNL     1     -34.638  17.187  -0.273  1.00 20.00     0.105 C 
HETATM   11  C8  UNL     1     -35.875  18.087  -0.338  1.00 20.00     0.024 C 
HETATM   12 CL13 UNL     1     -33.150  18.183  -0.176  1.00 20.00    -0.121 Cl
HETATM   13  C7  UNL     1     -36.103  18.631  -1.746  1.00 20.00     0.006 C 
HETATM   14  C6  UNL     1     -36.260  17.486  -2.751  1.00 20.00     0.042 C 
ENDBRANCH   3   8
TORSDOF 1
ENDMDL
MODEL 3
REMARK VINA RESULT:      -4.6      2.761      4.963
REMARK  1 active torsions:
REMARK  status: ('A' for Active; 'I' for Inactive)
REMARK    1  A    between atoms: C3_3  and  C5_5 
ROOT
HETATM    1  C1  UNL     1     -35.138  13.291  -4.374  1.00 20.00     0.109 A 
HETATM    2  C2  UNL     1     -33.789  13.342  -4.168  1.00 20.00     0.107 A 
HETATM    3  C3  UNL     1     -34.687  15.151  -3.262  1.00 20.00     0.113 A 
HETATM    4  C10 UNL     1     -37.079  14.763  -3.793  1.00 20.00     0.157 C 
HETATM    5  N11 UNL     1     -35.669  14.422  -3.802  1.00 20.00    -0.346 N 
HETATM    6  N12 UNL     1     -33.538  14.504  -3.478  1.00 20.00    -0.350 N 
HETATM    7  H27 UNL     1     -32.619  14.821  -3.180  1.00 20.00     0.166 HD
ENDROOT
BRANCH   3   8
HETATM    8  C5  UNL     1     -34.821  16.445  -2.549  1.00 20.00    -0.016 C 
HETATM    9  C4  UNL     1     -34.792  16.499  -1.203  1.00 20.00     0.004 C 
HETATM   10  C9  UNL     1     -34.937  17.768  -0.412  1.00 20.00     0.105 C 
HETATM   11  C8  UNL     1     -35.418  18.955  -1.251  1.00 20.00     0.024 C 
HETATM   12 CL13 UNL     1     -33.349  18.138   0.335  1.00 20.00    -0.121 Cl
HETATM   13  C7  UNL     1     -34.741  18.989  -2.619  1.00 20.00     0.006 C 
HETATM   14  C6  UNL     1     -35.004  17.690  -3.387  1.00 20.00     0.042 C 
ENDBRANCH   3   8
TORSDOF 1
ENDMDL
MODEL 4
REMARK VINA RESULT:      -4.5      3.309      5.141
REMARK  1 active torsions:
REMARK  status: ('A' for Active; 'I' for Inactive)
REMARK    1  A    between atoms: C3_3  and  C5_5 
ROOT
HETATM    1  C1  UNL     1     -38.825  15.194  -6.369  1.00 20.00     0.109 A 
HETATM    2  C2  UNL     1     -38.056  15.367  -7.485  1.00 20.00     0.107 A 
HETATM    3  C3  UNL     1     -36.701  15.173  -5.747  1.00 20.00     0.113 A 
HETATM    4  C10 UNL     1     -38.362  14.876  -3.928  1.00 20.00     0.157 C 
HETATM    5  N11 UNL     1     -37.960  15.075  -5.307  1.00 20.00    -0.346 N 
HETATM    6  N12 UNL     1     -36.746  15.350  -7.070  1.00 20.00    -0.350 N 
HETATM    7  H27 UNL     1     -35.938  15.457  -7.678  1.00 20.00     0.166 HD
ENDROOT
BRANCH   3   8
HETATM    8  C5  UNL     1     -35.461  15.100  -4.934  1.00 20.00    -0.016 C 
HETATM    9  C4  UNL     1     -35.014  16.176  -4.257  1.00 20.00     0.004 C 
HETATM   10  C9  UNL     1     -33.761  16.182  -3.427  1.00 20.00     0.105 C 
HETATM   11  C8  UNL     1     -32.876  14.954  -3.655  1.00 20.00     0.024 C 
HETATM   12 CL13 UNL     1     -34.241  16.291  -1.703  1.00 20.00    -0.121 Cl
HETATM   13  C7  UNL     1     -33.703  13.676  -3.766  1.00 20.00     0.006 C 
HETATM   14  C6  UNL     1     -34.717  13.783  -4.909  1.00 20.00     0.042 C 
ENDBRANCH   3   8
TORSDOF 1
ENDMDL
MODEL 5
REMARK VINA RESULT:      -4.5      1.590      2.108
REMARK  1 active torsions:
REMARK  status: ('A' for Active; 'I' for Inactive)
REMARK    1  A    between atoms: C3_3  and  C5_5 
ROOT
HETATM    1  C1  UNL     1     -34.129  18.820   0.256  1.00 20.00     0.109 A 
HETATM    2  C2  UNL     1     -34.764  17.840   0.964  1.00 20.00     0.107 A 
HETATM    3  C3  UNL     1     -34.585  17.159  -1.134  1.00 20.00     0.113 A 
HETATM    4  C10 UNL     1     -33.417  19.109  -2.128  1.00 20.00     0.157 C 
HETATM    5  N11 UNL     1     -34.030  18.372  -1.039  1.00 20.00    -0.346 N 
HETATM    6  N12 UNL     1     -35.036  16.824   0.079  1.00 20.00    -0.350 N 
HETATM    7  H27 UNL     1     -35.507  15.954   0.312  1.00 20.00     0.166 HD
ENDROOT
BRANCH   3   8
HETATM    8  C5  UNL     1     -34.695  16.317  -2.351  1.00 20.00    -0.016 C 
HETATM    9  C4  UNL     1     -33.594  15.824  -2.953  1.00 20.00     0.004 C 
HETATM   10  C9  UNL     1     -33.626  14.979  -4.194  1.00 20.00     0.105 C 
HETATM   11  C8  UNL     1     -34.990  14.971  -4.889  1.00 20.00     0.024 C 
HETATM   12 CL13 UNL     1     -33.152  13.310  -3.739  1.00 20.00    -0.121 Cl
HETATM   13  C7  UNL     1     -36.135  14.881  -3.883  1.00 20.00     0.006 C 
HETATM   14  C6  UNL     1     -36.081  16.049  -2.894  1.00 20.00     0.042 C 
ENDBRANCH   3   8
TORSDOF 1
ENDMDL
MODEL 6
REMARK VINA RESULT:      -4.5      3.126      4.687
REMARK  1 active torsions:
REMARK  status: ('A' for Active; 'I' for Inactive)
REMARK    1  A    between atoms: C3_3  and  C5_5 
ROOT
HETATM    1  C1  UNL     1     -39.348  15.077  -5.387  1.00 20.00     0.109 A 
HETATM    2  C2  UNL     1     -39.604  14.950  -4.051  1.00 20.00     0.107 A 
HETATM    3  C3  UNL     1     -37.411  15.084  -4.315  1.00 20.00     0.113 A 
HETATM    4  C10 UNL     1     -37.281  15.304  -6.783  1.00 20.00     0.157 C 
HETATM    5  N11 UNL     1     -37.983  15.159  -5.522  1.00 20.00    -0.346 N 
HETATM    6  N12 UNL     1     -38.388  14.956  -3.412  1.00 20.00    -0.350 N 
HETATM    7  H27 UNL     1     -38.253  14.876  -2.407  1.00 20.00     0.166 HD
ENDROOT
BRANCH   3   8
HETATM    8  C5  UNL     1     -35.960  15.131  -4.008  1.00 20.00    -0.016 C 
HETATM    9  C4  UNL     1     -35.364  16.287  -3.657  1.00 20.00     0.004 C 
HETATM   10  C9  UNL     1     -33.900  16.414  -3.347  1.00 20.00     0.105 C 
HETATM   11  C8  UNL     1     -33.084  15.183  -3.752  1.00 20.00     0.024 C 
HETATM   12 CL13 UNL     1     -33.732  16.720  -1.589  1.00 20.00    -0.121 Cl
HETATM   13  C7  UNL     1     -33.818  13.887  -3.419  1.00 20.00     0.006 C 
HETATM   14  C6  UNL     1     -35.180  13.839  -4.117  1.00 20.00     0.042 C 
ENDBRANCH   3   8
TORSDOF 1
ENDMDL
MODEL 7
REMARK VINA RESULT:      -4.4      1.883      1.997
REMARK  1 active torsions:
REMARK  status: ('A' for Active; 'I' for Inactive)
REMARK    1  A    between atoms: C3_3  and  C5_5 
ROOT
HETATM    1  C1  UNL     1     -36.151  18.990  -2.149  1.00 20.00     0.109 A 
HETATM    2  C2  UNL     1     -37.267  18.273  -1.822  1.00 20.00     0.107 A 
HETATM    3  C3  UNL     1     -35.939  16.964  -3.013  1.00 20.00     0.113 A 
HETATM    4  C10 UNL     1     -34.054  18.520  -3.435  1.00 20.00     0.157 C 
HETATM    5  N11 UNL     1     -35.346  18.155  -2.885  1.00 20.00    -0.346 N 
HETATM    6  N12 UNL     1     -37.109  17.023  -2.371  1.00 20.00    -0.350 N 
HETATM    7  H27 UNL     1     -37.780  16.263  -2.298  1.00 20.00     0.166 HD
ENDROOT
BRANCH   3   8
HETATM    8  C5  UNL     1     -35.416  15.776  -3.733  1.00 20.00    -0.016 C 
HETATM    9  C4  UNL     1     -35.824  15.489  -4.985  1.00 20.00     0.004 C 
HETATM   10  C9  UNL     1     -35.351  14.298  -5.768  1.00 20.00     0.105 C 
HETATM   11  C8  UNL     1     -34.596  13.273  -4.918  1.00 20.00     0.024 C 
HETATM   12 CL13 UNL     1     -34.307  14.891  -7.099  1.00 20.00    -0.121 Cl
HETATM   13  C7  UNL     1     -33.653  13.949  -3.926  1.00 20.00     0.006 C 
HETATM   14  C6  UNL     1     -34.425  14.897  -3.003  1.00 20.00     0.042 C 
ENDBRANCH   3   8
TORSDOF 1
ENDMDL
MODEL 8
REMARK VINA RESULT:      -4.4      2.349      4.712
REMARK  1 active torsions:
REMARK  status: ('A' for Active; 'I' for Inactive)
REMARK    1  A    between atoms: C3_3  and  C5_5 
ROOT
HETATM    1  C1  UNL     1     -35.148  13.343  -4.450  1.00 20.00     0.109 A 
HETATM    2  C2  UNL     1     -33.798  13.431  -4.263  1.00 20.00     0.107 A 
HETATM    3  C3  UNL     1     -34.737  15.174  -3.275  1.00 20.00     0.113 A 
HETATM    4  C10 UNL     1     -37.125  14.729  -3.782  1.00 20.00     0.157 C 
HETATM    5  N11 UNL     1     -35.705  14.434  -3.827  1.00 20.00    -0.346 N 
HETATM    6  N12 UNL     1     -33.572  14.574  -3.534  1.00 20.00    -0.350 N 
HETATM    7  H27 UNL     1     -32.659  14.909  -3.239  1.00 20.00     0.166 HD
ENDROOT
BRANCH   3   8
HETATM    8  C5  UNL     1     -34.900  16.435  -2.511  1.00 20.00    -0.016 C 
HETATM    9  C4  UNL     1     -35.285  17.572  -3.124  1.00 20.00     0.004 C 
HETATM   10  C9  UNL     1     -35.456  18.887  -2.419  1.00 20.00     0.105 C 
HETATM   11  C8  UNL     1     -34.869  18.900  -1.005  1.00 20.00     0.024 C 
HETATM   12 CL13 UNL     1     -37.208  19.263  -2.367  1.00 20.00    -0.121 Cl
HETATM   13  C7  UNL     1     -35.164  17.599  -0.261  1.00 20.00     0.006 C 
HETATM   14  C6  UNL     1     -34.604  16.397  -1.028  1.00 20.00     0.042 C 
ENDBRANCH   3   8
TORSDOF 1
ENDMDL
MODEL 9
REMARK VINA RESULT:      -4.3      1.906      2.746
REMARK  1 active torsions:
REMARK  status: ('A' for Active; 'I' for Inactive)
REMARK    1  A    between atoms: C3_3  and  C5_5 
ROOT
HETATM    1  C1  UNL     1     -34.147  18.346   1.422  1.00 20.00     0.109 A 
HETATM    2  C2  UNL     1     -35.290  17.601   1.362  1.00 20.00     0.107 A 
HETATM    3  C3  UNL     1     -34.337  17.548  -0.634  1.00 20.00     0.113 A 
HETATM    4  C10 UNL     1     -32.340  18.955  -0.201  1.00 20.00     0.157 C 
HETATM    5  N11 UNL     1     -33.576  18.296   0.173  1.00 20.00    -0.346 N 
HETATM    6  N12 UNL     1     -35.383  17.120   0.078  1.00 20.00    -0.350 N 
HETATM    7  H27 UNL     1     -36.133  16.530  -0.274  1.00 20.00     0.166 HD
ENDROOT
BRANCH   3   8
HETATM    8  C5  UNL     1     -34.088  17.236  -2.063  1.00 20.00    -0.016 C 
HETATM    9  C4  UNL     1     -33.704  16.002  -2.446  1.00 20.00     0.004 C 
HETATM   10  C9  UNL     1     -33.420  15.617  -3.869  1.00 20.00     0.105 C 
HETATM   11  C8  UNL     1     -33.311  16.818  -4.813  1.00 20.00     0.024 C 
HETATM   12 CL13 UNL     1     -34.724  14.514  -4.415  1.00 20.00    -0.121 Cl
HETATM   13  C7  UNL     1     -34.377  17.869  -4.513  1.00 20.00     0.006 C 
HETATM   14  C6  UNL     1     -34.265  18.356  -3.065  1.00 20.00     0.042 C 
ENDBRANCH   3   8
TORSDOF 1
ENDMDL
