MODEL 1
REMARK VINA RESULT:      -4.5      0.000      0.000
REMARK  0 active torsions:
REMARK  status: ('A' for Active; 'I' for Inactive)
ROOT
HETATM    1  C1  UNL     1     -33.346  15.898  -4.323  1.00 20.00     0.067 C 
HETATM    2  C2  UNL     1     -33.855  15.033  -3.246  1.00 20.00     0.127 C 
HETATM    3  C3  UNL     1     -34.937  14.063  -3.718  1.00 20.00     0.030 C 
HETATM    4  C4  UNL     1     -34.633  15.804  -2.179  1.00 20.00     0.136 C 
HETATM    5  C5  UNL     1     -36.229  14.891  -3.627  1.00 20.00     0.123 C 
HETATM    6  C6  UNL     1     -34.679  13.336  -5.029  1.00 20.00     0.014 C 
HETATM    7  C7  UNL     1     -34.077  17.158  -1.769  1.00 20.00     0.041 C 
HETATM    8  C8  UNL     1     -36.732  15.515  -4.922  1.00 20.00     0.040 C 
HETATM    9  N9  UNL     1     -32.946  16.581  -5.173  1.00 20.00    -0.197 NA
HETATM   10  O10 UNL     1     -35.967  15.958  -2.693  1.00 20.00    -0.380 OA
ENDROOT
TORSDOF 0
ENDMDL
MODEL 2
REMARK VINA RESULT:      -4.4      1.802      3.360
REMARK  0 active torsions:
REMARK  status: ('A' for Active; 'I' for Inactive)
ROOT
HETATM    1  C1  UNL     1     -34.107  16.502  -5.112  1.00 20.00     0.067 C 
HETATM    2  C2  UNL     1     -35.301  15.675  -4.869  1.00 20.00     0.127 C 
HETATM    3  C3  UNL     1     -35.258  14.942  -3.530  1.00 20.00     0.030 C 
HETATM    4  C4  UNL     1     -35.404  14.484  -5.824  1.00 20.00     0.136 C 
HETATM    5  C5  UNL     1     -34.467  13.662  -3.843  1.00 20.00     0.123 C 
HETATM    6  C6  UNL     1     -34.806  15.750  -2.323  1.00 20.00     0.014 C 
HETATM    7  C7  UNL     1     -35.022  14.731  -7.273  1.00 20.00     0.041 C 
HETATM    8  C8  UNL     1     -32.989  13.667  -3.476  1.00 20.00     0.040 C 
HETATM    9  N9  UNL     1     -33.165  17.154  -5.303  1.00 20.00    -0.197 NA
HETATM   10  O10 UNL     1     -34.569  13.454  -5.266  1.00 20.00    -0.380 OA
ENDROOT
TORSDOF 0
ENDMDL
MODEL 3
REMARK VINA RESULT:      -4.4      1.895      3.308
REMARK  0 active torsions:
REMARK  status: ('A' for Active; 'I' for Inactive)
ROOT
HETATM    1  C1  UNL     1     -34.721  13.716  -4.845  1.00 20.00     0.067 C 
HETATM    2  C2  UNL     1     -34.246  15.009  -5.367  1.00 20.00     0.127 C 
HETATM    3  C3  UNL     1     -33.383  15.777  -4.367  1.00 20.00     0.030 C 
HETATM    4  C4  UNL     1     -35.377  16.018  -5.576  1.00 20.00     0.136 C 
HETATM    5  C5  UNL     1     -34.410  16.530  -3.506  1.00 20.00     0.123 C 
HETATM    6  C6  UNL     1     -32.322  14.978  -3.625  1.00 20.00     0.014 C 
HETATM    7  C7  UNL     1     -36.678  15.481  -6.148  1.00 20.00     0.041 C 
HETATM    8  C8  UNL     1     -34.769  15.904  -2.166  1.00 20.00     0.040 C 
HETATM    9  N9  UNL     1     -35.095  12.697  -4.433  1.00 20.00    -0.197 NA
HETATM   10  O10 UNL     1     -35.617  16.617  -4.291  1.00 20.00    -0.380 OA
ENDROOT
TORSDOF 0
ENDMDL
MODEL 4
REMARK VINA RESULT:      -4.3      2.185      3.323
REMARK  0 active torsions:
REMARK  status: ('A' for Active; 'I' for Inactive)
ROOT
HETATM    1  C1  UNL     1     -34.515  13.860  -4.483  1.00 20.00     0.067 C 
HETATM    2  C2  UNL     1     -33.952  15.204  -4.686  1.00 20.00     0.127 C 
HETATM    3  C3  UNL     1     -34.491  16.235  -3.696  1.00 20.00     0.030 C 
HETATM    4  C4  UNL     1     -34.394  15.843  -6.005  1.00 20.00     0.136 C 
HETATM    5  C5  UNL     1     -35.798  16.713  -4.347  1.00 20.00     0.123 C 
HETATM    6  C6  UNL     1     -34.567  15.808  -2.238  1.00 20.00     0.014 C 
HETATM    7  C7  UNL     1     -34.458  14.932  -7.220  1.00 20.00     0.041 C 
HETATM    8  C8  UNL     1     -37.086  16.082  -3.835  1.00 20.00     0.040 C 
HETATM    9  N9  UNL     1     -34.961  12.799  -4.322  1.00 20.00    -0.197 NA
HETATM   10  O10 UNL     1     -35.688  16.416  -5.754  1.00 20.00    -0.380 OA
ENDROOT
TORSDOF 0
ENDMDL
MODEL 5
REMARK VINA RESULT:      -4.3      2.170      3.574
REMARK  0 active torsions:
REMARK  status: ('A' for Active; 'I' for Inactive)
ROOT
HETATM    1  C1  UNL     1     -36.058  14.901  -3.411  1.00 20.00     0.067 C 
HETATM    2  C2  UNL     1     -34.586  14.882  -3.364  1.00 20.00     0.127 C 
HETATM    3  C3  UNL     1     -33.997  16.064  -2.596  1.00 20.00     0.030 C 
HETATM    4  C4  UNL     1     -33.943  15.106  -4.734  1.00 20.00     0.136 C 
HETATM    5  C5  UNL     1     -33.924  17.180  -3.649  1.00 20.00     0.123 C 
HETATM    6  C6  UNL     1     -34.657  16.415  -1.270  1.00 20.00     0.014 C 
HETATM    7  C7  UNL     1     -34.602  14.423  -5.921  1.00 20.00     0.041 C 
HETATM    8  C8  UNL     1     -35.052  18.203  -3.641  1.00 20.00     0.040 C 
HETATM    9  N9  UNL     1     -37.219  14.916  -3.448  1.00 20.00    -0.197 NA
HETATM   10  O10 UNL     1     -33.925  16.529  -4.937  1.00 20.00    -0.380 OA
ENDROOT
TORSDOF 0
ENDMDL
MODEL 6
REMARK VINA RESULT:      -4.2      2.385      3.164
REMARK  0 active torsions:
REMARK  status: ('A' for Active; 'I' for Inactive)
ROOT
HETATM    1  C1  UNL     1     -35.101  13.777  -4.337  1.00 20.00     0.067 C 
HETATM    2  C2  UNL     1     -35.140  15.239  -4.163  1.00 20.00     0.127 C 
HETATM    3  C3  UNL     1     -35.826  15.962  -5.321  1.00 20.00     0.030 C 
HETATM    4  C4  UNL     1     -33.754  15.884  -4.228  1.00 20.00     0.136 C 
HETATM    5  C5  UNL     1     -34.701  16.140  -6.353  1.00 20.00     0.123 C 
HETATM    6  C6  UNL     1     -37.130  15.361  -5.825  1.00 20.00     0.014 C 
HETATM    7  C7  UNL     1     -32.619  15.139  -3.545  1.00 20.00     0.041 C 
HETATM    8  C8  UNL     1     -34.651  15.128  -7.490  1.00 20.00     0.040 C 
HETATM    9  N9  UNL     1     -35.071  12.625  -4.475  1.00 20.00    -0.197 NA
HETATM   10  O10 UNL     1     -33.459  16.051  -5.625  1.00 20.00    -0.380 OA
ENDROOT
TORSDOF 0
ENDMDL
MODEL 7
REMARK VINA RESULT:      -4.2      1.948      2.952
REMARK  0 active torsions:
REMARK  status: ('A' for Active; 'I' for Inactive)
ROOT
HETATM    1  C1  UNL     1     -35.510  15.692  -5.527  1.00 20.00     0.067 C 
HETATM    2  C2  UNL     1     -34.057  15.487  -5.407  1.00 20.00     0.127 C 
HETATM    3  C3  UNL     1     -33.666  14.688  -4.165  1.00 20.00     0.030 C 
HETATM    4  C4  UNL     1     -33.293  16.786  -5.141  1.00 20.00     0.136 C 
HETATM    5  C5  UNL     1     -33.582  15.753  -3.061  1.00 20.00     0.123 C 
HETATM    6  C6  UNL     1     -34.495  13.449  -3.862  1.00 20.00     0.014 C 
HETATM    7  C7  UNL     1     -33.754  18.020  -5.898  1.00 20.00     0.041 C 
HETATM    8  C8  UNL     1     -34.794  15.888  -2.149  1.00 20.00     0.040 C 
HETATM    9  N9  UNL     1     -36.657  15.853  -5.622  1.00 20.00    -0.197 NA
HETATM   10  O10 UNL     1     -33.384  17.018  -3.725  1.00 20.00    -0.380 OA
ENDROOT
TORSDOF 0
ENDMDL
MODEL 8
REMARK VINA RESULT:      -4.1      1.344      1.700
REMARK  0 active torsions:
REMARK  status: ('A' for Active; 'I' for Inactive)
ROOT
HETATM    1  C1  UNL     1     -33.769  16.510  -3.936  1.00 20.00     0.067 C 
HETATM    2  C2  UNL     1     -34.535  15.667  -3.003  1.00 20.00     0.127 C 
HETATM    3  C3  UNL     1     -34.466  14.180  -3.345  1.00 20.00     0.030 C 
HETATM    4  C4  UNL     1     -36.045  15.893  -3.098  1.00 20.00     0.136 C 
HETATM    5  C5  UNL     1     -35.580  13.995  -4.386  1.00 20.00     0.123 C 
HETATM    6  C6  UNL     1     -33.095  13.624  -3.702  1.00 20.00     0.014 C 
HETATM    7  C7  UNL     1     -36.513  17.328  -3.273  1.00 20.00     0.041 C 
HETATM    8  C8  UNL     1     -35.154  13.981  -5.848  1.00 20.00     0.040 C 
HETATM    9  N9  UNL     1     -33.164  17.174  -4.672  1.00 20.00    -0.197 NA
HETATM   10  O10 UNL     1     -36.498  15.093  -4.203  1.00 20.00    -0.380 OA
ENDROOT
TORSDOF 0
ENDMDL
MODEL 9
REMARK VINA RESULT:      -4.1      2.139      2.892
REMARK  0 active torsions:
REMARK  status: ('A' for Active; 'I' for Inactive)
ROOT
HETATM    1  C1  UNL     1     -36.459  15.136  -4.002  1.00 20.00     0.067 C 
HETATM    2  C2  UNL     1     -35.471  16.167  -4.362  1.00 20.00     0.127 C 
HETATM    3  C3  UNL     1     -34.289  15.612  -5.155  1.00 20.00     0.030 C 
HETATM    4  C4  UNL     1     -34.734  16.735  -3.147  1.00 20.00     0.136 C 
HETATM    5  C5  UNL     1     -33.328  15.106  -4.068  1.00 20.00     0.123 C 
HETATM    6  C6  UNL     1     -34.617  14.645  -6.283  1.00 20.00     0.014 C 
HETATM    7  C7  UNL     1     -35.562  16.982  -1.897  1.00 20.00     0.041 C 
HETATM    8  C8  UNL     1     -33.361  13.614  -3.767  1.00 20.00     0.040 C 
HETATM    9  N9  UNL     1     -37.238  14.323  -3.719  1.00 20.00    -0.197 NA
HETATM   10  O10 UNL     1     -33.673  15.810  -2.856  1.00 20.00    -0.380 OA
ENDROOT
TORSDOF 0
ENDMDL
