MODEL 1
REMARK VINA RESULT:      -5.1      0.000      0.000
REMARK  2 active torsions:
REMARK  status: ('A' for Active; 'I' for Inactive)
REMARK    1  A    between atoms: C2_2  and  C8_8 
REMARK    2  A    between atoms: C4_4  and  C8_8 
ROOT
HETATM    1  C1  UNL     1     -34.505   5.456   3.655  1.00 20.00    -0.004 C 
HETATM    2  C2  UNL     1     -33.368   6.162   3.705  1.00 20.00    -0.079 C 
HETATM    3  C5  UNL     1     -33.048   6.590   5.103  1.00 20.00     0.036 C 
HETATM    4  C6  UNL     1     -34.369   6.346   5.835  1.00 20.00     0.028 C 
HETATM    5  C7  UNL     1     -35.122   5.303   5.006  1.00 20.00     0.105 C 
HETATM    6 CL9  UNL     1     -34.839   3.655   5.610  1.00 20.00    -0.121 Cl
ENDROOT
BRANCH   2   7
HETATM    7  C8  UNL     1     -32.467   6.489   2.570  1.00 20.00     0.060 C 
BRANCH   7   8
HETATM    8  C4  UNL     1     -32.117   7.948   2.519  1.00 20.00    -0.033 C 
HETATM    9  C3  UNL     1     -32.008   8.655   1.389  1.00 20.00     0.007 C 
ENDBRANCH   7   8
ENDBRANCH   2   7
TORSDOF 2
ENDMDL
MODEL 2
REMARK VINA RESULT:      -4.6      2.472      4.285
REMARK  2 active torsions:
REMARK  status: ('A' for Active; 'I' for Inactive)
REMARK    1  A    between atoms: C2_2  and  C8_8 
REMARK    2  A    between atoms: C4_4  and  C8_8 
ROOT
HETATM    1  C1  UNL     1     -33.163   5.995   2.641  1.00 20.00    -0.004 C 
HETATM    2  C2  UNL     1     -33.942   6.029   3.731  1.00 20.00    -0.079 C 
HETATM    3  C5  UNL     1     -33.403   6.970   4.762  1.00 20.00     0.036 C 
HETATM    4  C6  UNL     1     -31.975   7.217   4.271  1.00 20.00     0.028 C 
HETATM    5  C7  UNL     1     -31.985   6.903   2.773  1.00 20.00     0.105 C 
HETATM    6 CL9  UNL     1     -32.245   8.365   1.797  1.00 20.00    -0.121 Cl
ENDROOT
BRANCH   2   7
HETATM    7  C8  UNL     1     -35.210   5.287   3.948  1.00 20.00     0.060 C 
BRANCH   7   8
HETATM    8  C4  UNL     1     -35.056   4.168   4.937  1.00 20.00    -0.033 C 
HETATM    9  C3  UNL     1     -35.087   4.330   6.264  1.00 20.00     0.007 C 
ENDBRANCH   7   8
ENDBRANCH   2   7
TORSDOF 2
ENDMDL
MODEL 3
REMARK VINA RESULT:      -4.5     11.543     12.371
REMARK  2 active torsions:
REMARK  status: ('A' for Active; 'I' for Inactive)
REMARK    1  A    between atoms: C2_2  and  C8_8 
REMARK    2  A    between atoms: C4_4  and  C8_8 
ROOT
HETATM    1  C1  UNL     1     -35.064  15.559  -4.624  1.00 20.00    -0.004 C 
HETATM    2  C2  UNL     1     -34.184  15.271  -3.656  1.00 20.00    -0.079 C 
HETATM    3  C5  UNL     1     -33.621  13.893  -3.816  1.00 20.00     0.036 C 
HETATM    4  C6  UNL     1     -34.581  13.259  -4.825  1.00 20.00     0.028 C 
HETATM    5  C7  UNL     1     -35.228  14.423  -5.579  1.00 20.00     0.105 C 
HETATM    6 CL9  UNL     1     -34.368  14.785  -7.092  1.00 20.00    -0.121 Cl
ENDROOT
BRANCH   2   7
HETATM    7  C8  UNL     1     -33.744  16.163  -2.553  1.00 20.00     0.060 C 
BRANCH   7   8
HETATM    8  C4  UNL     1     -34.769  16.270  -1.461  1.00 20.00    -0.033 C 
HETATM    9  C3  UNL     1     -34.618  17.015  -0.360  1.00 20.00     0.007 C 
ENDBRANCH   7   8
ENDBRANCH   2   7
TORSDOF 2
ENDMDL
MODEL 4
REMARK VINA RESULT:      -4.2      1.205      1.698
REMARK  2 active torsions:
REMARK  status: ('A' for Active; 'I' for Inactive)
REMARK    1  A    between atoms: C2_2  and  C8_8 
REMARK    2  A    between atoms: C4_4  and  C8_8 
ROOT
HETATM    1  C1  UNL     1     -33.049   5.555   4.662  1.00 20.00    -0.004 C 
HETATM    2  C2  UNL     1     -33.508   5.884   3.448  1.00 20.00    -0.079 C 
HETATM    3  C5  UNL     1     -34.995   5.728   3.361  1.00 20.00     0.036 C 
HETATM    4  C6  UNL     1     -35.314   4.897   4.606  1.00 20.00     0.028 C 
HETATM    5  C7  UNL     1     -34.152   5.128   5.575  1.00 20.00     0.105 C 
HETATM    6 CL9  UNL     1     -34.510   6.431   6.730  1.00 20.00    -0.121 Cl
ENDROOT
BRANCH   2   7
HETATM    7  C8  UNL     1     -32.714   6.381   2.295  1.00 20.00     0.060 C 
BRANCH   7   8
HETATM    8  C4  UNL     1     -32.189   7.770   2.520  1.00 20.00    -0.033 C 
HETATM    9  C3  UNL     1     -32.054   8.687   1.555  1.00 20.00     0.007 C 
ENDBRANCH   7   8
ENDBRANCH   2   7
TORSDOF 2
ENDMDL
MODEL 5
REMARK VINA RESULT:      -4.2     11.103     11.977
REMARK  2 active torsions:
REMARK  status: ('A' for Active; 'I' for Inactive)
REMARK    1  A    between atoms: C2_2  and  C8_8 
REMARK    2  A    between atoms: C4_4  and  C8_8 
ROOT
HETATM    1  C1  UNL     1     -35.322  15.238  -3.343  1.00 20.00    -0.004 C 
HETATM    2  C2  UNL     1     -34.158  15.856  -3.102  1.00 20.00    -0.079 C 
HETATM    3  C5  UNL     1     -32.992  15.021  -3.530  1.00 20.00     0.036 C 
HETATM    4  C6  UNL     1     -33.627  13.642  -3.728  1.00 20.00     0.028 C 
HETATM    5  C7  UNL     1     -35.117  13.896  -3.968  1.00 20.00     0.105 C 
HETATM    6 CL9  UNL     1     -35.498  13.979  -5.702  1.00 20.00    -0.121 Cl
ENDROOT
BRANCH   2   7
HETATM    7  C8  UNL     1     -33.968  17.209  -2.520  1.00 20.00     0.060 C 
BRANCH   7   8
HETATM    8  C4  UNL     1     -33.831  17.176  -1.026  1.00 20.00    -0.033 C 
HETATM    9  C3  UNL     1     -34.860  17.042  -0.181  1.00 20.00     0.007 C 
ENDBRANCH   7   8
ENDBRANCH   2   7
TORSDOF 2
ENDMDL
MODEL 6
REMARK VINA RESULT:      -4.0     11.686     12.119
REMARK  2 active torsions:
REMARK  status: ('A' for Active; 'I' for Inactive)
REMARK    1  A    between atoms: C2_2  and  C8_8 
REMARK    2  A    between atoms: C4_4  and  C8_8 
ROOT
HETATM    1  C1  UNL     1     -33.306  15.802  -3.415  1.00 20.00    -0.004 C 
HETATM    2  C2  UNL     1     -34.125  16.259  -2.458  1.00 20.00    -0.079 C 
HETATM    3  C5  UNL     1     -35.535  15.809  -2.680  1.00 20.00     0.036 C 
HETATM    4  C6  UNL     1     -35.501  15.316  -4.129  1.00 20.00     0.028 C 
HETATM    5  C7  UNL     1     -34.037  14.979  -4.424  1.00 20.00     0.105 C 
HETATM    6 CL9  UNL     1     -33.692  13.257  -4.154  1.00 20.00    -0.121 Cl
ENDROOT
BRANCH   2   7
HETATM    7  C8  UNL     1     -33.752  17.080  -1.278  1.00 20.00     0.060 C 
BRANCH   7   8
HETATM    8  C4  UNL     1     -34.811  17.066  -0.214  1.00 20.00    -0.033 C 
HETATM    9  C3  UNL     1     -34.753  17.786   0.913  1.00 20.00     0.007 C 
ENDBRANCH   7   8
ENDBRANCH   2   7
TORSDOF 2
ENDMDL
MODEL 7
REMARK VINA RESULT:      -4.0     11.203     12.294
REMARK  2 active torsions:
REMARK  status: ('A' for Active; 'I' for Inactive)
REMARK    1  A    between atoms: C2_2  and  C8_8 
REMARK    2  A    between atoms: C4_4  and  C8_8 
ROOT
HETATM    1  C1  UNL     1     -34.756  15.580  -2.423  1.00 20.00    -0.004 C 
HETATM    2  C2  UNL     1     -33.949  15.142  -3.398  1.00 20.00    -0.079 C 
HETATM    3  C5  UNL     1     -33.201  16.268  -4.041  1.00 20.00     0.036 C 
HETATM    4  C6  UNL     1     -33.965  17.498  -3.546  1.00 20.00     0.028 C 
HETATM    5  C7  UNL     1     -34.676  17.063  -2.262  1.00 20.00     0.105 C 
HETATM    6 CL9  UNL     1     -33.721  17.458  -0.816  1.00 20.00    -0.121 Cl
ENDROOT
BRANCH   2   7
HETATM    7  C8  UNL     1     -33.740  13.734  -3.821  1.00 20.00     0.060 C 
BRANCH   7   8
HETATM    8  C4  UNL     1     -34.771  13.276  -4.812  1.00 20.00    -0.033 C 
HETATM    9  C3  UNL     1     -35.133  13.973  -5.895  1.00 20.00     0.007 C 
ENDBRANCH   7   8
ENDBRANCH   2   7
TORSDOF 2
ENDMDL
MODEL 8
REMARK VINA RESULT:      -3.9      9.575     10.735
REMARK  2 active torsions:
REMARK  status: ('A' for Active; 'I' for Inactive)
REMARK    1  A    between atoms: C2_2  and  C8_8 
REMARK    2  A    between atoms: C4_4  and  C8_8 
ROOT
HETATM    1  C1  UNL     1     -42.019   5.942  -2.369  1.00 20.00    -0.004 C 
HETATM    2  C2  UNL     1     -41.980   4.712  -1.840  1.00 20.00    -0.079 C 
HETATM    3  C5  UNL     1     -41.405   4.727  -0.457  1.00 20.00     0.036 C 
HETATM    4  C6  UNL     1     -40.761   6.113  -0.382  1.00 20.00     0.028 C 
HETATM    5  C7  UNL     1     -41.478   6.968  -1.429  1.00 20.00     0.105 C 
HETATM    6 CL9  UNL     1     -42.819   7.892  -0.716  1.00 20.00    -0.121 Cl
ENDROOT
BRANCH   2   7
HETATM    7  C8  UNL     1     -42.458   3.453  -2.465  1.00 20.00     0.060 C 
BRANCH   7   8
HETATM    8  C4  UNL     1     -41.345   2.672  -3.102  1.00 20.00    -0.033 C 
HETATM    9  C3  UNL     1     -41.531   1.630  -3.920  1.00 20.00     0.007 C 
ENDBRANCH   7   8
ENDBRANCH   2   7
TORSDOF 2
ENDMDL
MODEL 9
REMARK VINA RESULT:      -3.9     11.055     12.954
REMARK  2 active torsions:
REMARK  status: ('A' for Active; 'I' for Inactive)
REMARK    1  A    between atoms: C2_2  and  C8_8 
REMARK    2  A    between atoms: C4_4  and  C8_8 
ROOT
HETATM    1  C1  UNL     1     -33.529  15.842  -4.798  1.00 20.00    -0.004 C 
HETATM    2  C2  UNL     1     -34.094  15.010  -5.684  1.00 20.00    -0.079 C 
HETATM    3  C5  UNL     1     -34.411  13.683  -5.067  1.00 20.00     0.036 C 
HETATM    4  C6  UNL     1     -33.607  13.722  -3.766  1.00 20.00     0.028 C 
HETATM    5  C7  UNL     1     -33.380  15.204  -3.456  1.00 20.00     0.105 C 
HETATM    6 CL9  UNL     1     -34.616  15.841  -2.350  1.00 20.00    -0.121 Cl
ENDROOT
BRANCH   2   7
HETATM    7  C8  UNL     1     -34.427  15.304  -7.101  1.00 20.00     0.060 C 
BRANCH   7   8
HETATM    8  C4  UNL     1     -35.654  14.572  -7.563  1.00 20.00    -0.033 C 
HETATM    9  C3  UNL     1     -36.901  15.038  -7.430  1.00 20.00     0.007 C 
ENDBRANCH   7   8
ENDBRANCH   2   7
TORSDOF 2
ENDMDL
