MODEL 1
REMARK VINA RESULT:      -5.6      0.000      0.000
REMARK  2 active torsions:
REMARK  status: ('A' for Active; 'I' for Inactive)
REMARK    1  A    between atoms: C4_4  and  C12_12 
REMARK    2  A    between atoms: C11_11  and  C12_12 
ROOT
HETATM    1  C1  UNL     1     -33.754  18.544   0.769  1.00 20.00     0.012 C 
HETATM    2  C2  UNL     1     -34.177  17.671   0.062  1.00 20.00    -0.117 C 
HETATM    3  C11 UNL     1     -34.697  16.601  -0.803  1.00 20.00     0.097 C 
ENDROOT
BRANCH   3   4
HETATM    4  C12 UNL     1     -33.965  16.536  -2.134  1.00 20.00     0.046 C 
BRANCH   4   5
HETATM    5  C4  UNL     1     -34.814  15.863  -3.174  1.00 20.00    -0.075 C 
HETATM    6  C3  UNL     1     -36.037  15.398  -2.878  1.00 20.00     0.053 C 
HETATM    7  C5  UNL     1     -36.888  14.788  -3.928  1.00 20.00     0.150 C 
HETATM    8  C7  UNL     1     -36.384  14.774  -5.356  1.00 20.00     0.092 C 
HETATM    9  O13 UNL     1     -38.003  14.360  -3.634  1.00 20.00    -0.293 OA
HETATM   10  C8  UNL     1     -34.852  14.673  -5.441  1.00 20.00    -0.037 C 
HETATM   11  C6  UNL     1     -34.209  15.761  -4.552  1.00 20.00     0.043 C 
HETATM   12  C9  UNL     1     -34.411  14.887  -6.900  1.00 20.00     0.015 C 
HETATM   13  C10 UNL     1     -34.384  13.269  -5.002  1.00 20.00     0.015 C 
ENDBRANCH   4   5
ENDBRANCH   3   4
TORSDOF 2
ENDMDL
MODEL 2
REMARK VINA RESULT:      -5.6      1.805      2.282
REMARK  2 active torsions:
REMARK  status: ('A' for Active; 'I' for Inactive)
REMARK    1  A    between atoms: C4_4  and  C12_12 
REMARK    2  A    between atoms: C11_11  and  C12_12 
ROOT
HETATM    1  C1  UNL     1     -35.226  17.754   1.130  1.00 20.00     0.012 C 
HETATM    2  C2  UNL     1     -34.791  17.353   0.085  1.00 20.00    -0.117 C 
HETATM    3  C11 UNL     1     -34.258  16.862  -1.195  1.00 20.00     0.097 C 
ENDROOT
BRANCH   3   4
HETATM    4  C12 UNL     1     -35.324  16.812  -2.278  1.00 20.00     0.046 C 
BRANCH   4   5
HETATM    5  C4  UNL     1     -35.013  15.737  -3.280  1.00 20.00    -0.075 C 
HETATM    6  C3  UNL     1     -34.060  14.823  -3.045  1.00 20.00     0.053 C 
HETATM    7  C5  UNL     1     -33.803  13.733  -4.017  1.00 20.00     0.150 C 
HETATM    8  C7  UNL     1     -34.691  13.622  -5.238  1.00 20.00     0.092 C 
HETATM    9  O13 UNL     1     -32.919  12.910  -3.787  1.00 20.00    -0.293 OA
HETATM   10  C8  UNL     1     -35.204  14.989  -5.722  1.00 20.00    -0.037 C 
HETATM   11  C6  UNL     1     -35.843  15.752  -4.539  1.00 20.00     0.043 C 
HETATM   12  C9  UNL     1     -36.264  14.774  -6.815  1.00 20.00     0.015 C 
HETATM   13  C10 UNL     1     -34.047  15.809  -6.332  1.00 20.00     0.015 C 
ENDBRANCH   4   5
ENDBRANCH   3   4
TORSDOF 2
ENDMDL
MODEL 3
REMARK VINA RESULT:      -5.5      1.766      2.520
REMARK  2 active torsions:
REMARK  status: ('A' for Active; 'I' for Inactive)
REMARK    1  A    between atoms: C4_4  and  C12_12 
REMARK    2  A    between atoms: C11_11  and  C12_12 
ROOT
HETATM    1  C1  UNL     1     -33.526  18.691   1.323  1.00 20.00     0.012 C 
HETATM    2  C2  UNL     1     -34.027  17.916   0.555  1.00 20.00    -0.117 C 
HETATM    3  C11 UNL     1     -34.641  16.966  -0.385  1.00 20.00     0.097 C 
ENDROOT
BRANCH   3   4
HETATM    4  C12 UNL     1     -33.990  17.017  -1.758  1.00 20.00     0.046 C 
BRANCH   4   5
HETATM    5  C4  UNL     1     -34.462  15.875  -2.612  1.00 20.00    -0.075 C 
HETATM    6  C3  UNL     1     -33.608  14.944  -3.062  1.00 20.00     0.053 C 
HETATM    7  C5  UNL     1     -34.096  13.792  -3.856  1.00 20.00     0.150 C 
HETATM    8  C7  UNL     1     -35.587  13.639  -4.077  1.00 20.00     0.092 C 
HETATM    9  O13 UNL     1     -33.296  12.953  -4.267  1.00 20.00    -0.293 OA
HETATM   10  C8  UNL     1     -36.316  14.992  -4.142  1.00 20.00    -0.037 C 
HETATM   11  C6  UNL     1     -35.941  15.844  -2.909  1.00 20.00     0.043 C 
HETATM   12  C9  UNL     1     -37.834  14.749  -4.146  1.00 20.00     0.015 C 
HETATM   13  C10 UNL     1     -35.948  15.735  -5.445  1.00 20.00     0.015 C 
ENDBRANCH   4   5
ENDBRANCH   3   4
TORSDOF 2
ENDMDL
MODEL 4
REMARK VINA RESULT:      -5.2      2.030      2.800
REMARK  2 active torsions:
REMARK  status: ('A' for Active; 'I' for Inactive)
REMARK    1  A    between atoms: C4_4  and  C12_12 
REMARK    2  A    between atoms: C11_11  and  C12_12 
ROOT
HETATM    1  C1  UNL     1     -34.058  18.512   2.049  1.00 20.00     0.012 C 
HETATM    2  C2  UNL     1     -33.837  18.243   0.900  1.00 20.00    -0.117 C 
HETATM    3  C11 UNL     1     -33.565  17.915  -0.507  1.00 20.00     0.097 C 
ENDROOT
BRANCH   3   4
HETATM    4  C12 UNL     1     -34.402  16.742  -0.993  1.00 20.00     0.046 C 
BRANCH   4   5
HETATM    5  C4  UNL     1     -34.208  16.527  -2.467  1.00 20.00    -0.075 C 
HETATM    6  C3  UNL     1     -33.886  17.542  -3.282  1.00 20.00     0.053 C 
HETATM    7  C5  UNL     1     -33.641  17.305  -4.724  1.00 20.00     0.150 C 
HETATM    8  C7  UNL     1     -33.680  15.884  -5.245  1.00 20.00     0.092 C 
HETATM    9  O13 UNL     1     -33.355  18.251  -5.456  1.00 20.00    -0.293 OA
HETATM   10  C8  UNL     1     -34.667  14.996  -4.468  1.00 20.00    -0.037 C 
HETATM   11  C6  UNL     1     -34.386  15.109  -2.953  1.00 20.00     0.043 C 
HETATM   12  C9  UNL     1     -34.486  13.533  -4.908  1.00 20.00     0.015 C 
HETATM   13  C10 UNL     1     -36.120  15.413  -4.782  1.00 20.00     0.015 C 
ENDBRANCH   4   5
ENDBRANCH   3   4
TORSDOF 2
ENDMDL
MODEL 5
REMARK VINA RESULT:      -5.1      1.975      4.703
REMARK  2 active torsions:
REMARK  status: ('A' for Active; 'I' for Inactive)
REMARK    1  A    between atoms: C4_4  and  C12_12 
REMARK    2  A    between atoms: C11_11  and  C12_12 
ROOT
HETATM    1  C1  UNL     1     -37.923  16.905  -6.454  1.00 20.00     0.012 C 
HETATM    2  C2  UNL     1     -36.816  17.297  -6.706  1.00 20.00    -0.117 C 
HETATM    3  C11 UNL     1     -35.462  17.779  -7.014  1.00 20.00     0.097 C 
ENDROOT
BRANCH   3   4
HETATM    4  C12 UNL     1     -34.468  16.637  -7.166  1.00 20.00     0.046 C 
BRANCH   4   5
HETATM    5  C4  UNL     1     -34.429  15.800  -5.920  1.00 20.00    -0.075 C 
HETATM    6  C3  UNL     1     -34.667  14.480  -5.962  1.00 20.00     0.053 C 
HETATM    7  C5  UNL     1     -34.568  13.656  -4.734  1.00 20.00     0.150 C 
HETATM    8  C7  UNL     1     -34.111  14.315  -3.449  1.00 20.00     0.092 C 
HETATM    9  O13 UNL     1     -34.798  12.449  -4.792  1.00 20.00    -0.293 OA
HETATM   10  C8  UNL     1     -34.531  15.792  -3.361  1.00 20.00    -0.037 C 
HETATM   11  C6  UNL     1     -34.095  16.533  -4.645  1.00 20.00     0.043 C 
HETATM   12  C9  UNL     1     -33.848  16.441  -2.146  1.00 20.00     0.015 C 
HETATM   13  C10 UNL     1     -36.059  15.902  -3.165  1.00 20.00     0.015 C 
ENDBRANCH   4   5
ENDBRANCH   3   4
TORSDOF 2
ENDMDL
MODEL 6
REMARK VINA RESULT:      -5.0      2.217      4.976
REMARK  2 active torsions:
REMARK  status: ('A' for Active; 'I' for Inactive)
REMARK    1  A    between atoms: C4_4  and  C12_12 
REMARK    2  A    between atoms: C11_11  and  C12_12 
ROOT
HETATM    1  C1  UNL     1     -37.326  15.127  -7.666  1.00 20.00     0.012 C 
HETATM    2  C2  UNL     1     -37.704  15.383  -6.556  1.00 20.00    -0.117 C 
HETATM    3  C11 UNL     1     -38.168  15.698  -5.196  1.00 20.00     0.097 C 
ENDROOT
BRANCH   3   4
HETATM    4  C12 UNL     1     -37.643  14.707  -4.168  1.00 20.00     0.046 C 
BRANCH   4   5
HETATM    5  C4  UNL     1     -36.175  14.917  -3.930  1.00 20.00    -0.075 C 
HETATM    6  C3  UNL     1     -35.323  13.882  -3.892  1.00 20.00     0.053 C 
HETATM    7  C5  UNL     1     -33.869  14.107  -3.714  1.00 20.00     0.150 C 
HETATM    8  C7  UNL     1     -33.354  15.530  -3.660  1.00 20.00     0.092 C 
HETATM    9  O13 UNL     1     -33.104  13.145  -3.674  1.00 20.00    -0.293 OA
HETATM   10  C8  UNL     1     -34.372  16.504  -3.042  1.00 20.00    -0.037 C 
HETATM   11  C6  UNL     1     -35.736  16.349  -3.753  1.00 20.00     0.043 C 
HETATM   12  C9  UNL     1     -33.869  17.946  -3.224  1.00 20.00     0.015 C 
HETATM   13  C10 UNL     1     -34.518  16.236  -1.529  1.00 20.00     0.015 C 
ENDBRANCH   4   5
ENDBRANCH   3   4
TORSDOF 2
ENDMDL
MODEL 7
REMARK VINA RESULT:      -4.9      1.583      4.687
REMARK  2 active torsions:
REMARK  status: ('A' for Active; 'I' for Inactive)
REMARK    1  A    between atoms: C4_4  and  C12_12 
REMARK    2  A    between atoms: C11_11  and  C12_12 
ROOT
HETATM    1  C1  UNL     1     -34.468  15.173  -7.082  1.00 20.00     0.012 C 
HETATM    2  C2  UNL     1     -34.423  14.505  -6.086  1.00 20.00    -0.117 C 
HETATM    3  C11 UNL     1     -34.365  13.685  -4.867  1.00 20.00     0.097 C 
ENDROOT
BRANCH   3   4
HETATM    4  C12 UNL     1     -35.654  13.762  -4.064  1.00 20.00     0.046 C 
BRANCH   4   5
HETATM    5  C4  UNL     1     -35.806  15.116  -3.432  1.00 20.00    -0.075 C 
HETATM    6  C3  UNL     1     -36.892  15.870  -3.658  1.00 20.00     0.053 C 
HETATM    7  C5  UNL     1     -37.055  17.179  -2.982  1.00 20.00     0.150 C 
HETATM    8  C7  UNL     1     -36.016  17.611  -1.969  1.00 20.00     0.092 C 
HETATM    9  O13 UNL     1     -38.054  17.860  -3.209  1.00 20.00    -0.293 OA
HETATM   10  C8  UNL     1     -34.611  17.078  -2.300  1.00 20.00    -0.037 C 
HETATM   11  C6  UNL     1     -34.677  15.551  -2.531  1.00 20.00     0.043 C 
HETATM   12  C9  UNL     1     -33.668  17.370  -1.120  1.00 20.00     0.015 C 
HETATM   13  C10 UNL     1     -34.050  17.791  -3.549  1.00 20.00     0.015 C 
ENDBRANCH   4   5
ENDBRANCH   3   4
TORSDOF 2
ENDMDL
MODEL 8
REMARK VINA RESULT:      -4.8      2.494      3.508
REMARK  2 active torsions:
REMARK  status: ('A' for Active; 'I' for Inactive)
REMARK    1  A    between atoms: C4_4  and  C12_12 
REMARK    2  A    between atoms: C11_11  and  C12_12 
ROOT
HETATM    1  C1  UNL     1     -34.795  16.678  -1.114  1.00 20.00     0.012 C 
HETATM    2  C2  UNL     1     -34.440  15.887  -1.944  1.00 20.00    -0.117 C 
HETATM    3  C11 UNL     1     -34.006  14.916  -2.960  1.00 20.00     0.097 C 
ENDROOT
BRANCH   3   4
HETATM    4  C12 UNL     1     -32.987  15.510  -3.920  1.00 20.00     0.046 C 
BRANCH   4   5
HETATM    5  C4  UNL     1     -33.665  16.048  -5.147  1.00 20.00    -0.075 C 
HETATM    6  C3  UNL     1     -33.567  17.343  -5.484  1.00 20.00     0.053 C 
HETATM    7  C5  UNL     1     -34.193  17.849  -6.728  1.00 20.00     0.150 C 
HETATM    8  C7  UNL     1     -34.872  16.863  -7.655  1.00 20.00     0.092 C 
HETATM    9  O13 UNL     1     -34.099  19.042  -7.014  1.00 20.00    -0.293 OA
HETATM   10  C8  UNL     1     -35.493  15.675  -6.901  1.00 20.00    -0.037 C 
HETATM   11  C6  UNL     1     -34.437  15.044  -5.966  1.00 20.00     0.043 C 
HETATM   12  C9  UNL     1     -35.963  14.620  -7.917  1.00 20.00     0.015 C 
HETATM   13  C10 UNL     1     -36.723  16.140  -6.092  1.00 20.00     0.015 C 
ENDBRANCH   4   5
ENDBRANCH   3   4
TORSDOF 2
ENDMDL
MODEL 9
REMARK VINA RESULT:      -4.8      2.031      3.500
REMARK  2 active torsions:
REMARK  status: ('A' for Active; 'I' for Inactive)
REMARK    1  A    between atoms: C4_4  and  C12_12 
REMARK    2  A    between atoms: C11_11  and  C12_12 
ROOT
HETATM    1  C1  UNL     1     -34.230  16.638  -1.825  1.00 20.00     0.012 C 
HETATM    2  C2  UNL     1     -33.664  15.937  -2.618  1.00 20.00    -0.117 C 
HETATM    3  C11 UNL     1     -32.969  15.079  -3.590  1.00 20.00     0.097 C 
ENDROOT
BRANCH   3   4
HETATM    4  C12 UNL     1     -33.845  13.931  -4.069  1.00 20.00     0.046 C 
BRANCH   4   5
HETATM    5  C4  UNL     1     -35.048  14.451  -4.802  1.00 20.00    -0.075 C 
HETATM    6  C3  UNL     1     -34.933  15.016  -6.013  1.00 20.00     0.053 C 
HETATM    7  C5  UNL     1     -36.135  15.473  -6.750  1.00 20.00     0.150 C 
HETATM    8  C7  UNL     1     -37.500  15.214  -6.149  1.00 20.00     0.092 C 
HETATM    9  O13 UNL     1     -36.007  15.996  -7.856  1.00 20.00    -0.293 OA
HETATM   10  C8  UNL     1     -37.480  15.229  -4.611  1.00 20.00    -0.037 C 
HETATM   11  C6  UNL     1     -36.371  14.284  -4.097  1.00 20.00     0.043 C 
HETATM   12  C9  UNL     1     -38.841  14.744  -4.082  1.00 20.00     0.015 C 
HETATM   13  C10 UNL     1     -37.251  16.665  -4.093  1.00 20.00     0.015 C 
ENDBRANCH   4   5
ENDBRANCH   3   4
TORSDOF 2
ENDMDL
