MODEL 1
REMARK VINA RESULT:      -5.9      0.000      0.000
REMARK  2 active torsions:
REMARK  status: ('A' for Active; 'I' for Inactive)
REMARK    1  A    between atoms: C4_4  and  C10_10 
REMARK    2  A    between atoms: C9_9  and  C10_10 
ROOT
HETATM    1  C1  UNL     1     -32.246   9.450   1.078  1.00 20.00     0.012 C 
HETATM    2  C2  UNL     1     -32.122   8.511   1.817  1.00 20.00    -0.117 C 
HETATM    3  C9  UNL     1     -31.968   7.362   2.723  1.00 20.00     0.097 C 
ENDROOT
BRANCH   3   4
HETATM    4  C10 UNL     1     -33.109   6.366   2.582  1.00 20.00     0.046 C 
BRANCH   4   5
HETATM    5  C4  UNL     1     -33.656   6.001   3.912  1.00 20.00    -0.081 C 
HETATM    6  C3  UNL     1     -33.228   6.550   5.065  1.00 20.00    -0.004 C 
HETATM    7  C8  UNL     1     -33.772   6.190   6.418  1.00 20.00     0.105 C 
HETATM    8  C7  UNL     1     -35.072   5.385   6.356  1.00 20.00     0.024 C 
HETATM    9 CL11 UNL     1     -34.038   7.675   7.377  1.00 20.00    -0.121 Cl
HETATM   10  C6  UNL     1     -34.978   4.305   5.284  1.00 20.00     0.006 C 
HETATM   11  C5  UNL     1     -34.722   4.927   3.910  1.00 20.00     0.034 C 
ENDBRANCH   4   5
ENDBRANCH   3   4
TORSDOF 2
ENDMDL
MODEL 2
REMARK VINA RESULT:      -5.4      1.616      2.213
REMARK  2 active torsions:
REMARK  status: ('A' for Active; 'I' for Inactive)
REMARK    1  A    between atoms: C4_4  and  C10_10 
REMARK    2  A    between atoms: C9_9  and  C10_10 
ROOT
HETATM    1  C1  UNL     1     -32.384   9.514   0.583  1.00 20.00     0.012 C 
HETATM    2  C2  UNL     1     -32.103   8.824   1.525  1.00 20.00    -0.117 C 
HETATM    3  C9  UNL     1     -31.755   7.983   2.680  1.00 20.00     0.097 C 
ENDROOT
BRANCH   3   4
HETATM    4  C10 UNL     1     -32.431   6.621   2.618  1.00 20.00     0.046 C 
BRANCH   4   5
HETATM    5  C4  UNL     1     -33.189   6.352   3.864  1.00 20.00    -0.081 C 
HETATM    6  C3  UNL     1     -34.246   5.518   3.923  1.00 20.00    -0.004 C 
HETATM    7  C8  UNL     1     -35.024   5.238   5.177  1.00 20.00     0.105 C 
HETATM    8  C7  UNL     1     -34.324   5.725   6.448  1.00 20.00     0.024 C 
HETATM    9 CL11 UNL     1     -35.343   3.484   5.310  1.00 20.00    -0.121 Cl
HETATM   10  C6  UNL     1     -33.742   7.117   6.234  1.00 20.00     0.006 C 
HETATM   11  C5  UNL     1     -32.726   7.109   5.090  1.00 20.00     0.034 C 
ENDBRANCH   4   5
ENDBRANCH   3   4
TORSDOF 2
ENDMDL
MODEL 3
REMARK VINA RESULT:      -5.0     11.082     12.435
REMARK  2 active torsions:
REMARK  status: ('A' for Active; 'I' for Inactive)
REMARK    1  A    between atoms: C4_4  and  C10_10 
REMARK    2  A    between atoms: C9_9  and  C10_10 
ROOT
HETATM    1  C1  UNL     1     -35.219  14.425  -6.987  1.00 20.00     0.012 C 
HETATM    2  C2  UNL     1     -35.069  13.914  -5.911  1.00 20.00    -0.117 C 
HETATM    3  C9  UNL     1     -34.890  13.287  -4.593  1.00 20.00     0.097 C 
ENDROOT
BRANCH   3   4
HETATM    4  C10 UNL     1     -33.662  13.819  -3.869  1.00 20.00     0.046 C 
BRANCH   4   5
HETATM    5  C4  UNL     1     -33.881  15.215  -3.418  1.00 20.00    -0.081 C 
HETATM    6  C3  UNL     1     -34.666  15.540  -2.372  1.00 20.00    -0.004 C 
HETATM    7  C8  UNL     1     -34.897  16.949  -1.904  1.00 20.00     0.105 C 
HETATM    8  C7  UNL     1     -33.918  17.959  -2.508  1.00 20.00     0.024 C 
HETATM    9 CL11 UNL     1     -34.795  17.017  -0.121  1.00 20.00    -0.121 Cl
HETATM   10  C6  UNL     1     -33.733  17.695  -3.998  1.00 20.00     0.006 C 
HETATM   11  C5  UNL     1     -33.188  16.285  -4.234  1.00 20.00     0.034 C 
ENDBRANCH   4   5
ENDBRANCH   3   4
TORSDOF 2
ENDMDL
MODEL 4
REMARK VINA RESULT:      -4.9     11.374     12.187
REMARK  2 active torsions:
REMARK  status: ('A' for Active; 'I' for Inactive)
REMARK    1  A    between atoms: C4_4  and  C10_10 
REMARK    2  A    between atoms: C9_9  and  C10_10 
ROOT
HETATM    1  C1  UNL     1     -34.063  18.525   1.131  1.00 20.00     0.012 C 
HETATM    2  C2  UNL     1     -34.399  17.698   0.328  1.00 20.00    -0.117 C 
HETATM    3  C9  UNL     1     -34.814  16.685  -0.654  1.00 20.00     0.097 C 
ENDROOT
BRANCH   3   4
HETATM    4  C10 UNL     1     -33.889  16.647  -1.862  1.00 20.00     0.046 C 
BRANCH   4   5
HETATM    5  C4  UNL     1     -34.334  15.619  -2.834  1.00 20.00    -0.081 C 
HETATM    6  C3  UNL     1     -35.628  15.397  -3.136  1.00 20.00    -0.004 C 
HETATM    7  C8  UNL     1     -36.093  14.359  -4.118  1.00 20.00     0.105 C 
HETATM    8  C7  UNL     1     -34.965  13.793  -4.985  1.00 20.00     0.024 C 
HETATM    9 CL11 UNL     1     -37.362  15.049  -5.170  1.00 20.00    -0.121 Cl
HETATM   10  C6  UNL     1     -33.733  13.508  -4.135  1.00 20.00     0.006 C 
HETATM   11  C5  UNL     1     -33.234  14.787  -3.458  1.00 20.00     0.034 C 
ENDBRANCH   4   5
ENDBRANCH   3   4
TORSDOF 2
ENDMDL
MODEL 5
REMARK VINA RESULT:      -4.9     11.491     12.811
REMARK  2 active torsions:
REMARK  status: ('A' for Active; 'I' for Inactive)
REMARK    1  A    between atoms: C4_4  and  C10_10 
REMARK    2  A    between atoms: C9_9  and  C10_10 
ROOT
HETATM    1  C1  UNL     1     -35.004  18.148   1.429  1.00 20.00     0.012 C 
HETATM    2  C2  UNL     1     -34.897  17.461   0.450  1.00 20.00    -0.117 C 
HETATM    3  C9  UNL     1     -34.769  16.617  -0.748  1.00 20.00     0.097 C 
ENDROOT
BRANCH   3   4
HETATM    4  C10 UNL     1     -33.678  17.117  -1.684  1.00 20.00     0.046 C 
BRANCH   4   5
HETATM    5  C4  UNL     1     -33.773  16.449  -3.006  1.00 20.00    -0.081 C 
HETATM    6  C3  UNL     1     -33.842  15.112  -3.156  1.00 20.00    -0.004 C 
HETATM    7  C8  UNL     1     -33.937  14.422  -4.488  1.00 20.00     0.105 C 
HETATM    8  C7  UNL     1     -34.271  15.371  -5.641  1.00 20.00     0.024 C 
HETATM    9 CL11 UNL     1     -35.165  13.126  -4.410  1.00 20.00    -0.121 Cl
HETATM   10  C6  UNL     1     -33.456  16.653  -5.529  1.00 20.00     0.006 C 
HETATM   11  C5  UNL     1     -33.750  17.368  -4.208  1.00 20.00     0.034 C 
ENDBRANCH   4   5
ENDBRANCH   3   4
TORSDOF 2
ENDMDL
MODEL 6
REMARK VINA RESULT:      -4.8     11.627     12.828
REMARK  2 active torsions:
REMARK  status: ('A' for Active; 'I' for Inactive)
REMARK    1  A    between atoms: C4_4  and  C10_10 
REMARK    2  A    between atoms: C9_9  and  C10_10 
ROOT
HETATM    1  C1  UNL     1     -34.304  18.117   0.617  1.00 20.00     0.012 C 
HETATM    2  C2  UNL     1     -34.525  17.304  -0.240  1.00 20.00    -0.117 C 
HETATM    3  C9  UNL     1     -34.797  16.308  -1.287  1.00 20.00     0.097 C 
ENDROOT
BRANCH   3   4
HETATM    4  C10 UNL     1     -33.772  16.364  -2.409  1.00 20.00     0.046 C 
BRANCH   4   5
HETATM    5  C4  UNL     1     -34.249  15.612  -3.596  1.00 20.00    -0.081 C 
HETATM    6  C3  UNL     1     -34.735  16.206  -4.703  1.00 20.00    -0.004 C 
HETATM    7  C8  UNL     1     -35.222  15.457  -5.911  1.00 20.00     0.105 C 
HETATM    8  C7  UNL     1     -34.824  13.979  -5.911  1.00 20.00     0.024 C 
HETATM    9 CL11 UNL     1     -34.605  16.238  -7.395  1.00 20.00    -0.121 Cl
HETATM   10  C6  UNL     1     -35.035  13.372  -4.529  1.00 20.00     0.006 C 
HETATM   11  C5  UNL     1     -34.193  14.104  -3.482  1.00 20.00     0.034 C 
ENDBRANCH   4   5
ENDBRANCH   3   4
TORSDOF 2
ENDMDL
MODEL 7
REMARK VINA RESULT:      -4.5     12.036     13.750
REMARK  2 active torsions:
REMARK  status: ('A' for Active; 'I' for Inactive)
REMARK    1  A    between atoms: C4_4  and  C10_10 
REMARK    2  A    between atoms: C9_9  and  C10_10 
ROOT
HETATM    1  C1  UNL     1     -35.079  17.365   0.309  1.00 20.00     0.012 C 
HETATM    2  C2  UNL     1     -34.462  17.052  -0.673  1.00 20.00    -0.117 C 
HETATM    3  C9  UNL     1     -33.704  16.671  -1.874  1.00 20.00     0.097 C 
ENDROOT
BRANCH   3   4
HETATM    4  C10 UNL     1     -34.433  15.622  -2.701  1.00 20.00     0.046 C 
BRANCH   4   5
HETATM    5  C4  UNL     1     -34.345  15.938  -4.148  1.00 20.00    -0.081 C 
HETATM    6  C3  UNL     1     -34.361  14.998  -5.113  1.00 20.00    -0.004 C 
HETATM    7  C8  UNL     1     -34.271  15.303  -6.581  1.00 20.00     0.105 C 
HETATM    8  C7  UNL     1     -34.483  16.783  -6.909  1.00 20.00     0.024 C 
HETATM    9 CL11 UNL     1     -35.466  14.319  -7.476  1.00 20.00    -0.121 Cl
HETATM   10  C6  UNL     1     -33.721  17.660  -5.923  1.00 20.00     0.006 C 
HETATM   11  C5  UNL     1     -34.195  17.404  -4.492  1.00 20.00     0.034 C 
ENDBRANCH   4   5
ENDBRANCH   3   4
TORSDOF 2
ENDMDL
MODEL 8
REMARK VINA RESULT:      -4.5     11.632     12.931
REMARK  2 active torsions:
REMARK  status: ('A' for Active; 'I' for Inactive)
REMARK    1  A    between atoms: C4_4  and  C10_10 
REMARK    2  A    between atoms: C9_9  and  C10_10 
ROOT
HETATM    1  C1  UNL     1     -35.255  14.339  -6.904  1.00 20.00     0.012 C 
HETATM    2  C2  UNL     1     -35.076  13.871  -5.812  1.00 20.00    -0.117 C 
HETATM    3  C9  UNL     1     -34.861  13.296  -4.476  1.00 20.00     0.097 C 
ENDROOT
BRANCH   3   4
HETATM    4  C10 UNL     1     -33.647  13.898  -3.784  1.00 20.00     0.046 C 
BRANCH   4   5
HETATM    5  C4  UNL     1     -33.880  15.327  -3.463  1.00 20.00    -0.081 C 
HETATM    6  C3  UNL     1     -33.298  16.341  -4.134  1.00 20.00    -0.004 C 
HETATM    7  C8  UNL     1     -33.524  17.793  -3.819  1.00 20.00     0.105 C 
HETATM    8  C7  UNL     1     -34.713  18.035  -2.887  1.00 20.00     0.024 C 
HETATM    9 CL11 UNL     1     -33.761  18.709  -5.336  1.00 20.00    -0.121 Cl
HETATM   10  C6  UNL     1     -34.711  17.023  -1.748  1.00 20.00     0.006 C 
HETATM   11  C5  UNL     1     -34.799  15.596  -2.291  1.00 20.00     0.034 C 
ENDBRANCH   4   5
ENDBRANCH   3   4
TORSDOF 2
ENDMDL
MODEL 9
REMARK VINA RESULT:      -4.4     11.191     12.273
REMARK  2 active torsions:
REMARK  status: ('A' for Active; 'I' for Inactive)
REMARK    1  A    between atoms: C4_4  and  C10_10 
REMARK    2  A    between atoms: C9_9  and  C10_10 
ROOT
HETATM    1  C1  UNL     1     -35.166  13.287  -4.297  1.00 20.00     0.012 C 
HETATM    2  C2  UNL     1     -34.209  13.958  -4.019  1.00 20.00    -0.117 C 
HETATM    3  C9  UNL     1     -33.036  14.775  -3.676  1.00 20.00     0.097 C 
ENDROOT
BRANCH   3   4
HETATM    4  C10 UNL     1     -33.290  16.259  -3.893  1.00 20.00     0.046 C 
BRANCH   4   5
HETATM    5  C4  UNL     1     -34.217  16.790  -2.864  1.00 20.00    -0.081 C 
HETATM    6  C3  UNL     1     -33.974  16.718  -1.540  1.00 20.00    -0.004 C 
HETATM    7  C8  UNL     1     -34.904  17.251  -0.487  1.00 20.00     0.105 C 
HETATM    8  C7  UNL     1     -35.994  18.167  -1.046  1.00 20.00     0.024 C 
HETATM    9 CL11 UNL     1     -33.967  18.131   0.755  1.00 20.00    -0.121 Cl
HETATM   10  C6  UNL     1     -36.583  17.577  -2.322  1.00 20.00     0.006 C 
HETATM   11  C5  UNL     1     -35.499  17.402  -3.388  1.00 20.00     0.034 C 
ENDBRANCH   4   5
ENDBRANCH   3   4
TORSDOF 2
ENDMDL
