MODEL 1
REMARK VINA RESULT:      -4.6      0.000      0.000
REMARK  4 active torsions:
REMARK  status: ('A' for Active; 'I' for Inactive)
REMARK    1  A    between atoms: C2_2  and  C7_7 
REMARK    2  A    between atoms: C7_7  and  C8_8 
REMARK    3  A    between atoms: C8_8  and  C9_9 
REMARK    4  A    between atoms: C9_9  and  O10_10 
ROOT
HETATM    1  C1  UNL     1     -34.513   5.420   3.704  1.00 20.00    -0.004 C 
HETATM    2  C2  UNL     1     -33.375   6.125   3.728  1.00 20.00    -0.082 C 
HETATM    3  C3  UNL     1     -33.055   6.604   5.111  1.00 20.00     0.036 C 
HETATM    4  C4  UNL     1     -34.377   6.387   5.850  1.00 20.00     0.028 C 
HETATM    5  C5  UNL     1     -35.131   5.317   5.059  1.00 20.00     0.105 C 
HETATM    6 CL11 UNL     1     -34.851   3.691   5.722  1.00 20.00    -0.121 Cl
ENDROOT
BRANCH   2   7
HETATM    7  C7  UNL     1     -32.472   6.410   2.584  1.00 20.00     0.036 C 
BRANCH   7   8
HETATM    8  C8  UNL     1     -32.106   7.889   2.525  1.00 20.00     0.030 C 
BRANCH   8   9
HETATM    9  C9  UNL     1     -31.797   8.364   1.110  1.00 20.00     0.167 C 
BRANCH   9  10
HETATM   10  O10 UNL     1     -32.213   9.716   0.980  1.00 20.00    -0.396 OA
HETATM   11  C6  UNL     1     -32.858  10.180   2.159  1.00 20.00     0.201 C 
ENDBRANCH   9  10
ENDBRANCH   8   9
ENDBRANCH   7   8
ENDBRANCH   2   7
TORSDOF 4
ENDMDL
MODEL 2
REMARK VINA RESULT:      -4.3     10.873     11.522
REMARK  4 active torsions:
REMARK  status: ('A' for Active; 'I' for Inactive)
REMARK    1  A    between atoms: C2_2  and  C7_7 
REMARK    2  A    between atoms: C7_7  and  C8_8 
REMARK    3  A    between atoms: C8_8  and  C9_9 
REMARK    4  A    between atoms: C9_9  and  O10_10 
ROOT
HETATM    1  C1  UNL     1     -35.493  15.144  -3.349  1.00 20.00    -0.004 C 
HETATM    2  C2  UNL     1     -34.228  15.455  -3.041  1.00 20.00    -0.082 C 
HETATM    3  C3  UNL     1     -33.256  14.547  -3.729  1.00 20.00     0.036 C 
HETATM    4  C4  UNL     1     -34.153  13.403  -4.207  1.00 20.00     0.028 C 
HETATM    5  C5  UNL     1     -35.568  13.982  -4.284  1.00 20.00     0.105 C 
HETATM    6 CL11 UNL     1     -35.953  14.558  -5.921  1.00 20.00    -0.121 Cl
ENDROOT
BRANCH   2   7
HETATM    7  C7  UNL     1     -33.764  16.565  -2.170  1.00 20.00     0.036 C 
BRANCH   7   8
HETATM    8  C8  UNL     1     -34.581  16.633  -0.884  1.00 20.00     0.030 C 
BRANCH   8   9
HETATM    9  C9  UNL     1     -34.141  17.768   0.034  1.00 20.00     0.167 C 
BRANCH   9  10
HETATM   10  O10 UNL     1     -32.909  18.291  -0.444  1.00 20.00    -0.396 OA
HETATM   11  C6  UNL     1     -32.177  18.934   0.591  1.00 20.00     0.201 C 
ENDBRANCH   9  10
ENDBRANCH   8   9
ENDBRANCH   7   8
ENDBRANCH   2   7
TORSDOF 4
ENDMDL
MODEL 3
REMARK VINA RESULT:      -4.3     10.777     11.446
REMARK  4 active torsions:
REMARK  status: ('A' for Active; 'I' for Inactive)
REMARK    1  A    between atoms: C2_2  and  C7_7 
REMARK    2  A    between atoms: C7_7  and  C8_8 
REMARK    3  A    between atoms: C8_8  and  C9_9 
REMARK    4  A    between atoms: C9_9  and  O10_10 
ROOT
HETATM    1  C1  UNL     1     -35.297  15.030  -3.262  1.00 20.00    -0.004 C 
HETATM    2  C2  UNL     1     -34.109  15.531  -2.899  1.00 20.00    -0.082 C 
HETATM    3  C3  UNL     1     -32.980  14.790  -3.546  1.00 20.00     0.036 C 
HETATM    4  C4  UNL     1     -33.669  13.526  -4.066  1.00 20.00     0.028 C 
HETATM    5  C5  UNL     1     -35.152  13.880  -4.203  1.00 20.00     0.105 C 
HETATM    6 CL11 UNL     1     -35.552  14.405  -5.854  1.00 20.00    -0.121 Cl
ENDROOT
BRANCH   2   7
HETATM    7  C7  UNL     1     -33.860  16.690  -2.005  1.00 20.00     0.036 C 
BRANCH   7   8
HETATM    8  C8  UNL     1     -34.766  16.646  -0.779  1.00 20.00     0.030 C 
BRANCH   8   9
HETATM    9  C9  UNL     1     -34.421  17.718   0.247  1.00 20.00     0.167 C 
BRANCH   9  10
HETATM   10  O10 UNL     1     -35.203  17.502   1.415  1.00 20.00    -0.396 OA
HETATM   11  C6  UNL     1     -36.410  18.253   1.381  1.00 20.00     0.201 C 
ENDBRANCH   9  10
ENDBRANCH   8   9
ENDBRANCH   7   8
ENDBRANCH   2   7
TORSDOF 4
ENDMDL
MODEL 4
REMARK VINA RESULT:      -4.2     10.917     11.836
REMARK  4 active torsions:
REMARK  status: ('A' for Active; 'I' for Inactive)
REMARK    1  A    between atoms: C2_2  and  C7_7 
REMARK    2  A    between atoms: C7_7  and  C8_8 
REMARK    3  A    between atoms: C8_8  and  C9_9 
REMARK    4  A    between atoms: C9_9  and  O10_10 
ROOT
HETATM    1  C1  UNL     1     -35.700  15.727  -2.811  1.00 20.00    -0.004 C 
HETATM    2  C2  UNL     1     -34.927  14.845  -3.460  1.00 20.00    -0.082 C 
HETATM    3  C3  UNL     1     -33.490  15.265  -3.452  1.00 20.00     0.036 C 
HETATM    4  C4  UNL     1     -33.575  16.729  -3.015  1.00 20.00     0.028 C 
HETATM    5  C5  UNL     1     -34.905  16.870  -2.272  1.00 20.00     0.105 C 
HETATM    6 CL11 UNL     1     -34.700  16.679  -0.516  1.00 20.00    -0.121 Cl
ENDROOT
BRANCH   2   7
HETATM    7  C7  UNL     1     -35.358  13.576  -4.099  1.00 20.00     0.036 C 
BRANCH   7   8
HETATM    8  C8  UNL     1     -34.672  13.376  -5.446  1.00 20.00     0.030 C 
BRANCH   8   9
HETATM    9  C9  UNL     1     -35.232  14.287  -6.532  1.00 20.00     0.167 C 
BRANCH   9  10
HETATM   10  O10 UNL     1     -34.179  15.100  -7.035  1.00 20.00    -0.396 OA
HETATM   11  C6  UNL     1     -34.473  16.483  -6.891  1.00 20.00     0.201 C 
ENDBRANCH   9  10
ENDBRANCH   8   9
ENDBRANCH   7   8
ENDBRANCH   2   7
TORSDOF 4
ENDMDL
MODEL 5
REMARK VINA RESULT:      -4.2     10.613     11.754
REMARK  4 active torsions:
REMARK  status: ('A' for Active; 'I' for Inactive)
REMARK    1  A    between atoms: C2_2  and  C7_7 
REMARK    2  A    between atoms: C7_7  and  C8_8 
REMARK    3  A    between atoms: C8_8  and  C9_9 
REMARK    4  A    between atoms: C9_9  and  O10_10 
ROOT
HETATM    1  C1  UNL     1     -34.610  16.145  -1.541  1.00 20.00    -0.004 C 
HETATM    2  C2  UNL     1     -33.987  16.202  -2.725  1.00 20.00    -0.082 C 
HETATM    3  C3  UNL     1     -33.864  17.613  -3.214  1.00 20.00     0.036 C 
HETATM    4  C4  UNL     1     -34.843  18.363  -2.308  1.00 20.00     0.028 C 
HETATM    5  C5  UNL     1     -35.001  17.501  -1.053  1.00 20.00     0.105 C 
HETATM    6 CL11 UNL     1     -33.893  18.014   0.239  1.00 20.00    -0.121 Cl
ENDROOT
BRANCH   2   7
HETATM    7  C7  UNL     1     -33.430  15.065  -3.501  1.00 20.00     0.036 C 
BRANCH   7   8
HETATM    8  C8  UNL     1     -34.399  13.888  -3.526  1.00 20.00     0.030 C 
BRANCH   8   9
HETATM    9  C9  UNL     1     -35.531  14.077  -4.528  1.00 20.00     0.167 C 
BRANCH   9  10
HETATM   10  O10 UNL     1     -36.770  13.873  -3.863  1.00 20.00    -0.396 OA
HETATM   11  C6  UNL     1     -37.483  15.092  -3.700  1.00 20.00     0.201 C 
ENDBRANCH   9  10
ENDBRANCH   8   9
ENDBRANCH   7   8
ENDBRANCH   2   7
TORSDOF 4
ENDMDL
MODEL 6
REMARK VINA RESULT:      -4.1     11.001     11.890
REMARK  4 active torsions:
REMARK  status: ('A' for Active; 'I' for Inactive)
REMARK    1  A    between atoms: C2_2  and  C7_7 
REMARK    2  A    between atoms: C7_7  and  C8_8 
REMARK    3  A    between atoms: C8_8  and  C9_9 
REMARK    4  A    between atoms: C9_9  and  O10_10 
ROOT
HETATM    1  C1  UNL     1     -35.706  14.598  -3.619  1.00 20.00    -0.004 C 
HETATM    2  C2  UNL     1     -34.666  15.133  -2.966  1.00 20.00    -0.082 C 
HETATM    3  C3  UNL     1     -33.364  14.596  -3.474  1.00 20.00     0.036 C 
HETATM    4  C4  UNL     1     -33.803  13.375  -4.285  1.00 20.00     0.028 C 
HETATM    5  C5  UNL     1     -35.266  13.622  -4.659  1.00 20.00     0.105 C 
HETATM    6 CL11 UNL     1     -35.415  14.359  -6.270  1.00 20.00    -0.121 Cl
ENDROOT
BRANCH   2   7
HETATM    7  C7  UNL     1     -34.713  16.158  -1.892  1.00 20.00     0.036 C 
BRANCH   7   8
HETATM    8  C8  UNL     1     -33.816  17.345  -2.224  1.00 20.00     0.030 C 
BRANCH   8   9
HETATM    9  C9  UNL     1     -34.336  18.166  -3.398  1.00 20.00     0.167 C 
BRANCH   9  10
HETATM   10  O10 UNL     1     -33.362  18.151  -4.434  1.00 20.00    -0.396 OA
HETATM   11  C6  UNL     1     -33.899  17.645  -5.648  1.00 20.00     0.201 C 
ENDBRANCH   9  10
ENDBRANCH   8   9
ENDBRANCH   7   8
ENDBRANCH   2   7
TORSDOF 4
ENDMDL
MODEL 7
REMARK VINA RESULT:      -4.1     10.596     11.811
REMARK  4 active torsions:
REMARK  status: ('A' for Active; 'I' for Inactive)
REMARK    1  A    between atoms: C2_2  and  C7_7 
REMARK    2  A    between atoms: C7_7  and  C8_8 
REMARK    3  A    between atoms: C8_8  and  C9_9 
REMARK    4  A    between atoms: C9_9  and  O10_10 
ROOT
HETATM    1  C1  UNL     1     -34.430  17.132  -0.386  1.00 20.00    -0.004 C 
HETATM    2  C2  UNL     1     -34.358  16.918  -1.706  1.00 20.00    -0.082 C 
HETATM    3  C3  UNL     1     -34.004  18.171  -2.447  1.00 20.00     0.036 C 
HETATM    4  C4  UNL     1     -34.238  19.256  -1.393  1.00 20.00     0.028 C 
HETATM    5  C5  UNL     1     -34.138  18.554  -0.037  1.00 20.00     0.105 C 
HETATM    6 CL11 UNL     1     -32.502  18.679   0.647  1.00 20.00    -0.121 Cl
ENDROOT
BRANCH   2   7
HETATM    7  C7  UNL     1     -34.555  15.630  -2.417  1.00 20.00     0.036 C 
BRANCH   7   8
HETATM    8  C8  UNL     1     -33.436  15.379  -3.422  1.00 20.00     0.030 C 
BRANCH   8   9
HETATM    9  C9  UNL     1     -33.119  13.898  -3.594  1.00 20.00     0.167 C 
BRANCH   9  10
HETATM   10  O10 UNL     1     -34.340  13.179  -3.712  1.00 20.00    -0.396 OA
HETATM   11  C6  UNL     1     -34.830  13.198  -5.046  1.00 20.00     0.201 C 
ENDBRANCH   9  10
ENDBRANCH   8   9
ENDBRANCH   7   8
ENDBRANCH   2   7
TORSDOF 4
ENDMDL
MODEL 8
REMARK VINA RESULT:      -4.1     10.923     11.899
REMARK  4 active torsions:
REMARK  status: ('A' for Active; 'I' for Inactive)
REMARK    1  A    between atoms: C2_2  and  C7_7 
REMARK    2  A    between atoms: C7_7  and  C8_8 
REMARK    3  A    between atoms: C8_8  and  C9_9 
REMARK    4  A    between atoms: C9_9  and  O10_10 
ROOT
HETATM    1  C1  UNL     1     -34.333  14.849  -3.078  1.00 20.00    -0.004 C 
HETATM    2  C2  UNL     1     -34.255  16.084  -2.563  1.00 20.00    -0.082 C 
HETATM    3  C3  UNL     1     -33.742  17.067  -3.570  1.00 20.00     0.036 C 
HETATM    4  C4  UNL     1     -33.172  16.157  -4.660  1.00 20.00     0.028 C 
HETATM    5  C5  UNL     1     -33.884  14.812  -4.501  1.00 20.00     0.105 C 
HETATM    6 CL11 UNL     1     -35.299  14.689  -5.571  1.00 20.00    -0.121 Cl
ENDROOT
BRANCH   2   7
HETATM    7  C7  UNL     1     -34.643  16.510  -1.195  1.00 20.00     0.036 C 
BRANCH   7   8
HETATM    8  C8  UNL     1     -33.710  17.597  -0.671  1.00 20.00     0.030 C 
BRANCH   8   9
HETATM    9  C9  UNL     1     -34.147  18.147   0.681  1.00 20.00     0.167 C 
BRANCH   9  10
HETATM   10  O10 UNL     1     -35.186  17.325   1.196  1.00 20.00    -0.396 OA
HETATM   11  C6  UNL     1     -35.462  17.623   2.558  1.00 20.00     0.201 C 
ENDBRANCH   9  10
ENDBRANCH   8   9
ENDBRANCH   7   8
ENDBRANCH   2   7
TORSDOF 4
ENDMDL
MODEL 9
REMARK VINA RESULT:      -4.0      1.459      2.011
REMARK  4 active torsions:
REMARK  status: ('A' for Active; 'I' for Inactive)
REMARK    1  A    between atoms: C2_2  and  C7_7 
REMARK    2  A    between atoms: C7_7  and  C8_8 
REMARK    3  A    between atoms: C8_8  and  C9_9 
REMARK    4  A    between atoms: C9_9  and  O10_10 
ROOT
HETATM    1  C1  UNL     1     -33.255   5.851   5.082  1.00 20.00    -0.004 C 
HETATM    2  C2  UNL     1     -34.061   5.619   4.038  1.00 20.00    -0.082 C 
HETATM    3  C3  UNL     1     -35.420   5.171   4.482  1.00 20.00     0.036 C 
HETATM    4  C4  UNL     1     -35.186   4.814   5.952  1.00 20.00     0.028 C 
HETATM    5  C5  UNL     1     -33.942   5.595   6.382  1.00 20.00     0.105 C 
HETATM    6 CL11 UNL     1     -34.371   7.141   7.147  1.00 20.00    -0.121 Cl
ENDROOT
BRANCH   2   7
HETATM    7  C7  UNL     1     -33.738   5.794   2.599  1.00 20.00     0.036 C 
BRANCH   7   8
HETATM    8  C8  UNL     1     -32.299   6.262   2.411  1.00 20.00     0.030 C 
BRANCH   8   9
HETATM    9  C9  UNL     1     -32.140   7.767   2.590  1.00 20.00     0.167 C 
BRANCH   9  10
HETATM   10  O10 UNL     1     -31.712   8.332   1.358  1.00 20.00    -0.396 OA
HETATM   11  C6  UNL     1     -32.372   9.562   1.090  1.00 20.00     0.201 C 
ENDBRANCH   9  10
ENDBRANCH   8   9
ENDBRANCH   7   8
ENDBRANCH   2   7
TORSDOF 4
ENDMDL
