MODEL 1
REMARK VINA RESULT:      -4.5      0.000      0.000
REMARK  0 active torsions:
REMARK  status: ('A' for Active; 'I' for Inactive)
ROOT
HETATM    1  C1  UNL     1     -34.263  13.998  -3.984  1.00 20.00     0.067 C 
HETATM    2  C2  UNL     1     -33.606  15.292  -3.784  1.00 20.00     0.127 C 
HETATM    3  C3  UNL     1     -34.503  16.335  -3.133  1.00 20.00     0.030 C 
HETATM    4  C4  UNL     1     -33.175  15.997  -5.073  1.00 20.00     0.136 C 
HETATM    5  C5  UNL     1     -33.751  17.619  -3.477  1.00 20.00     0.123 C 
HETATM    6  C6  UNL     1     -34.701  16.139  -1.636  1.00 20.00     0.014 C 
HETATM    7  C7  UNL     1     -34.083  15.800  -6.285  1.00 20.00     0.041 C 
HETATM    8  C8  UNL     1     -34.633  18.855  -3.515  1.00 20.00     0.040 C 
HETATM    9  N9  UNL     1     -34.782  12.972  -4.142  1.00 20.00    -0.197 NA
HETATM   10  O10 UNL     1     -33.174  17.410  -4.777  1.00 20.00    -0.380 OA
ENDROOT
TORSDOF 0
ENDMDL
MODEL 2
REMARK VINA RESULT:      -4.3      2.435      4.079
REMARK  0 active torsions:
REMARK  status: ('A' for Active; 'I' for Inactive)
ROOT
HETATM    1  C1  UNL     1     -33.458  17.649  -5.117  1.00 20.00     0.067 C 
HETATM    2  C2  UNL     1     -33.234  16.215  -4.915  1.00 20.00     0.127 C 
HETATM    3  C3  UNL     1     -34.375  15.344  -5.420  1.00 20.00     0.030 C 
HETATM    4  C4  UNL     1     -33.125  15.784  -3.449  1.00 20.00     0.136 C 
HETATM    5  C5  UNL     1     -34.090  14.037  -4.685  1.00 20.00     0.123 C 
HETATM    6  C6  UNL     1     -34.413  15.184  -6.935  1.00 20.00     0.014 C 
HETATM    7  C7  UNL     1     -33.994  16.552  -2.455  1.00 20.00     0.041 C 
HETATM    8  C8  UNL     1     -35.319  13.168  -4.480  1.00 20.00     0.040 C 
HETATM    9  N9  UNL     1     -33.635  18.785  -5.277  1.00 20.00    -0.197 NA
HETATM   10  O10 UNL     1     -33.554  14.407  -3.403  1.00 20.00    -0.380 OA
ENDROOT
TORSDOF 0
ENDMDL
MODEL 3
REMARK VINA RESULT:      -4.2      1.566      2.901
REMARK  0 active torsions:
REMARK  status: ('A' for Active; 'I' for Inactive)
ROOT
HETATM    1  C1  UNL     1     -35.111  13.695  -4.697  1.00 20.00     0.067 C 
HETATM    2  C2  UNL     1     -35.445  15.093  -4.985  1.00 20.00     0.127 C 
HETATM    3  C3  UNL     1     -34.394  15.810  -5.820  1.00 20.00     0.030 C 
HETATM    4  C4  UNL     1     -35.545  15.994  -3.751  1.00 20.00     0.136 C 
HETATM    5  C5  UNL     1     -34.762  17.269  -5.560  1.00 20.00     0.123 C 
HETATM    6  C6  UNL     1     -34.413  15.441  -7.297  1.00 20.00     0.014 C 
HETATM    7  C7  UNL     1     -34.589  15.675  -2.604  1.00 20.00     0.041 C 
HETATM    8  C8  UNL     1     -33.603  18.234  -5.732  1.00 20.00     0.040 C 
HETATM    9  N9  UNL     1     -34.847  12.588  -4.470  1.00 20.00    -0.197 NA
HETATM   10  O10 UNL     1     -35.229  17.328  -4.201  1.00 20.00    -0.380 OA
ENDROOT
TORSDOF 0
ENDMDL
MODEL 4
REMARK VINA RESULT:      -4.2     12.080     13.456
REMARK  0 active torsions:
REMARK  status: ('A' for Active; 'I' for Inactive)
ROOT
HETATM    1  C1  UNL     1     -32.750   7.255   3.364  1.00 20.00     0.067 C 
HETATM    2  C2  UNL     1     -33.994   6.758   3.959  1.00 20.00     0.127 C 
HETATM    3  C3  UNL     1     -33.787   6.018   5.273  1.00 20.00     0.030 C 
HETATM    4  C4  UNL     1     -34.733   5.715   3.116  1.00 20.00     0.136 C 
HETATM    5  C5  UNL     1     -35.105   5.257   5.388  1.00 20.00     0.123 C 
HETATM    6  C6  UNL     1     -33.514   6.928   6.463  1.00 20.00     0.014 C 
HETATM    7  C7  UNL     1     -33.859   4.761   2.304  1.00 20.00     0.041 C 
HETATM    8  C8  UNL     1     -35.013   3.994   6.227  1.00 20.00     0.040 C 
HETATM    9  N9  UNL     1     -31.765   7.650   2.894  1.00 20.00    -0.197 NA
HETATM   10  O10 UNL     1     -35.484   4.906   4.046  1.00 20.00    -0.380 OA
ENDROOT
TORSDOF 0
ENDMDL
MODEL 5
REMARK VINA RESULT:      -4.2      1.582      2.422
REMARK  0 active torsions:
REMARK  status: ('A' for Active; 'I' for Inactive)
ROOT
HETATM    1  C1  UNL     1     -34.279  15.299  -6.385  1.00 20.00     0.067 C 
HETATM    2  C2  UNL     1     -33.633  15.699  -5.132  1.00 20.00     0.127 C 
HETATM    3  C3  UNL     1     -34.349  15.190  -3.890  1.00 20.00     0.030 C 
HETATM    4  C4  UNL     1     -33.596  17.210  -4.885  1.00 20.00     0.136 C 
HETATM    5  C5  UNL     1     -33.762  16.107  -2.819  1.00 20.00     0.123 C 
HETATM    6  C6  UNL     1     -34.123  13.711  -3.602  1.00 20.00     0.014 C 
HETATM    7  C7  UNL     1     -34.795  18.006  -5.395  1.00 20.00     0.041 C 
HETATM    8  C8  UNL     1     -34.660  16.289  -1.608  1.00 20.00     0.040 C 
HETATM    9  N9  UNL     1     -34.789  14.982  -7.378  1.00 20.00    -0.197 NA
HETATM   10  O10 UNL     1     -33.558  17.382  -3.453  1.00 20.00    -0.380 OA
ENDROOT
TORSDOF 0
ENDMDL
MODEL 6
REMARK VINA RESULT:      -4.1      2.118      2.777
REMARK  0 active torsions:
REMARK  status: ('A' for Active; 'I' for Inactive)
ROOT
HETATM    1  C1  UNL     1     -37.293  14.772  -3.633  1.00 20.00     0.067 C 
HETATM    2  C2  UNL     1     -35.980  15.363  -3.364  1.00 20.00     0.127 C 
HETATM    3  C3  UNL     1     -35.602  16.473  -4.335  1.00 20.00     0.030 C 
HETATM    4  C4  UNL     1     -34.800  14.396  -3.506  1.00 20.00     0.136 C 
HETATM    5  C5  UNL     1     -34.093  16.551  -4.114  1.00 20.00     0.123 C 
HETATM    6  C6  UNL     1     -36.314  17.794  -4.079  1.00 20.00     0.014 C 
HETATM    7  C7  UNL     1     -34.931  13.330  -4.591  1.00 20.00     0.041 C 
HETATM    8  C8  UNL     1     -33.326  17.101  -5.304  1.00 20.00     0.040 C 
HETATM    9  N9  UNL     1     -38.333  14.303  -3.846  1.00 20.00    -0.197 NA
HETATM   10  O10 UNL     1     -33.657  15.206  -3.851  1.00 20.00    -0.380 OA
ENDROOT
TORSDOF 0
ENDMDL
MODEL 7
REMARK VINA RESULT:      -4.1      2.200      2.575
REMARK  0 active torsions:
REMARK  status: ('A' for Active; 'I' for Inactive)
ROOT
HETATM    1  C1  UNL     1     -37.184  14.439  -3.992  1.00 20.00     0.067 C 
HETATM    2  C2  UNL     1     -35.768  14.513  -4.361  1.00 20.00     0.127 C 
HETATM    3  C3  UNL     1     -35.101  15.820  -3.955  1.00 20.00     0.030 C 
HETATM    4  C4  UNL     1     -35.495  14.467  -5.867  1.00 20.00     0.136 C 
HETATM    5  C5  UNL     1     -33.857  15.798  -4.839  1.00 20.00     0.123 C 
HETATM    6  C6  UNL     1     -34.779  15.920  -2.469  1.00 20.00     0.014 C 
HETATM    7  C7  UNL     1     -36.536  15.138  -6.760  1.00 20.00     0.041 C 
HETATM    8  C8  UNL     1     -33.292  17.175  -5.138  1.00 20.00     0.040 C 
HETATM    9  N9  UNL     1     -38.305  14.380  -3.699  1.00 20.00    -0.197 NA
HETATM   10  O10 UNL     1     -34.252  15.171  -6.072  1.00 20.00    -0.380 OA
ENDROOT
TORSDOF 0
ENDMDL
MODEL 8
REMARK VINA RESULT:      -4.1      1.791      3.010
REMARK  0 active torsions:
REMARK  status: ('A' for Active; 'I' for Inactive)
ROOT
HETATM    1  C1  UNL     1     -33.915  13.756  -3.879  1.00 20.00     0.067 C 
HETATM    2  C2  UNL     1     -35.022  14.619  -4.300  1.00 20.00     0.127 C 
HETATM    3  C3  UNL     1     -34.622  15.658  -5.338  1.00 20.00     0.030 C 
HETATM    4  C4  UNL     1     -35.614  15.488  -3.186  1.00 20.00     0.136 C 
HETATM    5  C5  UNL     1     -35.782  16.644  -5.223  1.00 20.00     0.123 C 
HETATM    6  C6  UNL     1     -34.448  15.099  -6.744  1.00 20.00     0.014 C 
HETATM    7  C7  UNL     1     -34.633  15.992  -2.131  1.00 20.00     0.041 C 
HETATM    8  C8  UNL     1     -35.431  18.058  -5.653  1.00 20.00     0.040 C 
HETATM    9  N9  UNL     1     -33.039  13.072  -3.546  1.00 20.00    -0.197 NA
HETATM   10  O10 UNL     1     -36.165  16.653  -3.836  1.00 20.00    -0.380 OA
ENDROOT
TORSDOF 0
ENDMDL
MODEL 9
REMARK VINA RESULT:      -4.0      2.482      3.619
REMARK  0 active torsions:
REMARK  status: ('A' for Active; 'I' for Inactive)
ROOT
HETATM    1  C1  UNL     1     -34.558  16.229  -1.617  1.00 20.00     0.067 C 
HETATM    2  C2  UNL     1     -34.868  15.288  -2.697  1.00 20.00     0.127 C 
HETATM    3  C3  UNL     1     -33.931  15.401  -3.891  1.00 20.00     0.030 C 
HETATM    4  C4  UNL     1     -36.241  15.490  -3.346  1.00 20.00     0.136 C 
HETATM    5  C5  UNL     1     -34.745  14.688  -4.968  1.00 20.00     0.123 C 
HETATM    6  C6  UNL     1     -32.558  14.780  -3.666  1.00 20.00     0.014 C 
HETATM    7  C7  UNL     1     -36.734  16.931  -3.446  1.00 20.00     0.041 C 
HETATM    8  C8  UNL     1     -34.406  15.124  -6.382  1.00 20.00     0.040 C 
HETATM    9  N9  UNL     1     -34.312  16.973  -0.762  1.00 20.00    -0.197 NA
HETATM   10  O10 UNL     1     -36.124  14.993  -4.696  1.00 20.00    -0.380 OA
ENDROOT
TORSDOF 0
ENDMDL
