MODEL 1
REMARK VINA RESULT:      -4.8      0.000      0.000
REMARK  0 active torsions:
REMARK  status: ('A' for Active; 'I' for Inactive)
ROOT
HETATM    1  C1  UNL     1     -33.804  18.137  -3.215  1.00 20.00     0.019 A 
HETATM    2  C2  UNL     1     -33.658  18.970  -2.128  1.00 20.00     0.050 A 
HETATM    3  C3  UNL     1     -34.065  16.638  -1.458  1.00 20.00     0.061 A 
HETATM    4  C4  UNL     1     -34.041  16.786  -2.827  1.00 20.00    -0.023 A 
HETATM    5  C5  UNL     1     -34.455  14.425  -3.420  1.00 20.00     0.058 A 
HETATM    6  C6  UNL     1     -34.230  15.712  -3.717  1.00 20.00    -0.043 A 
HETATM    7  C7  UNL     1     -34.581  13.714  -4.700  1.00 20.00     0.150 A 
HETATM    8  C8  UNL     1     -34.186  15.984  -5.198  1.00 20.00     0.047 A 
HETATM    9  C9  UNL     1     -34.420  14.636  -5.867  1.00 20.00     0.087 A 
HETATM   10  O10 UNL     1     -34.792  12.513  -4.779  1.00 20.00    -0.293 OA
HETATM   11  S11 UNL     1     -33.804  18.123  -0.646  1.00 20.00    -0.113 SA
ENDROOT
TORSDOF 0
ENDMDL
MODEL 2
REMARK VINA RESULT:      -4.6      1.164      2.002
REMARK  0 active torsions:
REMARK  status: ('A' for Active; 'I' for Inactive)
ROOT
HETATM    1  C1  UNL     1     -34.433  16.246  -1.534  1.00 20.00     0.019 A 
HETATM    2  C2  UNL     1     -34.196  17.305  -0.685  1.00 20.00     0.050 A 
HETATM    3  C3  UNL     1     -33.810  17.904  -3.039  1.00 20.00     0.061 A 
HETATM    4  C4  UNL     1     -34.209  16.593  -2.898  1.00 20.00    -0.023 A 
HETATM    5  C5  UNL     1     -34.178  15.979  -5.290  1.00 20.00     0.058 A 
HETATM    6  C6  UNL     1     -34.370  15.719  -3.990  1.00 20.00    -0.043 A 
HETATM    7  C7  UNL     1     -34.478  14.738  -6.016  1.00 20.00     0.150 A 
HETATM    8  C8  UNL     1     -34.808  14.303  -3.723  1.00 20.00     0.047 A 
HETATM    9  C9  UNL     1     -34.886  13.636  -5.091  1.00 20.00     0.087 A 
HETATM   10  O10 UNL     1     -34.398  14.640  -7.232  1.00 20.00    -0.293 OA
HETATM   11  S11 UNL     1     -33.707  18.711  -1.533  1.00 20.00    -0.113 SA
ENDROOT
TORSDOF 0
ENDMDL
MODEL 3
REMARK VINA RESULT:      -4.6      1.481      1.626
REMARK  0 active torsions:
REMARK  status: ('A' for Active; 'I' for Inactive)
ROOT
HETATM    1  C1  UNL     1     -33.665  17.611  -1.736  1.00 20.00     0.019 A 
HETATM    2  C2  UNL     1     -34.148  18.742  -1.114  1.00 20.00     0.050 A 
HETATM    3  C3  UNL     1     -35.959  17.279  -1.907  1.00 20.00     0.061 A 
HETATM    4  C4  UNL     1     -34.715  16.764  -2.196  1.00 20.00    -0.023 A 
HETATM    5  C5  UNL     1     -35.466  14.699  -3.322  1.00 20.00     0.058 A 
HETATM    6  C6  UNL     1     -34.529  15.540  -2.866  1.00 20.00    -0.043 A 
HETATM    7  C7  UNL     1     -34.756  13.573  -3.943  1.00 20.00     0.150 A 
HETATM    8  C8  UNL     1     -33.123  15.069  -3.134  1.00 20.00     0.047 A 
HETATM    9  C9  UNL     1     -33.271  13.737  -3.859  1.00 20.00     0.087 A 
HETATM   10  O10 UNL     1     -35.328  12.625  -4.460  1.00 20.00    -0.293 OA
HETATM   11  S11 UNL     1     -35.860  18.778  -1.086  1.00 20.00    -0.113 SA
ENDROOT
TORSDOF 0
ENDMDL
MODEL 4
REMARK VINA RESULT:      -4.6      1.473      1.744
REMARK  0 active torsions:
REMARK  status: ('A' for Active; 'I' for Inactive)
ROOT
HETATM    1  C1  UNL     1     -35.883  17.735  -1.620  1.00 20.00     0.019 A 
HETATM    2  C2  UNL     1     -35.316  18.679  -0.793  1.00 20.00     0.050 A 
HETATM    3  C3  UNL     1     -33.711  16.930  -1.436  1.00 20.00     0.061 A 
HETATM    4  C4  UNL     1     -34.953  16.721  -1.992  1.00 20.00    -0.023 A 
HETATM    5  C5  UNL     1     -34.420  14.644  -3.217  1.00 20.00     0.058 A 
HETATM    6  C6  UNL     1     -35.244  15.627  -2.829  1.00 20.00    -0.043 A 
HETATM    7  C7  UNL     1     -35.207  13.753  -4.080  1.00 20.00     0.150 A 
HETATM    8  C8  UNL     1     -36.638  15.492  -3.384  1.00 20.00     0.047 A 
HETATM    9  C9  UNL     1     -36.617  14.227  -4.233  1.00 20.00     0.087 A 
HETATM   10  O10 UNL     1     -34.744  12.749  -4.603  1.00 20.00    -0.293 OA
HETATM   11  S11 UNL     1     -33.668  18.343  -0.470  1.00 20.00    -0.113 SA
ENDROOT
TORSDOF 0
ENDMDL
MODEL 5
REMARK VINA RESULT:      -4.6      2.845      3.612
REMARK  0 active torsions:
REMARK  status: ('A' for Active; 'I' for Inactive)
ROOT
HETATM    1  C1  UNL     1     -33.496  18.186  -5.718  1.00 20.00     0.019 A 
HETATM    2  C2  UNL     1     -33.703  19.244  -6.575  1.00 20.00     0.050 A 
HETATM    3  C3  UNL     1     -34.835  17.199  -7.342  1.00 20.00     0.061 A 
HETATM    4  C4  UNL     1     -34.151  17.001  -6.163  1.00 20.00    -0.023 A 
HETATM    5  C5  UNL     1     -34.712  14.615  -5.855  1.00 20.00     0.058 A 
HETATM    6  C6  UNL     1     -34.121  15.762  -5.495  1.00 20.00    -0.043 A 
HETATM    7  C7  UNL     1     -34.371  13.625  -4.826  1.00 20.00     0.150 A 
HETATM    8  C8  UNL     1     -33.339  15.653  -4.211  1.00 20.00     0.047 A 
HETATM    9  C9  UNL     1     -33.509  14.210  -3.753  1.00 20.00     0.087 A 
HETATM   10  O10 UNL     1     -34.759  12.466  -4.860  1.00 20.00    -0.293 OA
HETATM   11  S11 UNL     1     -34.686  18.809  -7.908  1.00 20.00    -0.113 SA
ENDROOT
TORSDOF 0
ENDMDL
MODEL 6
REMARK VINA RESULT:      -4.4      3.171      4.809
REMARK  0 active torsions:
REMARK  status: ('A' for Active; 'I' for Inactive)
ROOT
HETATM    1  C1  UNL     1     -33.440  16.765  -4.113  1.00 20.00     0.019 A 
HETATM    2  C2  UNL     1     -33.512  15.841  -5.131  1.00 20.00     0.050 A 
HETATM    3  C3  UNL     1     -34.576  15.028  -3.067  1.00 20.00     0.061 A 
HETATM    4  C4  UNL     1     -34.055  16.294  -2.917  1.00 20.00    -0.023 A 
HETATM    5  C5  UNL     1     -34.699  16.636  -0.557  1.00 20.00     0.058 A 
HETATM    6  C6  UNL     1     -34.138  17.018  -1.712  1.00 20.00    -0.043 A 
HETATM    7  C7  UNL     1     -34.517  17.747   0.386  1.00 20.00     0.150 A 
HETATM    8  C8  UNL     1     -33.533  18.396  -1.655  1.00 20.00     0.047 A 
HETATM    9  C9  UNL     1     -33.790  18.895  -0.238  1.00 20.00     0.087 A 
HETATM   10  O10 UNL     1     -34.920  17.716   1.540  1.00 20.00    -0.293 OA
HETATM   11  S11 UNL     1     -34.321  14.412  -4.645  1.00 20.00    -0.113 SA
ENDROOT
TORSDOF 0
ENDMDL
MODEL 7
REMARK VINA RESULT:      -4.4      3.033      4.641
REMARK  0 active torsions:
REMARK  status: ('A' for Active; 'I' for Inactive)
ROOT
HETATM    1  C1  UNL     1     -34.154  15.840  -5.052  1.00 20.00     0.019 A 
HETATM    2  C2  UNL     1     -34.372  14.710  -5.808  1.00 20.00     0.050 A 
HETATM    3  C3  UNL     1     -34.663  14.285  -3.402  1.00 20.00     0.061 A 
HETATM    4  C4  UNL     1     -34.321  15.594  -3.659  1.00 20.00    -0.023 A 
HETATM    5  C5  UNL     1     -34.307  16.394  -1.322  1.00 20.00     0.058 A 
HETATM    6  C6  UNL     1     -34.165  16.557  -2.644  1.00 20.00    -0.043 A 
HETATM    7  C7  UNL     1     -34.034  17.698  -0.705  1.00 20.00     0.150 A 
HETATM    8  C8  UNL     1     -33.787  17.962  -3.034  1.00 20.00     0.047 A 
HETATM    9  C9  UNL     1     -33.701  18.739  -1.726  1.00 20.00     0.087 A 
HETATM   10  O10 UNL     1     -34.080  17.889   0.502  1.00 20.00    -0.293 OA
HETATM   11  S11 UNL     1     -34.779  13.358  -4.838  1.00 20.00    -0.113 SA
ENDROOT
TORSDOF 0
ENDMDL
MODEL 8
REMARK VINA RESULT:      -4.4      1.891      2.147
REMARK  0 active torsions:
REMARK  status: ('A' for Active; 'I' for Inactive)
ROOT
HETATM    1  C1  UNL     1     -34.941  17.767  -2.112  1.00 20.00     0.019 A 
HETATM    2  C2  UNL     1     -35.760  18.811  -1.746  1.00 20.00     0.050 A 
HETATM    3  C3  UNL     1     -37.000  17.023  -2.894  1.00 20.00     0.061 A 
HETATM    4  C4  UNL     1     -35.658  16.731  -2.778  1.00 20.00    -0.023 A 
HETATM    5  C5  UNL     1     -35.703  14.531  -3.899  1.00 20.00     0.058 A 
HETATM    6  C6  UNL     1     -35.089  15.540  -3.267  1.00 20.00    -0.043 A 
HETATM    7  C7  UNL     1     -34.669  13.533  -4.201  1.00 20.00     0.150 A 
HETATM    8  C8  UNL     1     -33.609  15.321  -3.090  1.00 20.00     0.047 A 
HETATM    9  C9  UNL     1     -33.321  13.963  -3.717  1.00 20.00     0.087 A 
HETATM   10  O10 UNL     1     -34.904  12.482  -4.780  1.00 20.00    -0.293 OA
HETATM   11  S11 UNL     1     -37.389  18.541  -2.202  1.00 20.00    -0.113 SA
ENDROOT
TORSDOF 0
ENDMDL
MODEL 9
REMARK VINA RESULT:      -4.3     13.296     14.962
REMARK  0 active torsions:
REMARK  status: ('A' for Active; 'I' for Inactive)
ROOT
HETATM    1  C1  UNL     1     -41.417   2.422  -3.111  1.00 20.00     0.019 A 
HETATM    2  C2  UNL     1     -41.882   1.500  -4.022  1.00 20.00     0.050 A 
HETATM    3  C3  UNL     1     -43.412   3.410  -3.776  1.00 20.00     0.061 A 
HETATM    4  C4  UNL     1     -42.304   3.528  -2.967  1.00 20.00    -0.023 A 
HETATM    5  C5  UNL     1     -42.883   5.692  -1.928  1.00 20.00     0.058 A 
HETATM    6  C6  UNL     1     -42.094   4.625  -2.110  1.00 20.00    -0.043 A 
HETATM    7  C7  UNL     1     -42.218   6.542  -0.931  1.00 20.00     0.150 A 
HETATM    8  C8  UNL     1     -40.847   4.654  -1.266  1.00 20.00     0.047 A 
HETATM    9  C9  UNL     1     -40.925   5.950  -0.469  1.00 20.00     0.087 A 
HETATM   10  O10 UNL     1     -42.684   7.602  -0.540  1.00 20.00    -0.293 OA
HETATM   11  S11 UNL     1     -43.382   1.970  -4.702  1.00 20.00    -0.113 SA
ENDROOT
TORSDOF 0
ENDMDL
