MODEL 1
REMARK VINA RESULT:      -5.6      0.000      0.000
REMARK  2 active torsions:
REMARK  status: ('A' for Active; 'I' for Inactive)
REMARK    1  A    between atoms: C4_4  and  C9_9 
REMARK    2  A    between atoms: C8_8  and  O10_10 
ROOT
HETATM    1  C1  UNL     1     -32.241   8.746   1.328  1.00 20.00     0.012 C 
HETATM    2  C2  UNL     1     -32.014   8.038   2.271  1.00 20.00    -0.113 C 
HETATM    3  C9  UNL     1     -31.717   7.182   3.417  1.00 20.00     0.127 C 
ENDROOT
BRANCH   3   4
HETATM    4  C4  UNL     1     -32.966   6.481   3.860  1.00 20.00    -0.070 C 
HETATM    5  C3  UNL     1     -33.361   6.476   5.146  1.00 20.00     0.008 C 
HETATM    6  C8  UNL     1     -34.587   5.762   5.634  1.00 20.00     0.141 C 
HETATM    7  C7  UNL     1     -35.147   4.767   4.614  1.00 20.00     0.036 C 
HETATM    8  C6  UNL     1     -35.163   5.369   3.217  1.00 20.00     0.007 C 
HETATM    9  C5  UNL     1     -33.755   5.782   2.780  1.00 20.00     0.035 C 
BRANCH   6  10
HETATM   10  O10 UNL     1     -34.261   5.062   6.832  1.00 20.00    -0.392 OA
HETATM   11  H22 UNL     1     -33.835   5.705   7.420  1.00 20.00     0.210 HD
ENDBRANCH   6  10
ENDBRANCH   3   4
TORSDOF 2
ENDMDL
MODEL 2
REMARK VINA RESULT:      -4.9     11.115     11.752
REMARK  2 active torsions:
REMARK  status: ('A' for Active; 'I' for Inactive)
REMARK    1  A    between atoms: C4_4  and  C9_9 
REMARK    2  A    between atoms: C8_8  and  O10_10 
ROOT
HETATM    1  C1  UNL     1     -34.820  17.031  -0.008  1.00 20.00     0.012 C 
HETATM    2  C2  UNL     1     -34.317  16.921  -1.093  1.00 20.00    -0.113 C 
HETATM    3  C9  UNL     1     -33.692  16.804  -2.409  1.00 20.00     0.127 C 
ENDROOT
BRANCH   3   4
HETATM    4  C4  UNL     1     -34.320  15.673  -3.166  1.00 20.00    -0.070 C 
HETATM    5  C3  UNL     1     -35.627  15.670  -3.486  1.00 20.00     0.008 C 
HETATM    6  C8  UNL     1     -36.299  14.544  -4.216  1.00 20.00     0.141 C 
HETATM    7  C7  UNL     1     -35.455  13.267  -4.255  1.00 20.00     0.036 C 
HETATM    8  C6  UNL     1     -34.003  13.582  -4.582  1.00 20.00     0.007 C 
HETATM    9  C5  UNL     1     -33.402  14.538  -3.548  1.00 20.00     0.035 C 
BRANCH   6  10
HETATM   10  O10 UNL     1     -37.539  14.260  -3.573  1.00 20.00    -0.392 OA
HETATM   11  H22 UNL     1     -37.679  14.963  -2.920  1.00 20.00     0.210 HD
ENDBRANCH   6  10
ENDBRANCH   3   4
TORSDOF 2
ENDMDL
MODEL 3
REMARK VINA RESULT:      -4.9     11.316     12.197
REMARK  2 active torsions:
REMARK  status: ('A' for Active; 'I' for Inactive)
REMARK    1  A    between atoms: C4_4  and  C9_9 
REMARK    2  A    between atoms: C8_8  and  O10_10 
ROOT
HETATM    1  C1  UNL     1     -34.816  16.715  -0.557  1.00 20.00     0.012 C 
HETATM    2  C2  UNL     1     -34.153  16.662  -1.557  1.00 20.00    -0.113 C 
HETATM    3  C9  UNL     1     -33.332  16.612  -2.764  1.00 20.00     0.127 C 
ENDROOT
BRANCH   3   4
HETATM    4  C4  UNL     1     -34.008  15.763  -3.799  1.00 20.00    -0.070 C 
HETATM    5  C3  UNL     1     -34.827  14.749  -3.463  1.00 20.00     0.008 C 
HETATM    6  C8  UNL     1     -35.498  13.859  -4.467  1.00 20.00     0.141 C 
HETATM    7  C7  UNL     1     -34.903  13.984  -5.872  1.00 20.00     0.036 C 
HETATM    8  C6  UNL     1     -34.667  15.443  -6.236  1.00 20.00     0.007 C 
HETATM    9  C5  UNL     1     -33.717  16.111  -5.238  1.00 20.00     0.035 C 
BRANCH   6  10
HETATM   10  O10 UNL     1     -35.375  12.507  -4.031  1.00 20.00    -0.392 OA
HETATM   11  H22 UNL     1     -34.606  12.476  -3.441  1.00 20.00     0.210 HD
ENDBRANCH   6  10
ENDBRANCH   3   4
TORSDOF 2
ENDMDL
MODEL 4
REMARK VINA RESULT:      -4.7     10.934     11.725
REMARK  2 active torsions:
REMARK  status: ('A' for Active; 'I' for Inactive)
REMARK    1  A    between atoms: C4_4  and  C9_9 
REMARK    2  A    between atoms: C8_8  and  O10_10 
ROOT
HETATM    1  C1  UNL     1     -34.854  17.289   0.161  1.00 20.00     0.012 C 
HETATM    2  C2  UNL     1     -34.358  16.951  -0.879  1.00 20.00    -0.113 C 
HETATM    3  C9  UNL     1     -33.738  16.554  -2.141  1.00 20.00     0.127 C 
ENDROOT
BRANCH   3   4
HETATM    4  C4  UNL     1     -34.639  15.600  -2.866  1.00 20.00    -0.070 C 
HETATM    5  C3  UNL     1     -34.240  14.359  -3.200  1.00 20.00     0.008 C 
HETATM    6  C8  UNL     1     -35.100  13.386  -3.952  1.00 20.00     0.141 C 
HETATM    7  C7  UNL     1     -36.322  14.042  -4.599  1.00 20.00     0.036 C 
HETATM    8  C6  UNL     1     -36.992  15.014  -3.639  1.00 20.00     0.007 C 
HETATM    9  C5  UNL     1     -36.018  16.112  -3.201  1.00 20.00     0.035 C 
BRANCH   6  10
HETATM   10  O10 UNL     1     -34.311  12.772  -4.968  1.00 20.00    -0.392 OA
HETATM   11  H22 UNL     1     -33.448  12.579  -4.569  1.00 20.00     0.210 HD
ENDBRANCH   6  10
ENDBRANCH   3   4
TORSDOF 2
ENDMDL
MODEL 5
REMARK VINA RESULT:      -4.7     11.846     12.377
REMARK  2 active torsions:
REMARK  status: ('A' for Active; 'I' for Inactive)
REMARK    1  A    between atoms: C4_4  and  C9_9 
REMARK    2  A    between atoms: C8_8  and  O10_10 
ROOT
HETATM    1  C1  UNL     1     -32.921  18.519  -0.607  1.00 20.00     0.012 C 
HETATM    2  C2  UNL     1     -33.737  17.646  -0.719  1.00 20.00    -0.113 C 
HETATM    3  C9  UNL     1     -34.736  16.585  -0.835  1.00 20.00     0.127 C 
ENDROOT
BRANCH   3   4
HETATM    4  C4  UNL     1     -34.694  16.002  -2.216  1.00 20.00    -0.070 C 
HETATM    5  C3  UNL     1     -33.534  15.780  -2.860  1.00 20.00     0.008 C 
HETATM    6  C8  UNL     1     -33.452  15.228  -4.252  1.00 20.00     0.141 C 
HETATM    7  C7  UNL     1     -34.791  15.267  -4.993  1.00 20.00     0.036 C 
HETATM    8  C6  UNL     1     -35.926  14.803  -4.092  1.00 20.00     0.007 C 
HETATM    9  C5  UNL     1     -36.029  15.681  -2.842  1.00 20.00     0.035 C 
BRANCH   6  10
HETATM   10  O10 UNL     1     -32.494  15.985  -4.987  1.00 20.00    -0.392 OA
HETATM   11  H22 UNL     1     -31.786  15.371  -5.234  1.00 20.00     0.210 HD
ENDBRANCH   6  10
ENDBRANCH   3   4
TORSDOF 2
ENDMDL
MODEL 6
REMARK VINA RESULT:      -4.5     11.021     13.131
REMARK  2 active torsions:
REMARK  status: ('A' for Active; 'I' for Inactive)
REMARK    1  A    between atoms: C4_4  and  C9_9 
REMARK    2  A    between atoms: C8_8  and  O10_10 
ROOT
HETATM    1  C1  UNL     1     -37.449  15.996  -7.589  1.00 20.00     0.012 C 
HETATM    2  C2  UNL     1     -36.254  16.004  -7.475  1.00 20.00    -0.113 C 
HETATM    3  C9  UNL     1     -34.798  16.024  -7.357  1.00 20.00     0.127 C 
ENDROOT
BRANCH   3   4
HETATM    4  C4  UNL     1     -34.386  15.350  -6.083  1.00 20.00    -0.070 C 
HETATM    5  C3  UNL     1     -34.656  14.053  -5.845  1.00 20.00     0.008 C 
HETATM    6  C8  UNL     1     -34.289  13.351  -4.570  1.00 20.00     0.141 C 
HETATM    7  C7  UNL     1     -33.899  14.313  -3.446  1.00 20.00     0.036 C 
HETATM    8  C6  UNL     1     -32.980  15.412  -3.962  1.00 20.00     0.007 C 
HETATM    9  C5  UNL     1     -33.654  16.210  -5.082  1.00 20.00     0.035 C 
BRANCH   6  10
HETATM   10  O10 UNL     1     -35.401  12.568  -4.145  1.00 20.00    -0.392 OA
HETATM   11  H22 UNL     1     -36.154  13.175  -4.070  1.00 20.00     0.210 HD
ENDBRANCH   6  10
ENDBRANCH   3   4
TORSDOF 2
ENDMDL
MODEL 7
REMARK VINA RESULT:      -4.4      1.304      2.007
REMARK  2 active torsions:
REMARK  status: ('A' for Active; 'I' for Inactive)
REMARK    1  A    between atoms: C4_4  and  C9_9 
REMARK    2  A    between atoms: C8_8  and  O10_10 
ROOT
HETATM    1  C1  UNL     1     -32.171   8.788   2.307  1.00 20.00     0.012 C 
HETATM    2  C2  UNL     1     -32.348   7.612   2.469  1.00 20.00    -0.113 C 
HETATM    3  C9  UNL     1     -32.556   6.176   2.645  1.00 20.00     0.127 C 
ENDROOT
BRANCH   3   4
HETATM    4  C4  UNL     1     -33.209   5.921   3.971  1.00 20.00    -0.070 C 
HETATM    5  C3  UNL     1     -33.721   4.719   4.292  1.00 20.00     0.008 C 
HETATM    6  C8  UNL     1     -34.408   4.432   5.595  1.00 20.00     0.141 C 
HETATM    7  C7  UNL     1     -34.777   5.700   6.370  1.00 20.00     0.036 C 
HETATM    8  C6  UNL     1     -33.631   6.701   6.356  1.00 20.00     0.007 C 
HETATM    9  C5  UNL     1     -33.259   7.091   4.923  1.00 20.00     0.035 C 
BRANCH   6  10
HETATM   10  O10 UNL     1     -35.595   3.689   5.330  1.00 20.00    -0.392 OA
HETATM   11  H22 UNL     1     -35.337   2.952   4.755  1.00 20.00     0.210 HD
ENDBRANCH   6  10
ENDBRANCH   3   4
TORSDOF 2
ENDMDL
MODEL 8
REMARK VINA RESULT:      -4.4      9.486     10.834
REMARK  2 active torsions:
REMARK  status: ('A' for Active; 'I' for Inactive)
REMARK    1  A    between atoms: C4_4  and  C9_9 
REMARK    2  A    between atoms: C8_8  and  O10_10 
ROOT
HETATM    1  C1  UNL     1     -41.950   9.019  -5.066  1.00 20.00     0.012 C 
HETATM    2  C2  UNL     1     -42.588   8.253  -4.398  1.00 20.00    -0.113 C 
HETATM    3  C9  UNL     1     -43.383   7.325  -3.596  1.00 20.00     0.127 C 
ENDROOT
BRANCH   3   4
HETATM    4  C4  UNL     1     -42.515   6.689  -2.552  1.00 20.00    -0.070 C 
HETATM    5  C3  UNL     1     -42.249   5.371  -2.555  1.00 20.00     0.008 C 
HETATM    6  C8  UNL     1     -41.410   4.692  -1.512  1.00 20.00     0.141 C 
HETATM    7  C7  UNL     1     -41.176   5.559  -0.273  1.00 20.00     0.036 C 
HETATM    8  C6  UNL     1     -40.834   6.989  -0.665  1.00 20.00     0.007 C 
HETATM    9  C5  UNL     1     -41.956   7.614  -1.498  1.00 20.00     0.035 C 
BRANCH   6  10
HETATM   10  O10 UNL     1     -42.061   3.486  -1.118  1.00 20.00    -0.392 OA
HETATM   11  H22 UNL     1     -42.359   3.054  -1.933  1.00 20.00     0.210 HD
ENDBRANCH   6  10
ENDBRANCH   3   4
TORSDOF 2
ENDMDL
MODEL 9
REMARK VINA RESULT:      -4.3     10.819     12.322
REMARK  2 active torsions:
REMARK  status: ('A' for Active; 'I' for Inactive)
REMARK    1  A    between atoms: C4_4  and  C9_9 
REMARK    2  A    between atoms: C8_8  and  O10_10 
ROOT
HETATM    1  C1  UNL     1     -36.633  18.744  -4.280  1.00 20.00     0.012 C 
HETATM    2  C2  UNL     1     -36.357  17.916  -3.456  1.00 20.00    -0.113 C 
HETATM    3  C9  UNL     1     -36.033  16.918  -2.439  1.00 20.00     0.127 C 
ENDROOT
BRANCH   3   4
HETATM    4  C4  UNL     1     -35.144  15.866  -3.030  1.00 20.00    -0.070 C 
HETATM    5  C3  UNL     1     -35.636  14.844  -3.753  1.00 20.00     0.008 C 
HETATM    6  C8  UNL     1     -34.784  13.755  -4.336  1.00 20.00     0.141 C 
HETATM    7  C7  UNL     1     -33.371  13.721  -3.749  1.00 20.00     0.036 C 
HETATM    8  C6  UNL     1     -32.789  15.124  -3.646  1.00 20.00     0.007 C 
HETATM    9  C5  UNL     1     -33.666  16.018  -2.766  1.00 20.00     0.035 C 
BRANCH   6  10
HETATM   10  O10 UNL     1     -35.417  12.501  -4.092  1.00 20.00    -0.392 OA
HETATM   11  H22 UNL     1     -36.135  12.423  -4.739  1.00 20.00     0.210 HD
ENDBRANCH   6  10
ENDBRANCH   3   4
TORSDOF 2
ENDMDL
