MODEL 1
REMARK VINA RESULT:      -4.9      0.000      0.000
REMARK  1 active torsions:
REMARK  status: ('A' for Active; 'I' for Inactive)
REMARK    1  A    between atoms: C2_2  and  C10_10 
ROOT
HETATM    1  C1  UNL     1     -42.437   5.861  -2.564  1.00 20.00    -0.004 C 
HETATM    2  C2  UNL     1     -41.967   4.637  -2.258  1.00 20.00    -0.076 C 
HETATM    3  C3  UNL     1     -40.982   4.441  -1.125  1.00 20.00     0.034 C 
HETATM    4  C4  UNL     1     -40.860   5.642  -0.186  1.00 20.00     0.006 C 
HETATM    5  C5  UNL     1     -40.795   6.946  -0.974  1.00 20.00     0.024 C 
HETATM    6  C9  UNL     1     -42.023   7.126  -1.870  1.00 20.00     0.105 C 
HETATM    7 CL12 UNL     1     -43.416   7.713  -0.908  1.00 20.00    -0.121 Cl
ENDROOT
BRANCH   2   8
HETATM    8  C10 UNL     1     -42.381   3.396  -2.971  1.00 20.00     0.040 C 
HETATM    9  C6  UNL     1     -41.237   2.447  -3.263  1.00 20.00     0.037 C 
HETATM   10  C7  UNL     1     -41.965   1.140  -3.485  1.00 20.00     0.168 C 
HETATM   11  O11 UNL     1     -43.102   1.156  -2.613  1.00 20.00    -0.390 OA
HETATM   12  C8  UNL     1     -43.319   2.506  -2.168  1.00 20.00     0.176 C 
ENDBRANCH   2   8
TORSDOF 1
ENDMDL
MODEL 2
REMARK VINA RESULT:      -4.8     12.266     14.438
REMARK  1 active torsions:
REMARK  status: ('A' for Active; 'I' for Inactive)
REMARK    1  A    between atoms: C2_2  and  C10_10 
ROOT
HETATM    1  C1  UNL     1     -35.769  15.535  -3.027  1.00 20.00    -0.004 C 
HETATM    2  C2  UNL     1     -34.447  15.622  -2.786  1.00 20.00    -0.076 C 
HETATM    3  C3  UNL     1     -33.468  14.690  -3.468  1.00 20.00     0.034 C 
HETATM    4  C4  UNL     1     -34.052  13.930  -4.660  1.00 20.00     0.006 C 
HETATM    5  C5  UNL     1     -35.444  13.395  -4.337  1.00 20.00     0.024 C 
HETATM    6  C9  UNL     1     -36.402  14.520  -3.934  1.00 20.00     0.105 C 
HETATM    7 CL12 UNL     1     -37.007  15.373  -5.388  1.00 20.00    -0.121 Cl
ENDROOT
BRANCH   2   8
HETATM    8  C10 UNL     1     -33.844  16.630  -1.870  1.00 20.00     0.040 C 
HETATM    9  C6  UNL     1     -33.824  18.036  -2.434  1.00 20.00     0.037 C 
HETATM   10  C7  UNL     1     -33.672  18.871  -1.183  1.00 20.00     0.168 C 
HETATM   11  O11 UNL     1     -34.379  18.181  -0.145  1.00 20.00    -0.390 OA
HETATM   12  C8  UNL     1     -34.621  16.831  -0.576  1.00 20.00     0.176 C 
ENDBRANCH   2   8
TORSDOF 1
ENDMDL
MODEL 3
REMARK VINA RESULT:      -4.8     12.394     14.357
REMARK  1 active torsions:
REMARK  status: ('A' for Active; 'I' for Inactive)
REMARK    1  A    between atoms: C2_2  and  C10_10 
ROOT
HETATM    1  C1  UNL     1     -34.347  16.734  -1.238  1.00 20.00    -0.004 C 
HETATM    2  C2  UNL     1     -34.349  16.283  -2.507  1.00 20.00    -0.076 C 
HETATM    3  C3  UNL     1     -34.204  17.237  -3.674  1.00 20.00     0.034 C 
HETATM    4  C4  UNL     1     -33.718  18.634  -3.284  1.00 20.00     0.006 C 
HETATM    5  C5  UNL     1     -34.438  19.134  -2.035  1.00 20.00     0.024 C 
HETATM    6  C9  UNL     1     -34.244  18.181  -0.852  1.00 20.00     0.105 C 
HETATM    7 CL12 UNL     1     -32.638  18.442  -0.100  1.00 20.00    -0.121 Cl
ENDROOT
BRANCH   2   8
HETATM    8  C10 UNL     1     -34.468  14.842  -2.866  1.00 20.00     0.040 C 
HETATM    9  C6  UNL     1     -35.603  14.542  -3.825  1.00 20.00     0.037 C 
HETATM   10  C7  UNL     1     -35.183  13.205  -4.395  1.00 20.00     0.168 C 
HETATM   11  O11 UNL     1     -33.752  13.221  -4.455  1.00 20.00    -0.390 OA
HETATM   12  C8  UNL     1     -33.271  14.295  -3.630  1.00 20.00     0.176 C 
ENDBRANCH   2   8
TORSDOF 1
ENDMDL
MODEL 4
REMARK VINA RESULT:      -4.7     12.854     14.572
REMARK  1 active torsions:
REMARK  status: ('A' for Active; 'I' for Inactive)
REMARK    1  A    between atoms: C2_2  and  C10_10 
ROOT
HETATM    1  C1  UNL     1     -35.404  15.803  -4.750  1.00 20.00    -0.004 C 
HETATM    2  C2  UNL     1     -34.845  15.752  -3.527  1.00 20.00    -0.076 C 
HETATM    3  C3  UNL     1     -34.105  14.517  -3.058  1.00 20.00     0.034 C 
HETATM    4  C4  UNL     1     -33.761  13.531  -4.175  1.00 20.00     0.006 C 
HETATM    5  C5  UNL     1     -34.944  13.343  -5.120  1.00 20.00     0.024 C 
HETATM    6  C9  UNL     1     -35.392  14.671  -5.736  1.00 20.00     0.105 C 
HETATM    7 CL12 UNL     1     -34.310  15.125  -7.091  1.00 20.00    -0.121 Cl
ENDROOT
BRANCH   2   8
HETATM    8  C10 UNL     1     -34.883  16.884  -2.559  1.00 20.00     0.040 C 
HETATM    9  C6  UNL     1     -34.606  16.475  -1.127  1.00 20.00     0.037 C 
HETATM   10  C7  UNL     1     -34.202  17.790  -0.499  1.00 20.00     0.168 C 
HETATM   11  O11 UNL     1     -33.516  18.531  -1.516  1.00 20.00    -0.390 OA
HETATM   12  C8  UNL     1     -33.802  17.931  -2.791  1.00 20.00     0.176 C 
ENDBRANCH   2   8
TORSDOF 1
ENDMDL
MODEL 5
REMARK VINA RESULT:      -4.5     11.962     13.450
REMARK  1 active torsions:
REMARK  status: ('A' for Active; 'I' for Inactive)
REMARK    1  A    between atoms: C2_2  and  C10_10 
ROOT
HETATM    1  C1  UNL     1     -36.148  17.472  -2.849  1.00 20.00    -0.004 C 
HETATM    2  C2  UNL     1     -35.308  16.423  -2.760  1.00 20.00    -0.076 C 
HETATM    3  C3  UNL     1     -34.437  16.222  -1.538  1.00 20.00     0.034 C 
HETATM    4  C4  UNL     1     -34.844  17.071  -0.333  1.00 20.00     0.006 C 
HETATM    5  C5  UNL     1     -35.166  18.501  -0.756  1.00 20.00     0.024 C 
HETATM    6  C9  UNL     1     -36.281  18.542  -1.804  1.00 20.00     0.105 C 
HETATM    7 CL12 UNL     1     -37.881  18.355  -1.019  1.00 20.00    -0.121 Cl
ENDROOT
BRANCH   2   8
HETATM    8  C10 UNL     1     -35.182  15.382  -3.818  1.00 20.00     0.040 C 
HETATM    9  C6  UNL     1     -33.986  14.468  -3.638  1.00 20.00     0.037 C 
HETATM   10  C7  UNL     1     -34.381  13.271  -4.473  1.00 20.00     0.168 C 
HETATM   11  O11 UNL     1     -35.804  13.149  -4.361  1.00 20.00    -0.390 OA
HETATM   12  C8  UNL     1     -36.329  14.381  -3.840  1.00 20.00     0.176 C 
ENDBRANCH   2   8
TORSDOF 1
ENDMDL
MODEL 6
REMARK VINA RESULT:      -4.5     13.138     14.777
REMARK  1 active torsions:
REMARK  status: ('A' for Active; 'I' for Inactive)
REMARK    1  A    between atoms: C2_2  and  C10_10 
ROOT
HETATM    1  C1  UNL     1     -34.790  16.477  -4.448  1.00 20.00    -0.004 C 
HETATM    2  C2  UNL     1     -34.275  15.850  -3.373  1.00 20.00    -0.076 C 
HETATM    3  C3  UNL     1     -34.148  14.342  -3.336  1.00 20.00     0.034 C 
HETATM    4  C4  UNL     1     -34.312  13.666  -4.699  1.00 20.00     0.006 C 
HETATM    5  C5  UNL     1     -35.484  14.268  -5.469  1.00 20.00     0.024 C 
HETATM    6  C9  UNL     1     -35.313  15.776  -5.669  1.00 20.00     0.105 C 
HETATM    7 CL12 UNL     1     -34.184  16.101  -7.022  1.00 20.00    -0.121 Cl
ENDROOT
BRANCH   2   8
HETATM    8  C10 UNL     1     -33.777  16.567  -2.166  1.00 20.00     0.040 C 
HETATM    9  C6  UNL     1     -33.655  18.066  -2.351  1.00 20.00     0.037 C 
HETATM   10  C7  UNL     1     -33.651  18.557  -0.920  1.00 20.00     0.168 C 
HETATM   11  O11 UNL     1     -34.500  17.668  -0.184  1.00 20.00    -0.390 OA
HETATM   12  C8  UNL     1     -34.711  16.482  -0.968  1.00 20.00     0.176 C 
ENDBRANCH   2   8
TORSDOF 1
ENDMDL
MODEL 7
REMARK VINA RESULT:      -4.5     13.613     15.107
REMARK  1 active torsions:
REMARK  status: ('A' for Active; 'I' for Inactive)
REMARK    1  A    between atoms: C2_2  and  C10_10 
ROOT
HETATM    1  C1  UNL     1     -33.650  15.167  -3.172  1.00 20.00    -0.004 C 
HETATM    2  C2  UNL     1     -34.022  16.404  -2.792  1.00 20.00    -0.076 C 
HETATM    3  C3  UNL     1     -34.860  17.281  -3.699  1.00 20.00     0.034 C 
HETATM    4  C4  UNL     1     -35.510  16.534  -4.865  1.00 20.00     0.006 C 
HETATM    5  C5  UNL     1     -34.523  15.569  -5.513  1.00 20.00     0.024 C 
HETATM    6  C9  UNL     1     -33.978  14.555  -4.503  1.00 20.00     0.105 C 
HETATM    7 CL12 UNL     1     -35.169  13.243  -4.233  1.00 20.00    -0.121 Cl
ENDROOT
BRANCH   2   8
HETATM    8  C10 UNL     1     -33.671  16.997  -1.471  1.00 20.00     0.040 C 
HETATM    9  C6  UNL     1     -33.498  18.502  -1.501  1.00 20.00     0.037 C 
HETATM   10  C7  UNL     1     -33.670  18.865  -0.043  1.00 20.00     0.168 C 
HETATM   11  O11 UNL     1     -34.625  17.941   0.494  1.00 20.00    -0.390 OA
HETATM   12  C8  UNL     1     -34.755  16.836  -0.414  1.00 20.00     0.176 C 
ENDBRANCH   2   8
TORSDOF 1
ENDMDL
MODEL 8
REMARK VINA RESULT:      -4.4     12.996     15.009
REMARK  1 active torsions:
REMARK  status: ('A' for Active; 'I' for Inactive)
REMARK    1  A    between atoms: C2_2  and  C10_10 
ROOT
HETATM    1  C1  UNL     1     -33.669  16.047  -3.204  1.00 20.00    -0.004 C 
HETATM    2  C2  UNL     1     -34.775  16.524  -2.603  1.00 20.00    -0.076 C 
HETATM    3  C3  UNL     1     -36.149  16.008  -2.973  1.00 20.00     0.034 C 
HETATM    4  C4  UNL     1     -36.133  14.712  -3.785  1.00 20.00     0.006 C 
HETATM    5  C5  UNL     1     -35.069  14.766  -4.878  1.00 20.00     0.024 C 
HETATM    6  C9  UNL     1     -33.675  15.017  -4.296  1.00 20.00     0.105 C 
HETATM    7 CL12 UNL     1     -32.995  13.498  -3.631  1.00 20.00    -0.121 Cl
ENDROOT
BRANCH   2   8
HETATM    8  C10 UNL     1     -34.745  17.559  -1.531  1.00 20.00     0.040 C 
HETATM    9  C6  UNL     1     -34.766  16.988  -0.128  1.00 20.00     0.037 C 
HETATM   10  C7  UNL     1     -34.221  18.140   0.686  1.00 20.00     0.168 C 
HETATM   11  O11 UNL     1     -33.266  18.809  -0.147  1.00 20.00    -0.390 OA
HETATM   12  C8  UNL     1     -33.465  18.384  -1.505  1.00 20.00     0.176 C 
ENDBRANCH   2   8
TORSDOF 1
ENDMDL
MODEL 9
REMARK VINA RESULT:      -4.3     12.636     13.316
REMARK  1 active torsions:
REMARK  status: ('A' for Active; 'I' for Inactive)
REMARK    1  A    between atoms: C2_2  and  C10_10 
ROOT
HETATM    1  C1  UNL     1     -34.808  16.416  -4.287  1.00 20.00    -0.004 C 
HETATM    2  C2  UNL     1     -35.257  15.497  -5.162  1.00 20.00    -0.076 C 
HETATM    3  C3  UNL     1     -34.672  14.100  -5.195  1.00 20.00     0.034 C 
HETATM    4  C4  UNL     1     -33.828  13.746  -3.970  1.00 20.00     0.006 C 
HETATM    5  C5  UNL     1     -32.906  14.900  -3.590  1.00 20.00     0.024 C 
HETATM    6  C9  UNL     1     -33.693  16.183  -3.309  1.00 20.00     0.105 C 
HETATM    7 CL12 UNL     1     -34.399  16.132  -1.663  1.00 20.00    -0.121 Cl
ENDROOT
BRANCH   2   8
HETATM    8  C10 UNL     1     -36.355  15.757  -6.135  1.00 20.00     0.040 C 
HETATM    9  C6  UNL     1     -36.265  14.924  -7.397  1.00 20.00     0.037 C 
HETATM   10  C7  UNL     1     -37.683  14.991  -7.917  1.00 20.00     0.168 C 
HETATM   11  O11 UNL     1     -38.535  15.039  -6.765  1.00 20.00    -0.390 OA
HETATM   12  C8  UNL     1     -37.738  15.381  -5.620  1.00 20.00     0.176 C 
ENDBRANCH   2   8
TORSDOF 1
ENDMDL
