MODEL 1
REMARK VINA RESULT:      -5.3      0.000      0.000
REMARK  1 active torsions:
REMARK  status: ('A' for Active; 'I' for Inactive)
REMARK    1  A    between atoms: C2_2  and  C8_8 
ROOT
HETATM    1  C1  UNL     1     -36.053  15.314  -2.894  1.00 20.00     0.053 C 
HETATM    2  C2  UNL     1     -34.817  15.754  -3.177  1.00 20.00    -0.072 C 
HETATM    3  C3  UNL     1     -36.922  14.765  -3.963  1.00 20.00     0.150 C 
HETATM    4  C4  UNL     1     -34.219  15.684  -4.561  1.00 20.00     0.043 C 
HETATM    5  C5  UNL     1     -36.423  14.788  -5.391  1.00 20.00     0.092 C 
HETATM    6  C9  UNL     1     -34.895  14.647  -5.485  1.00 20.00    -0.037 C 
HETATM    7  C10 UNL     1     -34.451  14.901  -6.937  1.00 20.00     0.015 C 
HETATM    8  C11 UNL     1     -34.465  13.216  -5.098  1.00 20.00     0.015 C 
HETATM    9  O12 UNL     1     -38.048  14.358  -3.680  1.00 20.00    -0.293 OA
ENDROOT
BRANCH   2  10
HETATM   10  C8  UNL     1     -33.947  16.365  -2.118  1.00 20.00     0.014 A 
HETATM   11  C6  UNL     1     -34.185  17.791  -1.757  1.00 20.00     0.010 A 
HETATM   12  C7  UNL     1     -34.573  16.698  -0.808  1.00 20.00     0.010 A 
ENDBRANCH   2  10
TORSDOF 1
ENDMDL
MODEL 2
REMARK VINA RESULT:      -5.3      1.841      2.382
REMARK  1 active torsions:
REMARK  status: ('A' for Active; 'I' for Inactive)
REMARK    1  A    between atoms: C2_2  and  C8_8 
ROOT
HETATM    1  C1  UNL     1     -33.922  14.894  -3.014  1.00 20.00     0.053 C 
HETATM    2  C2  UNL     1     -34.816  15.882  -3.174  1.00 20.00    -0.072 C 
HETATM    3  C3  UNL     1     -33.826  13.795  -4.005  1.00 20.00     0.150 C 
HETATM    4  C4  UNL     1     -35.737  15.969  -4.366  1.00 20.00     0.043 C 
HETATM    5  C5  UNL     1     -34.811  13.761  -5.153  1.00 20.00     0.092 C 
HETATM    6  C9  UNL     1     -35.253  15.167  -5.594  1.00 20.00    -0.037 C 
HETATM    7  C10 UNL     1     -36.409  15.042  -6.603  1.00 20.00     0.015 C 
HETATM    8  C11 UNL     1     -34.086  15.898  -6.292  1.00 20.00     0.015 C 
HETATM    9  O12 UNL     1     -32.994  12.904  -3.845  1.00 20.00    -0.293 OA
ENDROOT
BRANCH   2  10
HETATM   10  C8  UNL     1     -34.964  16.971  -2.151  1.00 20.00     0.014 A 
HETATM   11  C6  UNL     1     -34.690  16.631  -0.726  1.00 20.00     0.010 A 
HETATM   12  C7  UNL     1     -33.728  17.484  -1.497  1.00 20.00     0.010 A 
ENDBRANCH   2  10
TORSDOF 1
ENDMDL
MODEL 3
REMARK VINA RESULT:      -5.3      1.546      1.964
REMARK  1 active torsions:
REMARK  status: ('A' for Active; 'I' for Inactive)
REMARK    1  A    between atoms: C2_2  and  C8_8 
ROOT
HETATM    1  C1  UNL     1     -34.330  14.501  -3.269  1.00 20.00     0.053 C 
HETATM    2  C2  UNL     1     -34.436  15.828  -3.103  1.00 20.00    -0.072 C 
HETATM    3  C3  UNL     1     -35.024  13.824  -4.391  1.00 20.00     0.150 C 
HETATM    4  C4  UNL     1     -35.211  16.714  -4.046  1.00 20.00     0.043 C 
HETATM    5  C5  UNL     1     -35.920  14.643  -5.294  1.00 20.00     0.092 C 
HETATM    6  C9  UNL     1     -35.439  16.095  -5.443  1.00 20.00    -0.037 C 
HETATM    7  C10 UNL     1     -36.512  16.911  -6.187  1.00 20.00     0.015 C 
HETATM    8  C11 UNL     1     -34.140  16.145  -6.276  1.00 20.00     0.015 C 
HETATM    9  O12 UNL     1     -34.908  12.607  -4.531  1.00 20.00    -0.293 OA
ENDROOT
BRANCH   2  10
HETATM   10  C8  UNL     1     -33.786  16.521  -1.940  1.00 20.00     0.014 A 
HETATM   11  C6  UNL     1     -34.251  17.895  -1.598  1.00 20.00     0.010 A 
HETATM   12  C7  UNL     1     -34.602  16.737  -0.713  1.00 20.00     0.010 A 
ENDBRANCH   2  10
TORSDOF 1
ENDMDL
MODEL 4
REMARK VINA RESULT:      -5.1      2.100      2.852
REMARK  1 active torsions:
REMARK  status: ('A' for Active; 'I' for Inactive)
REMARK    1  A    between atoms: C2_2  and  C8_8 
ROOT
HETATM    1  C1  UNL     1     -33.931  17.363  -3.243  1.00 20.00     0.053 C 
HETATM    2  C2  UNL     1     -34.312  16.350  -2.450  1.00 20.00    -0.072 C 
HETATM    3  C3  UNL     1     -33.663  17.133  -4.684  1.00 20.00     0.150 C 
HETATM    4  C4  UNL     1     -34.534  14.948  -2.960  1.00 20.00     0.043 C 
HETATM    5  C5  UNL     1     -33.744  15.722  -5.224  1.00 20.00     0.092 C 
HETATM    6  C9  UNL     1     -34.783  14.865  -4.482  1.00 20.00    -0.037 C 
HETATM    7  C10 UNL     1     -34.649  13.400  -4.937  1.00 20.00     0.015 C 
HETATM    8  C11 UNL     1     -36.211  15.342  -4.824  1.00 20.00     0.015 C 
HETATM    9  O12 UNL     1     -33.322  18.076  -5.396  1.00 20.00    -0.293 OA
ENDROOT
BRANCH   2  10
HETATM   10  C8  UNL     1     -34.533  16.555  -0.979  1.00 20.00     0.014 A 
HETATM   11  C6  UNL     1     -33.880  17.728  -0.333  1.00 20.00     0.010 A 
HETATM   12  C7  UNL     1     -35.363  17.716  -0.554  1.00 20.00     0.010 A 
ENDBRANCH   2  10
TORSDOF 1
ENDMDL
MODEL 5
REMARK VINA RESULT:      -5.1      1.947      4.009
REMARK  1 active torsions:
REMARK  status: ('A' for Active; 'I' for Inactive)
REMARK    1  A    between atoms: C2_2  and  C8_8 
ROOT
HETATM    1  C1  UNL     1     -34.611  14.525  -5.950  1.00 20.00     0.053 C 
HETATM    2  C2  UNL     1     -34.423  15.848  -5.833  1.00 20.00    -0.072 C 
HETATM    3  C3  UNL     1     -34.573  13.649  -4.755  1.00 20.00     0.150 C 
HETATM    4  C4  UNL     1     -34.207  16.531  -4.505  1.00 20.00     0.043 C 
HETATM    5  C5  UNL     1     -34.234  14.260  -3.413  1.00 20.00     0.092 C 
HETATM    6  C9  UNL     1     -34.709  15.717  -3.291  1.00 20.00    -0.037 C 
HETATM    7  C10 UNL     1     -34.138  16.332  -2.001  1.00 20.00     0.015 C 
HETATM    8  C11 UNL     1     -36.250  15.771  -3.204  1.00 20.00     0.015 C 
HETATM    9  O12 UNL     1     -34.757  12.439  -4.882  1.00 20.00    -0.293 OA
ENDROOT
BRANCH   2  10
HETATM   10  C8  UNL     1     -34.402  16.741  -7.039  1.00 20.00     0.014 A 
HETATM   11  C6  UNL     1     -35.525  17.705  -7.213  1.00 20.00     0.010 A 
HETATM   12  C7  UNL     1     -34.163  18.196  -6.826  1.00 20.00     0.010 A 
ENDBRANCH   2  10
TORSDOF 1
ENDMDL
MODEL 6
REMARK VINA RESULT:      -4.9      2.102      4.023
REMARK  1 active torsions:
REMARK  status: ('A' for Active; 'I' for Inactive)
REMARK    1  A    between atoms: C2_2  and  C8_8 
ROOT
HETATM    1  C1  UNL     1     -35.304  13.859  -3.918  1.00 20.00     0.053 C 
HETATM    2  C2  UNL     1     -36.167  14.886  -3.954  1.00 20.00    -0.072 C 
HETATM    3  C3  UNL     1     -33.851  14.100  -3.749  1.00 20.00     0.150 C 
HETATM    4  C4  UNL     1     -35.739  16.323  -3.785  1.00 20.00     0.043 C 
HETATM    5  C5  UNL     1     -33.349  15.527  -3.703  1.00 20.00     0.092 C 
HETATM    6  C9  UNL     1     -34.373  16.493  -3.084  1.00 20.00    -0.037 C 
HETATM    7  C10 UNL     1     -33.885  17.940  -3.275  1.00 20.00     0.015 C 
HETATM    8  C11 UNL     1     -34.506  16.230  -1.569  1.00 20.00     0.015 C 
HETATM    9  O12 UNL     1     -33.077  13.145  -3.711  1.00 20.00    -0.293 OA
ENDROOT
BRANCH   2  10
HETATM   10  C8  UNL     1     -37.634  14.662  -4.181  1.00 20.00     0.014 A 
HETATM   11  C6  UNL     1     -38.592  15.580  -3.502  1.00 20.00     0.010 A 
HETATM   12  C7  UNL     1     -38.378  15.673  -4.982  1.00 20.00     0.010 A 
ENDBRANCH   2  10
TORSDOF 1
ENDMDL
MODEL 7
REMARK VINA RESULT:      -4.9      2.303      3.239
REMARK  1 active torsions:
REMARK  status: ('A' for Active; 'I' for Inactive)
REMARK    1  A    between atoms: C2_2  and  C8_8 
ROOT
HETATM    1  C1  UNL     1     -34.021  18.155  -3.628  1.00 20.00     0.053 C 
HETATM    2  C2  UNL     1     -34.199  17.406  -2.529  1.00 20.00    -0.072 C 
HETATM    3  C3  UNL     1     -33.558  17.539  -4.895  1.00 20.00     0.150 C 
HETATM    4  C4  UNL     1     -33.990  15.911  -2.513  1.00 20.00     0.043 C 
HETATM    5  C5  UNL     1     -33.209  16.066  -4.904  1.00 20.00     0.092 C 
HETATM    6  C9  UNL     1     -34.054  15.253  -3.909  1.00 20.00    -0.037 C 
HETATM    7  C10 UNL     1     -33.493  13.822  -3.818  1.00 20.00     0.015 C 
HETATM    8  C11 UNL     1     -35.515  15.163  -4.398  1.00 20.00     0.015 C 
HETATM    9  O12 UNL     1     -33.409  18.242  -5.893  1.00 20.00    -0.293 OA
ENDROOT
BRANCH   2  10
HETATM   10  C8  UNL     1     -34.612  18.023  -1.225  1.00 20.00     0.014 A 
HETATM   11  C6  UNL     1     -34.770  17.124  -0.047  1.00 20.00     0.010 A 
HETATM   12  C7  UNL     1     -33.608  18.067  -0.125  1.00 20.00     0.010 A 
ENDBRANCH   2  10
TORSDOF 1
ENDMDL
MODEL 8
REMARK VINA RESULT:      -4.7      1.756      3.381
REMARK  1 active torsions:
REMARK  status: ('A' for Active; 'I' for Inactive)
REMARK    1  A    between atoms: C2_2  and  C8_8 
ROOT
HETATM    1  C1  UNL     1     -36.729  15.798  -5.062  1.00 20.00     0.053 C 
HETATM    2  C2  UNL     1     -35.534  16.240  -5.484  1.00 20.00    -0.072 C 
HETATM    3  C3  UNL     1     -36.827  14.596  -4.199  1.00 20.00     0.150 C 
HETATM    4  C4  UNL     1     -34.232  15.590  -5.086  1.00 20.00     0.043 C 
HETATM    5  C5  UNL     1     -35.565  13.828  -3.873  1.00 20.00     0.092 C 
HETATM    6  C9  UNL     1     -34.324  14.733  -3.803  1.00 20.00    -0.037 C 
HETATM    7  C10 UNL     1     -33.063  13.858  -3.689  1.00 20.00     0.015 C 
HETATM    8  C11 UNL     1     -34.392  15.637  -2.553  1.00 20.00     0.015 C 
HETATM    9  O12 UNL     1     -37.931  14.212  -3.817  1.00 20.00    -0.293 OA
ENDROOT
BRANCH   2  10
HETATM   10  C8  UNL     1     -35.421  17.421  -6.404  1.00 20.00     0.014 A 
HETATM   11  C6  UNL     1     -34.084  18.061  -6.555  1.00 20.00     0.010 A 
HETATM   12  C7  UNL     1     -34.661  17.246  -7.673  1.00 20.00     0.010 A 
ENDBRANCH   2  10
TORSDOF 1
ENDMDL
MODEL 9
REMARK VINA RESULT:      -4.6      1.622      4.106
REMARK  1 active torsions:
REMARK  status: ('A' for Active; 'I' for Inactive)
REMARK    1  A    between atoms: C2_2  and  C8_8 
ROOT
HETATM    1  C1  UNL     1     -36.500  15.995  -3.467  1.00 20.00     0.053 C 
HETATM    2  C2  UNL     1     -35.370  15.336  -3.168  1.00 20.00    -0.072 C 
HETATM    3  C3  UNL     1     -36.826  17.276  -2.795  1.00 20.00     0.150 C 
HETATM    4  C4  UNL     1     -34.352  15.857  -2.184  1.00 20.00     0.043 C 
HETATM    5  C5  UNL     1     -35.906  17.783  -1.706  1.00 20.00     0.092 C 
HETATM    6  C9  UNL     1     -34.440  17.380  -1.936  1.00 20.00    -0.037 C 
HETATM    7  C10 UNL     1     -33.613  17.737  -0.688  1.00 20.00     0.015 C 
HETATM    8  C11 UNL     1     -33.854  18.157  -3.135  1.00 20.00     0.015 C 
HETATM    9  O12 UNL     1     -37.863  17.870  -3.089  1.00 20.00    -0.293 OA
ENDROOT
BRANCH   2  10
HETATM   10  C8  UNL     1     -35.053  14.011  -3.798  1.00 20.00     0.014 A 
HETATM   11  C6  UNL     1     -34.384  14.014  -5.130  1.00 20.00     0.010 A 
HETATM   12  C7  UNL     1     -33.621  13.614  -3.904  1.00 20.00     0.010 A 
ENDBRANCH   2  10
TORSDOF 1
ENDMDL
