MODEL 1
REMARK VINA RESULT:      -4.6      0.000      0.000
REMARK  2 active torsions:
REMARK  status: ('A' for Active; 'I' for Inactive)
REMARK    1  A    between atoms: C3_3  and  C8_8 
REMARK    2  A    between atoms: C8_8  and  C9_9 
ROOT
HETATM    1  C1  UNL     1     -34.364  14.599  -4.574  1.00 20.00     0.044 A 
HETATM    2  C2  UNL     1     -34.116  15.600  -5.491  1.00 20.00     0.005 A 
HETATM    3  C3  UNL     1     -33.889  16.217  -3.173  1.00 20.00     0.081 A 
HETATM    4  C4  UNL     1     -34.747  13.207  -4.890  1.00 20.00     0.071 C 
HETATM    5  C5  UNL     1     -34.160  15.571  -6.966  1.00 20.00     0.058 C 
HETATM    6  N10 UNL     1     -34.234  14.951  -3.245  1.00 20.00    -0.249 NA
HETATM    7  S11 UNL     1     -33.704  17.045  -4.664  1.00 20.00    -0.077 SA
ENDROOT
BRANCH   3   8
HETATM    8  C8  UNL     1     -33.648  16.972  -1.872  1.00 20.00     0.059 C 
HETATM    9  C6  UNL     1     -34.665  16.498  -0.821  1.00 20.00     0.018 C 
BRANCH   8  10
HETATM   10  C9  UNL     1     -33.669  18.512  -2.068  1.00 20.00     0.088 C 
HETATM   11  C7  UNL     1     -32.898  19.263  -0.982  1.00 20.00     0.027 C 
HETATM   12 CL12 UNL     1     -35.358  19.131  -2.061  1.00 20.00    -0.125 Cl
ENDBRANCH   8  10
ENDBRANCH   3   8
TORSDOF 2
ENDMDL
MODEL 2
REMARK VINA RESULT:      -4.2      1.277      1.794
REMARK  2 active torsions:
REMARK  status: ('A' for Active; 'I' for Inactive)
REMARK    1  A    between atoms: C3_3  and  C8_8 
REMARK    2  A    between atoms: C8_8  and  C9_9 
ROOT
HETATM    1  C1  UNL     1     -34.402  14.793  -4.476  1.00 20.00     0.044 A 
HETATM    2  C2  UNL     1     -34.307  15.558  -5.619  1.00 20.00     0.005 A 
HETATM    3  C3  UNL     1     -34.325  16.774  -3.539  1.00 20.00     0.081 A 
HETATM    4  C4  UNL     1     -34.489  13.319  -4.422  1.00 20.00     0.071 C 
HETATM    5  C5  UNL     1     -34.267  15.149  -7.037  1.00 20.00     0.058 C 
HETATM    6  N10 UNL     1     -34.412  15.488  -3.282  1.00 20.00    -0.249 NA
HETATM    7  S11 UNL     1     -34.228  17.218  -5.194  1.00 20.00    -0.077 SA
ENDROOT
BRANCH   3   8
HETATM    8  C8  UNL     1     -34.304  17.867  -2.477  1.00 20.00     0.059 C 
HETATM    9  C6  UNL     1     -33.525  19.077  -3.019  1.00 20.00     0.018 C 
BRANCH   8  10
HETATM   10  C9  UNL     1     -33.748  17.361  -1.119  1.00 20.00     0.088 C 
HETATM   11  C7  UNL     1     -34.846  17.065  -0.098  1.00 20.00     0.027 C 
HETATM   12 CL12 UNL     1     -32.643  18.578  -0.390  1.00 20.00    -0.125 Cl
ENDBRANCH   8  10
ENDBRANCH   3   8
TORSDOF 2
ENDMDL
MODEL 3
REMARK VINA RESULT:      -4.2      2.327      4.845
REMARK  2 active torsions:
REMARK  status: ('A' for Active; 'I' for Inactive)
REMARK    1  A    between atoms: C3_3  and  C8_8 
REMARK    2  A    between atoms: C8_8  and  C9_9 
ROOT
HETATM    1  C1  UNL     1     -34.636  17.145  -1.538  1.00 20.00     0.044 A 
HETATM    2  C2  UNL     1     -33.942  18.097  -2.255  1.00 20.00     0.005 A 
HETATM    3  C3  UNL     1     -35.045  16.396  -3.557  1.00 20.00     0.081 A 
HETATM    4  C4  UNL     1     -34.759  17.086  -0.066  1.00 20.00     0.071 C 
HETATM    5  C5  UNL     1     -33.167  19.263  -1.788  1.00 20.00     0.058 C 
HETATM    6  N10 UNL     1     -35.270  16.170  -2.282  1.00 20.00    -0.249 NA
HETATM    7  S11 UNL     1     -34.081  17.765  -3.932  1.00 20.00    -0.077 SA
ENDROOT
BRANCH   3   8
HETATM    8  C8  UNL     1     -35.582  15.535  -4.694  1.00 20.00     0.059 C 
HETATM    9  C6  UNL     1     -36.687  14.616  -4.147  1.00 20.00     0.018 C 
BRANCH   8  10
HETATM   10  C9  UNL     1     -34.459  14.747  -5.420  1.00 20.00     0.088 C 
HETATM   11  C7  UNL     1     -34.579  14.804  -6.943  1.00 20.00     0.027 C 
HETATM   12 CL12 UNL     1     -34.483  13.014  -4.939  1.00 20.00    -0.125 Cl
ENDBRANCH   8  10
ENDBRANCH   3   8
TORSDOF 2
ENDMDL
MODEL 4
REMARK VINA RESULT:      -4.1      3.773      4.615
REMARK  2 active torsions:
REMARK  status: ('A' for Active; 'I' for Inactive)
REMARK    1  A    between atoms: C3_3  and  C8_8 
REMARK    2  A    between atoms: C8_8  and  C9_9 
ROOT
HETATM    1  C1  UNL     1     -38.736  15.119  -4.165  1.00 20.00     0.044 A 
HETATM    2  C2  UNL     1     -38.655  16.495  -4.104  1.00 20.00     0.005 A 
HETATM    3  C3  UNL     1     -36.668  15.296  -3.455  1.00 20.00     0.081 A 
HETATM    4  C4  UNL     1     -39.915  14.336  -4.589  1.00 20.00     0.071 C 
HETATM    5  C5  UNL     1     -39.665  17.522  -4.426  1.00 20.00     0.058 C 
HETATM    6  N10 UNL     1     -37.598  14.430  -3.794  1.00 20.00    -0.249 NA
HETATM    7  S11 UNL     1     -37.095  16.954  -3.560  1.00 20.00    -0.077 SA
ENDROOT
BRANCH   3   8
HETATM    8  C8  UNL     1     -35.267  14.919  -2.989  1.00 20.00     0.059 C 
HETATM    9  C6  UNL     1     -34.741  16.015  -2.048  1.00 20.00     0.018 C 
BRANCH   8  10
HETATM   10  C9  UNL     1     -34.305  14.639  -4.174  1.00 20.00     0.088 C 
HETATM   11  C7  UNL     1     -34.425  13.216  -4.718  1.00 20.00     0.027 C 
HETATM   12 CL12 UNL     1     -32.594  14.887  -3.677  1.00 20.00    -0.125 Cl
ENDBRANCH   8  10
ENDBRANCH   3   8
TORSDOF 2
ENDMDL
MODEL 5
REMARK VINA RESULT:      -4.0      2.546      4.947
REMARK  2 active torsions:
REMARK  status: ('A' for Active; 'I' for Inactive)
REMARK    1  A    between atoms: C3_3  and  C8_8 
REMARK    2  A    between atoms: C8_8  and  C9_9 
ROOT
HETATM    1  C1  UNL     1     -35.072  17.116  -1.197  1.00 20.00     0.044 A 
HETATM    2  C2  UNL     1     -36.121  17.691  -1.883  1.00 20.00     0.005 A 
HETATM    3  C3  UNL     1     -34.595  16.378  -3.206  1.00 20.00     0.081 A 
HETATM    4  C4  UNL     1     -34.814  17.233   0.253  1.00 20.00     0.071 C 
HETATM    5  C5  UNL     1     -37.225  18.542  -1.395  1.00 20.00     0.058 C 
HETATM    6  N10 UNL     1     -34.197  16.362  -1.954  1.00 20.00    -0.249 NA
HETATM    7  S11 UNL     1     -36.015  17.280  -3.545  1.00 20.00    -0.077 SA
ENDROOT
BRANCH   3   8
HETATM    8  C8  UNL     1     -33.886  15.657  -4.346  1.00 20.00     0.059 C 
HETATM    9  C6  UNL     1     -33.229  16.699  -5.266  1.00 20.00     0.018 C 
BRANCH   8  10
HETATM   10  C9  UNL     1     -34.830  14.695  -5.115  1.00 20.00     0.088 C 
HETATM   11  C7  UNL     1     -34.695  13.240  -4.666  1.00 20.00     0.027 C 
HETATM   12 CL12 UNL     1     -34.493  14.750  -6.881  1.00 20.00    -0.125 Cl
ENDBRANCH   8  10
ENDBRANCH   3   8
TORSDOF 2
ENDMDL
MODEL 6
REMARK VINA RESULT:      -4.0      2.601      5.113
REMARK  2 active torsions:
REMARK  status: ('A' for Active; 'I' for Inactive)
REMARK    1  A    between atoms: C3_3  and  C8_8 
REMARK    2  A    between atoms: C8_8  and  C9_9 
ROOT
HETATM    1  C1  UNL     1     -35.918  16.900  -3.144  1.00 20.00     0.044 A 
HETATM    2  C2  UNL     1     -34.816  16.551  -2.392  1.00 20.00     0.005 A 
HETATM    3  C3  UNL     1     -34.603  16.249  -4.773  1.00 20.00     0.081 A 
HETATM    4  C4  UNL     1     -37.192  17.436  -2.622  1.00 20.00     0.071 C 
HETATM    5  C5  UNL     1     -34.603  16.608  -0.933  1.00 20.00     0.058 C 
HETATM    6  N10 UNL     1     -35.798  16.729  -4.509  1.00 20.00    -0.249 NA
HETATM    7  S11 UNL     1     -33.573  15.982  -3.427  1.00 20.00    -0.077 SA
ENDROOT
BRANCH   3   8
HETATM    8  C8  UNL     1     -34.092  15.928  -6.173  1.00 20.00     0.059 C 
HETATM    9  C6  UNL     1     -34.442  17.093  -7.113  1.00 20.00     0.018 C 
BRANCH   8  10
HETATM   10  C9  UNL     1     -34.616  14.564  -6.695  1.00 20.00     0.088 C 
HETATM   11  C7  UNL     1     -35.918  14.687  -7.486  1.00 20.00     0.027 C 
HETATM   12 CL12 UNL     1     -34.916  13.432  -5.330  1.00 20.00    -0.125 Cl
ENDBRANCH   8  10
ENDBRANCH   3   8
TORSDOF 2
ENDMDL
MODEL 7
REMARK VINA RESULT:      -3.9      2.489      5.137
REMARK  2 active torsions:
REMARK  status: ('A' for Active; 'I' for Inactive)
REMARK    1  A    between atoms: C3_3  and  C8_8 
REMARK    2  A    between atoms: C8_8  and  C9_9 
ROOT
HETATM    1  C1  UNL     1     -36.209  17.038  -2.605  1.00 20.00     0.044 A 
HETATM    2  C2  UNL     1     -35.086  16.524  -1.989  1.00 20.00     0.005 A 
HETATM    3  C3  UNL     1     -35.725  15.471  -4.060  1.00 20.00     0.081 A 
HETATM    4  C4  UNL     1     -37.034  18.160  -2.110  1.00 20.00     0.071 C 
HETATM    5  C5  UNL     1     -34.424  16.923  -0.732  1.00 20.00     0.058 C 
HETATM    6  N10 UNL     1     -36.576  16.436  -3.792  1.00 20.00    -0.249 NA
HETATM    7  S11 UNL     1     -34.458  15.233  -2.927  1.00 20.00    -0.077 SA
ENDROOT
BRANCH   3   8
HETATM    8  C8  UNL     1     -35.795  14.576  -5.291  1.00 20.00     0.059 C 
HETATM    9  C6  UNL     1     -34.798  13.418  -5.126  1.00 20.00     0.018 C 
BRANCH   8  10
HETATM   10  C9  UNL     1     -35.578  15.365  -6.610  1.00 20.00     0.088 C 
HETATM   11  C7  UNL     1     -35.544  14.465  -7.845  1.00 20.00     0.027 C 
HETATM   12 CL12 UNL     1     -34.027  16.275  -6.559  1.00 20.00    -0.125 Cl
ENDBRANCH   8  10
ENDBRANCH   3   8
TORSDOF 2
ENDMDL
MODEL 8
REMARK VINA RESULT:      -3.9     13.136     15.471
REMARK  2 active torsions:
REMARK  status: ('A' for Active; 'I' for Inactive)
REMARK    1  A    between atoms: C3_3  and  C8_8 
REMARK    2  A    between atoms: C8_8  and  C9_9 
ROOT
HETATM    1  C1  UNL     1     -42.532   6.577  -2.963  1.00 20.00     0.044 A 
HETATM    2  C2  UNL     1     -41.863   6.296  -1.790  1.00 20.00     0.005 A 
HETATM    3  C3  UNL     1     -42.913   4.419  -2.876  1.00 20.00     0.081 A 
HETATM    4  C4  UNL     1     -42.653   7.906  -3.597  1.00 20.00     0.071 C 
HETATM    5  C5  UNL     1     -41.118   7.190  -0.881  1.00 20.00     0.058 C 
HETATM    6  N10 UNL     1     -43.134   5.502  -3.587  1.00 20.00    -0.249 NA
HETATM    7  S11 UNL     1     -41.988   4.621  -1.445  1.00 20.00    -0.077 SA
ENDROOT
BRANCH   3   8
HETATM    8  C8  UNL     1     -43.417   3.029  -3.243  1.00 20.00     0.059 C 
HETATM    9  C6  UNL     1     -43.346   2.127  -2.000  1.00 20.00     0.018 C 
BRANCH   8  10
HETATM   10  C9  UNL     1     -42.662   2.428  -4.459  1.00 20.00     0.088 C 
HETATM   11  C7  UNL     1     -43.417   1.274  -5.119  1.00 20.00     0.027 C 
HETATM   12 CL12 UNL     1     -41.049   1.806  -3.962  1.00 20.00    -0.125 Cl
ENDBRANCH   8  10
ENDBRANCH   3   8
TORSDOF 2
ENDMDL
MODEL 9
REMARK VINA RESULT:      -3.9      2.222      4.689
REMARK  2 active torsions:
REMARK  status: ('A' for Active; 'I' for Inactive)
REMARK    1  A    between atoms: C3_3  and  C8_8 
REMARK    2  A    between atoms: C8_8  and  C9_9 
ROOT
HETATM    1  C1  UNL     1     -33.976  18.022  -3.410  1.00 20.00     0.044 A 
HETATM    2  C2  UNL     1     -34.339  18.091  -2.081  1.00 20.00     0.005 A 
HETATM    3  C3  UNL     1     -34.258  15.880  -3.034  1.00 20.00     0.081 A 
HETATM    4  C4  UNL     1     -33.636  19.167  -4.279  1.00 20.00     0.071 C 
HETATM    5  C5  UNL     1     -34.485  19.263  -1.195  1.00 20.00     0.058 C 
HETATM    6  N10 UNL     1     -33.928  16.755  -3.957  1.00 20.00    -0.249 NA
HETATM    7  S11 UNL     1     -34.637  16.511  -1.484  1.00 20.00    -0.077 SA
ENDROOT
BRANCH   3   8
HETATM    8  C8  UNL     1     -34.319  14.373  -3.255  1.00 20.00     0.059 C 
HETATM    9  C6  UNL     1     -32.962  13.891  -3.793  1.00 20.00     0.018 C 
BRANCH   8  10
HETATM   10  C9  UNL     1     -35.503  13.957  -4.168  1.00 20.00     0.088 C 
HETATM   11  C7  UNL     1     -35.168  14.044  -5.657  1.00 20.00     0.027 C 
HETATM   12 CL12 UNL     1     -36.934  15.005  -3.872  1.00 20.00    -0.125 Cl
ENDBRANCH   8  10
ENDBRANCH   3   8
TORSDOF 2
ENDMDL
