MODEL 1
REMARK VINA RESULT:      -5.2      0.000      0.000
REMARK  1 active torsions:
REMARK  status: ('A' for Active; 'I' for Inactive)
REMARK    1  A    between atoms: C2_2  and  C11_11 
ROOT
HETATM    1  C1  UNL     1     -34.394  14.676  -3.200  1.00 20.00     0.053 C 
HETATM    2  C2  UNL     1     -33.981  15.947  -3.317  1.00 20.00    -0.072 C 
HETATM    3  C3  UNL     1     -34.684  13.861  -4.406  1.00 20.00     0.149 C 
HETATM    4  C4  UNL     1     -33.847  16.646  -4.645  1.00 20.00     0.035 C 
HETATM    5  C5  UNL     1     -34.413  14.465  -5.765  1.00 20.00     0.083 C 
HETATM    6  C6  UNL     1     -34.651  15.966  -5.749  1.00 20.00     0.012 C 
HETATM    7  O12 UNL     1     -35.074  12.702  -4.281  1.00 20.00    -0.293 OA
ENDROOT
BRANCH   2   8
HETATM    8  C11 UNL     1     -33.613  16.771  -2.096  1.00 20.00     0.014 C 
HETATM    9  C9  UNL     1     -34.649  16.513  -1.006  1.00 20.00     0.009 C 
HETATM   10  C7  UNL     1     -35.625  17.676  -1.117  1.00 20.00     0.001 C 
HETATM   11  C8  UNL     1     -34.724  18.846  -1.470  1.00 20.00     0.001 C 
HETATM   12  C10 UNL     1     -33.710  18.257  -2.445  1.00 20.00     0.009 C 
ENDBRANCH   2   8
TORSDOF 1
ENDMDL
MODEL 2
REMARK VINA RESULT:      -5.1      1.450      1.783
REMARK  1 active torsions:
REMARK  status: ('A' for Active; 'I' for Inactive)
REMARK    1  A    between atoms: C2_2  and  C11_11 
ROOT
HETATM    1  C1  UNL     1     -33.702  15.077  -3.126  1.00 20.00     0.053 C 
HETATM    2  C2  UNL     1     -34.711  15.961  -3.163  1.00 20.00    -0.072 C 
HETATM    3  C3  UNL     1     -33.821  13.766  -3.811  1.00 20.00     0.149 C 
HETATM    4  C4  UNL     1     -36.031  15.671  -3.829  1.00 20.00     0.035 C 
HETATM    5  C5  UNL     1     -35.062  13.489  -4.627  1.00 20.00     0.083 C 
HETATM    6  C6  UNL     1     -36.274  14.176  -4.020  1.00 20.00     0.012 C 
HETATM    7  O12 UNL     1     -32.891  12.962  -3.756  1.00 20.00    -0.293 OA
ENDROOT
BRANCH   2   8
HETATM    8  C11 UNL     1     -34.579  17.334  -2.528  1.00 20.00     0.014 C 
HETATM    9  C9  UNL     1     -33.745  17.203  -1.257  1.00 20.00     0.009 C 
HETATM   10  C7  UNL     1     -34.767  17.118  -0.132  1.00 20.00     0.001 C 
HETATM   11  C8  UNL     1     -35.860  18.066  -0.591  1.00 20.00     0.001 C 
HETATM   12  C10 UNL     1     -35.962  17.821  -2.093  1.00 20.00     0.009 C 
ENDBRANCH   2   8
TORSDOF 1
ENDMDL
MODEL 3
REMARK VINA RESULT:      -4.9      1.472      1.815
REMARK  1 active torsions:
REMARK  status: ('A' for Active; 'I' for Inactive)
REMARK    1  A    between atoms: C2_2  and  C11_11 
ROOT
HETATM    1  C1  UNL     1     -36.073  15.718  -3.191  1.00 20.00     0.053 C 
HETATM    2  C2  UNL     1     -34.802  16.119  -3.033  1.00 20.00    -0.072 C 
HETATM    3  C3  UNL     1     -36.380  14.401  -3.802  1.00 20.00     0.149 C 
HETATM    4  C4  UNL     1     -33.623  15.311  -3.510  1.00 20.00     0.035 C 
HETATM    5  C5  UNL     1     -35.230  13.484  -4.152  1.00 20.00     0.083 C 
HETATM    6  C6  UNL     1     -34.007  14.284  -4.571  1.00 20.00     0.012 C 
HETATM    7  O12 UNL     1     -37.550  14.055  -3.951  1.00 20.00    -0.293 OA
ENDROOT
BRANCH   2   8
HETATM    8  C11 UNL     1     -34.470  17.432  -2.347  1.00 20.00     0.014 C 
HETATM    9  C9  UNL     1     -33.758  17.127  -1.033  1.00 20.00     0.009 C 
HETATM   10  C7  UNL     1     -34.850  17.203   0.025  1.00 20.00     0.001 C 
HETATM   11  C8  UNL     1     -35.725  18.342  -0.468  1.00 20.00     0.001 C 
HETATM   12  C10 UNL     1     -35.769  18.151  -1.981  1.00 20.00     0.009 C 
ENDBRANCH   2   8
TORSDOF 1
ENDMDL
MODEL 4
REMARK VINA RESULT:      -4.8      1.944      4.429
REMARK  1 active torsions:
REMARK  status: ('A' for Active; 'I' for Inactive)
REMARK    1  A    between atoms: C2_2  and  C11_11 
ROOT
HETATM    1  C1  UNL     1     -34.169  16.061  -1.980  1.00 20.00     0.053 C 
HETATM    2  C2  UNL     1     -33.824  16.308  -3.253  1.00 20.00    -0.072 C 
HETATM    3  C3  UNL     1     -34.611  17.162  -1.089  1.00 20.00     0.149 C 
HETATM    4  C4  UNL     1     -33.799  17.696  -3.840  1.00 20.00     0.035 C 
HETATM    5  C5  UNL     1     -34.755  18.548  -1.674  1.00 20.00     0.083 C 
HETATM    6  C6  UNL     1     -33.730  18.783  -2.771  1.00 20.00     0.012 C 
HETATM    7  O12 UNL     1     -34.911  16.919   0.079  1.00 20.00    -0.293 OA
ENDROOT
BRANCH   2   8
HETATM    8  C11 UNL     1     -33.437  15.184  -4.197  1.00 20.00     0.014 C 
HETATM    9  C9  UNL     1     -34.163  15.393  -5.523  1.00 20.00     0.009 C 
HETATM   10  C7  UNL     1     -35.385  14.490  -5.441  1.00 20.00     0.001 C 
HETATM   11  C8  UNL     1     -34.863  13.274  -4.696  1.00 20.00     0.001 C 
HETATM   12  C10 UNL     1     -33.940  13.856  -3.631  1.00 20.00     0.009 C 
ENDBRANCH   2   8
TORSDOF 1
ENDMDL
MODEL 5
REMARK VINA RESULT:      -4.8      2.716      4.938
REMARK  1 active torsions:
REMARK  status: ('A' for Active; 'I' for Inactive)
REMARK    1  A    between atoms: C2_2  and  C11_11 
ROOT
HETATM    1  C1  UNL     1     -35.029  17.100  -0.341  1.00 20.00     0.053 C 
HETATM    2  C2  UNL     1     -34.391  17.475  -1.460  1.00 20.00    -0.072 C 
HETATM    3  C3  UNL     1     -34.694  17.721   0.965  1.00 20.00     0.149 C 
HETATM    4  C4  UNL     1     -33.270  18.482  -1.466  1.00 20.00     0.035 C 
HETATM    5  C5  UNL     1     -33.689  18.849   0.989  1.00 20.00     0.083 C 
HETATM    6  C6  UNL     1     -32.635  18.659  -0.089  1.00 20.00     0.012 C 
HETATM    7  O12 UNL     1     -35.280  17.356   1.983  1.00 20.00    -0.293 OA
ENDROOT
BRANCH   2   8
HETATM    8  C11 UNL     1     -34.770  16.900  -2.813  1.00 20.00     0.014 C 
HETATM    9  C9  UNL     1     -34.526  15.395  -2.787  1.00 20.00     0.009 C 
HETATM   10  C7  UNL     1     -33.160  15.214  -3.435  1.00 20.00     0.001 C 
HETATM   11  C8  UNL     1     -33.156  16.271  -4.525  1.00 20.00     0.001 C 
HETATM   12  C10 UNL     1     -33.838  17.474  -3.882  1.00 20.00     0.009 C 
ENDBRANCH   2   8
TORSDOF 1
ENDMDL
MODEL 6
REMARK VINA RESULT:      -4.7      1.353      1.977
REMARK  1 active torsions:
REMARK  status: ('A' for Active; 'I' for Inactive)
REMARK    1  A    between atoms: C2_2  and  C11_11 
ROOT
HETATM    1  C1  UNL     1     -33.912  16.190  -4.937  1.00 20.00     0.053 C 
HETATM    2  C2  UNL     1     -33.994  15.728  -3.680  1.00 20.00    -0.072 C 
HETATM    3  C3  UNL     1     -34.337  15.347  -6.082  1.00 20.00     0.149 C 
HETATM    4  C4  UNL     1     -34.451  14.330  -3.350  1.00 20.00     0.035 C 
HETATM    5  C5  UNL     1     -34.951  13.997  -5.794  1.00 20.00     0.083 C 
HETATM    6  C6  UNL     1     -34.348  13.382  -4.542  1.00 20.00     0.012 C 
HETATM    7  O12 UNL     1     -34.243  15.782  -7.229  1.00 20.00    -0.293 OA
ENDROOT
BRANCH   2   8
HETATM    8  C11 UNL     1     -33.630  16.602  -2.494  1.00 20.00     0.014 C 
HETATM    9  C9  UNL     1     -34.644  16.356  -1.381  1.00 20.00     0.009 C 
HETATM   10  C7  UNL     1     -35.650  17.491  -1.517  1.00 20.00     0.001 C 
HETATM   11  C8  UNL     1     -34.783  18.670  -1.922  1.00 20.00     0.001 C 
HETATM   12  C10 UNL     1     -33.768  18.072  -2.892  1.00 20.00     0.009 C 
ENDBRANCH   2   8
TORSDOF 1
ENDMDL
MODEL 7
REMARK VINA RESULT:      -4.7      1.702      2.234
REMARK  1 active torsions:
REMARK  status: ('A' for Active; 'I' for Inactive)
REMARK    1  A    between atoms: C2_2  and  C11_11 
ROOT
HETATM    1  C1  UNL     1     -35.612  14.644  -3.663  1.00 20.00     0.053 C 
HETATM    2  C2  UNL     1     -35.178  15.767  -3.071  1.00 20.00    -0.072 C 
HETATM    3  C3  UNL     1     -34.658  13.571  -4.038  1.00 20.00     0.149 C 
HETATM    4  C4  UNL     1     -33.720  16.044  -2.808  1.00 20.00     0.035 C 
HETATM    5  C5  UNL     1     -33.205  13.731  -3.653  1.00 20.00     0.083 C 
HETATM    6  C6  UNL     1     -32.796  15.194  -3.675  1.00 20.00     0.012 C 
HETATM    7  O12 UNL     1     -35.071  12.553  -4.593  1.00 20.00    -0.293 OA
ENDROOT
BRANCH   2   8
HETATM    8  C11 UNL     1     -36.148  16.844  -2.618  1.00 20.00     0.014 C 
HETATM    9  C9  UNL     1     -36.910  17.355  -3.836  1.00 20.00     0.009 C 
HETATM   10  C7  UNL     1     -36.174  18.622  -4.249  1.00 20.00     0.001 C 
HETATM   11  C8  UNL     1     -35.769  19.231  -2.919  1.00 20.00     0.001 C 
HETATM   12  C10 UNL     1     -35.358  18.033  -2.068  1.00 20.00     0.009 C 
ENDBRANCH   2   8
TORSDOF 1
ENDMDL
MODEL 8
REMARK VINA RESULT:      -4.7      2.402      4.162
REMARK  1 active torsions:
REMARK  status: ('A' for Active; 'I' for Inactive)
REMARK    1  A    between atoms: C2_2  and  C11_11 
ROOT
HETATM    1  C1  UNL     1     -34.711  14.392  -5.843  1.00 20.00     0.053 C 
HETATM    2  C2  UNL     1     -34.184  15.621  -5.952  1.00 20.00    -0.072 C 
HETATM    3  C3  UNL     1     -34.592  13.627  -4.576  1.00 20.00     0.149 C 
HETATM    4  C4  UNL     1     -33.395  16.274  -4.847  1.00 20.00     0.035 C 
HETATM    5  C5  UNL     1     -33.949  14.301  -3.386  1.00 20.00     0.083 C 
HETATM    6  C6  UNL     1     -32.863  15.266  -3.831  1.00 20.00     0.012 C 
HETATM    7  O12 UNL     1     -35.071  12.497  -4.498  1.00 20.00    -0.293 OA
ENDROOT
BRANCH   2   8
HETATM    8  C11 UNL     1     -34.357  16.443  -7.216  1.00 20.00     0.014 C 
HETATM    9  C9  UNL     1     -34.410  17.918  -6.831  1.00 20.00     0.009 C 
HETATM   10  C7  UNL     1     -35.894  18.251  -6.778  1.00 20.00     0.001 C 
HETATM   11  C8  UNL     1     -36.470  17.430  -7.918  1.00 20.00     0.001 C 
HETATM   12  C10 UNL     1     -35.708  16.111  -7.851  1.00 20.00     0.009 C 
ENDBRANCH   2   8
TORSDOF 1
ENDMDL
MODEL 9
REMARK VINA RESULT:      -4.7      1.545      2.281
REMARK  1 active torsions:
REMARK  status: ('A' for Active; 'I' for Inactive)
REMARK    1  A    between atoms: C2_2  and  C11_11 
ROOT
HETATM    1  C1  UNL     1     -35.762  15.669  -4.664  1.00 20.00     0.053 C 
HETATM    2  C2  UNL     1     -35.232  15.609  -3.433  1.00 20.00    -0.072 C 
HETATM    3  C3  UNL     1     -35.548  14.565  -5.633  1.00 20.00     0.149 C 
HETATM    4  C4  UNL     1     -34.349  14.478  -2.975  1.00 20.00     0.035 C 
HETATM    5  C5  UNL     1     -34.802  13.335  -5.171  1.00 20.00     0.083 C 
HETATM    6  C6  UNL     1     -33.746  13.696  -4.140  1.00 20.00     0.012 C 
HETATM    7  O12 UNL     1     -36.031  14.642  -6.762  1.00 20.00    -0.293 OA
ENDROOT
BRANCH   2   8
HETATM    8  C11 UNL     1     -35.499  16.696  -2.407  1.00 20.00     0.014 C 
HETATM    9  C9  UNL     1     -35.061  18.035  -2.993  1.00 20.00     0.009 C 
HETATM   10  C7  UNL     1     -33.668  18.267  -2.425  1.00 20.00     0.001 C 
HETATM   11  C8  UNL     1     -33.775  17.709  -1.017  1.00 20.00     0.001 C 
HETATM   12  C10 UNL     1     -34.625  16.452  -1.177  1.00 20.00     0.009 C 
ENDBRANCH   2   8
TORSDOF 1
ENDMDL
