MODEL 1
REMARK VINA RESULT:      -4.4      0.000      0.000
REMARK  1 active torsions:
REMARK  status: ('A' for Active; 'I' for Inactive)
REMARK    1  A    between atoms: C2_2  and  C10_10 
ROOT
HETATM    1  C1  UNL     1     -34.475  15.539  -2.702  1.00 20.00    -0.003 C 
HETATM    2  C2  UNL     1     -34.244  16.862  -2.769  1.00 20.00    -0.075 C 
HETATM    3  C3  UNL     1     -33.763  17.530  -4.033  1.00 20.00     0.034 C 
HETATM    4  C4  UNL     1     -33.268  16.551  -5.102  1.00 20.00     0.006 C 
HETATM    5  C5  UNL     1     -34.187  15.337  -5.207  1.00 20.00     0.024 C 
HETATM    6  C6  UNL     1     -34.316  14.605  -3.867  1.00 20.00     0.105 C 
HETATM    7 CL11 UNL     1     -32.878  13.580  -3.571  1.00 20.00    -0.121 Cl
ENDROOT
BRANCH   2   8
HETATM    8  C10 UNL     1     -34.457  17.763  -1.587  1.00 20.00    -0.028 C 
HETATM    9  C7  UNL     1     -34.714  16.907  -0.339  1.00 20.00     0.019 C 
HETATM   10  C8  UNL     1     -35.669  18.674  -1.842  1.00 20.00     0.019 C 
HETATM   11  C9  UNL     1     -33.210  18.632  -1.365  1.00 20.00     0.019 C 
ENDBRANCH   2   8
TORSDOF 1
ENDMDL
MODEL 2
REMARK VINA RESULT:      -4.4      0.254      1.373
REMARK  1 active torsions:
REMARK  status: ('A' for Active; 'I' for Inactive)
REMARK    1  A    between atoms: C2_2  and  C10_10 
ROOT
HETATM    1  C1  UNL     1     -34.542  15.668  -2.602  1.00 20.00    -0.003 C 
HETATM    2  C2  UNL     1     -34.248  16.981  -2.609  1.00 20.00    -0.075 C 
HETATM    3  C3  UNL     1     -33.762  17.687  -3.851  1.00 20.00     0.034 C 
HETATM    4  C4  UNL     1     -33.339  16.741  -4.978  1.00 20.00     0.006 C 
HETATM    5  C5  UNL     1     -34.318  15.580  -5.120  1.00 20.00     0.024 C 
HETATM    6  C6  UNL     1     -34.455  14.788  -3.816  1.00 20.00     0.105 C 
HETATM    7 CL11 UNL     1     -33.063  13.681  -3.605  1.00 20.00    -0.121 Cl
ENDROOT
BRANCH   2   8
HETATM    8  C10 UNL     1     -34.391  17.830  -1.380  1.00 20.00    -0.028 C 
HETATM    9  C7  UNL     1     -35.475  18.890  -1.621  1.00 20.00     0.019 C 
HETATM   10  C8  UNL     1     -33.054  18.525  -1.071  1.00 20.00     0.019 C 
HETATM   11  C9  UNL     1     -34.790  16.950  -0.185  1.00 20.00     0.019 C 
ENDBRANCH   2   8
TORSDOF 1
ENDMDL
MODEL 3
REMARK VINA RESULT:      -4.3      2.147      4.077
REMARK  1 active torsions:
REMARK  status: ('A' for Active; 'I' for Inactive)
REMARK    1  A    between atoms: C2_2  and  C10_10 
ROOT
HETATM    1  C1  UNL     1     -34.724  16.112  -1.655  1.00 20.00    -0.003 C 
HETATM    2  C2  UNL     1     -34.387  16.203  -2.954  1.00 20.00    -0.075 C 
HETATM    3  C3  UNL     1     -33.689  17.415  -3.519  1.00 20.00     0.034 C 
HETATM    4  C4  UNL     1     -33.690  18.625  -2.581  1.00 20.00     0.006 C 
HETATM    5  C5  UNL     1     -33.403  18.208  -1.142  1.00 20.00     0.024 C 
HETATM    6  C6  UNL     1     -34.414  17.173  -0.638  1.00 20.00     0.105 C 
HETATM    7 CL11 UNL     1     -35.951  17.970  -0.177  1.00 20.00    -0.121 Cl
ENDROOT
BRANCH   2   8
HETATM    8  C10 UNL     1     -34.680  15.097  -3.926  1.00 20.00    -0.028 C 
HETATM    9  C7  UNL     1     -33.732  13.920  -3.653  1.00 20.00     0.019 C 
HETATM   10  C8  UNL     1     -34.471  15.601  -5.363  1.00 20.00     0.019 C 
HETATM   11  C9  UNL     1     -36.135  14.633  -3.761  1.00 20.00     0.019 C 
ENDBRANCH   2   8
TORSDOF 1
ENDMDL
MODEL 4
REMARK VINA RESULT:      -4.3      2.097      4.092
REMARK  1 active torsions:
REMARK  status: ('A' for Active; 'I' for Inactive)
REMARK    1  A    between atoms: C2_2  and  C10_10 
ROOT
HETATM    1  C1  UNL     1     -34.720  15.891  -1.859  1.00 20.00    -0.003 C 
HETATM    2  C2  UNL     1     -34.372  15.952  -3.156  1.00 20.00    -0.075 C 
HETATM    3  C3  UNL     1     -33.667  17.150  -3.743  1.00 20.00     0.034 C 
HETATM    4  C4  UNL     1     -33.674  18.381  -2.833  1.00 20.00     0.006 C 
HETATM    5  C5  UNL     1     -33.401  17.997  -1.382  1.00 20.00     0.024 C 
HETATM    6  C6  UNL     1     -34.418  16.975  -0.863  1.00 20.00     0.105 C 
HETATM    7 CL11 UNL     1     -35.957  17.784  -0.433  1.00 20.00    -0.121 Cl
ENDROOT
BRANCH   2   8
HETATM    8  C10 UNL     1     -34.658  14.825  -4.105  1.00 20.00    -0.028 C 
HETATM    9  C7  UNL     1     -36.122  14.388  -3.944  1.00 20.00     0.019 C 
HETATM   10  C8  UNL     1     -33.732  13.638  -3.794  1.00 20.00     0.019 C 
HETATM   11  C9  UNL     1     -34.417  15.288  -5.550  1.00 20.00     0.019 C 
ENDBRANCH   2   8
TORSDOF 1
ENDMDL
MODEL 5
REMARK VINA RESULT:      -4.2      1.637      2.490
REMARK  1 active torsions:
REMARK  status: ('A' for Active; 'I' for Inactive)
REMARK    1  A    between atoms: C2_2  and  C10_10 
ROOT
HETATM    1  C1  UNL     1     -34.010  15.636  -3.854  1.00 20.00    -0.003 C 
HETATM    2  C2  UNL     1     -35.017  16.023  -3.051  1.00 20.00    -0.075 C 
HETATM    3  C3  UNL     1     -36.343  15.305  -3.024  1.00 20.00     0.034 C 
HETATM    4  C4  UNL     1     -36.545  14.331  -4.188  1.00 20.00     0.006 C 
HETATM    5  C5  UNL     1     -35.275  13.533  -4.467  1.00 20.00     0.024 C 
HETATM    6  C6  UNL     1     -34.084  14.448  -4.769  1.00 20.00     0.105 C 
HETATM    7 CL11 UNL     1     -34.164  15.045  -6.456  1.00 20.00    -0.121 Cl
ENDROOT
BRANCH   2   8
HETATM    8  C10 UNL     1     -34.881  17.194  -2.121  1.00 20.00    -0.028 C 
HETATM    9  C7  UNL     1     -36.188  17.999  -2.127  1.00 20.00     0.019 C 
HETATM   10  C8  UNL     1     -33.723  18.093  -2.586  1.00 20.00     0.019 C 
HETATM   11  C9  UNL     1     -34.592  16.695  -0.697  1.00 20.00     0.019 C 
ENDBRANCH   2   8
TORSDOF 1
ENDMDL
MODEL 6
REMARK VINA RESULT:      -4.1     13.667     15.644
REMARK  1 active torsions:
REMARK  status: ('A' for Active; 'I' for Inactive)
REMARK    1  A    between atoms: C2_2  and  C10_10 
ROOT
HETATM    1  C1  UNL     1     -41.401   3.889  -1.963  1.00 20.00    -0.003 C 
HETATM    2  C2  UNL     1     -42.389   3.623  -2.836  1.00 20.00    -0.075 C 
HETATM    3  C3  UNL     1     -43.383   4.673  -3.267  1.00 20.00     0.034 C 
HETATM    4  C4  UNL     1     -43.364   5.937  -2.403  1.00 20.00     0.006 C 
HETATM    5  C5  UNL     1     -41.935   6.359  -2.073  1.00 20.00     0.024 C 
HETATM    6  C6  UNL     1     -41.163   5.244  -1.361  1.00 20.00     0.105 C 
HETATM    7 CL11 UNL     1     -41.618   5.173   0.370  1.00 20.00    -0.121 Cl
ENDROOT
BRANCH   2   8
HETATM    8  C10 UNL     1     -42.561   2.262  -3.445  1.00 20.00    -0.028 C 
HETATM    9  C7  UNL     1     -43.256   1.340  -2.433  1.00 20.00     0.019 C 
HETATM   10  C8  UNL     1     -41.186   1.679  -3.809  1.00 20.00     0.019 C 
HETATM   11  C9  UNL     1     -43.417   2.366  -4.716  1.00 20.00     0.019 C 
ENDBRANCH   2   8
TORSDOF 1
ENDMDL
MODEL 7
REMARK VINA RESULT:      -4.1      1.411      2.054
REMARK  1 active torsions:
REMARK  status: ('A' for Active; 'I' for Inactive)
REMARK    1  A    between atoms: C2_2  and  C10_10 
ROOT
HETATM    1  C1  UNL     1     -33.572  17.258  -3.542  1.00 20.00    -0.003 C 
HETATM    2  C2  UNL     1     -34.256  16.942  -2.427  1.00 20.00    -0.075 C 
HETATM    3  C3  UNL     1     -34.847  15.571  -2.210  1.00 20.00     0.034 C 
HETATM    4  C4  UNL     1     -34.878  14.702  -3.471  1.00 20.00     0.006 C 
HETATM    5  C5  UNL     1     -33.581  14.833  -4.264  1.00 20.00     0.024 C 
HETATM    6  C6  UNL     1     -33.299  16.288  -4.655  1.00 20.00     0.105 C 
HETATM    7 CL11 UNL     1     -34.294  16.762  -6.067  1.00 20.00    -0.121 Cl
ENDROOT
BRANCH   2   8
HETATM    8  C10 UNL     1     -34.467  17.935  -1.322  1.00 20.00    -0.028 C 
HETATM    9  C7  UNL     1     -34.807  17.184  -0.026  1.00 20.00     0.019 C 
HETATM   10  C8  UNL     1     -35.626  18.877  -1.686  1.00 20.00     0.019 C 
HETATM   11  C9  UNL     1     -33.190  18.762  -1.115  1.00 20.00     0.019 C 
ENDBRANCH   2   8
TORSDOF 1
ENDMDL
MODEL 8
REMARK VINA RESULT:      -4.1      2.844      4.132
REMARK  1 active torsions:
REMARK  status: ('A' for Active; 'I' for Inactive)
REMARK    1  A    between atoms: C2_2  and  C10_10 
ROOT
HETATM    1  C1  UNL     1     -34.811  16.872  -5.110  1.00 20.00    -0.003 C 
HETATM    2  C2  UNL     1     -34.481  15.569  -5.114  1.00 20.00    -0.075 C 
HETATM    3  C3  UNL     1     -34.410  14.762  -6.386  1.00 20.00     0.034 C 
HETATM    4  C4  UNL     1     -35.042  15.455  -7.596  1.00 20.00     0.006 C 
HETATM    5  C5  UNL     1     -34.679  16.937  -7.636  1.00 20.00     0.024 C 
HETATM    6  C6  UNL     1     -35.105  17.661  -6.354  1.00 20.00     0.105 C 
HETATM    7 CL11 UNL     1     -36.861  18.016  -6.389  1.00 20.00    -0.121 Cl
ENDROOT
BRANCH   2   8
HETATM    8  C10 UNL     1     -34.153  14.833  -3.847  1.00 20.00    -0.028 C 
HETATM    9  C7  UNL     1     -32.629  14.784  -3.670  1.00 20.00     0.019 C 
HETATM   10  C8  UNL     1     -34.707  13.401  -3.921  1.00 20.00     0.019 C 
HETATM   11  C9  UNL     1     -34.785  15.556  -2.648  1.00 20.00     0.019 C 
ENDBRANCH   2   8
TORSDOF 1
ENDMDL
MODEL 9
REMARK VINA RESULT:      -4.0      1.929      2.389
REMARK  1 active torsions:
REMARK  status: ('A' for Active; 'I' for Inactive)
REMARK    1  A    between atoms: C2_2  and  C10_10 
ROOT
HETATM    1  C1  UNL     1     -35.316  16.590  -4.604  1.00 20.00    -0.003 C 
HETATM    2  C2  UNL     1     -34.893  16.268  -3.369  1.00 20.00    -0.075 C 
HETATM    3  C3  UNL     1     -34.413  14.881  -3.020  1.00 20.00     0.034 C 
HETATM    4  C4  UNL     1     -34.747  13.825  -4.078  1.00 20.00     0.006 C 
HETATM    5  C5  UNL     1     -34.509  14.361  -5.487  1.00 20.00     0.024 C 
HETATM    6  C6  UNL     1     -35.325  15.629  -5.758  1.00 20.00     0.105 C 
HETATM    7 CL11 UNL     1     -37.027  15.213  -6.127  1.00 20.00    -0.121 Cl
ENDROOT
BRANCH   2   8
HETATM    8  C10 UNL     1     -34.863  17.276  -2.256  1.00 20.00    -0.028 C 
HETATM    9  C7  UNL     1     -34.616  16.552  -0.925  1.00 20.00     0.019 C 
HETATM   10  C8  UNL     1     -36.208  18.019  -2.194  1.00 20.00     0.019 C 
HETATM   11  C9  UNL     1     -33.737  18.291  -2.504  1.00 20.00     0.019 C 
ENDBRANCH   2   8
TORSDOF 1
ENDMDL
