MODEL 1
REMARK VINA RESULT:      -4.6      0.000      0.000
REMARK  1 active torsions:
REMARK  status: ('A' for Active; 'I' for Inactive)
REMARK    1  A    between atoms: C2_2  and  C10_10 
ROOT
HETATM    1  C1  UNL     1     -33.824  15.926  -5.018  1.00 20.00    -0.003 C 
HETATM    2  C2  UNL     1     -34.688  15.170  -5.723  1.00 20.00    -0.075 C 
HETATM    3  C3  UNL     1     -34.988  13.742  -5.317  1.00 20.00     0.034 C 
HETATM    4  C4  UNL     1     -34.522  13.382  -3.904  1.00 20.00     0.006 C 
HETATM    5  C5  UNL     1     -33.120  13.925  -3.637  1.00 20.00     0.024 C 
HETATM    6  C6  UNL     1     -33.060  15.444  -3.820  1.00 20.00     0.105 C 
HETATM    7 CL11 UNL     1     -33.716  16.272  -2.372  1.00 20.00    -0.121 Cl
ENDROOT
BRANCH   2   8
HETATM    8  C10 UNL     1     -35.423  15.662  -6.914  1.00 20.00    -0.028 C 
HETATM    9  C7  UNL     1     -36.794  16.202  -6.480  1.00 20.00     0.019 C 
HETATM   10  C8  UNL     1     -35.621  14.514  -7.917  1.00 20.00     0.019 C 
HETATM   11  C9  UNL     1     -34.622  16.787  -7.591  1.00 20.00     0.019 C 
ENDBRANCH   2   8
TORSDOF 1
ENDMDL
MODEL 2
REMARK VINA RESULT:      -4.6      0.019      1.306
REMARK  1 active torsions:
REMARK  status: ('A' for Active; 'I' for Inactive)
REMARK    1  A    between atoms: C2_2  and  C10_10 
ROOT
HETATM    1  C1  UNL     1     -33.821  15.923  -5.028  1.00 20.00    -0.003 C 
HETATM    2  C2  UNL     1     -34.688  15.174  -5.735  1.00 20.00    -0.075 C 
HETATM    3  C3  UNL     1     -34.995  13.746  -5.334  1.00 20.00     0.034 C 
HETATM    4  C4  UNL     1     -34.531  13.379  -3.922  1.00 20.00     0.006 C 
HETATM    5  C5  UNL     1     -33.127  13.914  -3.653  1.00 20.00     0.024 C 
HETATM    6  C6  UNL     1     -33.059  15.434  -3.831  1.00 20.00     0.105 C 
HETATM    7 CL11 UNL     1     -33.713  16.260  -2.380  1.00 20.00    -0.121 Cl
ENDROOT
BRANCH   2   8
HETATM    8  C10 UNL     1     -35.420  15.673  -6.925  1.00 20.00    -0.028 C 
HETATM    9  C7  UNL     1     -35.626  14.519  -7.918  1.00 20.00     0.019 C 
HETATM   10  C8  UNL     1     -34.610  16.791  -7.604  1.00 20.00     0.019 C 
HETATM   11  C9  UNL     1     -36.787  16.232  -6.499  1.00 20.00     0.019 C 
ENDBRANCH   2   8
TORSDOF 1
ENDMDL
MODEL 3
REMARK VINA RESULT:      -4.6      0.026      1.312
REMARK  1 active torsions:
REMARK  status: ('A' for Active; 'I' for Inactive)
REMARK    1  A    between atoms: C2_2  and  C10_10 
ROOT
HETATM    1  C1  UNL     1     -33.837  15.938  -5.005  1.00 20.00    -0.003 C 
HETATM    2  C2  UNL     1     -34.688  15.183  -5.725  1.00 20.00    -0.075 C 
HETATM    3  C3  UNL     1     -34.977  13.748  -5.339  1.00 20.00     0.034 C 
HETATM    4  C4  UNL     1     -34.518  13.375  -3.927  1.00 20.00     0.006 C 
HETATM    5  C5  UNL     1     -33.124  13.927  -3.643  1.00 20.00     0.024 C 
HETATM    6  C6  UNL     1     -33.077  15.450  -3.806  1.00 20.00     0.105 C 
HETATM    7 CL11 UNL     1     -33.752  16.253  -2.353  1.00 20.00    -0.121 Cl
ENDROOT
BRANCH   2   8
HETATM    8  C10 UNL     1     -35.418  15.683  -6.915  1.00 20.00    -0.028 C 
HETATM    9  C7  UNL     1     -34.601  16.800  -7.582  1.00 20.00     0.019 C 
HETATM   10  C8  UNL     1     -36.789  16.236  -6.492  1.00 20.00     0.019 C 
HETATM   11  C9  UNL     1     -35.627  14.536  -7.918  1.00 20.00     0.019 C 
ENDBRANCH   2   8
TORSDOF 1
ENDMDL
MODEL 4
REMARK VINA RESULT:      -4.5      2.997      4.492
REMARK  1 active torsions:
REMARK  status: ('A' for Active; 'I' for Inactive)
REMARK    1  A    between atoms: C2_2  and  C10_10 
ROOT
HETATM    1  C1  UNL     1     -36.124  15.605  -3.221  1.00 20.00    -0.003 C 
HETATM    2  C2  UNL     1     -34.990  16.075  -2.666  1.00 20.00    -0.075 C 
HETATM    3  C3  UNL     1     -33.659  15.397  -2.914  1.00 20.00     0.034 C 
HETATM    4  C4  UNL     1     -33.670  14.404  -4.078  1.00 20.00     0.006 C 
HETATM    5  C5  UNL     1     -34.923  13.533  -4.040  1.00 20.00     0.024 C 
HETATM    6  C6  UNL     1     -36.199  14.378  -4.083  1.00 20.00     0.105 C 
HETATM    7 CL11 UNL     1     -36.545  14.899  -5.763  1.00 20.00    -0.121 Cl
ENDROOT
BRANCH   2   8
HETATM    8  C10 UNL     1     -34.942  17.282  -1.805  1.00 20.00    -0.028 C 
HETATM    9  C7  UNL     1     -36.273  18.041  -1.916  1.00 20.00     0.019 C 
HETATM   10  C8  UNL     1     -33.792  18.199  -2.255  1.00 20.00     0.019 C 
HETATM   11  C9  UNL     1     -34.710  16.869  -0.342  1.00 20.00     0.019 C 
ENDBRANCH   2   8
TORSDOF 1
ENDMDL
MODEL 5
REMARK VINA RESULT:      -4.4      2.587      3.938
REMARK  1 active torsions:
REMARK  status: ('A' for Active; 'I' for Inactive)
REMARK    1  A    between atoms: C2_2  and  C10_10 
ROOT
HETATM    1  C1  UNL     1     -35.448  15.745  -4.757  1.00 20.00    -0.003 C 
HETATM    2  C2  UNL     1     -34.880  15.793  -3.537  1.00 20.00    -0.075 C 
HETATM    3  C3  UNL     1     -34.070  14.629  -3.006  1.00 20.00     0.034 C 
HETATM    4  C4  UNL     1     -33.677  13.603  -4.071  1.00 20.00     0.006 C 
HETATM    5  C5  UNL     1     -34.854  13.296  -4.993  1.00 20.00     0.024 C 
HETATM    6  C6  UNL     1     -35.378  14.562  -5.678  1.00 20.00     0.105 C 
HETATM    7 CL11 UNL     1     -34.332  14.998  -7.066  1.00 20.00    -0.121 Cl
ENDROOT
BRANCH   2   8
HETATM    8  C10 UNL     1     -34.974  16.969  -2.637  1.00 20.00    -0.028 C 
HETATM    9  C7  UNL     1     -36.404  17.530  -2.681  1.00 20.00     0.019 C 
HETATM   10  C8  UNL     1     -33.985  18.055  -3.092  1.00 20.00     0.019 C 
HETATM   11  C9  UNL     1     -34.633  16.551  -1.197  1.00 20.00     0.019 C 
ENDBRANCH   2   8
TORSDOF 1
ENDMDL
MODEL 6
REMARK VINA RESULT:      -4.2      2.053      2.727
REMARK  1 active torsions:
REMARK  status: ('A' for Active; 'I' for Inactive)
REMARK    1  A    between atoms: C2_2  and  C10_10 
ROOT
HETATM    1  C1  UNL     1     -34.186  17.043  -4.296  1.00 20.00    -0.003 C 
HETATM    2  C2  UNL     1     -34.615  15.779  -4.112  1.00 20.00    -0.075 C 
HETATM    3  C3  UNL     1     -34.768  15.201  -2.722  1.00 20.00     0.034 C 
HETATM    4  C4  UNL     1     -34.740  16.245  -1.602  1.00 20.00     0.006 C 
HETATM    5  C5  UNL     1     -33.629  17.265  -1.837  1.00 20.00     0.024 C 
HETATM    6  C6  UNL     1     -33.788  17.972  -3.186  1.00 20.00     0.105 C 
HETATM    7 CL11 UNL     1     -35.026  19.263  -3.071  1.00 20.00    -0.121 Cl
ENDROOT
BRANCH   2   8
HETATM    8  C10 UNL     1     -34.989  14.873  -5.226  1.00 20.00    -0.028 C 
HETATM    9  C7  UNL     1     -36.506  14.952  -5.459  1.00 20.00     0.019 C 
HETATM   10  C8  UNL     1     -34.601  13.427  -4.874  1.00 20.00     0.019 C 
HETATM   11  C9  UNL     1     -34.252  15.293  -6.508  1.00 20.00     0.019 C 
ENDBRANCH   2   8
TORSDOF 1
ENDMDL
MODEL 7
REMARK VINA RESULT:      -4.2      3.159      5.222
REMARK  1 active torsions:
REMARK  status: ('A' for Active; 'I' for Inactive)
REMARK    1  A    between atoms: C2_2  and  C10_10 
ROOT
HETATM    1  C1  UNL     1     -33.660  16.064  -2.492  1.00 20.00    -0.003 C 
HETATM    2  C2  UNL     1     -33.920  17.378  -2.353  1.00 20.00    -0.075 C 
HETATM    3  C3  UNL     1     -34.010  18.288  -3.560  1.00 20.00     0.034 C 
HETATM    4  C4  UNL     1     -34.133  17.548  -4.895  1.00 20.00     0.006 C 
HETATM    5  C5  UNL     1     -33.165  16.370  -4.955  1.00 20.00     0.024 C 
HETATM    6  C6  UNL     1     -33.401  15.386  -3.805  1.00 20.00     0.105 C 
HETATM    7 CL11 UNL     1     -34.801  14.327  -4.170  1.00 20.00    -0.121 Cl
ENDROOT
BRANCH   2   8
HETATM    8  C10 UNL     1     -34.158  18.031  -1.043  1.00 20.00    -0.028 C 
HETATM    9  C7  UNL     1     -35.055  19.262  -1.242  1.00 20.00     0.019 C 
HETATM   10  C8  UNL     1     -32.819  18.469  -0.427  1.00 20.00     0.019 C 
HETATM   11  C9  UNL     1     -34.851  17.044  -0.088  1.00 20.00     0.019 C 
ENDBRANCH   2   8
TORSDOF 1
ENDMDL
MODEL 8
REMARK VINA RESULT:      -4.2      2.505      3.873
REMARK  1 active torsions:
REMARK  status: ('A' for Active; 'I' for Inactive)
REMARK    1  A    between atoms: C2_2  and  C10_10 
ROOT
HETATM    1  C1  UNL     1     -34.439  15.856  -1.980  1.00 20.00    -0.003 C 
HETATM    2  C2  UNL     1     -34.831  15.817  -3.268  1.00 20.00    -0.075 C 
HETATM    3  C3  UNL     1     -35.662  16.933  -3.865  1.00 20.00     0.034 C 
HETATM    4  C4  UNL     1     -35.702  18.207  -3.018  1.00 20.00     0.006 C 
HETATM    5  C5  UNL     1     -35.903  17.874  -1.542  1.00 20.00     0.024 C 
HETATM    6  C6  UNL     1     -34.800  16.950  -1.017  1.00 20.00     0.105 C 
HETATM    7 CL11 UNL     1     -33.317  17.890  -0.660  1.00 20.00    -0.121 Cl
ENDROOT
BRANCH   2   8
HETATM    8  C10 UNL     1     -34.474  14.718  -4.198  1.00 20.00    -0.028 C 
HETATM    9  C7  UNL     1     -33.189  14.033  -3.708  1.00 20.00     0.019 C 
HETATM   10  C8  UNL     1     -34.244  15.284  -5.610  1.00 20.00     0.019 C 
HETATM   11  C9  UNL     1     -35.615  13.688  -4.250  1.00 20.00     0.019 C 
ENDBRANCH   2   8
TORSDOF 1
ENDMDL
MODEL 9
REMARK VINA RESULT:      -4.2     12.941     14.473
REMARK  1 active torsions:
REMARK  status: ('A' for Active; 'I' for Inactive)
REMARK    1  A    between atoms: C2_2  and  C10_10 
ROOT
HETATM    1  C1  UNL     1     -41.215   4.126  -1.927  1.00 20.00    -0.003 C 
HETATM    2  C2  UNL     1     -42.291   3.322  -2.026  1.00 20.00    -0.075 C 
HETATM    3  C3  UNL     1     -43.405   3.379  -1.002  1.00 20.00     0.034 C 
HETATM    4  C4  UNL     1     -43.368   4.618  -0.104  1.00 20.00     0.006 C 
HETATM    5  C5  UNL     1     -41.945   4.906   0.368  1.00 20.00     0.024 C 
HETATM    6  C6  UNL     1     -40.989   5.106  -0.812  1.00 20.00     0.105 C 
HETATM    7 CL11 UNL     1     -41.162   6.759  -1.480  1.00 20.00    -0.121 Cl
ENDROOT
BRANCH   2   8
HETATM    8  C10 UNL     1     -42.487   2.350  -3.129  1.00 20.00    -0.028 C 
HETATM    9  C7  UNL     1     -41.127   2.023  -3.766  1.00 20.00     0.019 C 
HETATM   10  C8  UNL     1     -43.417   2.952  -4.195  1.00 20.00     0.019 C 
HETATM   11  C9  UNL     1     -43.119   1.060  -2.581  1.00 20.00     0.019 C 
ENDBRANCH   2   8
TORSDOF 1
ENDMDL
