MODEL 1
REMARK VINA RESULT:      -4.8      0.000      0.000
REMARK  1 active torsions:
REMARK  status: ('A' for Active; 'I' for Inactive)
REMARK    1  A    between atoms: C2_2  and  C10_10 
ROOT
HETATM    1  C1  UNL     1     -34.438  16.011  -1.888  1.00 20.00    -0.004 C 
HETATM    2  C2  UNL     1     -33.980  16.353  -3.099  1.00 20.00    -0.078 C 
HETATM    3  C3  UNL     1     -34.248  17.794  -3.401  1.00 20.00     0.036 C 
HETATM    4  C4  UNL     1     -35.271  18.173  -2.328  1.00 20.00     0.028 C 
HETATM    5  C9  UNL     1     -35.083  17.164  -1.192  1.00 20.00     0.105 C 
HETATM    6 CL12 UNL     1     -33.994  17.789   0.066  1.00 20.00    -0.121 Cl
ENDROOT
BRANCH   2   7
HETATM    7  C10 UNL     1     -33.239  15.463  -4.085  1.00 20.00     0.018 C 
HETATM    8  C5  UNL     1     -33.486  14.001  -3.728  1.00 20.00     0.035 C 
HETATM    9  C7  UNL     1     -34.859  13.513  -4.178  1.00 20.00     0.168 C 
HETATM   10  O11 UNL     1     -35.070  13.791  -5.561  1.00 20.00    -0.391 OA
HETATM   11  C8  UNL     1     -35.059  15.192  -5.830  1.00 20.00     0.168 C 
HETATM   12  C6  UNL     1     -33.699  15.797  -5.499  1.00 20.00     0.035 C 
ENDBRANCH   2   7
TORSDOF 1
ENDMDL
MODEL 2
REMARK VINA RESULT:      -4.6      2.326      3.582
REMARK  1 active torsions:
REMARK  status: ('A' for Active; 'I' for Inactive)
REMARK    1  A    between atoms: C2_2  and  C10_10 
ROOT
HETATM    1  C1  UNL     1     -33.508  15.866  -4.782  1.00 20.00    -0.004 C 
HETATM    2  C2  UNL     1     -34.088  15.049  -5.671  1.00 20.00    -0.078 C 
HETATM    3  C3  UNL     1     -34.434  13.728  -5.058  1.00 20.00     0.036 C 
HETATM    4  C4  UNL     1     -33.632  13.747  -3.755  1.00 20.00     0.028 C 
HETATM    5  C9  UNL     1     -33.374  15.223  -3.441  1.00 20.00     0.105 C 
HETATM    6 CL12 UNL     1     -34.599  15.884  -2.336  1.00 20.00    -0.121 Cl
ENDROOT
BRANCH   2   7
HETATM    7  C10 UNL     1     -34.420  15.360  -7.121  1.00 20.00     0.018 C 
HETATM    8  C5  UNL     1     -35.642  14.551  -7.544  1.00 20.00     0.035 C 
HETATM    9  C7  UNL     1     -36.946  15.145  -7.022  1.00 20.00     0.168 C 
HETATM   10  O11 UNL     1     -37.049  16.526  -7.363  1.00 20.00    -0.391 OA
HETATM   11  C8  UNL     1     -36.013  17.301  -6.763  1.00 20.00     0.168 C 
HETATM   12  C6  UNL     1     -34.644  16.860  -7.269  1.00 20.00     0.035 C 
ENDBRANCH   2   7
TORSDOF 1
ENDMDL
MODEL 3
REMARK VINA RESULT:      -4.6      1.297      2.036
REMARK  1 active torsions:
REMARK  status: ('A' for Active; 'I' for Inactive)
REMARK    1  A    between atoms: C2_2  and  C10_10 
ROOT
HETATM    1  C1  UNL     1     -35.733  16.223  -2.429  1.00 20.00    -0.004 C 
HETATM    2  C2  UNL     1     -34.958  15.357  -3.095  1.00 20.00    -0.078 C 
HETATM    3  C3  UNL     1     -33.510  15.724  -2.992  1.00 20.00     0.036 C 
HETATM    4  C4  UNL     1     -33.569  17.159  -2.465  1.00 20.00     0.028 C 
HETATM    5  C9  UNL     1     -34.930  17.300  -1.778  1.00 20.00     0.105 C 
HETATM    6 CL12 UNL     1     -34.818  16.992  -0.032  1.00 20.00    -0.121 Cl
ENDROOT
BRANCH   2   7
HETATM    7  C10 UNL     1     -35.408  14.118  -3.852  1.00 20.00     0.018 C 
HETATM    8  C5  UNL     1     -36.814  14.343  -4.398  1.00 20.00     0.035 C 
HETATM    9  C7  UNL     1     -36.824  15.220  -5.645  1.00 20.00     0.168 C 
HETATM   10  O11 UNL     1     -35.920  14.717  -6.628  1.00 20.00    -0.391 OA
HETATM   11  C8  UNL     1     -34.571  14.731  -6.166  1.00 20.00     0.168 C 
HETATM   12  C6  UNL     1     -34.403  13.817  -4.957  1.00 20.00     0.035 C 
ENDBRANCH   2   7
TORSDOF 1
ENDMDL
MODEL 4
REMARK VINA RESULT:      -4.5      2.963      4.452
REMARK  1 active torsions:
REMARK  status: ('A' for Active; 'I' for Inactive)
REMARK    1  A    between atoms: C2_2  and  C10_10 
ROOT
HETATM    1  C1  UNL     1     -35.740  14.540  -3.772  1.00 20.00    -0.004 C 
HETATM    2  C2  UNL     1     -34.819  15.198  -3.056  1.00 20.00    -0.078 C 
HETATM    3  C3  UNL     1     -33.433  14.748  -3.398  1.00 20.00     0.036 C 
HETATM    4  C4  UNL     1     -33.687  13.450  -4.167  1.00 20.00     0.028 C 
HETATM    5  C9  UNL     1     -35.118  13.549  -4.700  1.00 20.00     0.105 C 
HETATM    6 CL12 UNL     1     -35.158  14.179  -6.361  1.00 20.00    -0.121 Cl
ENDROOT
BRANCH   2   7
HETATM    7  C10 UNL     1     -35.064  16.299  -2.037  1.00 20.00     0.018 C 
HETATM    8  C5  UNL     1     -33.815  17.164  -1.917  1.00 20.00     0.035 C 
HETATM    9  C7  UNL     1     -33.668  18.144  -3.076  1.00 20.00     0.168 C 
HETATM   10  O11 UNL     1     -34.858  18.909  -3.249  1.00 20.00    -0.391 OA
HETATM   11  C8  UNL     1     -35.974  18.088  -3.587  1.00 20.00     0.168 C 
HETATM   12  C6  UNL     1     -36.285  17.106  -2.462  1.00 20.00     0.035 C 
ENDBRANCH   2   7
TORSDOF 1
ENDMDL
MODEL 5
REMARK VINA RESULT:      -4.5      1.083      1.568
REMARK  1 active torsions:
REMARK  status: ('A' for Active; 'I' for Inactive)
REMARK    1  A    between atoms: C2_2  and  C10_10 
ROOT
HETATM    1  C1  UNL     1     -33.924  17.762  -3.164  1.00 20.00    -0.004 C 
HETATM    2  C2  UNL     1     -33.863  16.427  -3.074  1.00 20.00    -0.078 C 
HETATM    3  C3  UNL     1     -34.516  15.930  -1.822  1.00 20.00     0.036 C 
HETATM    4  C4  UNL     1     -34.654  17.208  -0.991  1.00 20.00     0.028 C 
HETATM    5  C9  UNL     1     -34.624  18.366  -1.991  1.00 20.00     0.105 C 
HETATM    6 CL12 UNL     1     -36.262  18.866  -2.466  1.00 20.00    -0.121 Cl
ENDROOT
BRANCH   2   7
HETATM    7  C10 UNL     1     -33.259  15.467  -4.086  1.00 20.00     0.018 C 
HETATM    8  C5  UNL     1     -33.679  14.042  -3.743  1.00 20.00     0.035 C 
HETATM    9  C7  UNL     1     -35.111  13.735  -4.169  1.00 20.00     0.168 C 
HETATM   10  O11 UNL     1     -35.313  14.058  -5.543  1.00 20.00    -0.391 OA
HETATM   11  C8  UNL     1     -35.133  15.450  -5.794  1.00 20.00     0.168 C 
HETATM   12  C6  UNL     1     -33.702  15.877  -5.485  1.00 20.00     0.035 C 
ENDBRANCH   2   7
TORSDOF 1
ENDMDL
MODEL 6
REMARK VINA RESULT:      -4.3      2.874      4.579
REMARK  1 active torsions:
REMARK  status: ('A' for Active; 'I' for Inactive)
REMARK    1  A    between atoms: C2_2  and  C10_10 
ROOT
HETATM    1  C1  UNL     1     -36.584  15.574  -5.854  1.00 20.00    -0.004 C 
HETATM    2  C2  UNL     1     -35.684  14.694  -5.398  1.00 20.00    -0.078 C 
HETATM    3  C3  UNL     1     -34.850  14.136  -6.508  1.00 20.00     0.036 C 
HETATM    4  C4  UNL     1     -35.639  14.545  -7.754  1.00 20.00     0.028 C 
HETATM    5  C9  UNL     1     -36.495  15.743  -7.335  1.00 20.00     0.105 C 
HETATM    6 CL12 UNL     1     -35.696  17.285  -7.714  1.00 20.00    -0.121 Cl
ENDROOT
BRANCH   2   7
HETATM    7  C10 UNL     1     -35.452  14.287  -3.952  1.00 20.00     0.018 C 
HETATM    8  C5  UNL     1     -33.996  13.869  -3.773  1.00 20.00     0.035 C 
HETATM    9  C7  UNL     1     -33.051  15.062  -3.685  1.00 20.00     0.168 C 
HETATM   10  O11 UNL     1     -33.490  15.986  -2.691  1.00 20.00    -0.391 OA
HETATM   11  C8  UNL     1     -34.768  16.537  -3.004  1.00 20.00     0.168 C 
HETATM   12  C6  UNL     1     -35.834  15.447  -3.041  1.00 20.00     0.035 C 
ENDBRANCH   2   7
TORSDOF 1
ENDMDL
MODEL 7
REMARK VINA RESULT:      -4.3      1.468      1.966
REMARK  1 active torsions:
REMARK  status: ('A' for Active; 'I' for Inactive)
REMARK    1  A    between atoms: C2_2  and  C10_10 
ROOT
HETATM    1  C1  UNL     1     -35.547  16.810  -1.334  1.00 20.00    -0.004 C 
HETATM    2  C2  UNL     1     -34.424  16.392  -1.932  1.00 20.00    -0.078 C 
HETATM    3  C3  UNL     1     -33.249  17.232  -1.542  1.00 20.00     0.036 C 
HETATM    4  C4  UNL     1     -33.913  18.454  -0.903  1.00 20.00     0.028 C 
HETATM    5  C9  UNL     1     -35.302  17.992  -0.456  1.00 20.00     0.105 C 
HETATM    6 CL12 UNL     1     -35.308  17.483   1.247  1.00 20.00    -0.121 Cl
ENDROOT
BRANCH   2   7
HETATM    7  C10 UNL     1     -34.271  15.203  -2.868  1.00 20.00     0.018 C 
HETATM    8  C5  UNL     1     -35.555  15.024  -3.670  1.00 20.00     0.035 C 
HETATM    9  C7  UNL     1     -35.675  16.026  -4.813  1.00 20.00     0.168 C 
HETATM   10  O11 UNL     1     -34.505  16.010  -5.628  1.00 20.00    -0.391 OA
HETATM   11  C8  UNL     1     -33.344  16.405  -4.899  1.00 20.00     0.168 C 
HETATM   12  C6  UNL     1     -33.059  15.428  -3.763  1.00 20.00     0.035 C 
ENDBRANCH   2   7
TORSDOF 1
ENDMDL
MODEL 8
REMARK VINA RESULT:      -4.3      3.011      4.656
REMARK  1 active torsions:
REMARK  status: ('A' for Active; 'I' for Inactive)
REMARK    1  A    between atoms: C2_2  and  C10_10 
ROOT
HETATM    1  C1  UNL     1     -35.385  15.672  -4.510  1.00 20.00    -0.004 C 
HETATM    2  C2  UNL     1     -34.324  15.976  -3.751  1.00 20.00    -0.078 C 
HETATM    3  C3  UNL     1     -33.367  14.829  -3.660  1.00 20.00     0.036 C 
HETATM    4  C4  UNL     1     -34.202  13.658  -4.182  1.00 20.00     0.028 C 
HETATM    5  C9  UNL     1     -35.306  14.279  -5.043  1.00 20.00     0.105 C 
HETATM    6 CL12 UNL     1     -34.852  14.321  -6.761  1.00 20.00    -0.121 Cl
ENDROOT
BRANCH   2   7
HETATM    7  C10 UNL     1     -34.036  17.303  -3.068  1.00 20.00     0.018 C 
HETATM    8  C5  UNL     1     -35.283  18.178  -3.119  1.00 20.00     0.035 C 
HETATM    9  C7  UNL     1     -36.329  17.769  -2.087  1.00 20.00     0.168 C 
HETATM   10  O11 UNL     1     -35.755  17.696  -0.784  1.00 20.00    -0.391 OA
HETATM   11  C8  UNL     1     -34.736  16.701  -0.706  1.00 20.00     0.168 C 
HETATM   12  C6  UNL     1     -33.578  17.037  -1.639  1.00 20.00     0.035 C 
ENDBRANCH   2   7
TORSDOF 1
ENDMDL
MODEL 9
REMARK VINA RESULT:      -4.3      2.574      3.758
REMARK  1 active torsions:
REMARK  status: ('A' for Active; 'I' for Inactive)
REMARK    1  A    between atoms: C2_2  and  C10_10 
ROOT
HETATM    1  C1  UNL     1     -36.648  14.641  -3.817  1.00 20.00    -0.004 C 
HETATM    2  C2  UNL     1     -36.128  14.696  -5.050  1.00 20.00    -0.078 C 
HETATM    3  C3  UNL     1     -37.100  15.271  -6.031  1.00 20.00     0.036 C 
HETATM    4  C4  UNL     1     -38.422  15.211  -5.263  1.00 20.00     0.028 C 
HETATM    5  C9  UNL     1     -38.045  15.168  -3.780  1.00 20.00     0.105 C 
HETATM    6 CL12 UNL     1     -38.053  16.791  -3.054  1.00 20.00    -0.121 Cl
ENDROOT
BRANCH   2   7
HETATM    7  C10 UNL     1     -34.727  14.282  -5.472  1.00 20.00     0.018 C 
HETATM    8  C5  UNL     1     -34.186  15.289  -6.481  1.00 20.00     0.035 C 
HETATM    9  C7  UNL     1     -33.705  16.577  -5.821  1.00 20.00     0.168 C 
HETATM   10  O11 UNL     1     -32.785  16.296  -4.768  1.00 20.00    -0.391 OA
HETATM   11  C8  UNL     1     -33.389  15.537  -3.722  1.00 20.00     0.168 C 
HETATM   12  C6  UNL     1     -33.845  14.176  -4.234  1.00 20.00     0.035 C 
ENDBRANCH   2   7
TORSDOF 1
ENDMDL
