MODEL 1
REMARK VINA RESULT:      -4.8      0.000      0.000
REMARK  1 active torsions:
REMARK  status: ('A' for Active; 'I' for Inactive)
REMARK    1  A    between atoms: C4_4  and  C6_6 
ROOT
HETATM    1  C5  UNL     1     -34.690  16.391  -1.109  1.00 20.00     0.001 C 
HETATM    2  C6  UNL     1     -34.300  16.232  -2.385  1.00 20.00    -0.048 C 
HETATM    3  C7  UNL     1     -33.778  17.529  -2.939  1.00 20.00     0.041 C 
HETATM    4  C8  UNL     1     -33.541  18.365  -1.680  1.00 20.00     0.028 C 
HETATM    5  C9  UNL     1     -34.478  17.789  -0.621  1.00 20.00     0.106 C 
HETATM    6 CL11 UNL     1     -36.033  18.649  -0.579  1.00 20.00    -0.121 Cl
ENDROOT
BRANCH   2   7
HETATM    7  C4  UNL     1     -34.388  15.002  -3.190  1.00 20.00    -0.006 A 
HETATM    8  C1  UNL     1     -35.538  14.406  -3.759  1.00 20.00     0.038 A 
HETATM    9  C2  UNL     1     -35.100  13.278  -4.415  1.00 20.00     0.142 A 
HETATM   10  O10 UNL     1     -33.754  13.143  -4.284  1.00 20.00    -0.334 OA
HETATM   11  C3  UNL     1     -33.328  14.197  -3.538  1.00 20.00     0.153 A 
ENDBRANCH   2   7
TORSDOF 1
ENDMDL
MODEL 2
REMARK VINA RESULT:      -4.7      2.968      4.776
REMARK  1 active torsions:
REMARK  status: ('A' for Active; 'I' for Inactive)
REMARK    1  A    between atoms: C4_4  and  C6_6 
ROOT
HETATM    1  C5  UNL     1     -33.638  14.991  -3.845  1.00 20.00     0.001 C 
HETATM    2  C6  UNL     1     -34.549  15.575  -3.049  1.00 20.00    -0.048 C 
HETATM    3  C7  UNL     1     -35.925  15.046  -3.350  1.00 20.00     0.041 C 
HETATM    4  C8  UNL     1     -35.632  13.777  -4.151  1.00 20.00     0.028 C 
HETATM    5  C9  UNL     1     -34.252  13.991  -4.771  1.00 20.00     0.106 C 
HETATM    6 CL11 UNL     1     -34.364  14.680  -6.405  1.00 20.00    -0.121 Cl
ENDROOT
BRANCH   2   7
HETATM    7  C4  UNL     1     -34.303  16.620  -2.041  1.00 20.00    -0.006 A 
HETATM    8  C1  UNL     1     -34.649  16.615  -0.669  1.00 20.00     0.038 A 
HETATM    9  C2  UNL     1     -34.205  17.813  -0.158  1.00 20.00     0.142 A 
HETATM   10  O10 UNL     1     -33.609  18.554  -1.128  1.00 20.00    -0.334 OA
HETATM   11  C3  UNL     1     -33.673  17.821  -2.271  1.00 20.00     0.153 A 
ENDBRANCH   2   7
TORSDOF 1
ENDMDL
MODEL 3
REMARK VINA RESULT:      -4.7      1.567      2.201
REMARK  1 active torsions:
REMARK  status: ('A' for Active; 'I' for Inactive)
REMARK    1  A    between atoms: C4_4  and  C6_6 
ROOT
HETATM    1  C5  UNL     1     -33.586  18.028  -2.017  1.00 20.00     0.001 C 
HETATM    2  C6  UNL     1     -34.179  16.841  -1.801  1.00 20.00    -0.048 C 
HETATM    3  C7  UNL     1     -34.708  16.768  -0.395  1.00 20.00     0.041 C 
HETATM    4  C8  UNL     1     -34.700  18.232   0.047  1.00 20.00     0.028 C 
HETATM    5  C9  UNL     1     -33.642  18.916  -0.816  1.00 20.00     0.106 C 
HETATM    6 CL11 UNL     1     -32.054  18.940  -0.017  1.00 20.00    -0.121 Cl
ENDROOT
BRANCH   2   7
HETATM    7  C4  UNL     1     -34.286  15.720  -2.750  1.00 20.00    -0.006 A 
HETATM    8  C1  UNL     1     -33.248  15.061  -3.451  1.00 20.00     0.038 A 
HETATM    9  C2  UNL     1     -33.857  14.086  -4.208  1.00 20.00     0.142 A 
HETATM   10  O10 UNL     1     -35.202  14.104  -4.016  1.00 20.00    -0.334 OA
HETATM   11  C3  UNL     1     -35.455  15.101  -3.127  1.00 20.00     0.153 A 
ENDBRANCH   2   7
TORSDOF 1
ENDMDL
MODEL 4
REMARK VINA RESULT:      -4.6      2.957      4.810
REMARK  1 active torsions:
REMARK  status: ('A' for Active; 'I' for Inactive)
REMARK    1  A    between atoms: C4_4  and  C6_6 
ROOT
HETATM    1  C5  UNL     1     -33.621  15.006  -3.847  1.00 20.00     0.001 C 
HETATM    2  C6  UNL     1     -34.521  15.570  -3.024  1.00 20.00    -0.048 C 
HETATM    3  C7  UNL     1     -35.899  15.039  -3.310  1.00 20.00     0.041 C 
HETATM    4  C8  UNL     1     -35.613  13.787  -4.140  1.00 20.00     0.028 C 
HETATM    5  C9  UNL     1     -34.247  14.020  -4.780  1.00 20.00     0.106 C 
HETATM    6 CL11 UNL     1     -34.391  14.738  -6.399  1.00 20.00    -0.121 Cl
ENDROOT
BRANCH   2   7
HETATM    7  C4  UNL     1     -34.262  16.598  -2.001  1.00 20.00    -0.006 A 
HETATM    8  C1  UNL     1     -33.551  17.813  -2.138  1.00 20.00     0.038 A 
HETATM    9  C2  UNL     1     -33.589  18.420  -0.903  1.00 20.00     0.142 A 
HETATM   10  O10 UNL     1     -34.278  17.654  -0.016  1.00 20.00    -0.334 OA
HETATM   11  C3  UNL     1     -34.684  16.547  -0.692  1.00 20.00     0.153 A 
ENDBRANCH   2   7
TORSDOF 1
ENDMDL
MODEL 5
REMARK VINA RESULT:      -4.5     12.997     14.652
REMARK  1 active torsions:
REMARK  status: ('A' for Active; 'I' for Inactive)
REMARK    1  A    between atoms: C4_4  and  C6_6 
ROOT
HETATM    1  C5  UNL     1     -40.993   4.257  -1.544  1.00 20.00     0.001 C 
HETATM    2  C6  UNL     1     -41.890   3.839  -2.452  1.00 20.00    -0.048 C 
HETATM    3  C7  UNL     1     -42.808   4.965  -2.840  1.00 20.00     0.041 C 
HETATM    4  C8  UNL     1     -42.062   6.200  -2.334  1.00 20.00     0.028 C 
HETATM    5  C9  UNL     1     -41.163   5.703  -1.204  1.00 20.00     0.106 C 
HETATM    6 CL11 UNL     1     -41.951   5.856   0.381  1.00 20.00    -0.121 Cl
ENDROOT
BRANCH   2   7
HETATM    7  C4  UNL     1     -42.031   2.476  -2.994  1.00 20.00    -0.006 A 
HETATM    8  C1  UNL     1     -41.185   1.802  -3.905  1.00 20.00     0.038 A 
HETATM    9  C2  UNL     1     -41.744   0.559  -4.098  1.00 20.00     0.142 A 
HETATM   10  O10 UNL     1     -42.879   0.427  -3.363  1.00 20.00    -0.334 OA
HETATM   11  C3  UNL     1     -43.047   1.598  -2.694  1.00 20.00     0.153 A 
ENDBRANCH   2   7
TORSDOF 1
ENDMDL
MODEL 6
REMARK VINA RESULT:      -4.4      3.087      4.626
REMARK  1 active torsions:
REMARK  status: ('A' for Active; 'I' for Inactive)
REMARK    1  A    between atoms: C4_4  and  C6_6 
ROOT
HETATM    1  C5  UNL     1     -35.481  15.579  -3.058  1.00 20.00     0.001 C 
HETATM    2  C6  UNL     1     -34.403  16.307  -2.724  1.00 20.00    -0.048 C 
HETATM    3  C7  UNL     1     -33.344  16.192  -3.787  1.00 20.00     0.041 C 
HETATM    4  C8  UNL     1     -34.119  15.623  -4.977  1.00 20.00     0.028 C 
HETATM    5  C9  UNL     1     -35.317  14.892  -4.375  1.00 20.00     0.106 C 
HETATM    6 CL11 UNL     1     -34.974  13.168  -4.112  1.00 20.00    -0.121 Cl
ENDROOT
BRANCH   2   7
HETATM    7  C4  UNL     1     -34.208  17.088  -1.491  1.00 20.00    -0.006 A 
HETATM    8  C1  UNL     1     -34.832  16.913  -0.233  1.00 20.00     0.038 A 
HETATM    9  C2  UNL     1     -34.317  17.889   0.589  1.00 20.00     0.142 A 
HETATM   10  O10 UNL     1     -33.417  18.653  -0.084  1.00 20.00    -0.334 OA
HETATM   11  C3  UNL     1     -33.356  18.159  -1.349  1.00 20.00     0.153 A 
ENDBRANCH   2   7
TORSDOF 1
ENDMDL
MODEL 7
REMARK VINA RESULT:      -4.3     13.029     15.282
REMARK  1 active torsions:
REMARK  status: ('A' for Active; 'I' for Inactive)
REMARK    1  A    between atoms: C4_4  and  C6_6 
ROOT
HETATM    1  C5  UNL     1     -41.529   2.340  -3.425  1.00 20.00     0.001 C 
HETATM    2  C6  UNL     1     -42.142   3.104  -2.504  1.00 20.00    -0.048 C 
HETATM    3  C7  UNL     1     -43.415   2.449  -2.043  1.00 20.00     0.041 C 
HETATM    4  C8  UNL     1     -43.248   1.007  -2.525  1.00 20.00     0.028 C 
HETATM    5  C9  UNL     1     -42.278   1.077  -3.703  1.00 20.00     0.106 C 
HETATM    6 CL11 UNL     1     -43.133   1.218  -5.254  1.00 20.00    -0.121 Cl
ENDROOT
BRANCH   2   7
HETATM    7  C4  UNL     1     -41.702   4.420  -2.012  1.00 20.00    -0.006 A 
HETATM    8  C1  UNL     1     -42.225   5.696  -2.329  1.00 20.00     0.038 A 
HETATM    9  C2  UNL     1     -41.477   6.605  -1.616  1.00 20.00     0.142 A 
HETATM   10  O10 UNL     1     -40.528   5.969  -0.881  1.00 20.00    -0.334 OA
HETATM   11  C3  UNL     1     -40.672   4.639  -1.127  1.00 20.00     0.153 A 
ENDBRANCH   2   7
TORSDOF 1
ENDMDL
MODEL 8
REMARK VINA RESULT:      -4.3     13.092     14.584
REMARK  1 active torsions:
REMARK  status: ('A' for Active; 'I' for Inactive)
REMARK    1  A    between atoms: C4_4  and  C6_6 
ROOT
HETATM    1  C5  UNL     1     -42.949   4.875  -2.418  1.00 20.00     0.001 C 
HETATM    2  C6  UNL     1     -42.040   3.893  -2.295  1.00 20.00    -0.048 C 
HETATM    3  C7  UNL     1     -40.866   4.364  -1.481  1.00 20.00     0.041 C 
HETATM    4  C8  UNL     1     -41.406   5.626  -0.806  1.00 20.00     0.028 C 
HETATM    5  C9  UNL     1     -42.535   6.123  -1.707  1.00 20.00     0.106 C 
HETATM    6 CL11 UNL     1     -41.958   7.320  -2.887  1.00 20.00    -0.121 Cl
ENDROOT
BRANCH   2   7
HETATM    7  C4  UNL     1     -42.107   2.546  -2.886  1.00 20.00    -0.006 A 
HETATM    8  C1  UNL     1     -41.216   1.945  -3.806  1.00 20.00     0.038 A 
HETATM    9  C2  UNL     1     -41.710   0.684  -4.050  1.00 20.00     0.142 A 
HETATM   10  O10 UNL     1     -42.849   0.472  -3.340  1.00 20.00    -0.334 OA
HETATM   11  C3  UNL     1     -43.084   1.610  -2.634  1.00 20.00     0.153 A 
ENDBRANCH   2   7
TORSDOF 1
ENDMDL
MODEL 9
REMARK VINA RESULT:      -4.2      2.740      3.987
REMARK  1 active torsions:
REMARK  status: ('A' for Active; 'I' for Inactive)
REMARK    1  A    between atoms: C4_4  and  C6_6 
ROOT
HETATM    1  C5  UNL     1     -33.314  18.900   0.949  1.00 20.00     0.001 C 
HETATM    2  C6  UNL     1     -34.163  18.014   0.402  1.00 20.00    -0.048 C 
HETATM    3  C7  UNL     1     -35.169  17.555   1.422  1.00 20.00     0.041 C 
HETATM    4  C8  UNL     1     -35.036  18.604   2.526  1.00 20.00     0.028 C 
HETATM    5  C9  UNL     1     -33.625  19.172   2.386  1.00 20.00     0.106 C 
HETATM    6 CL11 UNL     1     -32.463  18.316   3.422  1.00 20.00    -0.121 Cl
ENDROOT
BRANCH   2   7
HETATM    7  C4  UNL     1     -34.137  17.497  -0.976  1.00 20.00    -0.006 A 
HETATM    8  C1  UNL     1     -34.613  16.254  -1.457  1.00 20.00     0.038 A 
HETATM    9  C2  UNL     1     -34.360  16.244  -2.809  1.00 20.00     0.142 A 
HETATM   10  O10 UNL     1     -33.758  17.402  -3.191  1.00 20.00    -0.334 OA
HETATM   11  C3  UNL     1     -33.626  18.158  -2.069  1.00 20.00     0.153 A 
ENDBRANCH   2   7
TORSDOF 1
ENDMDL
