MODEL 1
REMARK VINA RESULT:      -5.1      0.000      0.000
REMARK  1 active torsions:
REMARK  status: ('A' for Active; 'I' for Inactive)
REMARK    1  A    between atoms: C2_2  and  C8_8 
ROOT
HETATM    1  C1  UNL     1     -33.606   6.426   5.014  1.00 20.00    -0.004 C 
HETATM    2  C2  UNL     1     -33.165   6.393   3.750  1.00 20.00    -0.079 C 
HETATM    3  C3  UNL     1     -34.037   5.536   2.886  1.00 20.00     0.036 C 
HETATM    4  C4  UNL     1     -35.286   5.358   3.751  1.00 20.00     0.028 C 
HETATM    5  C5  UNL     1     -34.838   5.602   5.195  1.00 20.00     0.105 C 
HETATM    6 CL9  UNL     1     -34.427   4.083   6.020  1.00 20.00    -0.121 Cl
ENDROOT
BRANCH   2   7
HETATM    7  C8  UNL     1     -31.955   7.060   3.206  1.00 20.00     0.006 C 
HETATM    8  C6  UNL     1     -32.328   8.020   2.074  1.00 20.00     0.014 C 
HETATM    9  C7  UNL     1     -31.190   7.804   4.305  1.00 20.00     0.014 C 
ENDBRANCH   2   7
TORSDOF 1
ENDMDL
MODEL 2
REMARK VINA RESULT:      -4.9      2.299      3.776
REMARK  1 active torsions:
REMARK  status: ('A' for Active; 'I' for Inactive)
REMARK    1  A    between atoms: C2_2  and  C8_8 
ROOT
HETATM    1  C1  UNL     1     -32.683   6.867   4.289  1.00 20.00    -0.004 C 
HETATM    2  C2  UNL     1     -33.745   6.051   4.268  1.00 20.00    -0.079 C 
HETATM    3  C3  UNL     1     -33.939   5.436   2.917  1.00 20.00     0.036 C 
HETATM    4  C4  UNL     1     -32.603   5.724   2.229  1.00 20.00     0.028 C 
HETATM    5  C5  UNL     1     -32.000   6.925   2.963  1.00 20.00     0.105 C 
HETATM    6 CL9  UNL     1     -32.395   8.456   2.153  1.00 20.00    -0.121 Cl
ENDROOT
BRANCH   2   7
HETATM    7  C8  UNL     1     -34.682   5.771   5.386  1.00 20.00     0.006 C 
HETATM    8  C6  UNL     1     -34.853   4.263   5.585  1.00 20.00     0.014 C 
HETATM    9  C7  UNL     1     -34.208   6.429   6.685  1.00 20.00     0.014 C 
ENDBRANCH   2   7
TORSDOF 1
ENDMDL
MODEL 3
REMARK VINA RESULT:      -4.4      1.278      1.837
REMARK  1 active torsions:
REMARK  status: ('A' for Active; 'I' for Inactive)
REMARK    1  A    between atoms: C2_2  and  C8_8 
ROOT
HETATM    1  C1  UNL     1     -33.833   5.595   3.037  1.00 20.00    -0.004 C 
HETATM    2  C2  UNL     1     -33.034   6.420   3.727  1.00 20.00    -0.079 C 
HETATM    3  C3  UNL     1     -33.502   6.585   5.139  1.00 20.00     0.036 C 
HETATM    4  C4  UNL     1     -34.500   5.436   5.293  1.00 20.00     0.028 C 
HETATM    5  C5  UNL     1     -34.956   5.080   3.875  1.00 20.00     0.105 C 
HETATM    6 CL9  UNL     1     -36.462   5.919   3.440  1.00 20.00    -0.121 Cl
ENDROOT
BRANCH   2   7
HETATM    7  C8  UNL     1     -31.841   7.144   3.218  1.00 20.00     0.006 C 
HETATM    8  C6  UNL     1     -32.228   8.099   2.087  1.00 20.00     0.014 C 
HETATM    9  C7  UNL     1     -31.134   7.907   4.341  1.00 20.00     0.014 C 
ENDBRANCH   2   7
TORSDOF 1
ENDMDL
MODEL 4
REMARK VINA RESULT:      -4.4     11.786     12.225
REMARK  1 active torsions:
REMARK  status: ('A' for Active; 'I' for Inactive)
REMARK    1  A    between atoms: C2_2  and  C8_8 
ROOT
HETATM    1  C1  UNL     1     -33.488  14.864  -3.859  1.00 20.00    -0.004 C 
HETATM    2  C2  UNL     1     -34.256  15.578  -3.026  1.00 20.00    -0.079 C 
HETATM    3  C3  UNL     1     -35.707  15.256  -3.204  1.00 20.00     0.036 C 
HETATM    4  C4  UNL     1     -35.660  13.961  -4.019  1.00 20.00     0.028 C 
HETATM    5  C5  UNL     1     -34.299  13.953  -4.721  1.00 20.00     0.105 C 
HETATM    6 CL9  UNL     1     -34.404  14.620  -6.365  1.00 20.00    -0.121 Cl
ENDROOT
BRANCH   2   7
HETATM    7  C8  UNL     1     -33.806  16.604  -2.051  1.00 20.00     0.006 C 
HETATM    8  C6  UNL     1     -33.798  17.994  -2.691  1.00 20.00     0.014 C 
HETATM    9  C7  UNL     1     -34.683  16.600  -0.797  1.00 20.00     0.014 C 
ENDBRANCH   2   7
TORSDOF 1
ENDMDL
MODEL 5
REMARK VINA RESULT:      -4.0     11.505     12.395
REMARK  1 active torsions:
REMARK  status: ('A' for Active; 'I' for Inactive)
REMARK    1  A    between atoms: C2_2  and  C8_8 
ROOT
HETATM    1  C1  UNL     1     -34.856  15.412  -2.529  1.00 20.00    -0.004 C 
HETATM    2  C2  UNL     1     -34.096  16.512  -2.450  1.00 20.00    -0.079 C 
HETATM    3  C3  UNL     1     -33.605  16.938  -3.798  1.00 20.00     0.036 C 
HETATM    4  C4  UNL     1     -34.498  16.133  -4.745  1.00 20.00     0.028 C 
HETATM    5  C5  UNL     1     -34.995  14.931  -3.935  1.00 20.00     0.105 C 
HETATM    6 CL9  UNL     1     -33.969  13.502  -4.184  1.00 20.00    -0.121 Cl
ENDROOT
BRANCH   2   7
HETATM    7  C8  UNL     1     -33.712  17.249  -1.219  1.00 20.00     0.006 C 
HETATM    8  C6  UNL     1     -33.451  18.725  -1.530  1.00 20.00     0.014 C 
HETATM    9  C7  UNL     1     -34.785  17.115  -0.135  1.00 20.00     0.014 C 
ENDBRANCH   2   7
TORSDOF 1
ENDMDL
MODEL 6
REMARK VINA RESULT:      -4.0      9.546     11.266
REMARK  1 active torsions:
REMARK  status: ('A' for Active; 'I' for Inactive)
REMARK    1  A    between atoms: C2_2  and  C8_8 
ROOT
HETATM    1  C1  UNL     1     -41.052   4.108  -1.599  1.00 20.00    -0.004 C 
HETATM    2  C2  UNL     1     -41.981   3.849  -2.528  1.00 20.00    -0.079 C 
HETATM    3  C3  UNL     1     -42.772   5.073  -2.870  1.00 20.00     0.036 C 
HETATM    4  C4  UNL     1     -41.922   6.194  -2.269  1.00 20.00     0.028 C 
HETATM    5  C5  UNL     1     -41.072   5.540  -1.176  1.00 20.00     0.105 C 
HETATM    6 CL9  UNL     1     -41.834   5.681   0.423  1.00 20.00    -0.121 Cl
ENDROOT
BRANCH   2   7
HETATM    7  C8  UNL     1     -42.277   2.537  -3.157  1.00 20.00     0.006 C 
HETATM    8  C6  UNL     1     -43.417   2.666  -4.171  1.00 20.00     0.014 C 
HETATM    9  C7  UNL     1     -41.032   1.949  -3.827  1.00 20.00     0.014 C 
ENDBRANCH   2   7
TORSDOF 1
ENDMDL
MODEL 7
REMARK VINA RESULT:      -4.0     10.953     11.967
REMARK  1 active torsions:
REMARK  status: ('A' for Active; 'I' for Inactive)
REMARK    1  A    between atoms: C2_2  and  C8_8 
ROOT
HETATM    1  C1  UNL     1     -33.988  15.996  -2.412  1.00 20.00    -0.004 C 
HETATM    2  C2  UNL     1     -34.862  15.221  -3.068  1.00 20.00    -0.079 C 
HETATM    3  C3  UNL     1     -36.241  15.803  -3.040  1.00 20.00     0.036 C 
HETATM    4  C4  UNL     1     -35.984  17.239  -2.579  1.00 20.00     0.028 C 
HETATM    5  C5  UNL     1     -34.641  17.213  -1.845  1.00 20.00     0.105 C 
HETATM    6 CL9  UNL     1     -34.854  17.017  -0.092  1.00 20.00    -0.121 Cl
ENDROOT
BRANCH   2   7
HETATM    7  C8  UNL     1     -34.584  13.922  -3.731  1.00 20.00     0.006 C 
HETATM    8  C6  UNL     1     -35.093  13.929  -5.175  1.00 20.00     0.014 C 
HETATM    9  C7  UNL     1     -33.090  13.588  -3.695  1.00 20.00     0.014 C 
ENDBRANCH   2   7
TORSDOF 1
ENDMDL
MODEL 8
REMARK VINA RESULT:      -4.0      9.323     10.728
REMARK  1 active torsions:
REMARK  status: ('A' for Active; 'I' for Inactive)
REMARK    1  A    between atoms: C2_2  and  C8_8 
ROOT
HETATM    1  C1  UNL     1     -41.639   4.124  -1.563  1.00 20.00    -0.004 C 
HETATM    2  C2  UNL     1     -41.835   5.399  -1.924  1.00 20.00    -0.079 C 
HETATM    3  C3  UNL     1     -42.780   5.503  -3.081  1.00 20.00     0.036 C 
HETATM    4  C4  UNL     1     -43.410   4.109  -3.120  1.00 20.00     0.028 C 
HETATM    5  C5  UNL     1     -42.418   3.178  -2.416  1.00 20.00     0.105 C 
HETATM    6 CL9  UNL     1     -41.331   2.380  -3.573  1.00 20.00    -0.121 Cl
ENDROOT
BRANCH   2   7
HETATM    7  C8  UNL     1     -41.205   6.605  -1.330  1.00 20.00     0.006 C 
HETATM    8  C6  UNL     1     -42.227   7.736  -1.188  1.00 20.00     0.014 C 
HETATM    9  C7  UNL     1     -40.570   6.288   0.027  1.00 20.00     0.014 C 
ENDBRANCH   2   7
TORSDOF 1
ENDMDL
MODEL 9
REMARK VINA RESULT:      -4.0     11.894     12.744
REMARK  1 active torsions:
REMARK  status: ('A' for Active; 'I' for Inactive)
REMARK    1  A    between atoms: C2_2  and  C8_8 
ROOT
HETATM    1  C1  UNL     1     -33.667  17.922  -2.141  1.00 20.00    -0.004 C 
HETATM    2  C2  UNL     1     -34.216  16.748  -1.805  1.00 20.00    -0.079 C 
HETATM    3  C3  UNL     1     -34.765  16.777  -0.412  1.00 20.00     0.036 C 
HETATM    4  C4  UNL     1     -34.790  18.274  -0.098  1.00 20.00     0.028 C 
HETATM    5  C5  UNL     1     -33.763  18.919  -1.033  1.00 20.00     0.105 C 
HETATM    6 CL9  UNL     1     -32.179  19.095  -0.248  1.00 20.00    -0.121 Cl
ENDROOT
BRANCH   2   7
HETATM    7  C8  UNL     1     -34.277  15.517  -2.634  1.00 20.00     0.006 C 
HETATM    8  C6  UNL     1     -35.664  15.355  -3.261  1.00 20.00     0.014 C 
HETATM    9  C7  UNL     1     -33.199  15.527  -3.721  1.00 20.00     0.014 C 
ENDBRANCH   2   7
TORSDOF 1
ENDMDL
