MODEL 1
REMARK VINA RESULT:      -4.3      0.000      0.000
REMARK  1 active torsions:
REMARK  status: ('A' for Active; 'I' for Inactive)
REMARK    1  A    between atoms: C2_2  and  C8_8 
ROOT
HETATM    1  C1  UNL     1     -34.007  14.341  -4.099  1.00 20.00     0.018 C 
HETATM    2  C2  UNL     1     -35.185  14.740  -3.204  1.00 20.00     0.034 C 
HETATM    3  C3  UNL     1     -34.524  14.587  -5.525  1.00 20.00     0.122 C 
HETATM    4  C4  UNL     1     -36.355  14.329  -4.102  1.00 20.00     0.123 C 
HETATM    5  C5  UNL     1     -32.652  14.938  -3.754  1.00 20.00     0.013 C 
HETATM    6  C6  UNL     1     -34.010  15.824  -6.246  1.00 20.00     0.040 C 
HETATM    7  C7  UNL     1     -37.705  14.949  -3.791  1.00 20.00     0.040 C 
HETATM    8  O9  UNL     1     -35.959  14.684  -5.436  1.00 20.00    -0.381 OA
ENDROOT
BRANCH   2   9
HETATM    9  C8  UNL     1     -35.199  16.213  -2.794  1.00 20.00     0.122 C 
HETATM   10 CL10 UNL     1     -34.690  16.378  -1.105  1.00 20.00    -0.130 Cl
ENDBRANCH   2   9
TORSDOF 1
ENDMDL
MODEL 2
REMARK VINA RESULT:      -4.1      2.775      3.877
REMARK  1 active torsions:
REMARK  status: ('A' for Active; 'I' for Inactive)
REMARK    1  A    between atoms: C2_2  and  C8_8 
ROOT
HETATM    1  C1  UNL     1     -33.399  15.042  -3.975  1.00 20.00     0.018 C 
HETATM    2  C2  UNL     1     -33.785  15.668  -5.319  1.00 20.00     0.034 C 
HETATM    3  C3  UNL     1     -33.645  16.167  -2.957  1.00 20.00     0.122 C 
HETATM    4  C4  UNL     1     -33.365  17.119  -5.070  1.00 20.00     0.123 C 
HETATM    5  C5  UNL     1     -34.008  13.687  -3.651  1.00 20.00     0.013 C 
HETATM    6  C6  UNL     1     -34.889  16.058  -2.089  1.00 20.00     0.040 C 
HETATM    7  C7  UNL     1     -33.971  18.172  -5.979  1.00 20.00     0.040 C 
HETATM    8  O9  UNL     1     -33.728  17.395  -3.708  1.00 20.00    -0.381 OA
ENDROOT
BRANCH   2   9
HETATM    9  C8  UNL     1     -35.256  15.499  -5.699  1.00 20.00     0.122 C 
HETATM   10 CL10 UNL     1     -35.412  14.329  -7.020  1.00 20.00    -0.130 Cl
ENDBRANCH   2   9
TORSDOF 1
ENDMDL
MODEL 3
REMARK VINA RESULT:      -4.0      2.138      3.053
REMARK  1 active torsions:
REMARK  status: ('A' for Active; 'I' for Inactive)
REMARK    1  A    between atoms: C2_2  and  C8_8 
ROOT
HETATM    1  C1  UNL     1     -34.816  15.327  -3.623  1.00 20.00     0.018 C 
HETATM    2  C2  UNL     1     -34.713  16.023  -4.984  1.00 20.00     0.034 C 
HETATM    3  C3  UNL     1     -34.354  13.889  -3.905  1.00 20.00     0.122 C 
HETATM    4  C4  UNL     1     -35.057  14.853  -5.910  1.00 20.00     0.123 C 
HETATM    5  C5  UNL     1     -34.166  16.032  -2.443  1.00 20.00     0.013 C 
HETATM    6  C6  UNL     1     -32.957  13.505  -3.439  1.00 20.00     0.040 C 
HETATM    7  C7  UNL     1     -34.644  14.988  -7.365  1.00 20.00     0.040 C 
HETATM    8  O9  UNL     1     -34.417  13.705  -5.333  1.00 20.00    -0.381 OA
ENDROOT
BRANCH   2   9
HETATM    9  C8  UNL     1     -33.355  16.665  -5.267  1.00 20.00     0.122 C 
HETATM   10 CL10 UNL     1     -33.510  18.429  -5.295  1.00 20.00    -0.130 Cl
ENDBRANCH   2   9
TORSDOF 1
ENDMDL
MODEL 4
REMARK VINA RESULT:      -4.0     12.214     13.028
REMARK  1 active torsions:
REMARK  status: ('A' for Active; 'I' for Inactive)
REMARK    1  A    between atoms: C2_2  and  C8_8 
ROOT
HETATM    1  C1  UNL     1     -34.562   6.380   5.523  1.00 20.00     0.018 C 
HETATM    2  C2  UNL     1     -34.062   6.544   4.084  1.00 20.00     0.034 C 
HETATM    3  C3  UNL     1     -34.957   4.898   5.611  1.00 20.00     0.122 C 
HETATM    4  C4  UNL     1     -34.969   5.540   3.368  1.00 20.00     0.123 C 
HETATM    5  C5  UNL     1     -33.660   6.911   6.625  1.00 20.00     0.013 C 
HETATM    6  C6  UNL     1     -34.012   3.971   6.361  1.00 20.00     0.040 C 
HETATM    7  C7  UNL     1     -34.514   5.061   2.001  1.00 20.00     0.040 C 
HETATM    8  O9  UNL     1     -35.077   4.418   4.258  1.00 20.00    -0.381 OA
ENDROOT
BRANCH   2   9
HETATM    9  C8  UNL     1     -32.567   6.280   3.898  1.00 20.00     0.122 C 
HETATM   10 CL10 UNL     1     -31.835   7.578   2.941  1.00 20.00    -0.130 Cl
ENDBRANCH   2   9
TORSDOF 1
ENDMDL
MODEL 5
REMARK VINA RESULT:      -4.0      2.402      3.793
REMARK  1 active torsions:
REMARK  status: ('A' for Active; 'I' for Inactive)
REMARK    1  A    between atoms: C2_2  and  C8_8 
ROOT
HETATM    1  C1  UNL     1     -33.840  16.900  -2.065  1.00 20.00     0.018 C 
HETATM    2  C2  UNL     1     -33.848  15.845  -3.177  1.00 20.00     0.034 C 
HETATM    3  C3  UNL     1     -34.221  18.202  -2.788  1.00 20.00     0.122 C 
HETATM    4  C4  UNL     1     -33.378  16.697  -4.359  1.00 20.00     0.123 C 
HETATM    5  C5  UNL     1     -34.620  16.570  -0.803  1.00 20.00     0.013 C 
HETATM    6  C6  UNL     1     -35.638  18.718  -2.587  1.00 20.00     0.040 C 
HETATM    7  C7  UNL     1     -33.665  16.156  -5.748  1.00 20.00     0.040 C 
HETATM    8  O9  UNL     1     -34.024  17.970  -4.196  1.00 20.00    -0.381 OA
ENDROOT
BRANCH   2   9
HETATM    9  C8  UNL     1     -35.199  15.163  -3.395  1.00 20.00     0.122 C 
HETATM   10 CL10 UNL     1     -34.957  13.472  -3.862  1.00 20.00    -0.130 Cl
ENDBRANCH   2   9
TORSDOF 1
ENDMDL
MODEL 6
REMARK VINA RESULT:      -4.0      1.426      2.192
REMARK  1 active torsions:
REMARK  status: ('A' for Active; 'I' for Inactive)
REMARK    1  A    between atoms: C2_2  and  C8_8 
ROOT
HETATM    1  C1  UNL     1     -33.362  16.623  -5.128  1.00 20.00     0.018 C 
HETATM    2  C2  UNL     1     -33.792  15.701  -3.982  1.00 20.00     0.034 C 
HETATM    3  C3  UNL     1     -34.135  16.088  -6.344  1.00 20.00     0.122 C 
HETATM    4  C4  UNL     1     -33.986  14.391  -4.749  1.00 20.00     0.123 C 
HETATM    5  C5  UNL     1     -33.447  18.119  -4.872  1.00 20.00     0.013 C 
HETATM    6  C6  UNL     1     -35.339  16.892  -6.809  1.00 20.00     0.040 C 
HETATM    7  C7  UNL     1     -34.832  13.324  -4.078  1.00 20.00     0.040 C 
HETATM    8  O9  UNL     1     -34.586  14.763  -6.000  1.00 20.00    -0.381 OA
ENDROOT
BRANCH   2   9
HETATM    9  C8  UNL     1     -35.033  16.170  -3.222  1.00 20.00     0.122 C 
HETATM   10 CL10 UNL     1     -34.691  16.242  -1.485  1.00 20.00    -0.130 Cl
ENDBRANCH   2   9
TORSDOF 1
ENDMDL
MODEL 7
REMARK VINA RESULT:      -3.9      2.081      2.791
REMARK  1 active torsions:
REMARK  status: ('A' for Active; 'I' for Inactive)
REMARK    1  A    between atoms: C2_2  and  C8_8 
ROOT
HETATM    1  C1  UNL     1     -34.244  15.480  -2.928  1.00 20.00     0.018 C 
HETATM    2  C2  UNL     1     -35.308  14.795  -3.791  1.00 20.00     0.034 C 
HETATM    3  C3  UNL     1     -33.396  16.267  -3.940  1.00 20.00     0.122 C 
HETATM    4  C4  UNL     1     -34.501  14.550  -5.068  1.00 20.00     0.123 C 
HETATM    5  C5  UNL     1     -34.738  16.247  -1.712  1.00 20.00     0.013 C 
HETATM    6  C6  UNL     1     -33.606  17.772  -3.999  1.00 20.00     0.040 C 
HETATM    7  C7  UNL     1     -35.292  14.289  -6.338  1.00 20.00     0.040 C 
HETATM    8  O9  UNL     1     -33.689  15.722  -5.241  1.00 20.00    -0.381 OA
ENDROOT
BRANCH   2   9
HETATM    9  C8  UNL     1     -36.579  15.618  -4.003  1.00 20.00     0.122 C 
HETATM   10 CL10 UNL     1     -38.007  14.581  -3.853  1.00 20.00    -0.130 Cl
ENDBRANCH   2   9
TORSDOF 1
ENDMDL
MODEL 8
REMARK VINA RESULT:      -3.8      2.147      2.922
REMARK  1 active torsions:
REMARK  status: ('A' for Active; 'I' for Inactive)
REMARK    1  A    between atoms: C2_2  and  C8_8 
ROOT
HETATM    1  C1  UNL     1     -33.760  15.639  -5.065  1.00 20.00     0.018 C 
HETATM    2  C2  UNL     1     -34.359  16.631  -4.062  1.00 20.00     0.034 C 
HETATM    3  C3  UNL     1     -33.863  14.282  -4.351  1.00 20.00     0.122 C 
HETATM    4  C4  UNL     1     -33.929  15.976  -2.747  1.00 20.00     0.123 C 
HETATM    5  C5  UNL     1     -34.290  15.701  -6.489  1.00 20.00     0.013 C 
HETATM    6  C6  UNL     1     -34.956  13.333  -4.819  1.00 20.00     0.040 C 
HETATM    7  C7  UNL     1     -34.685  16.390  -1.498  1.00 20.00     0.040 C 
HETATM    8  O9  UNL     1     -34.081  14.563  -2.954  1.00 20.00    -0.381 OA
ENDROOT
BRANCH   2   9
HETATM    9  C8  UNL     1     -35.868  16.835  -4.196  1.00 20.00     0.122 C 
HETATM   10 CL10 UNL     1     -36.255  18.563  -4.152  1.00 20.00    -0.130 Cl
ENDBRANCH   2   9
TORSDOF 1
ENDMDL
MODEL 9
REMARK VINA RESULT:      -3.8      2.320      3.348
REMARK  1 active torsions:
REMARK  status: ('A' for Active; 'I' for Inactive)
REMARK    1  A    between atoms: C2_2  and  C8_8 
ROOT
HETATM    1  C1  UNL     1     -34.085  14.852  -4.876  1.00 20.00     0.018 C 
HETATM    2  C2  UNL     1     -33.622  16.206  -4.328  1.00 20.00     0.034 C 
HETATM    3  C3  UNL     1     -35.093  14.353  -3.829  1.00 20.00     0.122 C 
HETATM    4  C4  UNL     1     -33.692  15.926  -2.825  1.00 20.00     0.123 C 
HETATM    5  C5  UNL     1     -34.538  14.820  -6.327  1.00 20.00     0.013 C 
HETATM    6  C6  UNL     1     -36.569  14.444  -4.188  1.00 20.00     0.040 C 
HETATM    7  C7  UNL     1     -33.739  17.132  -1.905  1.00 20.00     0.040 C 
HETATM    8  O9  UNL     1     -34.874  15.132  -2.636  1.00 20.00    -0.381 OA
ENDROOT
BRANCH   2   9
HETATM    9  C8  UNL     1     -34.468  17.397  -4.781  1.00 20.00     0.122 C 
HETATM   10 CL10 UNL     1     -33.568  18.368  -5.958  1.00 20.00    -0.130 Cl
ENDBRANCH   2   9
TORSDOF 1
ENDMDL
