MODEL 1
REMARK VINA RESULT:      -4.0      0.000      0.000
REMARK  0 active torsions:
REMARK  status: ('A' for Active; 'I' for Inactive)
ROOT
HETATM    1  C1  UNL     1     -32.617   6.742   3.593  1.00 20.00     0.064 C 
HETATM    2  C2  UNL     1     -34.729   5.506   3.172  1.00 20.00     0.021 C 
HETATM    3  C3  UNL     1     -35.309   4.578   4.238  1.00 20.00     0.021 C 
HETATM    4  C4  UNL     1     -34.250   6.347   5.419  1.00 20.00     0.039 C 
HETATM    5  C5  UNL     1     -34.047   6.659   3.931  1.00 20.00     0.094 C 
HETATM    6  C6  UNL     1     -34.436   4.836   5.455  1.00 20.00     0.083 C 
HETATM    7  N7  UNL     1     -31.489   6.806   3.328  1.00 20.00    -0.197 NA
HETATM    8 CL8  UNL     1     -35.193   4.287   6.956  1.00 20.00    -0.125 Cl
ENDROOT
TORSDOF 0
ENDMDL
MODEL 2
REMARK VINA RESULT:      -3.9     12.258     12.793
REMARK  0 active torsions:
REMARK  status: ('A' for Active; 'I' for Inactive)
ROOT
HETATM    1  C1  UNL     1     -34.514  13.793  -4.662  1.00 20.00     0.064 C 
HETATM    2  C2  UNL     1     -35.483  16.078  -4.612  1.00 20.00     0.021 C 
HETATM    3  C3  UNL     1     -35.671  16.811  -3.284  1.00 20.00     0.021 C 
HETATM    4  C4  UNL     1     -33.719  15.480  -3.025  1.00 20.00     0.039 C 
HETATM    5  C5  UNL     1     -34.216  15.219  -4.453  1.00 20.00     0.094 C 
HETATM    6  C6  UNL     1     -34.972  15.914  -2.276  1.00 20.00     0.083 C 
HETATM    7  N7  UNL     1     -34.749  12.668  -4.825  1.00 20.00    -0.197 NA
HETATM    8 CL8  UNL     1     -34.595  16.762  -0.769  1.00 20.00    -0.125 Cl
ENDROOT
TORSDOF 0
ENDMDL
MODEL 3
REMARK VINA RESULT:      -3.9      1.777      2.574
REMARK  0 active torsions:
REMARK  status: ('A' for Active; 'I' for Inactive)
ROOT
HETATM    1  C1  UNL     1     -32.155   7.874   2.300  1.00 20.00     0.064 C 
HETATM    2  C2  UNL     1     -32.359   7.251   4.695  1.00 20.00     0.021 C 
HETATM    3  C3  UNL     1     -33.608   6.534   5.205  1.00 20.00     0.021 C 
HETATM    4  C4  UNL     1     -33.280   5.770   2.978  1.00 20.00     0.039 C 
HETATM    5  C5  UNL     1     -32.136   6.754   3.255  1.00 20.00     0.094 C 
HETATM    6  C6  UNL     1     -34.380   6.208   3.936  1.00 20.00     0.083 C 
HETATM    7  N7  UNL     1     -32.171   8.757   1.547  1.00 20.00    -0.197 NA
HETATM    8 CL8  UNL     1     -35.592   4.946   4.192  1.00 20.00    -0.125 Cl
ENDROOT
TORSDOF 0
ENDMDL
MODEL 4
REMARK VINA RESULT:      -3.8     12.707     13.572
REMARK  0 active torsions:
REMARK  status: ('A' for Active; 'I' for Inactive)
ROOT
HETATM    1  C1  UNL     1     -35.124  13.769  -4.178  1.00 20.00     0.064 C 
HETATM    2  C2  UNL     1     -34.573  15.497  -2.482  1.00 20.00     0.021 C 
HETATM    3  C3  UNL     1     -33.828  16.768  -2.885  1.00 20.00     0.021 C 
HETATM    4  C4  UNL     1     -35.176  16.182  -4.753  1.00 20.00     0.039 C 
HETATM    5  C5  UNL     1     -35.455  15.116  -3.685  1.00 20.00     0.094 C 
HETATM    6  C6  UNL     1     -33.785  16.696  -4.403  1.00 20.00     0.083 C 
HETATM    7  N7  UNL     1     -34.862  12.708  -4.568  1.00 20.00    -0.197 NA
HETATM    8 CL8  UNL     1     -33.441  18.265  -5.143  1.00 20.00    -0.125 Cl
ENDROOT
TORSDOF 0
ENDMDL
MODEL 5
REMARK VINA RESULT:      -3.7      9.440     10.220
REMARK  0 active torsions:
REMARK  status: ('A' for Active; 'I' for Inactive)
ROOT
HETATM    1  C1  UNL     1     -42.523   7.772  -0.849  1.00 20.00     0.064 C 
HETATM    2  C2  UNL     1     -40.712   6.160  -0.314  1.00 20.00     0.021 C 
HETATM    3  C3  UNL     1     -40.799   4.711  -0.789  1.00 20.00     0.021 C 
HETATM    4  C4  UNL     1     -41.859   6.014  -2.470  1.00 20.00     0.039 C 
HETATM    5  C5  UNL     1     -41.390   7.011  -1.402  1.00 20.00     0.094 C 
HETATM    6  C6  UNL     1     -42.011   4.705  -1.707  1.00 20.00     0.083 C 
HETATM    7  N7  UNL     1     -43.417   8.371  -0.414  1.00 20.00    -0.197 NA
HETATM    8 CL8  UNL     1     -42.035   3.299  -2.781  1.00 20.00    -0.125 Cl
ENDROOT
TORSDOF 0
ENDMDL
MODEL 6
REMARK VINA RESULT:      -3.7     12.264     13.079
REMARK  0 active torsions:
REMARK  status: ('A' for Active; 'I' for Inactive)
ROOT
HETATM    1  C1  UNL     1     -33.952  15.898  -2.683  1.00 20.00     0.064 C 
HETATM    2  C2  UNL     1     -33.699  13.632  -3.668  1.00 20.00     0.021 C 
HETATM    3  C3  UNL     1     -34.478  13.242  -4.923  1.00 20.00     0.021 C 
HETATM    4  C4  UNL     1     -34.010  15.562  -5.141  1.00 20.00     0.039 C 
HETATM    5  C5  UNL     1     -33.385  15.133  -3.807  1.00 20.00     0.094 C 
HETATM    6  C6  UNL     1     -35.121  14.545  -5.368  1.00 20.00     0.083 C 
HETATM    7  N7  UNL     1     -34.400  16.500  -1.798  1.00 20.00    -0.197 NA
HETATM    8 CL8  UNL     1     -35.650  14.492  -7.055  1.00 20.00    -0.125 Cl
ENDROOT
TORSDOF 0
ENDMDL
MODEL 7
REMARK VINA RESULT:      -3.7     12.079     12.873
REMARK  0 active torsions:
REMARK  status: ('A' for Active; 'I' for Inactive)
ROOT
HETATM    1  C1  UNL     1     -37.609  14.922  -3.960  1.00 20.00     0.064 C 
HETATM    2  C2  UNL     1     -35.831  16.246  -2.841  1.00 20.00     0.021 C 
HETATM    3  C3  UNL     1     -34.451  15.639  -2.596  1.00 20.00     0.021 C 
HETATM    4  C4  UNL     1     -35.231  14.686  -4.629  1.00 20.00     0.039 C 
HETATM    5  C5  UNL     1     -36.339  15.639  -4.162  1.00 20.00     0.094 C 
HETATM    6  C6  UNL     1     -34.501  14.317  -3.345  1.00 20.00     0.083 C 
HETATM    7  N7  UNL     1     -38.609  14.355  -3.801  1.00 20.00    -0.197 NA
HETATM    8 CL8  UNL     1     -32.889  13.657  -3.653  1.00 20.00    -0.125 Cl
ENDROOT
TORSDOF 0
ENDMDL
MODEL 8
REMARK VINA RESULT:      -3.6     12.523     13.262
REMARK  0 active torsions:
REMARK  status: ('A' for Active; 'I' for Inactive)
ROOT
HETATM    1  C1  UNL     1     -35.072  14.619  -6.779  1.00 20.00     0.064 C 
HETATM    2  C2  UNL     1     -34.615  13.209  -4.787  1.00 20.00     0.021 C 
HETATM    3  C3  UNL     1     -33.970  13.814  -3.541  1.00 20.00     0.021 C 
HETATM    4  C4  UNL     1     -35.307  15.537  -4.485  1.00 20.00     0.039 C 
HETATM    5  C5  UNL     1     -35.489  14.318  -5.399  1.00 20.00     0.094 C 
HETATM    6  C6  UNL     1     -33.950  15.305  -3.833  1.00 20.00     0.083 C 
HETATM    7  N7  UNL     1     -34.742  14.857  -7.866  1.00 20.00    -0.197 NA
HETATM    8 CL8  UNL     1     -33.732  16.275  -2.370  1.00 20.00    -0.125 Cl
ENDROOT
TORSDOF 0
ENDMDL
MODEL 9
REMARK VINA RESULT:      -3.6      3.009      3.832
REMARK  0 active torsions:
REMARK  status: ('A' for Active; 'I' for Inactive)
ROOT
HETATM    1  C1  UNL     1     -34.966   4.351   5.125  1.00 20.00     0.064 C 
HETATM    2  C2  UNL     1     -33.958   6.432   6.029  1.00 20.00     0.021 C 
HETATM    3  C3  UNL     1     -32.888   7.181   5.237  1.00 20.00     0.021 C 
HETATM    4  C4  UNL     1     -34.344   6.224   3.621  1.00 20.00     0.039 C 
HETATM    5  C5  UNL     1     -34.910   5.815   4.988  1.00 20.00     0.094 C 
HETATM    6  C6  UNL     1     -32.866   6.467   3.895  1.00 20.00     0.083 C 
HETATM    7  N7  UNL     1     -35.010   3.196   5.232  1.00 20.00    -0.197 NA
HETATM    8 CL8  UNL     1     -32.098   7.436   2.630  1.00 20.00    -0.125 Cl
ENDROOT
TORSDOF 0
ENDMDL
