MODEL 1
REMARK VINA RESULT:      -4.2      0.000      0.000
REMARK  2 active torsions:
REMARK  status: ('A' for Active; 'I' for Inactive)
REMARK    1  A    between atoms: C4_4  and  C5_5 
REMARK    2  A    between atoms: C4_4  and  C6_6 
ROOT
HETATM    1  C1  UNL     1     -32.196   7.880   2.366  1.00 20.00     0.063 C 
HETATM    2  C2  UNL     1     -32.156   5.460   2.771  1.00 20.00     0.025 C 
HETATM    3  C5  UNL     1     -32.324   6.842   3.406  1.00 20.00     0.090 C 
HETATM    4  N7  UNL     1     -32.092   8.697   1.549  1.00 20.00    -0.197 NA
ENDROOT
BRANCH   3   5
HETATM    5  C4  UNL     1     -33.688   6.933   4.121  1.00 20.00     0.038 C 
BRANCH   5   6
HETATM    6  C6  UNL     1     -34.076   5.696   4.949  1.00 20.00     0.079 C 
HETATM    7  C3  UNL     1     -34.314   6.068   6.408  1.00 20.00     0.026 C 
HETATM    8 CL8  UNL     1     -35.559   4.929   4.302  1.00 20.00    -0.125 Cl
ENDBRANCH   5   6
ENDBRANCH   3   5
TORSDOF 2
ENDMDL
MODEL 2
REMARK VINA RESULT:      -3.9     11.267     12.654
REMARK  2 active torsions:
REMARK  status: ('A' for Active; 'I' for Inactive)
REMARK    1  A    between atoms: C4_4  and  C5_5 
REMARK    2  A    between atoms: C4_4  and  C6_6 
ROOT
HETATM    1  C1  UNL     1     -34.426  13.715  -3.861  1.00 20.00     0.063 C 
HETATM    2  C2  UNL     1     -34.762  15.700  -2.457  1.00 20.00     0.025 C 
HETATM    3  C5  UNL     1     -33.748  14.875  -3.252  1.00 20.00     0.090 C 
HETATM    4  N7  UNL     1     -34.959  12.801  -4.337  1.00 20.00    -0.197 NA
ENDROOT
BRANCH   3   5
HETATM    5  C4  UNL     1     -33.075  15.755  -4.325  1.00 20.00     0.038 C 
BRANCH   5   6
HETATM    6  C6  UNL     1     -34.039  16.433  -5.314  1.00 20.00     0.079 C 
HETATM    7  C3  UNL     1     -33.626  17.877  -5.576  1.00 20.00     0.026 C 
HETATM    8 CL8  UNL     1     -34.082  15.555  -6.874  1.00 20.00    -0.125 Cl
ENDBRANCH   5   6
ENDBRANCH   3   5
TORSDOF 2
ENDMDL
MODEL 3
REMARK VINA RESULT:      -3.9      1.830      1.957
REMARK  2 active torsions:
REMARK  status: ('A' for Active; 'I' for Inactive)
REMARK    1  A    between atoms: C4_4  and  C5_5 
REMARK    2  A    between atoms: C4_4  and  C6_6 
ROOT
HETATM    1  C1  UNL     1     -32.542   6.784   3.228  1.00 20.00     0.063 C 
HETATM    2  C2  UNL     1     -33.890   5.045   2.142  1.00 20.00     0.025 C 
HETATM    3  C5  UNL     1     -33.480   5.674   3.476  1.00 20.00     0.090 C 
HETATM    4  N7  UNL     1     -31.801   7.657   3.034  1.00 20.00    -0.197 NA
ENDROOT
BRANCH   3   5
HETATM    5  C4  UNL     1     -34.729   6.157   4.239  1.00 20.00     0.038 C 
BRANCH   5   6
HETATM    6  C6  UNL     1     -34.764   5.793   5.734  1.00 20.00     0.079 C 
HETATM    7  C3  UNL     1     -34.401   4.328   5.947  1.00 20.00     0.026 C 
HETATM    8 CL8  UNL     1     -33.626   6.810   6.669  1.00 20.00    -0.125 Cl
ENDBRANCH   5   6
ENDBRANCH   3   5
TORSDOF 2
ENDMDL
MODEL 4
REMARK VINA RESULT:      -3.8     11.042     11.573
REMARK  2 active torsions:
REMARK  status: ('A' for Active; 'I' for Inactive)
REMARK    1  A    between atoms: C4_4  and  C5_5 
REMARK    2  A    between atoms: C4_4  and  C6_6 
ROOT
HETATM    1  C1  UNL     1     -34.606  13.742  -4.149  1.00 20.00     0.063 C 
HETATM    2  C2  UNL     1     -32.544  14.906  -3.503  1.00 20.00     0.025 C 
HETATM    3  C5  UNL     1     -34.043  15.053  -3.774  1.00 20.00     0.090 C 
HETATM    4  N7  UNL     1     -35.048  12.711  -4.446  1.00 20.00    -0.197 NA
ENDROOT
BRANCH   3   5
HETATM    5  C4  UNL     1     -34.751  15.630  -2.532  1.00 20.00     0.038 C 
BRANCH   5   6
HETATM    6  C6  UNL     1     -33.968  16.721  -1.781  1.00 20.00     0.079 C 
HETATM    7  C3  UNL     1     -34.004  18.041  -2.543  1.00 20.00     0.026 C 
HETATM    8 CL8  UNL     1     -34.641  16.984  -0.144  1.00 20.00    -0.125 Cl
ENDBRANCH   5   6
ENDBRANCH   3   5
TORSDOF 2
ENDMDL
MODEL 5
REMARK VINA RESULT:      -3.7      3.086      4.345
REMARK  2 active torsions:
REMARK  status: ('A' for Active; 'I' for Inactive)
REMARK    1  A    between atoms: C4_4  and  C5_5 
REMARK    2  A    between atoms: C4_4  and  C6_6 
ROOT
HETATM    1  C1  UNL     1     -34.638   4.689   5.251  1.00 20.00     0.063 C 
HETATM    2  C2  UNL     1     -34.142   6.683   6.592  1.00 20.00     0.025 C 
HETATM    3  C5  UNL     1     -33.726   5.840   5.385  1.00 20.00     0.090 C 
HETATM    4  N7  UNL     1     -35.354   3.782   5.147  1.00 20.00    -0.197 NA
ENDROOT
BRANCH   3   5
HETATM    5  C4  UNL     1     -33.729   6.706   4.109  1.00 20.00     0.038 C 
BRANCH   5   6
HETATM    6  C6  UNL     1     -32.397   6.740   3.339  1.00 20.00     0.079 C 
HETATM    7  C3  UNL     1     -32.227   5.487   2.486  1.00 20.00     0.026 C 
HETATM    8 CL8  UNL     1     -32.306   8.177   2.275  1.00 20.00    -0.125 Cl
ENDBRANCH   5   6
ENDBRANCH   3   5
TORSDOF 2
ENDMDL
MODEL 6
REMARK VINA RESULT:      -3.7      2.948      4.045
REMARK  2 active torsions:
REMARK  status: ('A' for Active; 'I' for Inactive)
REMARK    1  A    between atoms: C4_4  and  C5_5 
REMARK    2  A    between atoms: C4_4  and  C6_6 
ROOT
HETATM    1  C1  UNL     1     -33.989   6.419   5.396  1.00 20.00     0.063 C 
HETATM    2  C2  UNL     1     -35.099   5.465   3.426  1.00 20.00     0.025 C 
HETATM    3  C5  UNL     1     -34.009   6.418   3.921  1.00 20.00     0.090 C 
HETATM    4  N7  UNL     1     -33.975   6.423   6.556  1.00 20.00    -0.197 NA
ENDROOT
BRANCH   3   5
HETATM    5  C4  UNL     1     -32.640   6.001   3.345  1.00 20.00     0.038 C 
BRANCH   5   6
HETATM    6  C6  UNL     1     -31.709   7.165   2.964  1.00 20.00     0.079 C 
HETATM    7  C3  UNL     1     -32.443   8.195   2.113  1.00 20.00     0.026 C 
HETATM    8 CL8  UNL     1     -31.066   7.977   4.424  1.00 20.00    -0.125 Cl
ENDBRANCH   5   6
ENDBRANCH   3   5
TORSDOF 2
ENDMDL
MODEL 7
REMARK VINA RESULT:      -3.7     11.558     11.840
REMARK  2 active torsions:
REMARK  status: ('A' for Active; 'I' for Inactive)
REMARK    1  A    between atoms: C4_4  and  C5_5 
REMARK    2  A    between atoms: C4_4  and  C6_6 
ROOT
HETATM    1  C1  UNL     1     -36.721  14.449  -3.972  1.00 20.00     0.063 C 
HETATM    2  C2  UNL     1     -34.680  13.265  -4.647  1.00 20.00     0.025 C 
HETATM    3  C5  UNL     1     -35.276  14.609  -4.224  1.00 20.00     0.090 C 
HETATM    4  N7  UNL     1     -37.857  14.324  -3.776  1.00 20.00    -0.197 NA
ENDROOT
BRANCH   3   5
HETATM    5  C4  UNL     1     -34.547  15.140  -2.973  1.00 20.00     0.038 C 
BRANCH   5   6
HETATM    6  C6  UNL     1     -35.218  16.343  -2.287  1.00 20.00     0.079 C 
HETATM    7  C3  UNL     1     -34.577  16.625  -0.932  1.00 20.00     0.026 C 
HETATM    8 CL8  UNL     1     -35.092  17.813  -3.299  1.00 20.00    -0.125 Cl
ENDBRANCH   5   6
ENDBRANCH   3   5
TORSDOF 2
ENDMDL
MODEL 8
REMARK VINA RESULT:      -3.7      2.717      3.908
REMARK  2 active torsions:
REMARK  status: ('A' for Active; 'I' for Inactive)
REMARK    1  A    between atoms: C4_4  and  C5_5 
REMARK    2  A    between atoms: C4_4  and  C6_6 
ROOT
HETATM    1  C1  UNL     1     -34.081   6.434   6.116  1.00 20.00     0.063 C 
HETATM    2  C2  UNL     1     -34.760   4.140   5.570  1.00 20.00     0.025 C 
HETATM    3  C5  UNL     1     -34.856   5.613   5.168  1.00 20.00     0.090 C 
HETATM    4  N7  UNL     1     -33.473   7.080   6.864  1.00 20.00    -0.197 NA
ENDROOT
BRANCH   3   5
HETATM    5  C4  UNL     1     -34.351   5.802   3.723  1.00 20.00     0.038 C 
BRANCH   5   6
HETATM    6  C6  UNL     1     -32.888   6.264   3.597  1.00 20.00     0.079 C 
HETATM    7  C3  UNL     1     -32.041   5.209   2.894  1.00 20.00     0.026 C 
HETATM    8 CL8  UNL     1     -32.776   7.797   2.681  1.00 20.00    -0.125 Cl
ENDBRANCH   5   6
ENDBRANCH   3   5
TORSDOF 2
ENDMDL
MODEL 9
REMARK VINA RESULT:      -3.7     10.927     11.639
REMARK  2 active torsions:
REMARK  status: ('A' for Active; 'I' for Inactive)
REMARK    1  A    between atoms: C4_4  and  C5_5 
REMARK    2  A    between atoms: C4_4  and  C6_6 
ROOT
HETATM    1  C1  UNL     1     -34.507  16.519  -1.211  1.00 20.00     0.063 C 
HETATM    2  C2  UNL     1     -33.783  17.176  -3.462  1.00 20.00     0.025 C 
HETATM    3  C5  UNL     1     -34.112  16.003  -2.535  1.00 20.00     0.090 C 
HETATM    4  N7  UNL     1     -34.815  16.924  -0.168  1.00 20.00    -0.197 NA
ENDROOT
BRANCH   3   5
HETATM    5  C4  UNL     1     -35.227  15.137  -3.152  1.00 20.00     0.038 C 
BRANCH   5   6
HETATM    6  C6  UNL     1     -34.747  13.853  -3.852  1.00 20.00     0.079 C 
HETATM    7  C3  UNL     1     -35.034  13.907  -5.349  1.00 20.00     0.026 C 
HETATM    8 CL8  UNL     1     -32.990  13.609  -3.612  1.00 20.00    -0.125 Cl
ENDBRANCH   5   6
ENDBRANCH   3   5
TORSDOF 2
ENDMDL
