MODEL 1
REMARK VINA RESULT:      -5.0      0.000      0.000
REMARK  1 active torsions:
REMARK  status: ('A' for Active; 'I' for Inactive)
REMARK    1  A    between atoms: C6_6  and  O11_11 
ROOT
HETATM    1  C1  UNL     1     -34.645  16.365  -6.924  1.00 20.00     0.095 C 
HETATM    2  C2  UNL     1     -34.445  14.303  -5.736  1.00 20.00     0.022 C 
HETATM    3  C3  UNL     1     -34.489  15.645  -5.703  1.00 20.00     0.021 C 
HETATM    4  C4  UNL     1     -34.390  16.415  -4.409  1.00 20.00     0.058 C 
HETATM    5  C5  UNL     1     -33.960  14.223  -3.238  1.00 20.00     0.045 C 
HETATM    6  C6  UNL     1     -34.265  13.440  -4.521  1.00 20.00     0.143 C 
HETATM    7  C7  UNL     1     -34.705  15.577  -3.144  1.00 20.00    -0.041 C 
HETATM    8  C8  UNL     1     -34.211  16.337  -1.899  1.00 20.00     0.015 C 
HETATM    9  C9  UNL     1     -36.226  15.372  -3.000  1.00 20.00     0.015 C 
HETATM   10  N10 UNL     1     -34.772  16.950  -7.918  1.00 20.00    -0.192 NA
ENDROOT
BRANCH   6  11
HETATM   11  O11 UNL     1     -35.440  12.656  -4.323  1.00 20.00    -0.392 OA
HETATM   12  H24 UNL     1     -35.422  12.360  -3.400  1.00 20.00     0.210 HD
ENDBRANCH   6  11
TORSDOF 1
ENDMDL
MODEL 2
REMARK VINA RESULT:      -4.7      2.376      2.971
REMARK  1 active torsions:
REMARK  status: ('A' for Active; 'I' for Inactive)
REMARK    1  A    between atoms: C6_6  and  O11_11 
ROOT
HETATM    1  C1  UNL     1     -37.742  14.620  -3.942  1.00 20.00     0.095 C 
HETATM    2  C2  UNL     1     -35.529  13.811  -4.330  1.00 20.00     0.022 C 
HETATM    3  C3  UNL     1     -36.345  14.855  -4.108  1.00 20.00     0.021 C 
HETATM    4  C4  UNL     1     -35.826  16.270  -4.019  1.00 20.00     0.058 C 
HETATM    5  C5  UNL     1     -33.551  15.383  -4.652  1.00 20.00     0.045 C 
HETATM    6  C6  UNL     1     -34.047  13.936  -4.539  1.00 20.00     0.143 C 
HETATM    7  C7  UNL     1     -34.307  16.373  -3.732  1.00 20.00    -0.041 C 
HETATM    8  C8  UNL     1     -33.831  17.805  -4.037  1.00 20.00     0.015 C 
HETATM    9  C9  UNL     1     -34.020  16.086  -2.244  1.00 20.00     0.015 C 
HETATM   10  N10 UNL     1     -38.878  14.429  -3.806  1.00 20.00    -0.192 NA
ENDROOT
BRANCH   6  11
HETATM   11  O11 UNL     1     -33.365  13.289  -3.466  1.00 20.00    -0.392 OA
HETATM   12  H24 UNL     1     -34.029  13.120  -2.780  1.00 20.00     0.210 HD
ENDBRANCH   6  11
TORSDOF 1
ENDMDL
MODEL 3
REMARK VINA RESULT:      -4.6      3.038      4.129
REMARK  1 active torsions:
REMARK  status: ('A' for Active; 'I' for Inactive)
REMARK    1  A    between atoms: C6_6  and  O11_11 
ROOT
HETATM    1  C1  UNL     1     -34.756  16.636  -0.967  1.00 20.00     0.095 C 
HETATM    2  C2  UNL     1     -33.501  15.753  -2.796  1.00 20.00     0.022 C 
HETATM    3  C3  UNL     1     -34.697  16.075  -2.276  1.00 20.00     0.021 C 
HETATM    4  C4  UNL     1     -35.982  15.870  -3.041  1.00 20.00     0.058 C 
HETATM    5  C5  UNL     1     -34.626  14.744  -4.845  1.00 20.00     0.045 C 
HETATM    6  C6  UNL     1     -33.315  15.139  -4.153  1.00 20.00     0.143 C 
HETATM    7  C7  UNL     1     -35.793  15.723  -4.572  1.00 20.00    -0.041 C 
HETATM    8  C8  UNL     1     -37.084  15.150  -5.188  1.00 20.00     0.015 C 
HETATM    9  C9  UNL     1     -35.534  17.099  -5.217  1.00 20.00     0.015 C 
HETATM   10  N10 UNL     1     -34.804  17.093   0.099  1.00 20.00    -0.192 NA
ENDROOT
BRANCH   6  11
HETATM   11  O11 UNL     1     -32.602  16.051  -4.988  1.00 20.00    -0.392 OA
HETATM   12  H24 UNL     1     -32.087  15.512  -5.608  1.00 20.00     0.210 HD
ENDBRANCH   6  11
TORSDOF 1
ENDMDL
MODEL 4
REMARK VINA RESULT:      -4.5      3.106      4.272
REMARK  1 active torsions:
REMARK  status: ('A' for Active; 'I' for Inactive)
REMARK    1  A    between atoms: C6_6  and  O11_11 
ROOT
HETATM    1  C1  UNL     1     -34.568  16.693  -1.098  1.00 20.00     0.095 C 
HETATM    2  C2  UNL     1     -33.852  17.309  -3.291  1.00 20.00     0.022 C 
HETATM    3  C3  UNL     1     -34.316  16.360  -2.461  1.00 20.00     0.021 C 
HETATM    4  C4  UNL     1     -34.591  14.952  -2.932  1.00 20.00     0.058 C 
HETATM    5  C5  UNL     1     -33.616  15.602  -5.166  1.00 20.00     0.045 C 
HETATM    6  C6  UNL     1     -33.531  17.073  -4.739  1.00 20.00     0.143 C 
HETATM    7  C7  UNL     1     -34.751  14.815  -4.467  1.00 20.00    -0.041 C 
HETATM    8  C8  UNL     1     -34.646  13.329  -4.855  1.00 20.00     0.015 C 
HETATM    9  C9  UNL     1     -36.139  15.322  -4.910  1.00 20.00     0.015 C 
HETATM   10  N10 UNL     1     -34.773  16.965   0.012  1.00 20.00    -0.192 NA
ENDROOT
BRANCH   6  11
HETATM   11  O11 UNL     1     -34.416  17.846  -5.547  1.00 20.00    -0.392 OA
HETATM   12  H24 UNL     1     -33.882  18.210  -6.271  1.00 20.00     0.210 HD
ENDBRANCH   6  11
TORSDOF 1
ENDMDL
MODEL 5
REMARK VINA RESULT:      -4.5      2.408      3.208
REMARK  1 active torsions:
REMARK  status: ('A' for Active; 'I' for Inactive)
REMARK    1  A    between atoms: C6_6  and  O11_11 
ROOT
HETATM    1  C1  UNL     1     -37.907  14.699  -4.151  1.00 20.00     0.095 C 
HETATM    2  C2  UNL     1     -36.140  15.356  -5.616  1.00 20.00     0.022 C 
HETATM    3  C3  UNL     1     -36.602  15.232  -4.361  1.00 20.00     0.021 C 
HETATM    4  C4  UNL     1     -35.774  15.631  -3.163  1.00 20.00     0.058 C 
HETATM    5  C5  UNL     1     -34.036  16.512  -4.765  1.00 20.00     0.045 C 
HETATM    6  C6  UNL     1     -34.792  15.920  -5.962  1.00 20.00     0.143 C 
HETATM    7  C7  UNL     1     -34.253  15.732  -3.446  1.00 20.00    -0.041 C 
HETATM    8  C8  UNL     1     -33.575  16.496  -2.294  1.00 20.00     0.015 C 
HETATM    9  C9  UNL     1     -33.624  14.326  -3.515  1.00 20.00     0.015 C 
HETATM   10  N10 UNL     1     -38.970  14.265  -3.980  1.00 20.00    -0.192 NA
ENDROOT
BRANCH   6  11
HETATM   11  O11 UNL     1     -33.995  14.899  -6.561  1.00 20.00    -0.392 OA
HETATM   12  H24 UNL     1     -33.292  15.352  -7.053  1.00 20.00     0.210 HD
ENDBRANCH   6  11
TORSDOF 1
ENDMDL
MODEL 6
REMARK VINA RESULT:      -4.4      2.232      3.378
REMARK  1 active torsions:
REMARK  status: ('A' for Active; 'I' for Inactive)
REMARK    1  A    between atoms: C6_6  and  O11_11 
ROOT
HETATM    1  C1  UNL     1     -33.931  17.611  -2.967  1.00 20.00     0.095 C 
HETATM    2  C2  UNL     1     -33.938  15.224  -3.045  1.00 20.00     0.022 C 
HETATM    3  C3  UNL     1     -34.419  16.388  -3.514  1.00 20.00     0.021 C 
HETATM    4  C4  UNL     1     -35.452  16.439  -4.613  1.00 20.00     0.058 C 
HETATM    5  C5  UNL     1     -35.578  13.923  -4.494  1.00 20.00     0.045 C 
HETATM    6  C6  UNL     1     -34.387  13.876  -3.528  1.00 20.00     0.143 C 
HETATM    7  C7  UNL     1     -35.555  15.140  -5.451  1.00 20.00    -0.041 C 
HETATM    8  C8  UNL     1     -36.863  15.165  -6.263  1.00 20.00     0.015 C 
HETATM    9  C9  UNL     1     -34.382  15.048  -6.447  1.00 20.00     0.015 C 
HETATM   10  N10 UNL     1     -33.534  18.606  -2.522  1.00 20.00    -0.192 NA
ENDROOT
BRANCH   6  11
HETATM   11  O11 UNL     1     -33.294  13.216  -4.165  1.00 20.00    -0.392 OA
HETATM   12  H24 UNL     1     -33.674  12.492  -4.686  1.00 20.00     0.210 HD
ENDBRANCH   6  11
TORSDOF 1
ENDMDL
MODEL 7
REMARK VINA RESULT:      -4.4      2.368      3.700
REMARK  1 active torsions:
REMARK  status: ('A' for Active; 'I' for Inactive)
REMARK    1  A    between atoms: C6_6  and  O11_11 
ROOT
HETATM    1  C1  UNL     1     -36.328  16.895  -2.842  1.00 20.00     0.095 C 
HETATM    2  C2  UNL     1     -34.644  15.210  -3.001  1.00 20.00     0.022 C 
HETATM    3  C3  UNL     1     -35.636  15.897  -3.590  1.00 20.00     0.021 C 
HETATM    4  C4  UNL     1     -36.033  15.655  -5.026  1.00 20.00     0.058 C 
HETATM    5  C5  UNL     1     -34.393  13.738  -5.064  1.00 20.00     0.045 C 
HETATM    6  C6  UNL     1     -33.858  14.125  -3.679  1.00 20.00     0.143 C 
HETATM    7  C7  UNL     1     -34.952  14.935  -5.871  1.00 20.00    -0.041 C 
HETATM    8  C8  UNL     1     -35.592  14.410  -7.170  1.00 20.00     0.015 C 
HETATM    9  C9  UNL     1     -33.831  15.920  -6.262  1.00 20.00     0.015 C 
HETATM   10  N10 UNL     1     -36.891  17.706  -2.233  1.00 20.00    -0.192 NA
ENDROOT
BRANCH   6  11
HETATM   11  O11 UNL     1     -32.497  14.537  -3.801  1.00 20.00    -0.392 OA
HETATM   12  H24 UNL     1     -32.299  14.556  -4.750  1.00 20.00     0.210 HD
ENDBRANCH   6  11
TORSDOF 1
ENDMDL
MODEL 8
REMARK VINA RESULT:      -4.4      2.873      3.671
REMARK  1 active torsions:
REMARK  status: ('A' for Active; 'I' for Inactive)
REMARK    1  A    between atoms: C6_6  and  O11_11 
ROOT
HETATM    1  C1  UNL     1     -35.076  13.714  -4.092  1.00 20.00     0.095 C 
HETATM    2  C2  UNL     1     -36.471  15.631  -3.808  1.00 20.00     0.022 C 
HETATM    3  C3  UNL     1     -35.339  14.980  -3.491  1.00 20.00     0.021 C 
HETATM    4  C4  UNL     1     -34.331  15.554  -2.526  1.00 20.00     0.058 C 
HETATM    5  C5  UNL     1     -35.946  17.444  -2.099  1.00 20.00     0.045 C 
HETATM    6  C6  UNL     1     -36.865  16.958  -3.227  1.00 20.00     0.143 C 
HETATM    7  C7  UNL     1     -34.455  17.084  -2.312  1.00 20.00    -0.041 C 
HETATM    8  C8  UNL     1     -33.657  17.485  -1.057  1.00 20.00     0.015 C 
HETATM    9  C9  UNL     1     -33.861  17.846  -3.513  1.00 20.00     0.015 C 
HETATM   10  N10 UNL     1     -34.862  12.684  -4.581  1.00 20.00    -0.192 NA
ENDROOT
BRANCH   6  11
HETATM   11  O11 UNL     1     -36.890  17.937  -4.265  1.00 20.00    -0.392 OA
HETATM   12  H24 UNL     1     -36.542  18.756  -3.879  1.00 20.00     0.210 HD
ENDBRANCH   6  11
TORSDOF 1
ENDMDL
MODEL 9
REMARK VINA RESULT:      -4.4      2.569      3.622
REMARK  1 active torsions:
REMARK  status: ('A' for Active; 'I' for Inactive)
REMARK    1  A    between atoms: C6_6  and  O11_11 
ROOT
HETATM    1  C1  UNL     1     -34.573  13.763  -4.353  1.00 20.00     0.095 C 
HETATM    2  C2  UNL     1     -34.650  15.280  -2.511  1.00 20.00     0.022 C 
HETATM    3  C3  UNL     1     -34.410  15.074  -3.816  1.00 20.00     0.021 C 
HETATM    4  C4  UNL     1     -33.984  16.193  -4.736  1.00 20.00     0.058 C 
HETATM    5  C5  UNL     1     -33.868  17.695  -2.713  1.00 20.00     0.045 C 
HETATM    6  C6  UNL     1     -34.494  16.609  -1.829  1.00 20.00     0.143 C 
HETATM    7  C7  UNL     1     -34.296  17.612  -4.198  1.00 20.00    -0.041 C 
HETATM    8  C8  UNL     1     -33.497  18.647  -5.011  1.00 20.00     0.015 C 
HETATM    9  C9  UNL     1     -35.795  17.933  -4.369  1.00 20.00     0.015 C 
HETATM   10  N10 UNL     1     -34.706  12.696  -4.790  1.00 20.00    -0.192 NA
ENDROOT
BRANCH   6  11
HETATM   11  O11 UNL     1     -35.770  17.055  -1.373  1.00 20.00    -0.392 OA
HETATM   12  H24 UNL     1     -35.614  17.541  -0.548  1.00 20.00     0.210 HD
ENDBRANCH   6  11
TORSDOF 1
ENDMDL
