MODEL 1
REMARK VINA RESULT:      -4.5      0.000      0.000
REMARK  2 active torsions:
REMARK  status: ('A' for Active; 'I' for Inactive)
REMARK    1  A    between atoms: C3_3  and  C4_4 
REMARK    2  A    between atoms: C4_4  and  C5_5 
ROOT
HETATM    1  C1  UNL     1     -32.537   6.748   3.129  1.00 20.00     0.059 C 
HETATM    2  C3  UNL     1     -33.583   5.744   2.892  1.00 20.00     0.125 C 
HETATM    3  N6  UNL     1     -31.710   7.541   3.315  1.00 20.00    -0.197 NA
ENDROOT
BRANCH   2   4
HETATM    4  C4  UNL     1     -34.649   5.744   3.992  1.00 20.00     0.034 C 
BRANCH   4   5
HETATM    5  C5  UNL     1     -34.161   5.283   5.375  1.00 20.00     0.079 C 
HETATM    6  C2  UNL     1     -35.121   4.265   5.981  1.00 20.00     0.026 C 
HETATM    7 CL7  UNL     1     -34.005   6.667   6.498  1.00 20.00    -0.125 Cl
ENDBRANCH   4   5
ENDBRANCH   2   4
TORSDOF 2
ENDMDL
MODEL 2
REMARK VINA RESULT:      -4.4      1.033      1.191
REMARK  2 active torsions:
REMARK  status: ('A' for Active; 'I' for Inactive)
REMARK    1  A    between atoms: C3_3  and  C4_4 
REMARK    2  A    between atoms: C4_4  and  C5_5 
ROOT
HETATM    1  C1  UNL     1     -32.185   7.700   2.483  1.00 20.00     0.059 C 
HETATM    2  C3  UNL     1     -32.308   6.521   3.351  1.00 20.00     0.125 C 
HETATM    3  N6  UNL     1     -32.087   8.630   1.798  1.00 20.00    -0.197 NA
ENDROOT
BRANCH   2   4
HETATM    4  C4  UNL     1     -33.766   6.207   3.703  1.00 20.00     0.034 C 
BRANCH   4   5
HETATM    5  C5  UNL     1     -33.970   5.452   5.027  1.00 20.00     0.079 C 
HETATM    6  C2  UNL     1     -35.259   4.638   4.998  1.00 20.00     0.026 C 
HETATM    7 CL7  UNL     1     -34.035   6.585   6.410  1.00 20.00    -0.125 Cl
ENDBRANCH   4   5
ENDBRANCH   2   4
TORSDOF 2
ENDMDL
MODEL 3
REMARK VINA RESULT:      -4.4      1.539      1.688
REMARK  2 active torsions:
REMARK  status: ('A' for Active; 'I' for Inactive)
REMARK    1  A    between atoms: C3_3  and  C4_4 
REMARK    2  A    between atoms: C4_4  and  C5_5 
ROOT
HETATM    1  C1  UNL     1     -32.363   7.247   2.812  1.00 20.00     0.059 C 
HETATM    2  C3  UNL     1     -32.698   6.117   3.688  1.00 20.00     0.125 C 
HETATM    3  N6  UNL     1     -32.097   8.139   2.119  1.00 20.00    -0.197 NA
ENDROOT
BRANCH   2   4
HETATM    4  C4  UNL     1     -34.201   5.815   3.699  1.00 20.00     0.034 C 
BRANCH   4   5
HETATM    5  C5  UNL     1     -34.813   5.599   5.092  1.00 20.00     0.079 C 
HETATM    6  C2  UNL     1     -33.999   6.319   6.163  1.00 20.00     0.026 C 
HETATM    7 CL7  UNL     1     -34.890   3.859   5.500  1.00 20.00    -0.125 Cl
ENDBRANCH   4   5
ENDBRANCH   2   4
TORSDOF 2
ENDMDL
MODEL 4
REMARK VINA RESULT:      -3.9      2.785      3.932
REMARK  2 active torsions:
REMARK  status: ('A' for Active; 'I' for Inactive)
REMARK    1  A    between atoms: C3_3  and  C4_4 
REMARK    2  A    between atoms: C4_4  and  C5_5 
ROOT
HETATM    1  C1  UNL     1     -34.744   4.626   5.818  1.00 20.00     0.059 C 
HETATM    2  C3  UNL     1     -34.197   5.931   6.213  1.00 20.00     0.125 C 
HETATM    3  N6  UNL     1     -35.177   3.595   5.507  1.00 20.00    -0.197 NA
ENDROOT
BRANCH   2   4
HETATM    4  C4  UNL     1     -33.851   6.807   5.004  1.00 20.00     0.034 C 
BRANCH   4   5
HETATM    5  C5  UNL     1     -33.083   6.092   3.879  1.00 20.00     0.079 C 
HETATM    6  C2  UNL     1     -32.106   7.044   3.197  1.00 20.00     0.026 C 
HETATM    7 CL7  UNL     1     -34.205   5.438   2.648  1.00 20.00    -0.125 Cl
ENDBRANCH   4   5
ENDBRANCH   2   4
TORSDOF 2
ENDMDL
MODEL 5
REMARK VINA RESULT:      -3.6     11.538     12.110
REMARK  2 active torsions:
REMARK  status: ('A' for Active; 'I' for Inactive)
REMARK    1  A    between atoms: C3_3  and  C4_4 
REMARK    2  A    between atoms: C4_4  and  C5_5 
ROOT
HETATM    1  C1  UNL     1     -34.087  13.540  -4.084  1.00 20.00     0.059 C 
HETATM    2  C3  UNL     1     -33.039  14.458  -3.620  1.00 20.00     0.125 C 
HETATM    3  N6  UNL     1     -34.914  12.813  -4.450  1.00 20.00    -0.197 NA
ENDROOT
BRANCH   2   4
HETATM    4  C4  UNL     1     -33.599  15.831  -3.232  1.00 20.00     0.034 C 
BRANCH   4   5
HETATM    5  C5  UNL     1     -34.861  15.797  -2.355  1.00 20.00     0.079 C 
HETATM    6  C2  UNL     1     -36.017  16.523  -3.036  1.00 20.00     0.026 C 
HETATM    7 CL7  UNL     1     -34.561  16.557  -0.764  1.00 20.00    -0.125 Cl
ENDBRANCH   4   5
ENDBRANCH   2   4
TORSDOF 2
ENDMDL
MODEL 6
REMARK VINA RESULT:      -3.6     12.000     12.336
REMARK  2 active torsions:
REMARK  status: ('A' for Active; 'I' for Inactive)
REMARK    1  A    between atoms: C3_3  and  C4_4 
REMARK    2  A    between atoms: C4_4  and  C5_5 
ROOT
HETATM    1  C1  UNL     1     -34.337  13.667  -4.073  1.00 20.00     0.059 C 
HETATM    2  C3  UNL     1     -33.687  14.849  -3.491  1.00 20.00     0.125 C 
HETATM    3  N6  UNL     1     -34.849  12.733  -4.533  1.00 20.00    -0.197 NA
ENDROOT
BRANCH   2   4
HETATM    4  C4  UNL     1     -34.621  15.626  -2.558  1.00 20.00     0.034 C 
BRANCH   4   5
HETATM    5  C5  UNL     1     -33.940  16.711  -1.708  1.00 20.00     0.079 C 
HETATM    6  C2  UNL     1     -34.700  16.941  -0.406  1.00 20.00     0.026 C 
HETATM    7 CL7  UNL     1     -33.840  18.259  -2.599  1.00 20.00    -0.125 Cl
ENDBRANCH   4   5
ENDBRANCH   2   4
TORSDOF 2
ENDMDL
MODEL 7
REMARK VINA RESULT:      -3.4      2.346      3.776
REMARK  2 active torsions:
REMARK  status: ('A' for Active; 'I' for Inactive)
REMARK    1  A    between atoms: C3_3  and  C4_4 
REMARK    2  A    between atoms: C4_4  and  C5_5 
ROOT
HETATM    1  C1  UNL     1     -34.070   6.126   5.148  1.00 20.00     0.059 C 
HETATM    2  C3  UNL     1     -34.112   5.765   3.725  1.00 20.00     0.125 C 
HETATM    3  N6  UNL     1     -34.037   6.411   6.272  1.00 20.00    -0.197 NA
ENDROOT
BRANCH   2   4
HETATM    4  C4  UNL     1     -32.814   6.125   2.994  1.00 20.00     0.034 C 
BRANCH   4   5
HETATM    5  C5  UNL     1     -32.399   7.602   3.091  1.00 20.00     0.079 C 
HETATM    6  C2  UNL     1     -32.007   8.149   1.722  1.00 20.00     0.026 C 
HETATM    7 CL7  UNL     1     -31.019   7.812   4.211  1.00 20.00    -0.125 Cl
ENDBRANCH   4   5
ENDBRANCH   2   4
TORSDOF 2
ENDMDL
MODEL 8
REMARK VINA RESULT:      -3.4     12.210     12.717
REMARK  2 active torsions:
REMARK  status: ('A' for Active; 'I' for Inactive)
REMARK    1  A    between atoms: C3_3  and  C4_4 
REMARK    2  A    between atoms: C4_4  and  C5_5 
ROOT
HETATM    1  C1  UNL     1     -36.295  14.131  -4.221  1.00 20.00     0.059 C 
HETATM    2  C3  UNL     1     -34.944  13.917  -4.757  1.00 20.00     0.125 C 
HETATM    3  N6  UNL     1     -37.362  14.299  -3.799  1.00 20.00    -0.197 NA
ENDROOT
BRANCH   2   4
HETATM    4  C4  UNL     1     -33.866  14.011  -3.672  1.00 20.00     0.034 C 
BRANCH   4   5
HETATM    5  C5  UNL     1     -33.172  15.378  -3.559  1.00 20.00     0.079 C 
HETATM    6  C2  UNL     1     -33.812  16.226  -2.464  1.00 20.00     0.026 C 
HETATM    7 CL7  UNL     1     -33.259  16.274  -5.106  1.00 20.00    -0.125 Cl
ENDBRANCH   4   5
ENDBRANCH   2   4
TORSDOF 2
ENDMDL
MODEL 9
REMARK VINA RESULT:      -3.4      2.976      4.027
REMARK  2 active torsions:
REMARK  status: ('A' for Active; 'I' for Inactive)
REMARK    1  A    between atoms: C3_3  and  C4_4 
REMARK    2  A    between atoms: C4_4  and  C5_5 
ROOT
HETATM    1  C1  UNL     1     -34.602   4.968   4.841  1.00 20.00     0.059 C 
HETATM    2  C3  UNL     1     -33.859   6.198   4.538  1.00 20.00     0.125 C 
HETATM    3  N6  UNL     1     -35.189   3.997   5.082  1.00 20.00    -0.197 NA
ENDROOT
BRANCH   2   4
HETATM    4  C4  UNL     1     -33.324   6.216   3.102  1.00 20.00     0.034 C 
BRANCH   4   5
HETATM    5  C5  UNL     1     -32.016   6.998   2.903  1.00 20.00     0.079 C 
HETATM    6  C2  UNL     1     -31.540   7.609   4.217  1.00 20.00     0.026 C 
HETATM    7 CL7  UNL     1     -32.225   8.308   1.702  1.00 20.00    -0.125 Cl
ENDBRANCH   4   5
ENDBRANCH   2   4
TORSDOF 2
ENDMDL
