MODEL 1
REMARK VINA RESULT:      -4.2      0.000      0.000
REMARK  2 active torsions:
REMARK  status: ('A' for Active; 'I' for Inactive)
REMARK    1  A    between atoms: C5_5  and  C6_6 
REMARK    2  A    between atoms: C5_5  and  C7_7 
ROOT
HETATM    1  C1  UNL     1     -34.456  13.714  -4.385  1.00 20.00     0.068 C 
HETATM    2  C3  UNL     1     -32.428  14.810  -3.585  1.00 20.00     0.031 C 
HETATM    3  C4  UNL     1     -33.850  15.910  -5.319  1.00 20.00     0.031 C 
HETATM    4  C7  UNL     1     -33.880  15.038  -4.055  1.00 20.00     0.043 C 
HETATM    5  N8  UNL     1     -34.894  12.671  -4.646  1.00 20.00    -0.196 NA
ENDROOT
BRANCH   4   6
HETATM    6  C5  UNL     1     -34.662  15.718  -2.894  1.00 20.00     0.043 C 
BRANCH   6   7
HETATM    7  C6  UNL     1     -33.890  16.654  -1.940  1.00 20.00     0.080 C 
HETATM    8  C2  UNL     1     -34.622  16.779  -0.604  1.00 20.00     0.026 C 
HETATM    9 CL9  UNL     1     -33.677  18.291  -2.617  1.00 20.00    -0.125 Cl
ENDBRANCH   6   7
ENDBRANCH   4   6
TORSDOF 2
ENDMDL
MODEL 2
REMARK VINA RESULT:      -3.9      1.851      2.218
REMARK  2 active torsions:
REMARK  status: ('A' for Active; 'I' for Inactive)
REMARK    1  A    between atoms: C5_5  and  C6_6 
REMARK    2  A    between atoms: C5_5  and  C7_7 
ROOT
HETATM    1  C1  UNL     1     -36.496  14.434  -4.015  1.00 20.00     0.068 C 
HETATM    2  C3  UNL     1     -34.530  13.145  -4.668  1.00 20.00     0.031 C 
HETATM    3  C4  UNL     1     -34.947  15.396  -5.669  1.00 20.00     0.031 C 
HETATM    4  C7  UNL     1     -35.069  14.564  -4.384  1.00 20.00     0.043 C 
HETATM    5  N8  UNL     1     -37.617  14.320  -3.734  1.00 20.00    -0.196 NA
ENDROOT
BRANCH   4   6
HETATM    6  C5  UNL     1     -34.239  15.170  -3.214  1.00 20.00     0.043 C 
BRANCH   6   7
HETATM    7  C6  UNL     1     -34.720  16.493  -2.582  1.00 20.00     0.080 C 
HETATM    8  C2  UNL     1     -33.842  17.656  -3.041  1.00 20.00     0.026 C 
HETATM    9 CL9  UNL     1     -34.696  16.443  -0.798  1.00 20.00    -0.125 Cl
ENDBRANCH   6   7
ENDBRANCH   4   6
TORSDOF 2
ENDMDL
MODEL 3
REMARK VINA RESULT:      -3.9     11.131     11.637
REMARK  2 active torsions:
REMARK  status: ('A' for Active; 'I' for Inactive)
REMARK    1  A    between atoms: C5_5  and  C6_6 
REMARK    2  A    between atoms: C5_5  and  C7_7 
ROOT
HETATM    1  C1  UNL     1     -32.240   8.054   2.113  1.00 20.00     0.068 C 
HETATM    2  C3  UNL     1     -31.800   5.757   2.812  1.00 20.00     0.031 C 
HETATM    3  C4  UNL     1     -31.314   7.657   4.360  1.00 20.00     0.031 C 
HETATM    4  C7  UNL     1     -32.282   7.146   3.282  1.00 20.00     0.043 C 
HETATM    5  N8  UNL     1     -32.196   8.757   1.190  1.00 20.00    -0.196 NA
ENDROOT
BRANCH   4   6
HETATM    6  C5  UNL     1     -33.733   6.995   3.825  1.00 20.00     0.043 C 
BRANCH   6   7
HETATM    7  C6  UNL     1     -34.060   5.779   4.717  1.00 20.00     0.080 C 
HETATM    8  C2  UNL     1     -35.364   5.122   4.270  1.00 20.00     0.026 C 
HETATM    9 CL9  UNL     1     -34.217   6.222   6.439  1.00 20.00    -0.125 Cl
ENDBRANCH   6   7
ENDBRANCH   4   6
TORSDOF 2
ENDMDL
MODEL 4
REMARK VINA RESULT:      -3.9      1.341      1.975
REMARK  2 active torsions:
REMARK  status: ('A' for Active; 'I' for Inactive)
REMARK    1  A    between atoms: C5_5  and  C6_6 
REMARK    2  A    between atoms: C5_5  and  C7_7 
ROOT
HETATM    1  C1  UNL     1     -34.178  15.342  -5.292  1.00 20.00     0.068 C 
HETATM    2  C3  UNL     1     -35.186  13.398  -4.215  1.00 20.00     0.031 C 
HETATM    3  C4  UNL     1     -32.884  14.134  -3.581  1.00 20.00     0.031 C 
HETATM    4  C7  UNL     1     -34.277  14.627  -3.999  1.00 20.00     0.043 C 
HETATM    5  N8  UNL     1     -34.103  15.890  -6.313  1.00 20.00    -0.196 NA
ENDROOT
BRANCH   4   6
HETATM    6  C5  UNL     1     -34.931  15.525  -2.909  1.00 20.00     0.043 C 
BRANCH   6   7
HETATM    7  C6  UNL     1     -34.017  16.436  -2.063  1.00 20.00     0.080 C 
HETATM    8  C2  UNL     1     -34.638  16.695  -0.692  1.00 20.00     0.026 C 
HETATM    9 CL9  UNL     1     -33.712  18.010  -2.847  1.00 20.00    -0.125 Cl
ENDBRANCH   6   7
ENDBRANCH   4   6
TORSDOF 2
ENDMDL
MODEL 5
REMARK VINA RESULT:      -3.8      2.198      3.498
REMARK  2 active torsions:
REMARK  status: ('A' for Active; 'I' for Inactive)
REMARK    1  A    between atoms: C5_5  and  C6_6 
REMARK    2  A    between atoms: C5_5  and  C7_7 
ROOT
HETATM    1  C1  UNL     1     -34.736  13.801  -4.092  1.00 20.00     0.068 C 
HETATM    2  C3  UNL     1     -34.891  15.602  -2.454  1.00 20.00     0.031 C 
HETATM    3  C4  UNL     1     -32.763  15.221  -3.705  1.00 20.00     0.031 C 
HETATM    4  C7  UNL     1     -34.294  15.187  -3.815  1.00 20.00     0.043 C 
HETATM    5  N8  UNL     1     -35.084  12.712  -4.295  1.00 20.00    -0.196 NA
ENDROOT
BRANCH   4   6
HETATM    6  C5  UNL     1     -34.825  16.173  -4.896  1.00 20.00     0.043 C 
BRANCH   6   7
HETATM    7  C6  UNL     1     -34.048  16.294  -6.223  1.00 20.00     0.080 C 
HETATM    8  C2  UNL     1     -34.347  17.631  -6.900  1.00 20.00     0.026 C 
HETATM    9 CL9  UNL     1     -34.449  14.984  -7.368  1.00 20.00    -0.125 Cl
ENDBRANCH   6   7
ENDBRANCH   4   6
TORSDOF 2
ENDMDL
MODEL 6
REMARK VINA RESULT:      -3.8      1.563      2.202
REMARK  2 active torsions:
REMARK  status: ('A' for Active; 'I' for Inactive)
REMARK    1  A    between atoms: C5_5  and  C6_6 
REMARK    2  A    between atoms: C5_5  and  C7_7 
ROOT
HETATM    1  C1  UNL     1     -35.102  13.747  -4.298  1.00 20.00     0.068 C 
HETATM    2  C3  UNL     1     -35.272  16.028  -5.148  1.00 20.00     0.031 C 
HETATM    3  C4  UNL     1     -36.877  15.209  -3.418  1.00 20.00     0.031 C 
HETATM    4  C7  UNL     1     -35.420  15.136  -3.896  1.00 20.00     0.043 C 
HETATM    5  N8  UNL     1     -34.857  12.661  -4.627  1.00 20.00    -0.196 NA
ENDROOT
BRANCH   4   6
HETATM    6  C5  UNL     1     -34.424  15.652  -2.817  1.00 20.00     0.043 C 
BRANCH   6   7
HETATM    7  C6  UNL     1     -34.760  16.962  -2.075  1.00 20.00     0.080 C 
HETATM    8  C2  UNL     1     -33.756  18.056  -2.437  1.00 20.00     0.026 C 
HETATM    9 CL9  UNL     1     -34.754  16.761  -0.301  1.00 20.00    -0.125 Cl
ENDBRANCH   6   7
ENDBRANCH   4   6
TORSDOF 2
ENDMDL
MODEL 7
REMARK VINA RESULT:      -3.8      1.898      2.578
REMARK  2 active torsions:
REMARK  status: ('A' for Active; 'I' for Inactive)
REMARK    1  A    between atoms: C5_5  and  C6_6 
REMARK    2  A    between atoms: C5_5  and  C7_7 
ROOT
HETATM    1  C1  UNL     1     -34.834  13.763  -5.142  1.00 20.00     0.068 C 
HETATM    2  C3  UNL     1     -34.508  14.869  -7.292  1.00 20.00     0.031 C 
HETATM    3  C4  UNL     1     -36.288  15.660  -5.729  1.00 20.00     0.031 C 
HETATM    4  C7  UNL     1     -34.866  15.085  -5.806  1.00 20.00     0.043 C 
HETATM    5  N8  UNL     1     -34.811  12.719  -4.633  1.00 20.00    -0.196 NA
ENDROOT
BRANCH   4   6
HETATM    6  C5  UNL     1     -33.811  16.050  -5.191  1.00 20.00     0.043 C 
BRANCH   6   7
HETATM    7  C6  UNL     1     -34.242  16.957  -4.019  1.00 20.00     0.080 C 
HETATM    8  C2  UNL     1     -33.656  18.358  -4.182  1.00 20.00     0.026 C 
HETATM    9 CL9  UNL     1     -33.724  16.314  -2.436  1.00 20.00    -0.125 Cl
ENDBRANCH   6   7
ENDBRANCH   4   6
TORSDOF 2
ENDMDL
MODEL 8
REMARK VINA RESULT:      -3.6      2.362      3.767
REMARK  2 active torsions:
REMARK  status: ('A' for Active; 'I' for Inactive)
REMARK    1  A    between atoms: C5_5  and  C6_6 
REMARK    2  A    between atoms: C5_5  and  C7_7 
ROOT
HETATM    1  C1  UNL     1     -36.440  14.638  -3.724  1.00 20.00     0.068 C 
HETATM    2  C3  UNL     1     -34.794  15.776  -2.329  1.00 20.00     0.031 C 
HETATM    3  C4  UNL     1     -34.146  13.749  -3.637  1.00 20.00     0.031 C 
HETATM    4  C7  UNL     1     -35.011  15.018  -3.656  1.00 20.00     0.043 C 
HETATM    5  N8  UNL     1     -37.562  14.340  -3.763  1.00 20.00    -0.196 NA
ENDROOT
BRANCH   4   6
HETATM    6  C5  UNL     1     -34.626  15.971  -4.825  1.00 20.00     0.043 C 
BRANCH   6   7
HETATM    7  C6  UNL     1     -35.329  15.783  -6.186  1.00 20.00     0.080 C 
HETATM    8  C2  UNL     1     -34.433  15.008  -7.150  1.00 20.00     0.026 C 
HETATM    9 CL9  UNL     1     -35.759  17.338  -6.949  1.00 20.00    -0.125 Cl
ENDBRANCH   6   7
ENDBRANCH   4   6
TORSDOF 2
ENDMDL
MODEL 9
REMARK VINA RESULT:      -3.5      2.025      2.166
REMARK  2 active torsions:
REMARK  status: ('A' for Active; 'I' for Inactive)
REMARK    1  A    between atoms: C5_5  and  C6_6 
REMARK    2  A    between atoms: C5_5  and  C7_7 
ROOT
HETATM    1  C1  UNL     1     -34.448  13.645  -4.519  1.00 20.00     0.068 C 
HETATM    2  C3  UNL     1     -32.560  14.844  -3.544  1.00 20.00     0.031 C 
HETATM    3  C4  UNL     1     -33.889  15.880  -5.387  1.00 20.00     0.031 C 
HETATM    4  C7  UNL     1     -33.978  14.995  -4.135  1.00 20.00     0.043 C 
HETATM    5  N8  UNL     1     -34.802  12.581  -4.822  1.00 20.00    -0.196 NA
ENDROOT
BRANCH   4   6
HETATM    6  C5  UNL     1     -34.893  15.620  -3.041  1.00 20.00     0.043 C 
BRANCH   6   7
HETATM    7  C6  UNL     1     -36.218  16.276  -3.481  1.00 20.00     0.080 C 
HETATM    8  C2  UNL     1     -36.585  17.424  -2.542  1.00 20.00     0.026 C 
HETATM    9 CL9  UNL     1     -37.575  15.117  -3.507  1.00 20.00    -0.125 Cl
ENDBRANCH   6   7
ENDBRANCH   4   6
TORSDOF 2
ENDMDL
