MODEL 1
REMARK VINA RESULT:      -4.0      0.000      0.000
REMARK  0 active torsions:
REMARK  status: ('A' for Active; 'I' for Inactive)
ROOT
HETATM    1  C1  UNL     1     -34.520  13.825  -4.611  1.00 20.00     0.064 C 
HETATM    2  C2  UNL     1     -35.489  16.110  -4.642  1.00 20.00     0.020 C 
HETATM    3  C3  UNL     1     -35.749  16.786  -3.295  1.00 20.00     0.017 C 
HETATM    4  C4  UNL     1     -33.713  15.577  -3.056  1.00 20.00     0.035 C 
HETATM    5  C5  UNL     1     -34.219  15.260  -4.467  1.00 20.00     0.094 C 
HETATM    6  C6  UNL     1     -34.976  15.945  -2.296  1.00 20.00     0.059 C 
HETATM    7  N7  UNL     1     -34.757  12.696  -4.725  1.00 20.00    -0.197 NA
HETATM    8 BR8  UNL     1     -34.575  16.937  -0.687  1.00 20.00    -0.091 Br
ENDROOT
TORSDOF 0
ENDMDL
MODEL 2
REMARK VINA RESULT:      -3.8      1.332      1.702
REMARK  0 active torsions:
REMARK  status: ('A' for Active; 'I' for Inactive)
ROOT
HETATM    1  C1  UNL     1     -34.400  13.739  -3.884  1.00 20.00     0.064 C 
HETATM    2  C2  UNL     1     -33.133  15.823  -4.347  1.00 20.00     0.020 C 
HETATM    3  C3  UNL     1     -33.877  17.151  -4.197  1.00 20.00     0.017 C 
HETATM    4  C4  UNL     1     -34.663  15.741  -2.448  1.00 20.00     0.035 C 
HETATM    5  C5  UNL     1     -33.698  14.880  -3.271  1.00 20.00     0.094 C 
HETATM    6  C6  UNL     1     -35.139  16.791  -3.437  1.00 20.00     0.059 C 
HETATM    7  N7  UNL     1     -34.952  12.841  -4.367  1.00 20.00    -0.197 NA
HETATM    8 BR8  UNL     1     -35.892  18.327  -2.536  1.00 20.00    -0.091 Br
ENDROOT
TORSDOF 0
ENDMDL
MODEL 3
REMARK VINA RESULT:      -3.8      3.204      3.944
REMARK  0 active torsions:
REMARK  status: ('A' for Active; 'I' for Inactive)
ROOT
HETATM    1  C1  UNL     1     -33.990  15.870  -2.659  1.00 20.00     0.064 C 
HETATM    2  C2  UNL     1     -33.648  13.639  -3.692  1.00 20.00     0.020 C 
HETATM    3  C3  UNL     1     -34.456  13.311  -4.948  1.00 20.00     0.017 C 
HETATM    4  C4  UNL     1     -33.856  15.607  -5.119  1.00 20.00     0.035 C 
HETATM    5  C5  UNL     1     -33.330  15.143  -3.757  1.00 20.00     0.094 C 
HETATM    6  C6  UNL     1     -35.000  14.650  -5.407  1.00 20.00     0.059 C 
HETATM    7  N7  UNL     1     -34.509  16.442  -1.794  1.00 20.00    -0.197 NA
HETATM    8 BR8  UNL     1     -35.455  14.631  -7.285  1.00 20.00    -0.091 Br
ENDROOT
TORSDOF 0
ENDMDL
MODEL 4
REMARK VINA RESULT:      -3.8      1.968      2.479
REMARK  0 active torsions:
REMARK  status: ('A' for Active; 'I' for Inactive)
ROOT
HETATM    1  C1  UNL     1     -35.153  13.775  -4.180  1.00 20.00     0.064 C 
HETATM    2  C2  UNL     1     -34.581  15.507  -2.497  1.00 20.00     0.020 C 
HETATM    3  C3  UNL     1     -33.808  16.735  -2.981  1.00 20.00     0.017 C 
HETATM    4  C4  UNL     1     -35.347  16.187  -4.711  1.00 20.00     0.035 C 
HETATM    5  C5  UNL     1     -35.517  15.098  -3.647  1.00 20.00     0.094 C 
HETATM    6  C6  UNL     1     -33.928  16.684  -4.492  1.00 20.00     0.059 C 
HETATM    7  N7  UNL     1     -34.865  12.732  -4.600  1.00 20.00    -0.197 NA
HETATM    8 BR8  UNL     1     -33.652  18.423  -5.289  1.00 20.00    -0.091 Br
ENDROOT
TORSDOF 0
ENDMDL
MODEL 5
REMARK VINA RESULT:      -3.7     10.817     11.424
REMARK  0 active torsions:
REMARK  status: ('A' for Active; 'I' for Inactive)
ROOT
HETATM    1  C1  UNL     1     -32.150   8.159   2.108  1.00 20.00     0.064 C 
HETATM    2  C2  UNL     1     -32.009   7.512   4.500  1.00 20.00     0.020 C 
HETATM    3  C3  UNL     1     -33.220   6.809   5.115  1.00 20.00     0.017 C 
HETATM    4  C4  UNL     1     -33.016   5.974   2.896  1.00 20.00     0.035 C 
HETATM    5  C5  UNL     1     -31.924   7.040   3.039  1.00 20.00     0.094 C 
HETATM    6  C6  UNL     1     -34.057   6.387   3.922  1.00 20.00     0.059 C 
HETATM    7  N7  UNL     1     -32.329   9.040   1.375  1.00 20.00    -0.197 NA
HETATM    8 BR8  UNL     1     -35.242   4.925   4.362  1.00 20.00    -0.091 Br
ENDROOT
TORSDOF 0
ENDMDL
MODEL 6
REMARK VINA RESULT:      -3.6      1.851      2.625
REMARK  0 active torsions:
REMARK  status: ('A' for Active; 'I' for Inactive)
ROOT
HETATM    1  C1  UNL     1     -34.933  14.718  -6.709  1.00 20.00     0.064 C 
HETATM    2  C2  UNL     1     -34.532  13.209  -4.779  1.00 20.00     0.020 C 
HETATM    3  C3  UNL     1     -34.102  13.850  -3.458  1.00 20.00     0.017 C 
HETATM    4  C4  UNL     1     -35.697  15.324  -4.431  1.00 20.00     0.035 C 
HETATM    5  C5  UNL     1     -35.498  14.198  -5.451  1.00 20.00     0.094 C 
HETATM    6  C6  UNL     1     -34.399  15.326  -3.642  1.00 20.00     0.059 C 
HETATM    7  N7  UNL     1     -34.487  15.126  -7.699  1.00 20.00    -0.197 NA
HETATM    8 BR8  UNL     1     -34.598  16.230  -1.945  1.00 20.00    -0.091 Br
ENDROOT
TORSDOF 0
ENDMDL
MODEL 7
REMARK VINA RESULT:      -3.6     12.567     13.415
REMARK  0 active torsions:
REMARK  status: ('A' for Active; 'I' for Inactive)
ROOT
HETATM    1  C1  UNL     1     -41.169   6.601  -0.597  1.00 20.00     0.064 C 
HETATM    2  C2  UNL     1     -42.658   4.743   0.103  1.00 20.00     0.020 C 
HETATM    3  C3  UNL     1     -43.047   3.711  -0.958  1.00 20.00     0.017 C 
HETATM    4  C4  UNL     1     -40.777   4.284  -1.382  1.00 20.00     0.035 C 
HETATM    5  C5  UNL     1     -41.219   5.179  -0.219  1.00 20.00     0.094 C 
HETATM    6  C6  UNL     1     -42.077   3.958  -2.097  1.00 20.00     0.059 C 
HETATM    7  N7  UNL     1     -41.132   7.722  -0.894  1.00 20.00    -0.197 NA
HETATM    8 BR8  UNL     1     -41.894   2.402  -3.229  1.00 20.00    -0.091 Br
ENDROOT
TORSDOF 0
ENDMDL
MODEL 8
REMARK VINA RESULT:      -3.5     12.226     12.816
REMARK  0 active torsions:
REMARK  status: ('A' for Active; 'I' for Inactive)
ROOT
HETATM    1  C1  UNL     1     -34.939   4.320   5.145  1.00 20.00     0.064 C 
HETATM    2  C2  UNL     1     -34.038   6.427   6.097  1.00 20.00     0.020 C 
HETATM    3  C3  UNL     1     -32.912   7.125   5.331  1.00 20.00     0.017 C 
HETATM    4  C4  UNL     1     -34.399   6.252   3.690  1.00 20.00     0.035 C 
HETATM    5  C5  UNL     1     -34.956   5.789   5.041  1.00 20.00     0.094 C 
HETATM    6  C6  UNL     1     -32.920   6.464   3.966  1.00 20.00     0.059 C 
HETATM    7  N7  UNL     1     -34.926   3.163   5.227  1.00 20.00    -0.197 NA
HETATM    8 BR8  UNL     1     -32.100   7.587   2.624  1.00 20.00    -0.091 Br
ENDROOT
TORSDOF 0
ENDMDL
MODEL 9
REMARK VINA RESULT:      -3.5      2.575      3.143
REMARK  0 active torsions:
REMARK  status: ('A' for Active; 'I' for Inactive)
ROOT
HETATM    1  C1  UNL     1     -36.760  14.384  -3.978  1.00 20.00     0.064 C 
HETATM    2  C2  UNL     1     -34.972  14.039  -5.664  1.00 20.00     0.020 C 
HETATM    3  C3  UNL     1     -34.376  15.282  -6.327  1.00 20.00     0.017 C 
HETATM    4  C4  UNL     1     -34.770  15.859  -4.052  1.00 20.00     0.035 C 
HETATM    5  C5  UNL     1     -35.307  14.433  -4.216  1.00 20.00     0.094 C 
HETATM    6  C6  UNL     1     -34.843  16.433  -5.457  1.00 20.00     0.059 C 
HETATM    7  N7  UNL     1     -37.904  14.345  -3.791  1.00 20.00    -0.197 NA
HETATM    8 BR8  UNL     1     -33.705  17.983  -5.651  1.00 20.00    -0.091 Br
ENDROOT
TORSDOF 0
ENDMDL
