MODEL 1
REMARK VINA RESULT:      -4.0      0.000      0.000
REMARK  2 active torsions:
REMARK  status: ('A' for Active; 'I' for Inactive)
REMARK    1  A    between atoms: C4_4  and  C5_5 
REMARK    2  A    between atoms: C4_4  and  C6_6 
ROOT
HETATM    1  C1  UNL     1     -32.185   7.932   2.313  1.00 20.00     0.063 C 
HETATM    2  C2  UNL     1     -32.134   5.494   2.602  1.00 20.00     0.025 C 
HETATM    3  C5  UNL     1     -32.290   6.845   3.305  1.00 20.00     0.090 C 
HETATM    4  N7  UNL     1     -32.100   8.787   1.533  1.00 20.00    -0.197 NA
ENDROOT
BRANCH   3   5
HETATM    5  C4  UNL     1     -33.638   6.898   4.052  1.00 20.00     0.034 C 
BRANCH   5   6
HETATM    6  C6  UNL     1     -33.786   5.886   5.197  1.00 20.00     0.055 C 
HETATM    7  C3  UNL     1     -34.101   6.577   6.516  1.00 20.00     0.022 C 
HETATM    8 BR8  UNL     1     -35.250   4.639   4.811  1.00 20.00    -0.092 Br
ENDBRANCH   5   6
ENDBRANCH   3   5
TORSDOF 2
ENDMDL
MODEL 2
REMARK VINA RESULT:      -3.9     11.078     11.594
REMARK  2 active torsions:
REMARK  status: ('A' for Active; 'I' for Inactive)
REMARK    1  A    between atoms: C4_4  and  C5_5 
REMARK    2  A    between atoms: C4_4  and  C6_6 
ROOT
HETATM    1  C1  UNL     1     -34.536  13.665  -4.234  1.00 20.00     0.063 C 
HETATM    2  C2  UNL     1     -32.429  14.722  -3.549  1.00 20.00     0.025 C 
HETATM    3  C5  UNL     1     -33.915  14.944  -3.844  1.00 20.00     0.090 C 
HETATM    4  N7  UNL     1     -35.024  12.658  -4.544  1.00 20.00    -0.197 NA
ENDROOT
BRANCH   3   5
HETATM    5  C4  UNL     1     -34.614  15.551  -2.609  1.00 20.00     0.034 C 
BRANCH   5   6
HETATM    6  C6  UNL     1     -33.887  16.745  -1.975  1.00 20.00     0.055 C 
HETATM    7  C3  UNL     1     -33.960  17.978  -2.865  1.00 20.00     0.022 C 
HETATM    8 BR8  UNL     1     -34.711  17.200  -0.254  1.00 20.00    -0.092 Br
ENDBRANCH   5   6
ENDBRANCH   3   5
TORSDOF 2
ENDMDL
MODEL 3
REMARK VINA RESULT:      -3.8     11.322     12.704
REMARK  2 active torsions:
REMARK  status: ('A' for Active; 'I' for Inactive)
REMARK    1  A    between atoms: C4_4  and  C5_5 
REMARK    2  A    between atoms: C4_4  and  C6_6 
ROOT
HETATM    1  C1  UNL     1     -34.435  13.741  -3.832  1.00 20.00     0.063 C 
HETATM    2  C2  UNL     1     -34.806  15.743  -2.460  1.00 20.00     0.025 C 
HETATM    3  C5  UNL     1     -33.777  14.922  -3.242  1.00 20.00     0.090 C 
HETATM    4  N7  UNL     1     -34.953  12.811  -4.294  1.00 20.00    -0.197 NA
ENDROOT
BRANCH   3   5
HETATM    5  C4  UNL     1     -33.120  15.797  -4.330  1.00 20.00     0.034 C 
BRANCH   5   6
HETATM    6  C6  UNL     1     -34.100  16.597  -5.198  1.00 20.00     0.055 C 
HETATM    7  C3  UNL     1     -33.584  18.003  -5.472  1.00 20.00     0.022 C 
HETATM    8 BR8  UNL     1     -34.352  15.706  -6.928  1.00 20.00    -0.092 Br
ENDBRANCH   5   6
ENDBRANCH   3   5
TORSDOF 2
ENDMDL
MODEL 4
REMARK VINA RESULT:      -3.8      1.434      1.618
REMARK  2 active torsions:
REMARK  status: ('A' for Active; 'I' for Inactive)
REMARK    1  A    between atoms: C4_4  and  C5_5 
REMARK    2  A    between atoms: C4_4  and  C6_6 
ROOT
HETATM    1  C1  UNL     1     -32.485   7.551   2.720  1.00 20.00     0.063 C 
HETATM    2  C2  UNL     1     -31.957   5.188   3.125  1.00 20.00     0.025 C 
HETATM    3  C5  UNL     1     -32.803   6.385   3.565  1.00 20.00     0.090 C 
HETATM    4  N7  UNL     1     -32.232   8.469   2.056  1.00 20.00    -0.197 NA
ENDROOT
BRANCH   3   5
HETATM    5  C4  UNL     1     -34.303   6.030   3.485  1.00 20.00     0.034 C 
BRANCH   5   6
HETATM    6  C6  UNL     1     -34.948   5.638   4.822  1.00 20.00     0.055 C 
HETATM    7  C3  UNL     1     -34.959   4.128   5.015  1.00 20.00     0.022 C 
HETATM    8 BR8  UNL     1     -33.942   6.423   6.312  1.00 20.00    -0.092 Br
ENDBRANCH   5   6
ENDBRANCH   3   5
TORSDOF 2
ENDMDL
MODEL 5
REMARK VINA RESULT:      -3.8     11.152     11.895
REMARK  2 active torsions:
REMARK  status: ('A' for Active; 'I' for Inactive)
REMARK    1  A    between atoms: C4_4  and  C5_5 
REMARK    2  A    between atoms: C4_4  and  C6_6 
ROOT
HETATM    1  C1  UNL     1     -36.650  14.441  -4.034  1.00 20.00     0.063 C 
HETATM    2  C2  UNL     1     -34.807  13.461  -5.325  1.00 20.00     0.025 C 
HETATM    3  C5  UNL     1     -35.229  14.602  -4.396  1.00 20.00     0.090 C 
HETATM    4  N7  UNL     1     -37.769  14.315  -3.750  1.00 20.00    -0.197 NA
ENDROOT
BRANCH   3   5
HETATM    5  C4  UNL     1     -34.331  14.622  -3.142  1.00 20.00     0.034 C 
BRANCH   5   6
HETATM    6  C6  UNL     1     -33.731  15.992  -2.797  1.00 20.00     0.055 C 
HETATM    7  C3  UNL     1     -33.963  17.000  -3.914  1.00 20.00     0.022 C 
HETATM    8 BR8  UNL     1     -34.564  16.703  -1.169  1.00 20.00    -0.092 Br
ENDBRANCH   5   6
ENDBRANCH   3   5
TORSDOF 2
ENDMDL
MODEL 6
REMARK VINA RESULT:      -3.7     11.520     12.597
REMARK  2 active torsions:
REMARK  status: ('A' for Active; 'I' for Inactive)
REMARK    1  A    between atoms: C4_4  and  C5_5 
REMARK    2  A    between atoms: C4_4  and  C6_6 
ROOT
HETATM    1  C1  UNL     1     -34.648  13.819  -4.872  1.00 20.00     0.063 C 
HETATM    2  C2  UNL     1     -34.221  15.277  -6.801  1.00 20.00     0.025 C 
HETATM    3  C5  UNL     1     -34.467  15.222  -5.291  1.00 20.00     0.090 C 
HETATM    4  N7  UNL     1     -34.793  12.715  -4.543  1.00 20.00    -0.197 NA
ENDROOT
BRANCH   3   5
HETATM    5  C4  UNL     1     -33.293  15.882  -4.540  1.00 20.00     0.034 C 
BRANCH   5   6
HETATM    6  C6  UNL     1     -33.691  17.013  -3.581  1.00 20.00     0.055 C 
HETATM    7  C3  UNL     1     -34.758  17.912  -4.190  1.00 20.00     0.022 C 
HETATM    8 BR8  UNL     1     -34.419  16.264  -1.920  1.00 20.00    -0.092 Br
ENDBRANCH   5   6
ENDBRANCH   3   5
TORSDOF 2
ENDMDL
MODEL 7
REMARK VINA RESULT:      -3.6      3.173      4.455
REMARK  2 active torsions:
REMARK  status: ('A' for Active; 'I' for Inactive)
REMARK    1  A    between atoms: C4_4  and  C5_5 
REMARK    2  A    between atoms: C4_4  and  C6_6 
ROOT
HETATM    1  C1  UNL     1     -34.628   4.699   5.242  1.00 20.00     0.063 C 
HETATM    2  C2  UNL     1     -34.114   6.700   6.569  1.00 20.00     0.025 C 
HETATM    3  C5  UNL     1     -33.699   5.836   5.374  1.00 20.00     0.090 C 
HETATM    4  N7  UNL     1     -35.358   3.802   5.140  1.00 20.00    -0.197 NA
ENDROOT
BRANCH   3   5
HETATM    5  C4  UNL     1     -33.673   6.689   4.089  1.00 20.00     0.034 C 
BRANCH   5   6
HETATM    6  C6  UNL     1     -32.348   6.656   3.316  1.00 20.00     0.055 C 
HETATM    7  C3  UNL     1     -32.248   5.420   2.432  1.00 20.00     0.022 C 
HETATM    8 BR8  UNL     1     -32.203   8.232   2.156  1.00 20.00    -0.092 Br
ENDBRANCH   5   6
ENDBRANCH   3   5
TORSDOF 2
ENDMDL
MODEL 8
REMARK VINA RESULT:      -3.6      2.949      4.068
REMARK  2 active torsions:
REMARK  status: ('A' for Active; 'I' for Inactive)
REMARK    1  A    between atoms: C4_4  and  C5_5 
REMARK    2  A    between atoms: C4_4  and  C6_6 
ROOT
HETATM    1  C1  UNL     1     -34.014   6.497   6.353  1.00 20.00     0.063 C 
HETATM    2  C2  UNL     1     -34.461   4.137   5.846  1.00 20.00     0.025 C 
HETATM    3  C5  UNL     1     -34.910   5.583   5.620  1.00 20.00     0.090 C 
HETATM    4  N7  UNL     1     -33.310   7.216   6.932  1.00 20.00    -0.197 NA
ENDROOT
BRANCH   3   5
HETATM    5  C4  UNL     1     -34.922   5.903   4.111  1.00 20.00     0.034 C 
BRANCH   5   6
HETATM    6  C6  UNL     1     -33.669   5.456   3.345  1.00 20.00     0.055 C 
HETATM    7  C3  UNL     1     -34.021   4.923   1.963  1.00 20.00     0.022 C 
HETATM    8 BR8  UNL     1     -32.447   6.972   3.107  1.00 20.00    -0.092 Br
ENDBRANCH   5   6
ENDBRANCH   3   5
TORSDOF 2
ENDMDL
MODEL 9
REMARK VINA RESULT:      -3.5     11.428     11.842
REMARK  2 active torsions:
REMARK  status: ('A' for Active; 'I' for Inactive)
REMARK    1  A    between atoms: C4_4  and  C5_5 
REMARK    2  A    between atoms: C4_4  and  C6_6 
ROOT
HETATM    1  C1  UNL     1     -34.759  13.962  -4.332  1.00 20.00     0.063 C 
HETATM    2  C2  UNL     1     -33.584  15.860  -5.353  1.00 20.00     0.025 C 
HETATM    3  C5  UNL     1     -34.558  15.421  -4.257  1.00 20.00     0.090 C 
HETATM    4  N7  UNL     1     -34.918  12.814  -4.393  1.00 20.00    -0.197 NA
ENDROOT
BRANCH   3   5
HETATM    5  C4  UNL     1     -34.020  15.840  -2.873  1.00 20.00     0.034 C 
BRANCH   5   6
HETATM    6  C6  UNL     1     -35.095  16.237  -1.852  1.00 20.00     0.055 C 
HETATM    7  C3  UNL     1     -34.481  16.872  -0.612  1.00 20.00     0.022 C 
HETATM    8 BR8  UNL     1     -36.327  17.544  -2.644  1.00 20.00    -0.092 Br
ENDBRANCH   5   6
ENDBRANCH   3   5
TORSDOF 2
ENDMDL
