MODEL 1
REMARK VINA RESULT:      -4.1      0.000      0.000
REMARK  2 active torsions:
REMARK  status: ('A' for Active; 'I' for Inactive)
REMARK    1  A    between atoms: C4_4  and  C5_5 
REMARK    2  A    between atoms: C4_4  and  C6_6 
ROOT
HETATM    1  C1  UNL     1     -32.110   8.053   1.970  1.00 20.00     0.063 C 
HETATM    2  C2  UNL     1     -31.304   7.586   4.242  1.00 20.00     0.025 C 
HETATM    3  C5  UNL     1     -32.180   7.093   3.088  1.00 20.00     0.090 C 
HETATM    4  N7  UNL     1     -32.054   8.807   1.090  1.00 20.00    -0.197 NA
ENDROOT
BRANCH   3   5
HETATM    5  C4  UNL     1     -33.633   6.904   3.572  1.00 20.00     0.038 C 
BRANCH   5   6
HETATM    6  C6  UNL     1     -33.830   5.807   4.633  1.00 20.00     0.079 C 
HETATM    7  C3  UNL     1     -35.077   4.980   4.336  1.00 20.00     0.026 C 
HETATM    8 CL8  UNL     1     -33.983   6.514   6.269  1.00 20.00    -0.125 Cl
ENDBRANCH   5   6
ENDBRANCH   3   5
TORSDOF 2
ENDMDL
MODEL 2
REMARK VINA RESULT:      -4.0     10.810     11.387
REMARK  2 active torsions:
REMARK  status: ('A' for Active; 'I' for Inactive)
REMARK    1  A    between atoms: C4_4  and  C5_5 
REMARK    2  A    between atoms: C4_4  and  C6_6 
ROOT
HETATM    1  C1  UNL     1     -34.350  13.833  -3.820  1.00 20.00     0.063 C 
HETATM    2  C2  UNL     1     -33.206  15.892  -4.512  1.00 20.00     0.025 C 
HETATM    3  C5  UNL     1     -33.691  15.056  -3.325  1.00 20.00     0.090 C 
HETATM    4  N7  UNL     1     -34.868  12.870  -4.208  1.00 20.00    -0.197 NA
ENDROOT
BRANCH   3   5
HETATM    5  C4  UNL     1     -34.647  15.891  -2.447  1.00 20.00     0.038 C 
BRANCH   5   6
HETATM    6  C6  UNL     1     -33.957  16.849  -1.460  1.00 20.00     0.079 C 
HETATM    7  C3  UNL     1     -34.786  17.013  -0.190  1.00 20.00     0.026 C 
HETATM    8 CL8  UNL     1     -33.707  18.460  -2.197  1.00 20.00    -0.125 Cl
ENDBRANCH   5   6
ENDBRANCH   3   5
TORSDOF 2
ENDMDL
MODEL 3
REMARK VINA RESULT:      -3.8      1.648      2.269
REMARK  2 active torsions:
REMARK  status: ('A' for Active; 'I' for Inactive)
REMARK    1  A    between atoms: C4_4  and  C5_5 
REMARK    2  A    between atoms: C4_4  and  C6_6 
ROOT
HETATM    1  C1  UNL     1     -32.701   6.779   3.280  1.00 20.00     0.063 C 
HETATM    2  C2  UNL     1     -33.704   4.816   2.200  1.00 20.00     0.025 C 
HETATM    3  C5  UNL     1     -33.979   6.155   2.888  1.00 20.00     0.090 C 
HETATM    4  N7  UNL     1     -31.696   7.272   3.587  1.00 20.00    -0.197 NA
ENDROOT
BRANCH   3   5
HETATM    5  C4  UNL     1     -34.896   5.943   4.110  1.00 20.00     0.038 C 
BRANCH   5   6
HETATM    6  C6  UNL     1     -34.196   5.387   5.363  1.00 20.00     0.079 C 
HETATM    7  C3  UNL     1     -34.989   4.231   5.963  1.00 20.00     0.026 C 
HETATM    8 CL8  UNL     1     -34.000   6.659   6.606  1.00 20.00    -0.125 Cl
ENDBRANCH   5   6
ENDBRANCH   3   5
TORSDOF 2
ENDMDL
MODEL 4
REMARK VINA RESULT:      -3.8      3.101      4.237
REMARK  2 active torsions:
REMARK  status: ('A' for Active; 'I' for Inactive)
REMARK    1  A    between atoms: C4_4  and  C5_5 
REMARK    2  A    between atoms: C4_4  and  C6_6 
ROOT
HETATM    1  C1  UNL     1     -34.854   4.721   5.196  1.00 20.00     0.063 C 
HETATM    2  C2  UNL     1     -33.652   6.593   6.234  1.00 20.00     0.025 C 
HETATM    3  C5  UNL     1     -34.651   6.181   5.150  1.00 20.00     0.090 C 
HETATM    4  N7  UNL     1     -35.015   3.572   5.231  1.00 20.00    -0.197 NA
ENDROOT
BRANCH   3   5
HETATM    5  C4  UNL     1     -34.143   6.632   3.765  1.00 20.00     0.038 C 
BRANCH   5   6
HETATM    6  C6  UNL     1     -32.612   6.682   3.616  1.00 20.00     0.079 C 
HETATM    7  C3  UNL     1     -32.191   7.819   2.691  1.00 20.00     0.026 C 
HETATM    8 CL8  UNL     1     -31.981   5.141   2.960  1.00 20.00    -0.125 Cl
ENDBRANCH   5   6
ENDBRANCH   3   5
TORSDOF 2
ENDMDL
MODEL 5
REMARK VINA RESULT:      -3.7     10.780     11.596
REMARK  2 active torsions:
REMARK  status: ('A' for Active; 'I' for Inactive)
REMARK    1  A    between atoms: C4_4  and  C5_5 
REMARK    2  A    between atoms: C4_4  and  C6_6 
ROOT
HETATM    1  C1  UNL     1     -36.513  14.162  -4.004  1.00 20.00     0.063 C 
HETATM    2  C2  UNL     1     -34.742  14.217  -5.704  1.00 20.00     0.025 C 
HETATM    3  C5  UNL     1     -35.091  13.860  -4.257  1.00 20.00     0.090 C 
HETATM    4  N7  UNL     1     -37.631  14.398  -3.805  1.00 20.00    -0.197 NA
ENDROOT
BRANCH   3   5
HETATM    5  C4  UNL     1     -34.174  14.633  -3.287  1.00 20.00     0.038 C 
BRANCH   5   6
HETATM    6  C6  UNL     1     -34.639  16.061  -2.947  1.00 20.00     0.079 C 
HETATM    7  C3  UNL     1     -33.729  17.099  -3.594  1.00 20.00     0.026 C 
HETATM    8 CL8  UNL     1     -34.652  16.328  -1.177  1.00 20.00    -0.125 Cl
ENDBRANCH   5   6
ENDBRANCH   3   5
TORSDOF 2
ENDMDL
MODEL 6
REMARK VINA RESULT:      -3.7     10.861     11.455
REMARK  2 active torsions:
REMARK  status: ('A' for Active; 'I' for Inactive)
REMARK    1  A    between atoms: C4_4  and  C5_5 
REMARK    2  A    between atoms: C4_4  and  C6_6 
ROOT
HETATM    1  C1  UNL     1     -35.024  14.012  -5.421  1.00 20.00     0.063 C 
HETATM    2  C2  UNL     1     -33.297  13.645  -3.714  1.00 20.00     0.025 C 
HETATM    3  C5  UNL     1     -34.789  13.870  -3.972  1.00 20.00     0.090 C 
HETATM    4  N7  UNL     1     -35.209  14.122  -6.561  1.00 20.00    -0.197 NA
ENDROOT
BRANCH   3   5
HETATM    5  C4  UNL     1     -35.277  15.115  -3.202  1.00 20.00     0.038 C 
BRANCH   5   6
HETATM    6  C6  UNL     1     -34.165  15.954  -2.547  1.00 20.00     0.079 C 
HETATM    7  C3  UNL     1     -34.607  16.474  -1.183  1.00 20.00     0.026 C 
HETATM    8 CL8  UNL     1     -33.718  17.345  -3.578  1.00 20.00    -0.125 Cl
ENDBRANCH   5   6
ENDBRANCH   3   5
TORSDOF 2
ENDMDL
MODEL 7
REMARK VINA RESULT:      -3.7     10.721     11.469
REMARK  2 active torsions:
REMARK  status: ('A' for Active; 'I' for Inactive)
REMARK    1  A    between atoms: C4_4  and  C5_5 
REMARK    2  A    between atoms: C4_4  and  C6_6 
ROOT
HETATM    1  C1  UNL     1     -35.127  13.727  -4.296  1.00 20.00     0.063 C 
HETATM    2  C2  UNL     1     -36.982  15.131  -3.510  1.00 20.00     0.025 C 
HETATM    3  C5  UNL     1     -35.481  15.073  -3.807  1.00 20.00     0.090 C 
HETATM    4  N7  UNL     1     -34.848  12.669  -4.683  1.00 20.00    -0.197 NA
ENDROOT
BRANCH   3   5
HETATM    5  C4  UNL     1     -34.679  15.437  -2.540  1.00 20.00     0.038 C 
BRANCH   5   6
HETATM    6  C6  UNL     1     -34.911  16.862  -2.007  1.00 20.00     0.079 C 
HETATM    7  C3  UNL     1     -33.895  17.836  -2.595  1.00 20.00     0.026 C 
HETATM    8 CL8  UNL     1     -34.789  16.907  -0.223  1.00 20.00    -0.125 Cl
ENDBRANCH   5   6
ENDBRANCH   3   5
TORSDOF 2
ENDMDL
MODEL 8
REMARK VINA RESULT:      -3.6      3.020      4.291
REMARK  2 active torsions:
REMARK  status: ('A' for Active; 'I' for Inactive)
REMARK    1  A    between atoms: C4_4  and  C5_5 
REMARK    2  A    between atoms: C4_4  and  C6_6 
ROOT
HETATM    1  C1  UNL     1     -33.960   6.297   5.600  1.00 20.00     0.063 C 
HETATM    2  C2  UNL     1     -35.183   5.181   3.787  1.00 20.00     0.025 C 
HETATM    3  C5  UNL     1     -33.877   5.870   4.190  1.00 20.00     0.090 C 
HETATM    4  N7  UNL     1     -34.024   6.632   6.709  1.00 20.00    -0.197 NA
ENDROOT
BRANCH   3   5
HETATM    5  C4  UNL     1     -33.603   7.068   3.258  1.00 20.00     0.038 C 
BRANCH   5   6
HETATM    6  C6  UNL     1     -32.142   7.216   2.797  1.00 20.00     0.079 C 
HETATM    7  C3  UNL     1     -31.249   7.658   3.951  1.00 20.00     0.026 C 
HETATM    8 CL8  UNL     1     -32.005   8.410   1.471  1.00 20.00    -0.125 Cl
ENDBRANCH   5   6
ENDBRANCH   3   5
TORSDOF 2
ENDMDL
MODEL 9
REMARK VINA RESULT:      -3.6     11.262     12.583
REMARK  2 active torsions:
REMARK  status: ('A' for Active; 'I' for Inactive)
REMARK    1  A    between atoms: C4_4  and  C5_5 
REMARK    2  A    between atoms: C4_4  and  C6_6 
ROOT
HETATM    1  C1  UNL     1     -35.210  13.846  -4.012  1.00 20.00     0.063 C 
HETATM    2  C2  UNL     1     -34.645  15.642  -2.435  1.00 20.00     0.025 C 
HETATM    3  C5  UNL     1     -35.567  15.211  -3.579  1.00 20.00     0.090 C 
HETATM    4  N7  UNL     1     -34.931  12.773  -4.352  1.00 20.00    -0.197 NA
ENDROOT
BRANCH   3   5
HETATM    5  C4  UNL     1     -35.463  16.213  -4.747  1.00 20.00     0.038 C 
BRANCH   5   6
HETATM    6  C6  UNL     1     -34.086  16.277  -5.432  1.00 20.00     0.079 C 
HETATM    7  C3  UNL     1     -33.619  17.721  -5.582  1.00 20.00     0.026 C 
HETATM    8 CL8  UNL     1     -34.137  15.516  -7.050  1.00 20.00    -0.125 Cl
ENDBRANCH   5   6
ENDBRANCH   3   5
TORSDOF 2
ENDMDL
