MODEL 1
REMARK VINA RESULT:      -5.0      0.000      0.000
REMARK  3 active torsions:
REMARK  status: ('A' for Active; 'I' for Inactive)
REMARK    1  A    between atoms: C4_4  and  C5_5 
REMARK    2  A    between atoms: C5_5  and  C7_7 
REMARK    3  A    between atoms: C6_6  and  C7_7 
ROOT
HETATM    1  C1  UNL     1     -32.064   8.017   2.073  1.00 20.00     0.059 C 
HETATM    2  C4  UNL     1     -32.167   6.880   2.999  1.00 20.00     0.125 C 
HETATM    3  N8  UNL     1     -31.982   8.914   1.341  1.00 20.00    -0.197 NA
ENDROOT
BRANCH   2   4
HETATM    4  C5  UNL     1     -33.427   6.992   3.864  1.00 20.00     0.034 C 
BRANCH   4   5
HETATM    5  C7  UNL     1     -34.079   5.629   4.165  1.00 20.00     0.086 C 
HETATM    6 CL9  UNL     1     -35.748   5.581   3.507  1.00 20.00    -0.125 Cl
BRANCH   5   7
HETATM    7  C6  UNL     1     -34.053   5.278   5.674  1.00 20.00    -0.004 C 
HETATM    8  C2  UNL     1     -34.054   6.535   6.552  1.00 20.00     0.011 C 
HETATM    9  C3  UNL     1     -35.176   4.335   6.119  1.00 20.00     0.011 C 
ENDBRANCH   5   7
ENDBRANCH   4   5
ENDBRANCH   2   4
TORSDOF 3
ENDMDL
MODEL 2
REMARK VINA RESULT:      -4.9      0.717      1.371
REMARK  3 active torsions:
REMARK  status: ('A' for Active; 'I' for Inactive)
REMARK    1  A    between atoms: C4_4  and  C5_5 
REMARK    2  A    between atoms: C5_5  and  C7_7 
REMARK    3  A    between atoms: C6_6  and  C7_7 
ROOT
HETATM    1  C1  UNL     1     -32.091   8.379   1.911  1.00 20.00     0.059 C 
HETATM    2  C4  UNL     1     -31.937   7.237   2.824  1.00 20.00     0.125 C 
HETATM    3  N8  UNL     1     -32.212   9.281   1.190  1.00 20.00    -0.197 NA
ENDROOT
BRANCH   2   4
HETATM    4  C5  UNL     1     -33.095   7.178   3.826  1.00 20.00     0.034 C 
BRANCH   4   5
HETATM    5  C7  UNL     1     -33.627   5.750   4.055  1.00 20.00     0.086 C 
HETATM    6 CL9  UNL     1     -34.436   5.144   2.572  1.00 20.00    -0.125 Cl
BRANCH   5   7
HETATM    7  C6  UNL     1     -34.558   5.653   5.290  1.00 20.00    -0.004 C 
HETATM    8  C2  UNL     1     -34.821   4.197   5.691  1.00 20.00     0.011 C 
HETATM    9  C3  UNL     1     -34.073   6.447   6.507  1.00 20.00     0.011 C 
ENDBRANCH   5   7
ENDBRANCH   4   5
ENDBRANCH   2   4
TORSDOF 3
ENDMDL
MODEL 3
REMARK VINA RESULT:      -4.7      1.600      1.908
REMARK  3 active torsions:
REMARK  status: ('A' for Active; 'I' for Inactive)
REMARK    1  A    between atoms: C4_4  and  C5_5 
REMARK    2  A    between atoms: C5_5  and  C7_7 
REMARK    3  A    between atoms: C6_6  and  C7_7 
ROOT
HETATM    1  C1  UNL     1     -31.957   8.224   2.193  1.00 20.00     0.059 C 
HETATM    2  C4  UNL     1     -31.716   7.561   3.483  1.00 20.00     0.125 C 
HETATM    3  N8  UNL     1     -32.147   8.747   1.174  1.00 20.00    -0.197 NA
ENDROOT
BRANCH   2   4
HETATM    4  C5  UNL     1     -32.541   6.275   3.601  1.00 20.00     0.034 C 
BRANCH   4   5
HETATM    5  C7  UNL     1     -33.785   6.433   4.495  1.00 20.00     0.086 C 
HETATM    6 CL9  UNL     1     -33.296   6.807   6.181  1.00 20.00    -0.125 Cl
BRANCH   5   7
HETATM    7  C6  UNL     1     -34.720   5.197   4.436  1.00 20.00    -0.004 C 
HETATM    8  C2  UNL     1     -34.990   4.622   5.831  1.00 20.00     0.011 C 
HETATM    9  C3  UNL     1     -36.046   5.447   3.712  1.00 20.00     0.011 C 
ENDBRANCH   5   7
ENDBRANCH   4   5
ENDBRANCH   2   4
TORSDOF 3
ENDMDL
MODEL 4
REMARK VINA RESULT:      -4.2     11.212     11.864
REMARK  3 active torsions:
REMARK  status: ('A' for Active; 'I' for Inactive)
REMARK    1  A    between atoms: C4_4  and  C5_5 
REMARK    2  A    between atoms: C5_5  and  C7_7 
REMARK    3  A    between atoms: C6_6  and  C7_7 
ROOT
HETATM    1  C1  UNL     1     -34.049  13.511  -4.099  1.00 20.00     0.059 C 
HETATM    2  C4  UNL     1     -32.957  14.400  -3.680  1.00 20.00     0.125 C 
HETATM    3  N8  UNL     1     -34.912  12.809  -4.431  1.00 20.00    -0.197 NA
ENDROOT
BRANCH   2   4
HETATM    4  C5  UNL     1     -33.464  15.832  -3.476  1.00 20.00     0.034 C 
BRANCH   4   5
HETATM    5  C7  UNL     1     -34.434  15.969  -2.288  1.00 20.00     0.086 C 
HETATM    6 CL9  UNL     1     -36.081  16.378  -2.875  1.00 20.00    -0.125 Cl
BRANCH   5   7
HETATM    7  C6  UNL     1     -33.939  16.987  -1.229  1.00 20.00    -0.004 C 
HETATM    8  C2  UNL     1     -33.644  18.357  -1.852  1.00 20.00     0.011 C 
HETATM    9  C3  UNL     1     -34.879  17.154  -0.031  1.00 20.00     0.011 C 
ENDBRANCH   5   7
ENDBRANCH   4   5
ENDBRANCH   2   4
TORSDOF 3
ENDMDL
MODEL 5
REMARK VINA RESULT:      -4.0     11.663     12.353
REMARK  3 active torsions:
REMARK  status: ('A' for Active; 'I' for Inactive)
REMARK    1  A    between atoms: C4_4  and  C5_5 
REMARK    2  A    between atoms: C5_5  and  C7_7 
REMARK    3  A    between atoms: C6_6  and  C7_7 
ROOT
HETATM    1  C1  UNL     1     -36.331  14.049  -4.030  1.00 20.00     0.059 C 
HETATM    2  C4  UNL     1     -34.935  13.664  -4.281  1.00 20.00     0.125 C 
HETATM    3  N8  UNL     1     -37.434  14.352  -3.832  1.00 20.00    -0.197 NA
ENDROOT
BRANCH   2   4
HETATM    4  C5  UNL     1     -33.977  14.467  -3.393  1.00 20.00     0.034 C 
BRANCH   4   5
HETATM    5  C7  UNL     1     -34.136  15.990  -3.553  1.00 20.00     0.086 C 
HETATM    6 CL9  UNL     1     -33.180  16.570  -4.957  1.00 20.00    -0.125 Cl
BRANCH   5   7
HETATM    7  C6  UNL     1     -33.772  16.765  -2.260  1.00 20.00    -0.004 C 
HETATM    8  C2  UNL     1     -33.711  18.278  -2.501  1.00 20.00     0.011 C 
HETATM    9  C3  UNL     1     -34.690  16.466  -1.070  1.00 20.00     0.011 C 
ENDBRANCH   5   7
ENDBRANCH   4   5
ENDBRANCH   2   4
TORSDOF 3
ENDMDL
MODEL 6
REMARK VINA RESULT:      -3.9     11.803     12.205
REMARK  3 active torsions:
REMARK  status: ('A' for Active; 'I' for Inactive)
REMARK    1  A    between atoms: C4_4  and  C5_5 
REMARK    2  A    between atoms: C5_5  and  C7_7 
REMARK    3  A    between atoms: C6_6  and  C7_7 
ROOT
HETATM    1  C1  UNL     1     -35.285  13.597  -4.750  1.00 20.00     0.059 C 
HETATM    2  C4  UNL     1     -36.236  14.714  -4.844  1.00 20.00     0.125 C 
HETATM    3  N8  UNL     1     -34.533  12.716  -4.676  1.00 20.00    -0.197 NA
ENDROOT
BRANCH   2   4
HETATM    4  C5  UNL     1     -36.728  15.133  -3.454  1.00 20.00     0.034 C 
BRANCH   4   5
HETATM    5  C7  UNL     1     -35.996  16.368  -2.898  1.00 20.00     0.086 C 
HETATM    6 CL9  UNL     1     -35.527  17.467  -4.237  1.00 20.00    -0.125 Cl
BRANCH   5   7
HETATM    7  C6  UNL     1     -34.775  15.990  -2.020  1.00 20.00    -0.004 C 
HETATM    8  C2  UNL     1     -33.455  16.138  -2.786  1.00 20.00     0.011 C 
HETATM    9  C3  UNL     1     -34.695  16.754  -0.695  1.00 20.00     0.011 C 
ENDBRANCH   5   7
ENDBRANCH   4   5
ENDBRANCH   2   4
TORSDOF 3
ENDMDL
MODEL 7
REMARK VINA RESULT:      -3.9     11.266     12.463
REMARK  3 active torsions:
REMARK  status: ('A' for Active; 'I' for Inactive)
REMARK    1  A    between atoms: C4_4  and  C5_5 
REMARK    2  A    between atoms: C5_5  and  C7_7 
REMARK    3  A    between atoms: C6_6  and  C7_7 
ROOT
HETATM    1  C1  UNL     1     -37.751  15.378  -3.580  1.00 20.00     0.059 C 
HETATM    2  C4  UNL     1     -37.306  16.756  -3.331  1.00 20.00     0.125 C 
HETATM    3  N8  UNL     1     -38.104  14.289  -3.777  1.00 20.00    -0.197 NA
ENDROOT
BRANCH   2   4
HETATM    4  C5  UNL     1     -35.776  16.849  -3.350  1.00 20.00     0.034 C 
BRANCH   4   5
HETATM    5  C7  UNL     1     -35.093  15.790  -2.465  1.00 20.00     0.086 C 
HETATM    6 CL9  UNL     1     -34.585  16.517  -0.904  1.00 20.00    -0.125 Cl
BRANCH   5   7
HETATM    7  C6  UNL     1     -33.907  15.093  -3.179  1.00 20.00    -0.004 C 
HETATM    8  C2  UNL     1     -34.315  13.739  -3.772  1.00 20.00     0.011 C 
HETATM    9  C3  UNL     1     -33.233  15.949  -4.257  1.00 20.00     0.011 C 
ENDBRANCH   5   7
ENDBRANCH   4   5
ENDBRANCH   2   4
TORSDOF 3
ENDMDL
MODEL 8
REMARK VINA RESULT:      -3.9     11.392     12.698
REMARK  3 active torsions:
REMARK  status: ('A' for Active; 'I' for Inactive)
REMARK    1  A    between atoms: C4_4  and  C5_5 
REMARK    2  A    between atoms: C5_5  and  C7_7 
REMARK    3  A    between atoms: C6_6  and  C7_7 
ROOT
HETATM    1  C1  UNL     1     -35.527  13.562  -4.262  1.00 20.00     0.059 C 
HETATM    2  C4  UNL     1     -36.559  14.530  -3.862  1.00 20.00     0.125 C 
HETATM    3  N8  UNL     1     -34.713  12.796  -4.577  1.00 20.00    -0.197 NA
ENDROOT
BRANCH   2   4
HETATM    4  C5  UNL     1     -35.952  15.922  -3.657  1.00 20.00     0.034 C 
BRANCH   4   5
HETATM    5  C7  UNL     1     -34.563  15.887  -2.994  1.00 20.00     0.086 C 
HETATM    6 CL9  UNL     1     -34.697  16.286  -1.249  1.00 20.00    -0.125 Cl
BRANCH   5   7
HETATM    7  C6  UNL     1     -33.539  16.806  -3.709  1.00 20.00    -0.004 C 
HETATM    8  C2  UNL     1     -33.349  16.411  -5.178  1.00 20.00     0.011 C 
HETATM    9  C3  UNL     1     -33.861  18.300  -3.611  1.00 20.00     0.011 C 
ENDBRANCH   5   7
ENDBRANCH   4   5
ENDBRANCH   2   4
TORSDOF 3
ENDMDL
MODEL 9
REMARK VINA RESULT:      -3.8     11.889     12.711
REMARK  3 active torsions:
REMARK  status: ('A' for Active; 'I' for Inactive)
REMARK    1  A    between atoms: C4_4  and  C5_5 
REMARK    2  A    between atoms: C5_5  and  C7_7 
REMARK    3  A    between atoms: C6_6  and  C7_7 
ROOT
HETATM    1  C1  UNL     1     -34.685  16.557  -1.118  1.00 20.00     0.059 C 
HETATM    2  C4  UNL     1     -34.802  15.898  -2.427  1.00 20.00     0.125 C 
HETATM    3  N8  UNL     1     -34.593  17.078  -0.085  1.00 20.00    -0.197 NA
ENDROOT
BRANCH   2   4
HETATM    4  C5  UNL     1     -33.419  15.572  -3.002  1.00 20.00     0.034 C 
BRANCH   4   5
HETATM    5  C7  UNL     1     -33.372  15.629  -4.539  1.00 20.00     0.086 C 
HETATM    6 CL9  UNL     1     -33.426  17.333  -5.100  1.00 20.00    -0.125 Cl
BRANCH   5   7
HETATM    7  C6  UNL     1     -34.488  14.778  -5.200  1.00 20.00    -0.004 C 
HETATM    8  C2  UNL     1     -34.496  14.936  -6.725  1.00 20.00     0.011 C 
HETATM    9  C3  UNL     1     -34.444  13.292  -4.833  1.00 20.00     0.011 C 
ENDBRANCH   5   7
ENDBRANCH   4   5
ENDBRANCH   2   4
TORSDOF 3
ENDMDL
