MODEL 1
REMARK VINA RESULT:      -3.9      0.000      0.000
REMARK  1 active torsions:
REMARK  status: ('A' for Active; 'I' for Inactive)
REMARK    1  A    between atoms: C4_4  and  C7_7 
ROOT
HETATM    1  C1  UNL     1     -33.938  18.231  -3.493  1.00 20.00     0.034 A 
HETATM    2  C2  UNL     1     -34.173  17.002  -2.811  1.00 20.00     0.026 A 
HETATM    3  C3  UNL     1     -33.781  18.047  -4.848  1.00 20.00    -0.019 A 
HETATM    4  C4  UNL     1     -34.187  15.927  -3.671  1.00 20.00     0.018 A 
HETATM    5  C5  UNL     1     -33.524  19.065  -5.891  1.00 20.00     0.056 C 
HETATM    6  S8  UNL     1     -33.917  16.400  -5.295  1.00 20.00    -0.097 SA
HETATM    7 BR10 UNL     1     -34.427  16.930  -0.944  1.00 20.00    -0.050 Br
ENDROOT
BRANCH   4   8
HETATM    8  C7  UNL     1     -34.397  14.492  -3.372  1.00 20.00     0.119 C 
HETATM    9  C6  UNL     1     -33.212  13.578  -3.731  1.00 20.00     0.032 C 
HETATM   10 CL9  UNL     1     -35.871  13.884  -4.209  1.00 20.00    -0.120 Cl
ENDBRANCH   4   8
TORSDOF 1
ENDMDL
MODEL 2
REMARK VINA RESULT:      -3.7      2.476      3.260
REMARK  1 active torsions:
REMARK  status: ('A' for Active; 'I' for Inactive)
REMARK    1  A    between atoms: C4_4  and  C7_7 
ROOT
HETATM    1  C1  UNL     1     -34.134  17.628  -3.024  1.00 20.00     0.034 A 
HETATM    2  C2  UNL     1     -34.127  17.111  -4.352  1.00 20.00     0.026 A 
HETATM    3  C3  UNL     1     -34.469  16.665  -2.097  1.00 20.00    -0.019 A 
HETATM    4  C4  UNL     1     -34.455  15.775  -4.389  1.00 20.00     0.018 A 
HETATM    5  C5  UNL     1     -34.584  16.803  -0.629  1.00 20.00     0.056 C 
HETATM    6  S8  UNL     1     -34.770  15.146  -2.828  1.00 20.00    -0.097 SA
HETATM    7 BR10 UNL     1     -33.707  18.191  -5.840  1.00 20.00    -0.050 Br
ENDROOT
BRANCH   4   8
HETATM    8  C7  UNL     1     -34.560  14.869  -5.557  1.00 20.00     0.119 C 
HETATM    9  C6  UNL     1     -35.819  15.068  -6.417  1.00 20.00     0.032 C 
HETATM   10 CL9  UNL     1     -34.485  13.150  -5.028  1.00 20.00    -0.120 Cl
ENDBRANCH   4   8
TORSDOF 1
ENDMDL
MODEL 3
REMARK VINA RESULT:      -3.7      2.780      3.231
REMARK  1 active torsions:
REMARK  status: ('A' for Active; 'I' for Inactive)
REMARK    1  A    between atoms: C4_4  and  C7_7 
ROOT
HETATM    1  C1  UNL     1     -33.658  16.623  -5.481  1.00 20.00     0.034 A 
HETATM    2  C2  UNL     1     -33.614  16.117  -4.150  1.00 20.00     0.026 A 
HETATM    3  C3  UNL     1     -33.726  17.999  -5.509  1.00 20.00    -0.019 A 
HETATM    4  C4  UNL     1     -33.651  17.124  -3.212  1.00 20.00     0.018 A 
HETATM    5  C5  UNL     1     -33.785  18.893  -6.686  1.00 20.00     0.056 C 
HETATM    6  S8  UNL     1     -33.736  18.674  -3.935  1.00 20.00    -0.097 SA
HETATM    7 BR10 UNL     1     -33.520  14.269  -3.788  1.00 20.00    -0.050 Br
ENDROOT
BRANCH   4   8
HETATM    8  C7  UNL     1     -33.624  17.028  -1.734  1.00 20.00     0.119 C 
HETATM    9  C6  UNL     1     -34.951  16.586  -1.093  1.00 20.00     0.032 C 
HETATM   10 CL9  UNL     1     -33.127  18.600  -1.010  1.00 20.00    -0.120 Cl
ENDBRANCH   4   8
TORSDOF 1
ENDMDL
MODEL 4
REMARK VINA RESULT:      -3.7      2.616      3.549
REMARK  1 active torsions:
REMARK  status: ('A' for Active; 'I' for Inactive)
REMARK    1  A    between atoms: C4_4  and  C7_7 
ROOT
HETATM    1  C1  UNL     1     -34.284  15.535  -2.447  1.00 20.00     0.034 A 
HETATM    2  C2  UNL     1     -34.707  15.230  -3.774  1.00 20.00     0.026 A 
HETATM    3  C3  UNL     1     -34.065  16.883  -2.272  1.00 20.00    -0.019 A 
HETATM    4  C4  UNL     1     -34.795  16.357  -4.560  1.00 20.00     0.018 A 
HETATM    5  C5  UNL     1     -33.623  17.593  -1.051  1.00 20.00     0.056 C 
HETATM    6  S8  UNL     1     -34.371  17.776  -3.701  1.00 20.00    -0.097 SA
HETATM    7 BR10 UNL     1     -35.083  13.465  -4.320  1.00 20.00    -0.050 Br
ENDROOT
BRANCH   4   8
HETATM    8  C7  UNL     1     -35.194  16.477  -5.982  1.00 20.00     0.119 C 
HETATM    9  C6  UNL     1     -36.661  16.114  -6.273  1.00 20.00     0.032 C 
HETATM   10 CL9  UNL     1     -34.129  15.464  -7.022  1.00 20.00    -0.120 Cl
ENDBRANCH   4   8
TORSDOF 1
ENDMDL
MODEL 5
REMARK VINA RESULT:      -3.7      3.174      4.289
REMARK  1 active torsions:
REMARK  status: ('A' for Active; 'I' for Inactive)
REMARK    1  A    between atoms: C4_4  and  C7_7 
ROOT
HETATM    1  C1  UNL     1     -36.379  14.239  -4.241  1.00 20.00     0.034 A 
HETATM    2  C2  UNL     1     -35.145  14.619  -3.636  1.00 20.00     0.026 A 
HETATM    3  C3  UNL     1     -37.385  15.139  -3.970  1.00 20.00    -0.019 A 
HETATM    4  C4  UNL     1     -35.257  15.794  -2.928  1.00 20.00     0.018 A 
HETATM    5  C5  UNL     1     -38.796  15.101  -4.412  1.00 20.00     0.056 C 
HETATM    6  S8  UNL     1     -36.843  16.436  -2.993  1.00 20.00    -0.097 SA
HETATM    7 BR10 UNL     1     -33.581  13.583  -3.826  1.00 20.00    -0.050 Br
ENDROOT
BRANCH   4   8
HETATM    8  C7  UNL     1     -34.222  16.526  -2.161  1.00 20.00     0.119 C 
HETATM    9  C6  UNL     1     -34.569  16.773  -0.683  1.00 20.00     0.032 C 
HETATM   10 CL9  UNL     1     -33.861  18.107  -2.943  1.00 20.00    -0.120 Cl
ENDBRANCH   4   8
TORSDOF 1
ENDMDL
MODEL 6
REMARK VINA RESULT:      -3.7      2.783      3.303
REMARK  1 active torsions:
REMARK  status: ('A' for Active; 'I' for Inactive)
REMARK    1  A    between atoms: C4_4  and  C7_7 
ROOT
HETATM    1  C1  UNL     1     -34.256  15.450  -6.167  1.00 20.00     0.034 A 
HETATM    2  C2  UNL     1     -34.013  15.306  -4.770  1.00 20.00     0.026 A 
HETATM    3  C3  UNL     1     -34.383  16.770  -6.536  1.00 20.00    -0.019 A 
HETATM    4  C4  UNL     1     -33.963  16.522  -4.126  1.00 20.00     0.018 A 
HETATM    5  C5  UNL     1     -34.638  17.329  -7.882  1.00 20.00     0.056 C 
HETATM    6  S8  UNL     1     -34.209  17.831  -5.202  1.00 20.00    -0.097 SA
HETATM    7 BR10 UNL     1     -33.794  13.616  -3.965  1.00 20.00    -0.050 Br
ENDROOT
BRANCH   4   8
HETATM    8  C7  UNL     1     -33.734  16.812  -2.692  1.00 20.00     0.119 C 
HETATM    9  C6  UNL     1     -34.838  16.307  -1.747  1.00 20.00     0.032 C 
HETATM   10 CL9  UNL     1     -33.516  18.581  -2.435  1.00 20.00    -0.120 Cl
ENDBRANCH   4   8
TORSDOF 1
ENDMDL
MODEL 7
REMARK VINA RESULT:      -3.6      2.382      3.806
REMARK  1 active torsions:
REMARK  status: ('A' for Active; 'I' for Inactive)
REMARK    1  A    between atoms: C4_4  and  C7_7 
ROOT
HETATM    1  C1  UNL     1     -34.412  15.511  -2.316  1.00 20.00     0.034 A 
HETATM    2  C2  UNL     1     -34.283  15.455  -3.734  1.00 20.00     0.026 A 
HETATM    3  C3  UNL     1     -34.333  16.801  -1.841  1.00 20.00    -0.019 A 
HETATM    4  C4  UNL     1     -34.111  16.703  -4.288  1.00 20.00     0.018 A 
HETATM    5  C5  UNL     1     -34.421  17.273  -0.442  1.00 20.00     0.056 C 
HETATM    6  S8  UNL     1     -34.105  17.938  -3.102  1.00 20.00    -0.097 SA
HETATM    7 BR10 UNL     1     -34.350  13.824  -4.678  1.00 20.00    -0.050 Br
ENDROOT
BRANCH   4   8
HETATM    8  C7  UNL     1     -33.941  17.081  -5.710  1.00 20.00     0.119 C 
HETATM    9  C6  UNL     1     -33.594  18.561  -5.948  1.00 20.00     0.032 C 
HETATM   10 CL9  UNL     1     -35.421  16.675  -6.650  1.00 20.00    -0.120 Cl
ENDBRANCH   4   8
TORSDOF 1
ENDMDL
MODEL 8
REMARK VINA RESULT:      -3.6      2.415      2.688
REMARK  1 active torsions:
REMARK  status: ('A' for Active; 'I' for Inactive)
REMARK    1  A    between atoms: C4_4  and  C7_7 
ROOT
HETATM    1  C1  UNL     1     -36.757  17.033  -2.982  1.00 20.00     0.034 A 
HETATM    2  C2  UNL     1     -35.597  16.290  -2.617  1.00 20.00     0.026 A 
HETATM    3  C3  UNL     1     -37.321  16.570  -4.150  1.00 20.00    -0.019 A 
HETATM    4  C4  UNL     1     -35.320  15.288  -3.520  1.00 20.00     0.018 A 
HETATM    5  C5  UNL     1     -38.524  17.070  -4.852  1.00 20.00     0.056 C 
HETATM    6  S8  UNL     1     -36.454  15.245  -4.802  1.00 20.00    -0.097 SA
HETATM    7 BR10 UNL     1     -34.605  16.688  -1.064  1.00 20.00    -0.050 Br
ENDROOT
BRANCH   4   8
HETATM    8  C7  UNL     1     -34.217  14.299  -3.511  1.00 20.00     0.119 C 
HETATM    9  C6  UNL     1     -32.813  14.897  -3.705  1.00 20.00     0.032 C 
HETATM   10 CL9  UNL     1     -34.490  13.041  -4.770  1.00 20.00    -0.120 Cl
ENDBRANCH   4   8
TORSDOF 1
ENDMDL
MODEL 9
REMARK VINA RESULT:      -3.6      2.055      3.844
REMARK  1 active torsions:
REMARK  status: ('A' for Active; 'I' for Inactive)
REMARK    1  A    between atoms: C4_4  and  C7_7 
ROOT
HETATM    1  C1  UNL     1     -34.432  14.867  -2.986  1.00 20.00     0.034 A 
HETATM    2  C2  UNL     1     -34.301  16.268  -2.763  1.00 20.00     0.026 A 
HETATM    3  C3  UNL     1     -34.393  14.551  -4.326  1.00 20.00    -0.019 A 
HETATM    4  C4  UNL     1     -34.167  16.969  -3.940  1.00 20.00     0.018 A 
HETATM    5  C5  UNL     1     -34.495  13.219  -4.960  1.00 20.00     0.056 C 
HETATM    6  S8  UNL     1     -34.199  15.940  -5.308  1.00 20.00    -0.097 SA
HETATM    7 BR10 UNL     1     -34.318  17.008  -1.028  1.00 20.00    -0.050 Br
ENDROOT
BRANCH   4   8
HETATM    8  C7  UNL     1     -34.007  18.427  -4.148  1.00 20.00     0.119 C 
HETATM    9  C6  UNL     1     -35.265  19.262  -3.858  1.00 20.00     0.032 C 
HETATM   10 CL9  UNL     1     -33.461  18.766  -5.830  1.00 20.00    -0.120 Cl
ENDBRANCH   4   8
TORSDOF 1
ENDMDL
