MODEL 1
REMARK VINA RESULT:      -4.6      0.000      0.000
REMARK  0 active torsions:
REMARK  status: ('A' for Active; 'I' for Inactive)
ROOT
HETATM    1  C1  UNL     1     -32.700   7.105   3.162  1.00 20.00     0.095 C 
HETATM    2  C2  UNL     1     -34.533   5.663   3.847  1.00 20.00     0.011 C 
HETATM    3  C3  UNL     1     -33.492   6.453   4.136  1.00 20.00     0.020 C 
HETATM    4  C4  UNL     1     -33.265   6.550   5.611  1.00 20.00     0.051 C 
HETATM    5  C5  UNL     1     -34.574   5.997   6.181  1.00 20.00     0.029 C 
HETATM    6  C6  UNL     1     -35.167   5.112   5.082  1.00 20.00     0.106 C 
HETATM    7  N7  UNL     1     -32.049   7.637   2.363  1.00 20.00    -0.192 NA
HETATM    8 CL8  UNL     1     -34.700   3.410   5.286  1.00 20.00    -0.121 Cl
ENDROOT
TORSDOF 0
ENDMDL
MODEL 2
REMARK VINA RESULT:      -4.3     11.762     12.389
REMARK  0 active torsions:
REMARK  status: ('A' for Active; 'I' for Inactive)
ROOT
HETATM    1  C1  UNL     1     -34.721  13.646  -4.103  1.00 20.00     0.095 C 
HETATM    2  C2  UNL     1     -35.498  15.526  -2.775  1.00 20.00     0.011 C 
HETATM    3  C3  UNL     1     -34.545  14.902  -3.477  1.00 20.00     0.020 C 
HETATM    4  C4  UNL     1     -33.273  15.687  -3.504  1.00 20.00     0.051 C 
HETATM    5  C5  UNL     1     -33.731  17.068  -3.027  1.00 20.00     0.029 C 
HETATM    6  C6  UNL     1     -35.014  16.830  -2.227  1.00 20.00     0.106 C 
HETATM    7  N7  UNL     1     -34.865  12.615  -4.616  1.00 20.00    -0.192 NA
HETATM    8 CL8  UNL     1     -34.683  16.662  -0.489  1.00 20.00    -0.121 Cl
ENDROOT
TORSDOF 0
ENDMDL
MODEL 3
REMARK VINA RESULT:      -4.0     12.252     12.648
REMARK  0 active torsions:
REMARK  status: ('A' for Active; 'I' for Inactive)
ROOT
HETATM    1  C1  UNL     1     -34.651  13.637  -4.161  1.00 20.00     0.095 C 
HETATM    2  C2  UNL     1     -33.410  15.536  -3.289  1.00 20.00     0.011 C 
HETATM    3  C3  UNL     1     -34.542  14.832  -3.412  1.00 20.00     0.020 C 
HETATM    4  C4  UNL     1     -35.675  15.472  -2.675  1.00 20.00     0.051 C 
HETATM    5  C5  UNL     1     -34.951  16.472  -1.769  1.00 20.00     0.029 C 
HETATM    6  C6  UNL     1     -33.607  16.753  -2.446  1.00 20.00     0.106 C 
HETATM    7  N7  UNL     1     -34.740  12.658  -4.776  1.00 20.00    -0.192 NA
HETATM    8 CL8  UNL     1     -33.683  18.194  -3.484  1.00 20.00    -0.121 Cl
ENDROOT
TORSDOF 0
ENDMDL
MODEL 4
REMARK VINA RESULT:      -3.9     12.006     13.082
REMARK  0 active torsions:
REMARK  status: ('A' for Active; 'I' for Inactive)
ROOT
HETATM    1  C1  UNL     1     -35.198  14.459  -6.881  1.00 20.00     0.095 C 
HETATM    2  C2  UNL     1     -33.972  15.491  -5.054  1.00 20.00     0.011 C 
HETATM    3  C3  UNL     1     -34.565  14.431  -5.617  1.00 20.00     0.020 C 
HETATM    4  C4  UNL     1     -34.488  13.223  -4.738  1.00 20.00     0.051 C 
HETATM    5  C5  UNL     1     -33.416  13.626  -3.722  1.00 20.00     0.029 C 
HETATM    6  C6  UNL     1     -33.401  15.157  -3.715  1.00 20.00     0.106 C 
HETATM    7  N7  UNL     1     -35.718  14.483  -7.918  1.00 20.00    -0.192 NA
HETATM    8 CL8  UNL     1     -34.444  15.818  -2.438  1.00 20.00    -0.121 Cl
ENDROOT
TORSDOF 0
ENDMDL
MODEL 5
REMARK VINA RESULT:      -3.9     12.021     12.729
REMARK  0 active torsions:
REMARK  status: ('A' for Active; 'I' for Inactive)
ROOT
HETATM    1  C1  UNL     1     -34.673  15.813  -2.197  1.00 20.00     0.095 C 
HETATM    2  C2  UNL     1     -35.489  15.394  -4.447  1.00 20.00     0.011 C 
HETATM    3  C3  UNL     1     -34.745  15.054  -3.388  1.00 20.00     0.020 C 
HETATM    4  C4  UNL     1     -33.993  13.783  -3.625  1.00 20.00     0.051 C 
HETATM    5  C5  UNL     1     -34.702  13.209  -4.855  1.00 20.00     0.029 C 
HETATM    6  C6  UNL     1     -35.355  14.403  -5.556  1.00 20.00     0.106 C 
HETATM    7  N7  UNL     1     -34.612  16.437  -1.221  1.00 20.00    -0.192 NA
HETATM    8 CL8  UNL     1     -34.311  15.068  -6.831  1.00 20.00    -0.121 Cl
ENDROOT
TORSDOF 0
ENDMDL
MODEL 6
REMARK VINA RESULT:      -3.9     12.067     12.803
REMARK  0 active torsions:
REMARK  status: ('A' for Active; 'I' for Inactive)
ROOT
HETATM    1  C1  UNL     1     -37.040  14.758  -3.638  1.00 20.00     0.095 C 
HETATM    2  C2  UNL     1     -35.523  16.583  -3.118  1.00 20.00     0.011 C 
HETATM    3  C3  UNL     1     -35.757  15.291  -3.375  1.00 20.00     0.020 C 
HETATM    4  C4  UNL     1     -34.499  14.482  -3.335  1.00 20.00     0.051 C 
HETATM    5  C5  UNL     1     -33.415  15.561  -3.392  1.00 20.00     0.029 C 
HETATM    6  C6  UNL     1     -34.072  16.842  -2.872  1.00 20.00     0.106 C 
HETATM    7  N7  UNL     1     -38.093  14.321  -3.852  1.00 20.00    -0.192 NA
HETATM    8 CL8  UNL     1     -33.791  17.064  -1.131  1.00 20.00    -0.121 Cl
ENDROOT
TORSDOF 0
ENDMDL
MODEL 7
REMARK VINA RESULT:      -3.8      2.443      2.900
REMARK  0 active torsions:
REMARK  status: ('A' for Active; 'I' for Inactive)
ROOT
HETATM    1  C1  UNL     1     -33.664   7.024   6.604  1.00 20.00     0.095 C 
HETATM    2  C2  UNL     1     -34.622   6.523   4.427  1.00 20.00     0.011 C 
HETATM    3  C3  UNL     1     -34.199   6.140   5.638  1.00 20.00     0.020 C 
HETATM    4  C4  UNL     1     -34.348   4.665   5.835  1.00 20.00     0.051 C 
HETATM    5  C5  UNL     1     -35.287   4.276   4.690  1.00 20.00     0.029 C 
HETATM    6  C6  UNL     1     -35.125   5.366   3.627  1.00 20.00     0.106 C 
HETATM    7  N7  UNL     1     -33.225   7.749   7.395  1.00 20.00    -0.192 NA
HETATM    8 CL8  UNL     1     -33.919   4.915   2.403  1.00 20.00    -0.121 Cl
ENDROOT
TORSDOF 0
ENDMDL
MODEL 8
REMARK VINA RESULT:      -3.8     12.220     12.412
REMARK  0 active torsions:
REMARK  status: ('A' for Active; 'I' for Inactive)
ROOT
HETATM    1  C1  UNL     1     -34.554  16.143  -1.737  1.00 20.00     0.095 C 
HETATM    2  C2  UNL     1     -35.792  14.909  -3.424  1.00 20.00     0.011 C 
HETATM    3  C3  UNL     1     -34.640  15.277  -2.851  1.00 20.00     0.020 C 
HETATM    4  C4  UNL     1     -33.460  14.672  -3.543  1.00 20.00     0.051 C 
HETATM    5  C5  UNL     1     -34.106  13.572  -4.389  1.00 20.00     0.029 C 
HETATM    6  C6  UNL     1     -35.563  13.997  -4.585  1.00 20.00     0.106 C 
HETATM    7  N7  UNL     1     -34.483  16.855  -0.823  1.00 20.00    -0.192 NA
HETATM    8 CL8  UNL     1     -35.788  14.892  -6.103  1.00 20.00    -0.121 Cl
ENDROOT
TORSDOF 0
ENDMDL
MODEL 9
REMARK VINA RESULT:      -3.8      9.724     10.477
REMARK  0 active torsions:
REMARK  status: ('A' for Active; 'I' for Inactive)
ROOT
HETATM    1  C1  UNL     1     -41.738   3.565  -2.516  1.00 20.00     0.095 C 
HETATM    2  C2  UNL     1     -42.121   5.959  -2.362  1.00 20.00     0.011 C 
HETATM    3  C3  UNL     1     -41.616   4.820  -1.875  1.00 20.00     0.020 C 
HETATM    4  C4  UNL     1     -40.923   5.035  -0.568  1.00 20.00     0.051 C 
HETATM    5  C5  UNL     1     -40.758   6.557  -0.533  1.00 20.00     0.029 C 
HETATM    6  C6  UNL     1     -41.840   7.117  -1.460  1.00 20.00     0.106 C 
HETATM    7  N7  UNL     1     -41.840   2.536  -3.042  1.00 20.00    -0.192 NA
HETATM    8 CL8  UNL     1     -43.313   7.548  -0.564  1.00 20.00    -0.121 Cl
ENDROOT
TORSDOF 0
ENDMDL
