MODEL 1
REMARK VINA RESULT:      -4.4      0.000      0.000
REMARK  0 active torsions:
REMARK  status: ('A' for Active; 'I' for Inactive)
ROOT
HETATM    1  C1  UNL     1     -33.017   6.179   3.621  1.00 20.00     0.064 C 
HETATM    2  C2  UNL     1     -33.898   6.428   5.929  1.00 20.00     0.021 C 
HETATM    3  C3  UNL     1     -34.893   5.473   6.587  1.00 20.00     0.021 C 
HETATM    4  C4  UNL     1     -35.250   5.268   4.241  1.00 20.00     0.039 C 
HETATM    5  C5  UNL     1     -34.226   6.400   4.428  1.00 20.00     0.094 C 
HETATM    6  C6  UNL     1     -35.185   4.431   5.516  1.00 20.00     0.083 C 
HETATM    7  N7  UNL     1     -32.063   6.005   2.983  1.00 20.00    -0.197 NA
HETATM    8 CL8  UNL     1     -33.872   3.224   5.424  1.00 20.00    -0.125 Cl
ENDROOT
TORSDOF 0
ENDMDL
MODEL 2
REMARK VINA RESULT:      -4.1     12.465     13.228
REMARK  0 active torsions:
REMARK  status: ('A' for Active; 'I' for Inactive)
ROOT
HETATM    1  C1  UNL     1     -36.813  14.450  -4.119  1.00 20.00     0.064 C 
HETATM    2  C2  UNL     1     -34.483  13.600  -3.988  1.00 20.00     0.021 C 
HETATM    3  C3  UNL     1     -33.266  14.453  -3.637  1.00 20.00     0.021 C 
HETATM    4  C4  UNL     1     -34.877  15.959  -4.534  1.00 20.00     0.039 C 
HETATM    5  C5  UNL     1     -35.464  14.548  -4.695  1.00 20.00     0.094 C 
HETATM    6  C6  UNL     1     -33.829  15.852  -3.430  1.00 20.00     0.083 C 
HETATM    7  N7  UNL     1     -37.878  14.372  -3.663  1.00 20.00    -0.197 NA
HETATM    8 CL8  UNL     1     -34.579  16.006  -1.816  1.00 20.00    -0.125 Cl
ENDROOT
TORSDOF 0
ENDMDL
MODEL 3
REMARK VINA RESULT:      -4.0     12.741     13.659
REMARK  0 active torsions:
REMARK  status: ('A' for Active; 'I' for Inactive)
ROOT
HETATM    1  C1  UNL     1     -34.632  13.541  -4.059  1.00 20.00     0.064 C 
HETATM    2  C2  UNL     1     -35.317  15.772  -3.210  1.00 20.00     0.021 C 
HETATM    3  C3  UNL     1     -34.592  17.080  -3.520  1.00 20.00     0.021 C 
HETATM    4  C4  UNL     1     -32.960  15.361  -3.755  1.00 20.00     0.039 C 
HETATM    5  C5  UNL     1     -34.233  14.683  -3.223  1.00 20.00     0.094 C 
HETATM    6  C6  UNL     1     -33.420  16.666  -4.400  1.00 20.00     0.083 C 
HETATM    7  N7  UNL     1     -34.946  12.639  -4.719  1.00 20.00    -0.197 NA
HETATM    8 CL8  UNL     1     -33.951  16.395  -6.084  1.00 20.00    -0.125 Cl
ENDROOT
TORSDOF 0
ENDMDL
MODEL 4
REMARK VINA RESULT:      -3.9     12.766     13.511
REMARK  0 active torsions:
REMARK  status: ('A' for Active; 'I' for Inactive)
ROOT
HETATM    1  C1  UNL     1     -36.634  15.078  -3.682  1.00 20.00     0.064 C 
HETATM    2  C2  UNL     1     -34.863  16.306  -4.915  1.00 20.00     0.021 C 
HETATM    3  C3  UNL     1     -33.374  16.258  -4.575  1.00 20.00     0.021 C 
HETATM    4  C4  UNL     1     -34.521  15.750  -2.550  1.00 20.00     0.039 C 
HETATM    5  C5  UNL     1     -35.600  16.118  -3.581  1.00 20.00     0.094 C 
HETATM    6  C6  UNL     1     -33.292  15.345  -3.360  1.00 20.00     0.083 C 
HETATM    7  N7  UNL     1     -37.450  14.256  -3.762  1.00 20.00    -0.197 NA
HETATM    8 CL8  UNL     1     -33.381  13.628  -3.845  1.00 20.00    -0.125 Cl
ENDROOT
TORSDOF 0
ENDMDL
MODEL 5
REMARK VINA RESULT:      -3.8     12.410     13.328
REMARK  0 active torsions:
REMARK  status: ('A' for Active; 'I' for Inactive)
ROOT
HETATM    1  C1  UNL     1     -33.682  15.980  -2.742  1.00 20.00     0.064 C 
HETATM    2  C2  UNL     1     -33.882  15.763  -5.207  1.00 20.00     0.021 C 
HETATM    3  C3  UNL     1     -34.513  14.572  -5.927  1.00 20.00     0.021 C 
HETATM    4  C4  UNL     1     -33.764  13.740  -3.825  1.00 20.00     0.039 C 
HETATM    5  C5  UNL     1     -33.275  15.194  -3.916  1.00 20.00     0.094 C 
HETATM    6  C6  UNL     1     -34.928  13.628  -4.807  1.00 20.00     0.083 C 
HETATM    7  N7  UNL     1     -34.003  16.600  -1.814  1.00 20.00    -0.197 NA
HETATM    8 CL8  UNL     1     -36.456  14.164  -4.053  1.00 20.00    -0.125 Cl
ENDROOT
TORSDOF 0
ENDMDL
MODEL 6
REMARK VINA RESULT:      -3.7     13.181     13.843
REMARK  0 active torsions:
REMARK  status: ('A' for Active; 'I' for Inactive)
ROOT
HETATM    1  C1  UNL     1     -36.512  14.232  -3.972  1.00 20.00     0.064 C 
HETATM    2  C2  UNL     1     -34.281  14.956  -3.155  1.00 20.00     0.021 C 
HETATM    3  C3  UNL     1     -33.239  15.684  -4.003  1.00 20.00     0.021 C 
HETATM    4  C4  UNL     1     -34.591  14.467  -5.539  1.00 20.00     0.039 C 
HETATM    5  C5  UNL     1     -35.060  14.062  -4.132  1.00 20.00     0.094 C 
HETATM    6  C6  UNL     1     -33.887  15.811  -5.375  1.00 20.00     0.083 C 
HETATM    7  N7  UNL     1     -37.658  14.367  -3.845  1.00 20.00    -0.197 NA
HETATM    8 CL8  UNL     1     -35.060  17.157  -5.405  1.00 20.00    -0.125 Cl
ENDROOT
TORSDOF 0
ENDMDL
MODEL 7
REMARK VINA RESULT:      -3.7     13.699     14.765
REMARK  0 active torsions:
REMARK  status: ('A' for Active; 'I' for Inactive)
ROOT
HETATM    1  C1  UNL     1     -35.120  13.586  -5.060  1.00 20.00     0.064 C 
HETATM    2  C2  UNL     1     -34.664  14.826  -7.162  1.00 20.00     0.021 C 
HETATM    3  C3  UNL     1     -34.471  16.338  -7.254  1.00 20.00     0.021 C 
HETATM    4  C4  UNL     1     -35.794  15.970  -5.309  1.00 20.00     0.039 C 
HETATM    5  C5  UNL     1     -35.632  14.601  -5.991  1.00 20.00     0.094 C 
HETATM    6  C6  UNL     1     -34.644  16.832  -5.825  1.00 20.00     0.083 C 
HETATM    7  N7  UNL     1     -34.715  12.784  -4.324  1.00 20.00    -0.197 NA
HETATM    8 CL8  UNL     1     -33.159  16.558  -4.870  1.00 20.00    -0.125 Cl
ENDROOT
TORSDOF 0
ENDMDL
MODEL 8
REMARK VINA RESULT:      -3.7      9.212     10.107
REMARK  0 active torsions:
REMARK  status: ('A' for Active; 'I' for Inactive)
ROOT
HETATM    1  C1  UNL     1     -42.539   7.674  -1.075  1.00 20.00     0.064 C 
HETATM    2  C2  UNL     1     -41.914   5.606  -2.300  1.00 20.00     0.021 C 
HETATM    3  C3  UNL     1     -41.322   4.357  -1.651  1.00 20.00     0.021 C 
HETATM    4  C4  UNL     1     -40.754   6.167  -0.212  1.00 20.00     0.039 C 
HETATM    5  C5  UNL     1     -41.426   6.788  -1.447  1.00 20.00     0.094 C 
HETATM    6  C6  UNL     1     -41.212   4.711  -0.174  1.00 20.00     0.083 C 
HETATM    7  N7  UNL     1     -43.417   8.373  -0.780  1.00 20.00    -0.197 NA
HETATM    8 CL8  UNL     1     -42.794   4.558   0.639  1.00 20.00    -0.125 Cl
ENDROOT
TORSDOF 0
ENDMDL
MODEL 9
REMARK VINA RESULT:      -3.7     12.834     13.498
REMARK  0 active torsions:
REMARK  status: ('A' for Active; 'I' for Inactive)
ROOT
HETATM    1  C1  UNL     1     -33.691  17.179  -3.817  1.00 20.00     0.064 C 
HETATM    2  C2  UNL     1     -32.766  14.879  -3.677  1.00 20.00     0.021 C 
HETATM    3  C3  UNL     1     -33.598  13.601  -3.768  1.00 20.00     0.021 C 
HETATM    4  C4  UNL     1     -35.085  15.290  -2.989  1.00 20.00     0.039 C 
HETATM    5  C5  UNL     1     -33.688  15.930  -3.041  1.00 20.00     0.094 C 
HETATM    6  C6  UNL     1     -35.030  14.090  -3.931  1.00 20.00     0.083 C 
HETATM    7  N7  UNL     1     -33.693  18.166  -4.430  1.00 20.00    -0.197 NA
HETATM    8 CL8  UNL     1     -35.347  14.585  -5.618  1.00 20.00    -0.125 Cl
ENDROOT
TORSDOF 0
ENDMDL
