MODEL 1
REMARK VINA RESULT:      -5.1      0.000      0.000
REMARK  4 active torsions:
REMARK  status: ('A' for Active; 'I' for Inactive)
REMARK    1  A    between atoms: C6_6  and  C10_10 
REMARK    2  A    between atoms: C7_7  and  C11_11 
REMARK    3  A    between atoms: C9_9  and  C11_11 
REMARK    4  A    between atoms: C11_11  and  O12_12 
ROOT
HETATM    1  C1  UNL     1     -35.612  14.730  -7.918  1.00 20.00     0.012 C 
HETATM    2  C2  UNL     1     -35.096  14.512  -6.856  1.00 20.00    -0.115 C 
HETATM    3  C9  UNL     1     -34.460  14.244  -5.555  1.00 20.00     0.125 C 
ENDROOT
BRANCH   3   4
HETATM    4  C11 UNL     1     -35.500  13.952  -4.471  1.00 20.00     0.133 C 
BRANCH   4   5
HETATM    5  C7  UNL     1     -35.445  14.987  -3.358  1.00 20.00     0.015 C 
HETATM    6  C4  UNL     1     -36.071  16.328  -3.750  1.00 20.00     0.007 C 
HETATM    7  C3  UNL     1     -35.233  17.414  -3.070  1.00 20.00     0.005 C 
HETATM    8  C6  UNL     1     -34.169  16.692  -2.239  1.00 20.00    -0.014 C 
HETATM    9  C5  UNL     1     -34.019  15.346  -2.947  1.00 20.00     0.012 C 
BRANCH   8  10
HETATM   10  C10 UNL     1     -34.595  16.540  -0.779  1.00 20.00     0.000 C 
HETATM   11  C8  UNL     1     -34.301  17.770   0.020  1.00 20.00     0.005 C 
ENDBRANCH   8  10
ENDBRANCH   4   5
BRANCH   4  12
HETATM   12  O12 UNL     1     -35.228  12.666  -3.913  1.00 20.00    -0.394 OA
HETATM   13  H30 UNL     1     -34.750  12.823  -3.084  1.00 20.00     0.210 HD
ENDBRANCH   4  12
ENDBRANCH   3   4
TORSDOF 4
ENDMDL
MODEL 2
REMARK VINA RESULT:      -4.9     10.834     11.838
REMARK  4 active torsions:
REMARK  status: ('A' for Active; 'I' for Inactive)
REMARK    1  A    between atoms: C6_6  and  C10_10 
REMARK    2  A    between atoms: C7_7  and  C11_11 
REMARK    3  A    between atoms: C9_9  and  C11_11 
REMARK    4  A    between atoms: C11_11  and  O12_12 
ROOT
HETATM    1  C1  UNL     1     -31.968   8.836  -0.043  1.00 20.00     0.012 C 
HETATM    2  C2  UNL     1     -32.158   8.736   1.138  1.00 20.00    -0.115 C 
HETATM    3  C9  UNL     1     -32.394   8.618   2.587  1.00 20.00     0.125 C 
ENDROOT
BRANCH   3   4
HETATM    4  C11 UNL     1     -31.660   7.411   3.178  1.00 20.00     0.133 C 
BRANCH   4   5
HETATM    5  C7  UNL     1     -32.633   6.309   3.569  1.00 20.00     0.015 C 
HETATM    6  C4  UNL     1     -33.077   5.448   2.383  1.00 20.00     0.007 C 
HETATM    7  C3  UNL     1     -34.542   5.083   2.638  1.00 20.00     0.005 C 
HETATM    8  C6  UNL     1     -34.914   5.680   3.998  1.00 20.00    -0.014 C 
HETATM    9  C5  UNL     1     -33.938   6.845   4.153  1.00 20.00     0.012 C 
BRANCH   8  10
HETATM   10  C10 UNL     1     -34.784   4.654   5.123  1.00 20.00     0.000 C 
HETATM   11  C8  UNL     1     -34.641   5.307   6.462  1.00 20.00     0.005 C 
ENDBRANCH   8  10
ENDBRANCH   4   5
BRANCH   4  12
HETATM   12  O12 UNL     1     -30.955   7.833   4.345  1.00 20.00    -0.394 OA
HETATM   13  H30 UNL     1     -31.292   7.296   5.078  1.00 20.00     0.210 HD
ENDBRANCH   4  12
ENDBRANCH   3   4
TORSDOF 4
ENDMDL
MODEL 3
REMARK VINA RESULT:      -4.7      1.516      1.760
REMARK  4 active torsions:
REMARK  status: ('A' for Active; 'I' for Inactive)
REMARK    1  A    between atoms: C6_6  and  C10_10 
REMARK    2  A    between atoms: C7_7  and  C11_11 
REMARK    3  A    between atoms: C9_9  and  C11_11 
REMARK    4  A    between atoms: C11_11  and  O12_12 
ROOT
HETATM    1  C1  UNL     1     -34.796  14.966  -7.329  1.00 20.00     0.012 C 
HETATM    2  C2  UNL     1     -34.182  15.402  -6.394  1.00 20.00    -0.115 C 
HETATM    3  C9  UNL     1     -33.428  15.940  -5.249  1.00 20.00     0.125 C 
ENDROOT
BRANCH   3   4
HETATM    4  C11 UNL     1     -33.407  14.955  -4.077  1.00 20.00     0.133 C 
BRANCH   4   5
HETATM    5  C7  UNL     1     -34.139  15.517  -2.869  1.00 20.00     0.015 C 
HETATM    6  C4  UNL     1     -35.654  15.604  -3.068  1.00 20.00     0.007 C 
HETATM    7  C3  UNL     1     -36.115  16.870  -2.341  1.00 20.00     0.005 C 
HETATM    8  C6  UNL     1     -34.875  17.470  -1.673  1.00 20.00    -0.014 C 
HETATM    9  C5  UNL     1     -33.722  16.946  -2.530  1.00 20.00     0.012 C 
BRANCH   8  10
HETATM   10  C10 UNL     1     -34.757  17.045  -0.210  1.00 20.00     0.000 C 
HETATM   11  C8  UNL     1     -34.098  18.097   0.626  1.00 20.00     0.005 C 
ENDBRANCH   8  10
ENDBRANCH   4   5
BRANCH   4  12
HETATM   12  O12 UNL     1     -32.048  14.707  -3.714  1.00 20.00    -0.394 OA
HETATM   13  H30 UNL     1     -31.641  15.575  -3.571  1.00 20.00     0.210 HD
ENDBRANCH   4  12
ENDBRANCH   3   4
TORSDOF 4
ENDMDL
MODEL 4
REMARK VINA RESULT:      -4.7      2.288      5.441
REMARK  4 active torsions:
REMARK  status: ('A' for Active; 'I' for Inactive)
REMARK    1  A    between atoms: C6_6  and  C10_10 
REMARK    2  A    between atoms: C7_7  and  C11_11 
REMARK    3  A    between atoms: C9_9  and  C11_11 
REMARK    4  A    between atoms: C11_11  and  O12_12 
ROOT
HETATM    1  C1  UNL     1     -31.846  18.924   0.592  1.00 20.00     0.012 C 
HETATM    2  C2  UNL     1     -32.685  18.615  -0.210  1.00 20.00    -0.115 C 
HETATM    3  C9  UNL     1     -33.712  18.239  -1.196  1.00 20.00     0.125 C 
ENDROOT
BRANCH   3   4
HETATM    4  C11 UNL     1     -34.461  16.973  -0.771  1.00 20.00     0.133 C 
BRANCH   4   5
HETATM    5  C7  UNL     1     -34.604  15.999  -1.930  1.00 20.00     0.015 C 
HETATM    6  C4  UNL     1     -33.411  16.024  -2.889  1.00 20.00     0.007 C 
HETATM    7  C3  UNL     1     -33.979  15.800  -4.293  1.00 20.00     0.005 C 
HETATM    8  C6  UNL     1     -35.486  15.583  -4.129  1.00 20.00    -0.014 C 
HETATM    9  C5  UNL     1     -35.807  16.303  -2.819  1.00 20.00     0.012 C 
BRANCH   8  10
HETATM   10  C10 UNL     1     -35.844  14.098  -4.083  1.00 20.00     0.000 C 
HETATM   11  C8  UNL     1     -34.801  13.251  -4.741  1.00 20.00     0.005 C 
ENDBRANCH   8  10
ENDBRANCH   4   5
BRANCH   4  12
HETATM   12  O12 UNL     1     -35.765  17.344  -0.321  1.00 20.00    -0.394 OA
HETATM   13  H30 UNL     1     -36.375  17.123  -1.041  1.00 20.00     0.210 HD
ENDBRANCH   4  12
ENDBRANCH   3   4
TORSDOF 4
ENDMDL
MODEL 5
REMARK VINA RESULT:      -4.6      1.988      5.042
REMARK  4 active torsions:
REMARK  status: ('A' for Active; 'I' for Inactive)
REMARK    1  A    between atoms: C6_6  and  C10_10 
REMARK    2  A    between atoms: C7_7  and  C11_11 
REMARK    3  A    between atoms: C9_9  and  C11_11 
REMARK    4  A    between atoms: C11_11  and  O12_12 
ROOT
HETATM    1  C1  UNL     1     -34.513  16.999  -0.667  1.00 20.00     0.012 C 
HETATM    2  C2  UNL     1     -34.420  16.275  -1.620  1.00 20.00    -0.115 C 
HETATM    3  C9  UNL     1     -34.309  15.385  -2.788  1.00 20.00     0.125 C 
ENDROOT
BRANCH   3   4
HETATM    4  C11 UNL     1     -33.170  15.816  -3.716  1.00 20.00     0.133 C 
BRANCH   4   5
HETATM    5  C7  UNL     1     -33.680  16.111  -5.118  1.00 20.00     0.015 C 
HETATM    6  C4  UNL     1     -33.660  17.602  -5.465  1.00 20.00     0.007 C 
HETATM    7  C3  UNL     1     -34.892  17.861  -6.337  1.00 20.00     0.005 C 
HETATM    8  C6  UNL     1     -35.578  16.507  -6.541  1.00 20.00    -0.014 C 
HETATM    9  C5  UNL     1     -35.135  15.698  -5.323  1.00 20.00     0.012 C 
BRANCH   8  10
HETATM   10  C10 UNL     1     -35.165  15.854  -7.859  1.00 20.00     0.000 C 
HETATM   11  C8  UNL     1     -35.563  14.413  -7.918  1.00 20.00     0.005 C 
ENDBRANCH   8  10
ENDBRANCH   4   5
BRANCH   4  12
HETATM   12  O12 UNL     1     -32.217  14.755  -3.791  1.00 20.00    -0.394 OA
HETATM   13  H30 UNL     1     -32.622  13.992  -3.352  1.00 20.00     0.210 HD
ENDBRANCH   4  12
ENDBRANCH   3   4
TORSDOF 4
ENDMDL
MODEL 6
REMARK VINA RESULT:      -4.6      1.724      5.266
REMARK  4 active torsions:
REMARK  status: ('A' for Active; 'I' for Inactive)
REMARK    1  A    between atoms: C6_6  and  C10_10 
REMARK    2  A    between atoms: C7_7  and  C11_11 
REMARK    3  A    between atoms: C9_9  and  C11_11 
REMARK    4  A    between atoms: C11_11  and  O12_12 
ROOT
HETATM    1  C1  UNL     1     -34.942  17.425   0.436  1.00 20.00     0.012 C 
HETATM    2  C2  UNL     1     -34.565  16.920  -0.586  1.00 20.00    -0.115 C 
HETATM    3  C9  UNL     1     -34.101  16.298  -1.837  1.00 20.00     0.125 C 
ENDROOT
BRANCH   3   4
HETATM    4  C11 UNL     1     -34.718  16.976  -3.064  1.00 20.00     0.133 C 
BRANCH   4   5
HETATM    5  C7  UNL     1     -35.152  15.952  -4.101  1.00 20.00     0.015 C 
HETATM    6  C4  UNL     1     -35.800  14.708  -3.487  1.00 20.00     0.007 C 
HETATM    7  C3  UNL     1     -35.370  13.522  -4.355  1.00 20.00     0.005 C 
HETATM    8  C6  UNL     1     -34.530  14.096  -5.499  1.00 20.00    -0.014 C 
HETATM    9  C5  UNL     1     -33.987  15.403  -4.921  1.00 20.00     0.012 C 
BRANCH   8  10
HETATM   10  C10 UNL     1     -35.365  14.318  -6.760  1.00 20.00     0.000 C 
HETATM   11  C8  UNL     1     -34.665  15.198  -7.747  1.00 20.00     0.005 C 
ENDBRANCH   8  10
ENDBRANCH   4   5
BRANCH   4  12
HETATM   12  O12 UNL     1     -33.740  17.835  -3.650  1.00 20.00    -0.394 OA
HETATM   13  H30 UNL     1     -32.892  17.370  -3.584  1.00 20.00     0.210 HD
ENDBRANCH   4  12
ENDBRANCH   3   4
TORSDOF 4
ENDMDL
MODEL 7
REMARK VINA RESULT:      -4.5      2.781      5.973
REMARK  4 active torsions:
REMARK  status: ('A' for Active; 'I' for Inactive)
REMARK    1  A    between atoms: C6_6  and  C10_10 
REMARK    2  A    between atoms: C7_7  and  C11_11 
REMARK    3  A    between atoms: C9_9  and  C11_11 
REMARK    4  A    between atoms: C11_11  and  O12_12 
ROOT
HETATM    1  C1  UNL     1     -31.863  18.823   2.091  1.00 20.00     0.012 C 
HETATM    2  C2  UNL     1     -32.814  18.870   1.359  1.00 20.00    -0.115 C 
HETATM    3  C9  UNL     1     -33.980  18.932   0.462  1.00 20.00     0.125 C 
ENDROOT
BRANCH   3   4
HETATM    4  C11 UNL     1     -34.501  17.532   0.121  1.00 20.00     0.133 C 
BRANCH   4   5
HETATM    5  C7  UNL     1     -33.911  17.026  -1.185  1.00 20.00     0.015 C 
HETATM    6  C4  UNL     1     -33.665  18.138  -2.208  1.00 20.00     0.007 C 
HETATM    7  C3  UNL     1     -33.962  17.535  -3.583  1.00 20.00     0.005 C 
HETATM    8  C6  UNL     1     -34.314  16.063  -3.352  1.00 20.00    -0.014 C 
HETATM    9  C5  UNL     1     -34.825  16.043  -1.912  1.00 20.00     0.012 C 
BRANCH   8  10
HETATM   10  C10 UNL     1     -33.105  15.151  -3.556  1.00 20.00     0.000 C 
HETATM   11  C8  UNL     1     -33.511  13.742  -3.852  1.00 20.00     0.005 C 
ENDBRANCH   8  10
ENDBRANCH   4   5
BRANCH   4  12
HETATM   12  O12 UNL     1     -35.921  17.595  -0.012  1.00 20.00    -0.394 OA
HETATM   13  H30 UNL     1     -36.251  16.698   0.149  1.00 20.00     0.210 HD
ENDBRANCH   4  12
ENDBRANCH   3   4
TORSDOF 4
ENDMDL
MODEL 8
REMARK VINA RESULT:      -4.5      1.739      5.309
REMARK  4 active torsions:
REMARK  status: ('A' for Active; 'I' for Inactive)
REMARK    1  A    between atoms: C6_6  and  C10_10 
REMARK    2  A    between atoms: C7_7  and  C11_11 
REMARK    3  A    between atoms: C9_9  and  C11_11 
REMARK    4  A    between atoms: C11_11  and  O12_12 
ROOT
HETATM    1  C1  UNL     1     -34.612  16.903  -0.845  1.00 20.00     0.012 C 
HETATM    2  C2  UNL     1     -34.397  16.180  -1.779  1.00 20.00    -0.115 C 
HETATM    3  C9  UNL     1     -34.135  15.289  -2.922  1.00 20.00     0.125 C 
ENDROOT
BRANCH   3   4
HETATM    4  C11 UNL     1     -33.761  16.083  -4.178  1.00 20.00     0.133 C 
BRANCH   4   5
HETATM    5  C7  UNL     1     -34.756  15.840  -5.301  1.00 20.00     0.015 C 
HETATM    6  C4  UNL     1     -34.905  14.361  -5.666  1.00 20.00     0.007 C 
HETATM    7  C3  UNL     1     -35.118  14.307  -7.181  1.00 20.00     0.005 C 
HETATM    8  C6  UNL     1     -35.154  15.757  -7.672  1.00 20.00    -0.014 C 
HETATM    9  C5  UNL     1     -34.351  16.510  -6.612  1.00 20.00     0.012 C 
BRANCH   8  10
HETATM   10  C10 UNL     1     -36.585  16.277  -7.801  1.00 20.00     0.000 C 
HETATM   11  C8  UNL     1     -37.577  15.162  -7.917  1.00 20.00     0.005 C 
ENDBRANCH   8  10
ENDBRANCH   4   5
BRANCH   4  12
HETATM   12  O12 UNL     1     -32.467  15.663  -4.613  1.00 20.00    -0.394 OA
HETATM   13  H30 UNL     1     -32.340  16.042  -5.496  1.00 20.00     0.210 HD
ENDBRANCH   4  12
ENDBRANCH   3   4
TORSDOF 4
ENDMDL
MODEL 9
REMARK VINA RESULT:      -4.5      1.721      4.191
REMARK  4 active torsions:
REMARK  status: ('A' for Active; 'I' for Inactive)
REMARK    1  A    between atoms: C6_6  and  C10_10 
REMARK    2  A    between atoms: C7_7  and  C11_11 
REMARK    3  A    between atoms: C9_9  and  C11_11 
REMARK    4  A    between atoms: C11_11  and  O12_12 
ROOT
HETATM    1  C1  UNL     1     -33.831  16.185  -2.611  1.00 20.00     0.012 C 
HETATM    2  C2  UNL     1     -33.609  15.121  -3.121  1.00 20.00    -0.115 C 
HETATM    3  C9  UNL     1     -33.333  13.815  -3.744  1.00 20.00     0.125 C 
ENDROOT
BRANCH   3   4
HETATM    4  C11 UNL     1     -34.366  13.478  -4.823  1.00 20.00     0.133 C 
BRANCH   4   5
HETATM    5  C7  UNL     1     -34.948  14.739  -5.443  1.00 20.00     0.015 C 
HETATM    6  C4  UNL     1     -36.354  14.535  -6.015  1.00 20.00     0.007 C 
HETATM    7  C3  UNL     1     -36.441  15.406  -7.271  1.00 20.00     0.005 C 
HETATM    8  C6  UNL     1     -35.109  16.155  -7.380  1.00 20.00    -0.014 C 
HETATM    9  C5  UNL     1     -34.132  15.254  -6.626  1.00 20.00     0.012 C 
BRANCH   8  10
HETATM   10  C10 UNL     1     -35.196  17.557  -6.777  1.00 20.00     0.000 C 
HETATM   11  C8  UNL     1     -33.875  18.021  -6.250  1.00 20.00     0.005 C 
ENDBRANCH   8  10
ENDBRANCH   4   5
BRANCH   4  12
HETATM   12  O12 UNL     1     -35.425  12.732  -4.223  1.00 20.00    -0.394 OA
HETATM   13  H30 UNL     1     -35.110  12.467  -3.346  1.00 20.00     0.210 HD
ENDBRANCH   4  12
ENDBRANCH   3   4
TORSDOF 4
ENDMDL
