MODEL 1
REMARK VINA RESULT:      -4.4      0.000      0.000
REMARK  3 active torsions:
REMARK  status: ('A' for Active; 'I' for Inactive)
REMARK    1  A    between atoms: C5_5  and  C7_7 
REMARK    2  A    between atoms: C6_6  and  C8_8 
REMARK    3  A    between atoms: C7_7  and  C8_8 
ROOT
HETATM    1  C1  UNL     1     -34.651  13.787  -4.174  1.00 20.00     0.069 C 
HETATM    2  C4  UNL     1     -32.617  15.065  -3.673  1.00 20.00     0.031 C 
HETATM    3  C8  UNL     1     -34.151  15.135  -3.809  1.00 20.00     0.045 C 
HETATM    4  N9  UNL     1     -35.041  12.731  -4.458  1.00 20.00    -0.196 NA
ENDROOT
BRANCH   3   5
HETATM    5  C6  UNL     1     -34.475  16.131  -4.960  1.00 20.00     0.020 C 
HETATM    6  C3  UNL     1     -34.110  15.661  -6.365  1.00 20.00     0.007 C 
ENDBRANCH   3   5
BRANCH   3   7
HETATM    7  C7  UNL     1     -34.810  15.604  -2.482  1.00 20.00     0.024 C 
BRANCH   7   8
HETATM    8  C5  UNL     1     -34.035  16.678  -1.704  1.00 20.00    -0.003 C 
HETATM    9  C2  UNL     1     -34.702  16.978  -0.367  1.00 20.00     0.005 C 
ENDBRANCH   7   8
ENDBRANCH   3   7
TORSDOF 3
ENDMDL
MODEL 2
REMARK VINA RESULT:      -4.2      1.458      1.820
REMARK  3 active torsions:
REMARK  status: ('A' for Active; 'I' for Inactive)
REMARK    1  A    between atoms: C5_5  and  C7_7 
REMARK    2  A    between atoms: C6_6  and  C8_8 
REMARK    3  A    between atoms: C7_7  and  C8_8 
ROOT
HETATM    1  C1  UNL     1     -36.516  14.397  -4.034  1.00 20.00     0.069 C 
HETATM    2  C4  UNL     1     -34.639  13.091  -4.924  1.00 20.00     0.031 C 
HETATM    3  C8  UNL     1     -35.066  14.454  -4.344  1.00 20.00     0.045 C 
HETATM    4  N9  UNL     1     -37.650  14.350  -3.791  1.00 20.00    -0.196 NA
ENDROOT
BRANCH   3   5
HETATM    5  C6  UNL     1     -34.818  15.529  -5.441  1.00 20.00     0.020 C 
HETATM    6  C3  UNL     1     -34.508  14.993  -6.836  1.00 20.00     0.007 C 
ENDBRANCH   3   5
BRANCH   3   7
HETATM    7  C7  UNL     1     -34.262  14.792  -3.058  1.00 20.00     0.024 C 
BRANCH   7   8
HETATM    8  C5  UNL     1     -34.238  16.277  -2.666  1.00 20.00    -0.003 C 
HETATM    9  C2  UNL     1     -34.640  16.469  -1.210  1.00 20.00     0.005 C 
ENDBRANCH   7   8
ENDBRANCH   3   7
TORSDOF 3
ENDMDL
MODEL 3
REMARK VINA RESULT:      -4.1      0.902      1.130
REMARK  3 active torsions:
REMARK  status: ('A' for Active; 'I' for Inactive)
REMARK    1  A    between atoms: C5_5  and  C7_7 
REMARK    2  A    between atoms: C6_6  and  C8_8 
REMARK    3  A    between atoms: C7_7  and  C8_8 
ROOT
HETATM    1  C1  UNL     1     -34.776  13.879  -4.112  1.00 20.00     0.069 C 
HETATM    2  C4  UNL     1     -33.034  15.605  -4.033  1.00 20.00     0.031 C 
HETATM    3  C8  UNL     1     -34.528  15.308  -3.798  1.00 20.00     0.045 C 
HETATM    4  N9  UNL     1     -34.968  12.761  -4.357  1.00 20.00    -0.196 NA
ENDROOT
BRANCH   3   5
HETATM    5  C6  UNL     1     -35.344  16.198  -4.780  1.00 20.00     0.020 C 
HETATM    6  C3  UNL     1     -36.840  15.910  -4.849  1.00 20.00     0.007 C 
ENDBRANCH   3   5
BRANCH   3   7
HETATM    7  C7  UNL     1     -34.934  15.606  -2.328  1.00 20.00     0.024 C 
BRANCH   7   8
HETATM    8  C5  UNL     1     -34.121  16.705  -1.629  1.00 20.00    -0.003 C 
HETATM    9  C2  UNL     1     -34.704  17.036  -0.261  1.00 20.00     0.005 C 
ENDBRANCH   7   8
ENDBRANCH   3   7
TORSDOF 3
ENDMDL
MODEL 4
REMARK VINA RESULT:      -4.0     11.623     12.678
REMARK  3 active torsions:
REMARK  status: ('A' for Active; 'I' for Inactive)
REMARK    1  A    between atoms: C5_5  and  C7_7 
REMARK    2  A    between atoms: C6_6  and  C8_8 
REMARK    3  A    between atoms: C7_7  and  C8_8 
ROOT
HETATM    1  C1  UNL     1     -34.771   4.415   4.740  1.00 20.00     0.069 C 
HETATM    2  C4  UNL     1     -35.930   6.065   3.344  1.00 20.00     0.031 C 
HETATM    3  C8  UNL     1     -34.599   5.709   4.036  1.00 20.00     0.045 C 
HETATM    4  N9  UNL     1     -34.905   3.402   5.291  1.00 20.00    -0.196 NA
ENDROOT
BRANCH   3   5
HETATM    5  C6  UNL     1     -34.298   6.825   5.077  1.00 20.00     0.020 C 
HETATM    6  C3  UNL     1     -34.073   6.351   6.510  1.00 20.00     0.007 C 
ENDBRANCH   3   5
BRANCH   3   7
HETATM    7  C7  UNL     1     -33.443   5.601   3.003  1.00 20.00     0.024 C 
BRANCH   7   8
HETATM    8  C5  UNL     1     -32.206   6.460   3.306  1.00 20.00    -0.003 C 
HETATM    9  C2  UNL     1     -32.154   7.689   2.407  1.00 20.00     0.005 C 
ENDBRANCH   7   8
ENDBRANCH   3   7
TORSDOF 3
ENDMDL
MODEL 5
REMARK VINA RESULT:      -4.0      1.901      3.965
REMARK  3 active torsions:
REMARK  status: ('A' for Active; 'I' for Inactive)
REMARK    1  A    between atoms: C5_5  and  C7_7 
REMARK    2  A    between atoms: C6_6  and  C8_8 
REMARK    3  A    between atoms: C7_7  and  C8_8 
ROOT
HETATM    1  C1  UNL     1     -37.131  14.603  -3.817  1.00 20.00     0.069 C 
HETATM    2  C4  UNL     1     -35.252  15.682  -2.666  1.00 20.00     0.031 C 
HETATM    3  C8  UNL     1     -35.684  14.912  -3.929  1.00 20.00     0.045 C 
HETATM    4  N9  UNL     1     -38.263  14.363  -3.728  1.00 20.00    -0.196 NA
ENDROOT
BRANCH   3   5
HETATM    5  C6  UNL     1     -34.877  13.582  -3.967  1.00 20.00     0.020 C 
HETATM    6  C3  UNL     1     -33.372  13.714  -3.756  1.00 20.00     0.007 C 
ENDBRANCH   3   5
BRANCH   3   7
HETATM    7  C7  UNL     1     -35.418  15.747  -5.212  1.00 20.00     0.024 C 
BRANCH   7   8
HETATM    8  C5  UNL     1     -35.815  15.071  -6.534  1.00 20.00    -0.003 C 
HETATM    9  C2  UNL     1     -34.614  14.926  -7.460  1.00 20.00     0.005 C 
ENDBRANCH   7   8
ENDBRANCH   3   7
TORSDOF 3
ENDMDL
MODEL 6
REMARK VINA RESULT:      -3.9      1.804      2.509
REMARK  3 active torsions:
REMARK  status: ('A' for Active; 'I' for Inactive)
REMARK    1  A    between atoms: C5_5  and  C7_7 
REMARK    2  A    between atoms: C6_6  and  C8_8 
REMARK    3  A    between atoms: C7_7  and  C8_8 
ROOT
HETATM    1  C1  UNL     1     -34.067  16.273  -4.792  1.00 20.00     0.069 C 
HETATM    2  C4  UNL     1     -35.930  15.490  -3.401  1.00 20.00     0.031 C 
HETATM    3  C8  UNL     1     -34.396  15.549  -3.540  1.00 20.00     0.045 C 
HETATM    4  N9  UNL     1     -33.811  16.841  -5.772  1.00 20.00    -0.196 NA
ENDROOT
BRANCH   3   5
HETATM    5  C6  UNL     1     -33.878  14.086  -3.642  1.00 20.00     0.020 C 
HETATM    6  C3  UNL     1     -34.516  13.231  -4.732  1.00 20.00     0.007 C 
ENDBRANCH   3   5
BRANCH   3   7
HETATM    7  C7  UNL     1     -33.752  16.272  -2.325  1.00 20.00     0.024 C 
BRANCH   7   8
HETATM    8  C5  UNL     1     -34.672  16.470  -1.111  1.00 20.00    -0.003 C 
HETATM    9  C2  UNL     1     -34.197  17.629  -0.243  1.00 20.00     0.005 C 
ENDBRANCH   7   8
ENDBRANCH   3   7
TORSDOF 3
ENDMDL
MODEL 7
REMARK VINA RESULT:      -3.9      1.313      2.441
REMARK  3 active torsions:
REMARK  status: ('A' for Active; 'I' for Inactive)
REMARK    1  A    between atoms: C5_5  and  C7_7 
REMARK    2  A    between atoms: C6_6  and  C8_8 
REMARK    3  A    between atoms: C7_7  and  C8_8 
ROOT
HETATM    1  C1  UNL     1     -34.729  13.721  -5.114  1.00 20.00     0.069 C 
HETATM    2  C4  UNL     1     -34.407  15.042  -7.156  1.00 20.00     0.031 C 
HETATM    3  C8  UNL     1     -34.696  15.106  -5.643  1.00 20.00     0.045 C 
HETATM    4  N9  UNL     1     -34.754  12.636  -4.701  1.00 20.00    -0.196 NA
ENDROOT
BRANCH   3   5
HETATM    5  C6  UNL     1     -36.097  15.759  -5.460  1.00 20.00     0.020 C 
HETATM    6  C3  UNL     1     -36.911  15.259  -4.271  1.00 20.00     0.007 C 
ENDBRANCH   3   5
BRANCH   3   7
HETATM    7  C7  UNL     1     -33.610  15.931  -4.900  1.00 20.00     0.024 C 
BRANCH   7   8
HETATM    8  C5  UNL     1     -33.241  15.426  -3.497  1.00 20.00    -0.003 C 
HETATM    9  C2  UNL     1     -33.835  16.321  -2.416  1.00 20.00     0.005 C 
ENDBRANCH   7   8
ENDBRANCH   3   7
TORSDOF 3
ENDMDL
MODEL 8
REMARK VINA RESULT:      -3.8      0.985      3.816
REMARK  3 active torsions:
REMARK  status: ('A' for Active; 'I' for Inactive)
REMARK    1  A    between atoms: C5_5  and  C7_7 
REMARK    2  A    between atoms: C6_6  and  C8_8 
REMARK    3  A    between atoms: C7_7  and  C8_8 
ROOT
HETATM    1  C1  UNL     1     -34.882  13.935  -4.153  1.00 20.00     0.069 C 
HETATM    2  C4  UNL     1     -36.131  16.015  -3.792  1.00 20.00     0.031 C 
HETATM    3  C8  UNL     1     -34.732  15.403  -4.001  1.00 20.00     0.045 C 
HETATM    4  N9  UNL     1     -35.000  12.787  -4.273  1.00 20.00    -0.196 NA
ENDROOT
BRANCH   3   5
HETATM    5  C6  UNL     1     -33.894  15.704  -2.725  1.00 20.00     0.020 C 
HETATM    6  C3  UNL     1     -34.656  16.337  -1.565  1.00 20.00     0.007 C 
ENDBRANCH   3   5
BRANCH   3   7
HETATM    7  C7  UNL     1     -34.042  15.999  -5.259  1.00 20.00     0.024 C 
BRANCH   7   8
HETATM    8  C5  UNL     1     -34.924  16.093  -6.513  1.00 20.00    -0.003 C 
HETATM    9  C2  UNL     1     -34.543  15.029  -7.535  1.00 20.00     0.005 C 
ENDBRANCH   7   8
ENDBRANCH   3   7
TORSDOF 3
ENDMDL
MODEL 9
REMARK VINA RESULT:      -3.8      1.993      4.146
REMARK  3 active torsions:
REMARK  status: ('A' for Active; 'I' for Inactive)
REMARK    1  A    between atoms: C5_5  and  C7_7 
REMARK    2  A    between atoms: C6_6  and  C8_8 
REMARK    3  A    between atoms: C7_7  and  C8_8 
ROOT
HETATM    1  C1  UNL     1     -33.546  15.903  -4.757  1.00 20.00     0.069 C 
HETATM    2  C4  UNL     1     -33.074  13.797  -3.591  1.00 20.00     0.031 C 
HETATM    3  C8  UNL     1     -34.169  14.654  -4.256  1.00 20.00     0.045 C 
HETATM    4  N9  UNL     1     -33.057  16.880  -5.150  1.00 20.00    -0.196 NA
ENDROOT
BRANCH   3   5
HETATM    5  C6  UNL     1     -35.217  15.006  -3.161  1.00 20.00     0.020 C 
HETATM    6  C3  UNL     1     -34.742  15.963  -2.072  1.00 20.00     0.007 C 
ENDBRANCH   3   5
BRANCH   3   7
HETATM    7  C7  UNL     1     -34.843  13.889  -5.428  1.00 20.00     0.024 C 
BRANCH   7   8
HETATM    8  C5  UNL     1     -35.739  14.739  -6.342  1.00 20.00    -0.003 C 
HETATM    9  C2  UNL     1     -35.299  14.636  -7.797  1.00 20.00     0.005 C 
ENDBRANCH   7   8
ENDBRANCH   3   7
TORSDOF 3
ENDMDL
