MODEL 1
REMARK VINA RESULT:      -5.1      0.000      0.000
REMARK  4 active torsions:
REMARK  status: ('A' for Active; 'I' for Inactive)
REMARK    1  A    between atoms: C6_6  and  C10_10 
REMARK    2  A    between atoms: C7_7  and  C11_11 
REMARK    3  A    between atoms: C9_9  and  C11_11 
REMARK    4  A    between atoms: C11_11  and  O12_12 
ROOT
HETATM    1  C1  UNL     1     -32.824  10.349   1.890  1.00 20.00     0.012 C 
HETATM    2  C2  UNL     1     -32.364   9.251   1.732  1.00 20.00    -0.115 C 
HETATM    3  C9  UNL     1     -31.799   7.906   1.534  1.00 20.00     0.125 C 
ENDROOT
BRANCH   3   4
HETATM    4  C11 UNL     1     -31.788   7.103   2.838  1.00 20.00     0.133 C 
BRANCH   4   5
HETATM    5  C7  UNL     1     -33.198   6.869   3.355  1.00 20.00     0.015 C 
HETATM    6  C4  UNL     1     -33.878   5.651   2.727  1.00 20.00     0.007 C 
HETATM    7  C3  UNL     1     -34.831   5.103   3.794  1.00 20.00     0.005 C 
HETATM    8  C6  UNL     1     -34.650   5.998   5.024  1.00 20.00    -0.014 C 
HETATM    9  C5  UNL     1     -33.249   6.578   4.852  1.00 20.00     0.012 C 
BRANCH   8  10
HETATM   10  C10 UNL     1     -34.833   5.256   6.337  1.00 20.00     0.000 C 
HETATM   11  C8  UNL     1     -35.114   3.802   6.124  1.00 20.00     0.005 C 
ENDBRANCH   8  10
ENDBRANCH   4   5
BRANCH   4  12
HETATM   12  O12 UNL     1     -31.057   7.837   3.821  1.00 20.00    -0.394 OA
HETATM   13  H30 UNL     1     -30.338   8.285   3.349  1.00 20.00     0.210 HD
ENDBRANCH   4  12
ENDBRANCH   3   4
TORSDOF 4
ENDMDL
MODEL 2
REMARK VINA RESULT:      -5.0     10.897     11.868
REMARK  4 active torsions:
REMARK  status: ('A' for Active; 'I' for Inactive)
REMARK    1  A    between atoms: C6_6  and  C10_10 
REMARK    2  A    between atoms: C7_7  and  C11_11 
REMARK    3  A    between atoms: C9_9  and  C11_11 
REMARK    4  A    between atoms: C11_11  and  O12_12 
ROOT
HETATM    1  C1  UNL     1     -36.231  14.790  -7.771  1.00 20.00     0.012 C 
HETATM    2  C2  UNL     1     -35.475  14.499  -6.884  1.00 20.00    -0.115 C 
HETATM    3  C9  UNL     1     -34.544  14.145  -5.801  1.00 20.00     0.125 C 
ENDROOT
BRANCH   3   4
HETATM    4  C11 UNL     1     -35.276  13.962  -4.467  1.00 20.00     0.133 C 
BRANCH   4   5
HETATM    5  C7  UNL     1     -34.531  14.643  -3.331  1.00 20.00     0.015 C 
HETATM    6  C4  UNL     1     -33.504  15.671  -3.811  1.00 20.00     0.007 C 
HETATM    7  C3  UNL     1     -33.436  16.741  -2.717  1.00 20.00     0.005 C 
HETATM    8  C6  UNL     1     -34.452  16.323  -1.650  1.00 20.00    -0.014 C 
HETATM    9  C5  UNL     1     -35.444  15.449  -2.412  1.00 20.00     0.012 C 
BRANCH   8  10
HETATM   10  C10 UNL     1     -35.107  17.502  -0.951  1.00 20.00     0.000 C 
HETATM   11  C8  UNL     1     -35.034  17.381   0.539  1.00 20.00     0.005 C 
ENDBRANCH   8  10
ENDBRANCH   4   5
BRANCH   4  12
HETATM   12  O12 UNL     1     -35.366  12.566  -4.184  1.00 20.00    -0.394 OA
HETATM   13  H30 UNL     1     -36.238  12.279  -4.496  1.00 20.00     0.210 HD
ENDBRANCH   4  12
ENDBRANCH   3   4
TORSDOF 4
ENDMDL
MODEL 3
REMARK VINA RESULT:      -4.8     10.676     12.271
REMARK  4 active torsions:
REMARK  status: ('A' for Active; 'I' for Inactive)
REMARK    1  A    between atoms: C6_6  and  C10_10 
REMARK    2  A    between atoms: C7_7  and  C11_11 
REMARK    3  A    between atoms: C9_9  and  C11_11 
REMARK    4  A    between atoms: C11_11  and  O12_12 
ROOT
HETATM    1  C1  UNL     1     -35.120  17.677   1.028  1.00 20.00     0.012 C 
HETATM    2  C2  UNL     1     -34.636  17.338  -0.016  1.00 20.00    -0.115 C 
HETATM    3  C9  UNL     1     -34.037  16.926  -1.296  1.00 20.00     0.125 C 
ENDROOT
BRANCH   3   4
HETATM    4  C11 UNL     1     -34.843  15.804  -1.959  1.00 20.00     0.133 C 
BRANCH   4   5
HETATM    5  C7  UNL     1     -34.150  15.291  -3.211  1.00 20.00     0.015 C 
HETATM    6  C4  UNL     1     -34.558  13.865  -3.586  1.00 20.00     0.007 C 
HETATM    7  C3  UNL     1     -34.455  13.785  -5.112  1.00 20.00     0.005 C 
HETATM    8  C6  UNL     1     -34.026  15.178  -5.582  1.00 20.00    -0.014 C 
HETATM    9  C5  UNL     1     -34.488  16.102  -4.459  1.00 20.00     0.012 C 
BRANCH   8  10
HETATM   10  C10 UNL     1     -34.597  15.555  -6.939  1.00 20.00     0.000 C 
HETATM   11  C8  UNL     1     -35.452  14.467  -7.509  1.00 20.00     0.005 C 
ENDBRANCH   8  10
ENDBRANCH   4   5
BRANCH   4  12
HETATM   12  O12 UNL     1     -36.125  16.318  -2.323  1.00 20.00    -0.394 OA
HETATM   13  H30 UNL     1     -35.963  17.030  -2.962  1.00 20.00     0.210 HD
ENDBRANCH   4  12
ENDBRANCH   3   4
TORSDOF 4
ENDMDL
MODEL 4
REMARK VINA RESULT:      -4.8     10.811     13.084
REMARK  4 active torsions:
REMARK  status: ('A' for Active; 'I' for Inactive)
REMARK    1  A    between atoms: C6_6  and  C10_10 
REMARK    2  A    between atoms: C7_7  and  C11_11 
REMARK    3  A    between atoms: C9_9  and  C11_11 
REMARK    4  A    between atoms: C11_11  and  O12_12 
ROOT
HETATM    1  C1  UNL     1     -34.798  15.761  -2.342  1.00 20.00     0.012 C 
HETATM    2  C2  UNL     1     -34.198  14.988  -3.037  1.00 20.00    -0.115 C 
HETATM    3  C9  UNL     1     -33.458  14.040  -3.887  1.00 20.00     0.125 C 
ENDROOT
BRANCH   3   4
HETATM    4  C11 UNL     1     -34.397  13.270  -4.820  1.00 20.00     0.133 C 
BRANCH   4   5
HETATM    5  C7  UNL     1     -34.926  14.162  -5.930  1.00 20.00     0.015 C 
HETATM    6  C4  UNL     1     -36.292  14.776  -5.613  1.00 20.00     0.007 C 
HETATM    7  C3  UNL     1     -36.324  16.128  -6.332  1.00 20.00     0.005 C 
HETATM    8  C6  UNL     1     -34.961  16.277  -7.017  1.00 20.00    -0.014 C 
HETATM    9  C5  UNL     1     -34.040  15.375  -6.200  1.00 20.00     0.012 C 
BRANCH   8  10
HETATM   10  C10 UNL     1     -34.480  17.716  -7.088  1.00 20.00     0.000 C 
HETATM   11  C8  UNL     1     -33.682  18.100  -5.882  1.00 20.00     0.005 C 
ENDBRANCH   8  10
ENDBRANCH   4   5
BRANCH   4  12
HETATM   12  O12 UNL     1     -35.501  12.784  -4.057  1.00 20.00    -0.394 OA
HETATM   13  H30 UNL     1     -36.297  13.181  -4.443  1.00 20.00     0.210 HD
ENDBRANCH   4  12
ENDBRANCH   3   4
TORSDOF 4
ENDMDL
MODEL 5
REMARK VINA RESULT:      -4.7     10.856     11.920
REMARK  4 active torsions:
REMARK  status: ('A' for Active; 'I' for Inactive)
REMARK    1  A    between atoms: C6_6  and  C10_10 
REMARK    2  A    between atoms: C7_7  and  C11_11 
REMARK    3  A    between atoms: C9_9  and  C11_11 
REMARK    4  A    between atoms: C11_11  and  O12_12 
ROOT
HETATM    1  C1  UNL     1     -38.754  15.009  -3.733  1.00 20.00     0.012 C 
HETATM    2  C2  UNL     1     -37.712  14.776  -4.281  1.00 20.00    -0.115 C 
HETATM    3  C9  UNL     1     -36.435  14.493  -4.957  1.00 20.00     0.125 C 
ENDROOT
BRANCH   3   4
HETATM    4  C11 UNL     1     -35.450  13.782  -4.024  1.00 20.00     0.133 C 
BRANCH   4   5
HETATM    5  C7  UNL     1     -34.350  14.723  -3.561  1.00 20.00     0.015 C 
HETATM    6  C4  UNL     1     -34.065  15.853  -4.552  1.00 20.00     0.007 C 
HETATM    7  C3  UNL     1     -33.601  17.046  -3.709  1.00 20.00     0.005 C 
HETATM    8  C6  UNL     1     -33.666  16.585  -2.250  1.00 20.00    -0.014 C 
HETATM    9  C5  UNL     1     -34.693  15.456  -2.268  1.00 20.00     0.012 C 
BRANCH   8  10
HETATM   10  C10 UNL     1     -34.021  17.702  -1.283  1.00 20.00     0.000 C 
HETATM   11  C8  UNL     1     -34.791  17.198  -0.103  1.00 20.00     0.005 C 
ENDBRANCH   8  10
ENDBRANCH   4   5
BRANCH   4  12
HETATM   12  O12 UNL     1     -34.854  12.695  -4.734  1.00 20.00    -0.394 OA
HETATM   13  H30 UNL     1     -34.795  11.958  -4.106  1.00 20.00     0.210 HD
ENDBRANCH   4  12
ENDBRANCH   3   4
TORSDOF 4
ENDMDL
MODEL 6
REMARK VINA RESULT:      -4.5     11.300     12.196
REMARK  4 active torsions:
REMARK  status: ('A' for Active; 'I' for Inactive)
REMARK    1  A    between atoms: C6_6  and  C10_10 
REMARK    2  A    between atoms: C7_7  and  C11_11 
REMARK    3  A    between atoms: C9_9  and  C11_11 
REMARK    4  A    between atoms: C11_11  and  O12_12 
ROOT
HETATM    1  C1  UNL     1     -34.648  14.779  -7.117  1.00 20.00     0.012 C 
HETATM    2  C2  UNL     1     -34.988  14.501  -5.999  1.00 20.00    -0.115 C 
HETATM    3  C9  UNL     1     -35.402  14.157  -4.629  1.00 20.00     0.125 C 
ENDROOT
BRANCH   3   4
HETATM    4  C11 UNL     1     -35.805  15.402  -3.834  1.00 20.00     0.133 C 
BRANCH   4   5
HETATM    5  C7  UNL     1     -34.612  16.008  -3.114  1.00 20.00     0.015 C 
HETATM    6  C4  UNL     1     -34.214  17.383  -3.656  1.00 20.00     0.007 C 
HETATM    7  C3  UNL     1     -33.626  18.150  -2.467  1.00 20.00     0.005 C 
HETATM    8  C6  UNL     1     -33.731  17.211  -1.261  1.00 20.00    -0.014 C 
HETATM    9  C5  UNL     1     -34.871  16.266  -1.633  1.00 20.00     0.012 C 
BRANCH   8  10
HETATM   10  C10 UNL     1     -33.964  17.942   0.050  1.00 20.00     0.000 C 
HETATM   11  C8  UNL     1     -35.195  17.458   0.751  1.00 20.00     0.005 C 
ENDBRANCH   8  10
ENDBRANCH   4   5
BRANCH   4  12
HETATM   12  O12 UNL     1     -36.783  15.026  -2.862  1.00 20.00    -0.394 OA
HETATM   13  H30 UNL     1     -36.624  14.091  -2.662  1.00 20.00     0.210 HD
ENDBRANCH   4  12
ENDBRANCH   3   4
TORSDOF 4
ENDMDL
MODEL 7
REMARK VINA RESULT:      -4.5     11.281     12.806
REMARK  4 active torsions:
REMARK  status: ('A' for Active; 'I' for Inactive)
REMARK    1  A    between atoms: C6_6  and  C10_10 
REMARK    2  A    between atoms: C7_7  and  C11_11 
REMARK    3  A    between atoms: C9_9  and  C11_11 
REMARK    4  A    between atoms: C11_11  and  O12_12 
ROOT
HETATM    1  C1  UNL     1     -34.488  16.808  -0.863  1.00 20.00     0.012 C 
HETATM    2  C2  UNL     1     -34.344  16.161  -1.864  1.00 20.00    -0.115 C 
HETATM    3  C9  UNL     1     -34.171  15.364  -3.089  1.00 20.00     0.125 C 
ENDROOT
BRANCH   3   4
HETATM    4  C11 UNL     1     -33.589  16.206  -4.230  1.00 20.00     0.133 C 
BRANCH   4   5
HETATM    5  C7  UNL     1     -34.506  16.200  -5.443  1.00 20.00     0.015 C 
HETATM    6  C4  UNL     1     -34.396  14.922  -6.277  1.00 20.00     0.007 C 
HETATM    7  C3  UNL     1     -35.779  14.704  -6.898  1.00 20.00     0.005 C 
HETATM    8  C6  UNL     1     -36.662  15.843  -6.378  1.00 20.00    -0.014 C 
HETATM    9  C5  UNL     1     -35.986  16.266  -5.077  1.00 20.00     0.012 C 
BRANCH   8  10
HETATM   10  C10 UNL     1     -38.115  15.439  -6.193  1.00 20.00     0.000 C 
HETATM   11  C8  UNL     1     -38.403  15.012  -4.788  1.00 20.00     0.005 C 
ENDBRANCH   8  10
ENDBRANCH   4   5
BRANCH   4  12
HETATM   12  O12 UNL     1     -32.328  15.653  -4.607  1.00 20.00    -0.394 OA
HETATM   13  H30 UNL     1     -32.483  14.714  -4.789  1.00 20.00     0.210 HD
ENDBRANCH   4  12
ENDBRANCH   3   4
TORSDOF 4
ENDMDL
MODEL 8
REMARK VINA RESULT:      -4.5     11.038     11.845
REMARK  4 active torsions:
REMARK  status: ('A' for Active; 'I' for Inactive)
REMARK    1  A    between atoms: C6_6  and  C10_10 
REMARK    2  A    between atoms: C7_7  and  C11_11 
REMARK    3  A    between atoms: C9_9  and  C11_11 
REMARK    4  A    between atoms: C11_11  and  O12_12 
ROOT
HETATM    1  C1  UNL     1     -35.411  17.516   1.259  1.00 20.00     0.012 C 
HETATM    2  C2  UNL     1     -34.693  17.428   0.301  1.00 20.00    -0.115 C 
HETATM    3  C9  UNL     1     -33.808  17.320  -0.871  1.00 20.00     0.125 C 
ENDROOT
BRANCH   3   4
HETATM    4  C11 UNL     1     -34.607  17.274  -2.177  1.00 20.00     0.133 C 
BRANCH   4   5
HETATM    5  C7  UNL     1     -35.115  15.870  -2.464  1.00 20.00     0.015 C 
HETATM    6  C4  UNL     1     -36.505  15.849  -3.102  1.00 20.00     0.007 C 
HETATM    7  C3  UNL     1     -36.542  14.603  -3.993  1.00 20.00     0.005 C 
HETATM    8  C6  UNL     1     -35.158  13.956  -3.874  1.00 20.00    -0.014 C 
HETATM    9  C5  UNL     1     -34.248  15.111  -3.464  1.00 20.00     0.012 C 
BRANCH   8  10
HETATM   10  C10 UNL     1     -34.708  13.264  -5.150  1.00 20.00     0.000 C 
HETATM   11  C8  UNL     1     -34.879  14.139  -6.352  1.00 20.00     0.005 C 
ENDBRANCH   8  10
ENDBRANCH   4   5
BRANCH   4  12
HETATM   12  O12 UNL     1     -33.755  17.680  -3.248  1.00 20.00    -0.394 OA
HETATM   13  H30 UNL     1     -33.802  16.979  -3.916  1.00 20.00     0.210 HD
ENDBRANCH   4  12
ENDBRANCH   3   4
TORSDOF 4
ENDMDL
MODEL 9
REMARK VINA RESULT:      -4.4     10.737     12.687
REMARK  4 active torsions:
REMARK  status: ('A' for Active; 'I' for Inactive)
REMARK    1  A    between atoms: C6_6  and  C10_10 
REMARK    2  A    between atoms: C7_7  and  C11_11 
REMARK    3  A    between atoms: C9_9  and  C11_11 
REMARK    4  A    between atoms: C11_11  and  O12_12 
ROOT
HETATM    1  C1  UNL     1     -34.644  15.867  -2.256  1.00 20.00     0.012 C 
HETATM    2  C2  UNL     1     -34.110  15.040  -2.944  1.00 20.00    -0.115 C 
HETATM    3  C9  UNL     1     -33.452  14.026  -3.783  1.00 20.00     0.125 C 
ENDROOT
BRANCH   3   4
HETATM    4  C11 UNL     1     -34.415  13.446  -4.824  1.00 20.00     0.133 C 
BRANCH   4   5
HETATM    5  C7  UNL     1     -35.107  14.548  -5.610  1.00 20.00     0.015 C 
HETATM    6  C4  UNL     1     -34.957  14.394  -7.125  1.00 20.00     0.007 C 
HETATM    7  C3  UNL     1     -36.225  14.997  -7.738  1.00 20.00     0.005 C 
HETATM    8  C6  UNL     1     -37.092  15.450  -6.558  1.00 20.00    -0.014 C 
HETATM    9  C5  UNL     1     -36.618  14.578  -5.399  1.00 20.00     0.012 C 
BRANCH   8  10
HETATM   10  C10 UNL     1     -38.582  15.329  -6.828  1.00 20.00     0.000 C 
HETATM   11  C8  UNL     1     -39.394  15.528  -5.586  1.00 20.00     0.005 C 
ENDBRANCH   8  10
ENDBRANCH   4   5
BRANCH   4  12
HETATM   12  O12 UNL     1     -35.408  12.674  -4.147  1.00 20.00    -0.394 OA
HETATM   13  H30 UNL     1     -35.140  11.747  -4.234  1.00 20.00     0.210 HD
ENDBRANCH   4  12
ENDBRANCH   3   4
TORSDOF 4
ENDMDL
