MODEL 1
REMARK VINA RESULT:      -4.6      0.000      0.000
REMARK  1 active torsions:
REMARK  status: ('A' for Active; 'I' for Inactive)
REMARK    1  A    between atoms: C5_5  and  C9_9 
ROOT
HETATM    1  C1  UNL     1     -37.198  14.779  -3.855  1.00 20.00     0.069 C 
HETATM    2  C2  UNL     1     -33.577  15.230  -3.134  1.00 20.00     0.006 C 
HETATM    3  C3  UNL     1     -34.756  14.396  -3.641  1.00 20.00     0.024 C 
HETATM    4  C4  UNL     1     -35.660  16.475  -2.907  1.00 20.00     0.029 C 
HETATM    5  C5  UNL     1     -34.139  16.618  -2.794  1.00 20.00    -0.013 C 
HETATM    6  C6  UNL     1     -35.867  15.399  -3.980  1.00 20.00     0.046 C 
HETATM    7  C7  UNL     1     -35.700  15.962  -5.398  1.00 20.00     0.031 C 
HETATM    8  N10 UNL     1     -38.246  14.292  -3.756  1.00 20.00    -0.196 NA
ENDROOT
BRANCH   5   9
HETATM    9  C9  UNL     1     -33.696  17.122  -1.429  1.00 20.00     0.000 C 
HETATM   10  C8  UNL     1     -34.743  16.901  -0.384  1.00 20.00     0.005 C 
ENDBRANCH   5   9
TORSDOF 1
ENDMDL
MODEL 2
REMARK VINA RESULT:      -4.5      1.572      1.836
REMARK  1 active torsions:
REMARK  status: ('A' for Active; 'I' for Inactive)
REMARK    1  A    between atoms: C5_5  and  C9_9 
ROOT
HETATM    1  C1  UNL     1     -34.898  13.725  -4.425  1.00 20.00     0.069 C 
HETATM    2  C2  UNL     1     -33.531  17.133  -3.832  1.00 20.00     0.006 C 
HETATM    3  C3  UNL     1     -33.670  15.865  -4.679  1.00 20.00     0.024 C 
HETATM    4  C4  UNL     1     -34.959  15.510  -2.707  1.00 20.00     0.029 C 
HETATM    5  C5  UNL     1     -34.473  16.960  -2.632  1.00 20.00    -0.013 C 
HETATM    6  C6  UNL     1     -34.959  15.180  -4.206  1.00 20.00     0.046 C 
HETATM    7  C7  UNL     1     -36.192  15.751  -4.920  1.00 20.00     0.031 C 
HETATM    8  N10 UNL     1     -34.850  12.578  -4.597  1.00 20.00    -0.196 NA
ENDROOT
BRANCH   5   9
HETATM    9  C9  UNL     1     -33.810  17.289  -1.303  1.00 20.00     0.000 C 
HETATM   10  C8  UNL     1     -34.734  17.071  -0.148  1.00 20.00     0.005 C 
ENDBRANCH   5   9
TORSDOF 1
ENDMDL
MODEL 3
REMARK VINA RESULT:      -4.5      2.057      2.711
REMARK  1 active torsions:
REMARK  status: ('A' for Active; 'I' for Inactive)
REMARK    1  A    between atoms: C5_5  and  C9_9 
ROOT
HETATM    1  C1  UNL     1     -34.520  14.891  -6.430  1.00 20.00     0.069 C 
HETATM    2  C2  UNL     1     -35.851  15.446  -3.002  1.00 20.00     0.006 C 
HETATM    3  C3  UNL     1     -36.046  15.157  -4.492  1.00 20.00     0.024 C 
HETATM    4  C4  UNL     1     -33.701  15.408  -4.149  1.00 20.00     0.029 C 
HETATM    5  C5  UNL     1     -34.336  15.467  -2.756  1.00 20.00    -0.013 C 
HETATM    6  C6  UNL     1     -34.703  14.611  -4.995  1.00 20.00     0.046 C 
HETATM    7  C7  UNL     1     -34.585  13.100  -4.752  1.00 20.00     0.031 C 
HETATM    8  N10 UNL     1     -34.375  15.111  -7.560  1.00 20.00    -0.196 NA
ENDROOT
BRANCH   5   9
HETATM    9  C9  UNL     1     -33.880  16.676  -1.954  1.00 20.00     0.000 C 
HETATM   10  C8  UNL     1     -34.622  16.804  -0.662  1.00 20.00     0.005 C 
ENDBRANCH   5   9
TORSDOF 1
ENDMDL
MODEL 4
REMARK VINA RESULT:      -4.4      1.536      2.427
REMARK  1 active torsions:
REMARK  status: ('A' for Active; 'I' for Inactive)
REMARK    1  A    between atoms: C5_5  and  C9_9 
ROOT
HETATM    1  C1  UNL     1     -36.901  14.504  -3.877  1.00 20.00     0.069 C 
HETATM    2  C2  UNL     1     -33.592  16.095  -3.283  1.00 20.00     0.006 C 
HETATM    3  C3  UNL     1     -34.849  15.374  -2.789  1.00 20.00     0.024 C 
HETATM    4  C4  UNL     1     -35.113  15.665  -5.139  1.00 20.00     0.029 C 
HETATM    5  C5  UNL     1     -33.699  16.155  -4.814  1.00 20.00    -0.013 C 
HETATM    6  C6  UNL     1     -35.445  14.673  -4.016  1.00 20.00     0.046 C 
HETATM    7  C7  UNL     1     -34.793  13.303  -4.251  1.00 20.00     0.031 C 
HETATM    8  N10 UNL     1     -38.049  14.370  -3.767  1.00 20.00    -0.196 NA
ENDROOT
BRANCH   5   9
HETATM    9  C9  UNL     1     -33.413  17.539  -5.376  1.00 20.00     0.000 C 
HETATM   10  C8  UNL     1     -33.759  18.621  -4.403  1.00 20.00     0.005 C 
ENDBRANCH   5   9
TORSDOF 1
ENDMDL
MODEL 5
REMARK VINA RESULT:      -4.4      1.925      3.701
REMARK  1 active torsions:
REMARK  status: ('A' for Active; 'I' for Inactive)
REMARK    1  A    between atoms: C5_5  and  C9_9 
ROOT
HETATM    1  C1  UNL     1     -35.742  17.831  -2.729  1.00 20.00     0.069 C 
HETATM    2  C2  UNL     1     -33.253  15.218  -3.628  1.00 20.00     0.006 C 
HETATM    3  C3  UNL     1     -33.643  16.676  -3.370  1.00 20.00     0.024 C 
HETATM    4  C4  UNL     1     -35.620  15.380  -3.074  1.00 20.00     0.029 C 
HETATM    5  C5  UNL     1     -34.491  14.371  -3.300  1.00 20.00    -0.013 C 
HETATM    6  C6  UNL     1     -34.919  16.627  -2.520  1.00 20.00     0.046 C 
HETATM    7  C7  UNL     1     -34.593  16.486  -1.027  1.00 20.00     0.031 C 
HETATM    8  N10 UNL     1     -36.390  18.779  -2.893  1.00 20.00    -0.196 NA
ENDROOT
BRANCH   5   9
HETATM    9  C9  UNL     1     -34.819  13.353  -4.381  1.00 20.00     0.000 C 
HETATM   10  C8  UNL     1     -34.939  13.987  -5.730  1.00 20.00     0.005 C 
ENDBRANCH   5   9
TORSDOF 1
ENDMDL
MODEL 6
REMARK VINA RESULT:      -4.2      2.070      3.396
REMARK  1 active torsions:
REMARK  status: ('A' for Active; 'I' for Inactive)
REMARK    1  A    between atoms: C5_5  and  C9_9 
ROOT
HETATM    1  C1  UNL     1     -34.508  13.659  -4.198  1.00 20.00     0.069 C 
HETATM    2  C2  UNL     1     -34.073  17.096  -2.844  1.00 20.00     0.006 C 
HETATM    3  C3  UNL     1     -34.451  15.621  -2.681  1.00 20.00     0.024 C 
HETATM    4  C4  UNL     1     -33.841  15.918  -4.965  1.00 20.00     0.029 C 
HETATM    5  C5  UNL     1     -33.546  17.255  -4.277  1.00 20.00    -0.013 C 
HETATM    6  C6  UNL     1     -33.767  14.880  -3.838  1.00 20.00     0.046 C 
HETATM    7  C7  UNL     1     -32.318  14.512  -3.489  1.00 20.00     0.031 C 
HETATM    8  N10 UNL     1     -35.091  12.697  -4.482  1.00 20.00    -0.196 NA
ENDROOT
BRANCH   5   9
HETATM    9  C9  UNL     1     -34.159  18.439  -5.008  1.00 20.00     0.000 C 
HETATM   10  C8  UNL     1     -33.966  18.344  -6.488  1.00 20.00     0.005 C 
ENDBRANCH   5   9
TORSDOF 1
ENDMDL
MODEL 7
REMARK VINA RESULT:      -4.2      1.483      1.774
REMARK  1 active torsions:
REMARK  status: ('A' for Active; 'I' for Inactive)
REMARK    1  A    between atoms: C5_5  and  C9_9 
ROOT
HETATM    1  C1  UNL     1     -36.896  15.235  -5.897  1.00 20.00     0.069 C 
HETATM    2  C2  UNL     1     -34.292  14.106  -3.494  1.00 20.00     0.006 C 
HETATM    3  C3  UNL     1     -35.516  13.844  -4.376  1.00 20.00     0.024 C 
HETATM    4  C4  UNL     1     -34.981  16.153  -4.621  1.00 20.00     0.029 C 
HETATM    5  C5  UNL     1     -33.864  15.555  -3.761  1.00 20.00    -0.013 C 
HETATM    6  C6  UNL     1     -35.528  14.965  -5.423  1.00 20.00     0.046 C 
HETATM    7  C7  UNL     1     -34.632  14.622  -6.622  1.00 20.00     0.031 C 
HETATM    8  N10 UNL     1     -37.974  15.447  -6.271  1.00 20.00    -0.196 NA
ENDROOT
BRANCH   5   9
HETATM    9  C9  UNL     1     -33.615  16.347  -2.487  1.00 20.00     0.000 C 
HETATM   10  C8  UNL     1     -34.772  16.265  -1.542  1.00 20.00     0.005 C 
ENDBRANCH   5   9
TORSDOF 1
ENDMDL
MODEL 8
REMARK VINA RESULT:      -4.1     11.381     12.249
REMARK  1 active torsions:
REMARK  status: ('A' for Active; 'I' for Inactive)
REMARK    1  A    between atoms: C5_5  and  C9_9 
ROOT
HETATM    1  C1  UNL     1     -32.499   7.597   2.382  1.00 20.00     0.069 C 
HETATM    2  C2  UNL     1     -34.913   5.243   3.953  1.00 20.00     0.006 C 
HETATM    3  C3  UNL     1     -34.397   6.043   2.754  1.00 20.00     0.024 C 
HETATM    4  C4  UNL     1     -32.954   6.551   4.581  1.00 20.00     0.029 C 
HETATM    5  C5  UNL     1     -33.903   5.460   5.089  1.00 20.00    -0.013 C 
HETATM    6  C6  UNL     1     -32.927   6.360   3.059  1.00 20.00     0.046 C 
HETATM    7  C7  UNL     1     -32.006   5.206   2.642  1.00 20.00     0.031 C 
HETATM    8  N10 UNL     1     -32.161   8.570   1.848  1.00 20.00    -0.196 NA
ENDROOT
BRANCH   5   9
HETATM    9  C9  UNL     1     -34.562   5.822   6.411  1.00 20.00     0.000 C 
HETATM   10  C8  UNL     1     -33.990   7.073   6.997  1.00 20.00     0.005 C 
ENDBRANCH   5   9
TORSDOF 1
ENDMDL
MODEL 9
REMARK VINA RESULT:      -4.0      2.115      4.159
REMARK  1 active torsions:
REMARK  status: ('A' for Active; 'I' for Inactive)
REMARK    1  A    between atoms: C5_5  and  C9_9 
ROOT
HETATM    1  C1  UNL     1     -34.313  15.910  -2.417  1.00 20.00     0.069 C 
HETATM    2  C2  UNL     1     -33.819  16.098  -6.098  1.00 20.00     0.006 C 
HETATM    3  C3  UNL     1     -33.617  16.643  -4.682  1.00 20.00     0.024 C 
HETATM    4  C4  UNL     1     -34.940  14.673  -4.470  1.00 20.00     0.029 C 
HETATM    5  C5  UNL     1     -34.550  14.756  -5.949  1.00 20.00    -0.013 C 
HETATM    6  C6  UNL     1     -33.843  15.456  -3.737  1.00 20.00     0.046 C 
HETATM    7  C7  UNL     1     -32.564  14.625  -3.564  1.00 20.00     0.031 C 
HETATM    8  N10 UNL     1     -34.683  16.267  -1.377  1.00 20.00    -0.196 NA
ENDROOT
BRANCH   5   9
HETATM    9  C9  UNL     1     -35.744  14.621  -6.881  1.00 20.00     0.000 C 
HETATM   10  C8  UNL     1     -36.960  15.298  -6.333  1.00 20.00     0.005 C 
ENDBRANCH   5   9
TORSDOF 1
ENDMDL
