MODEL 1
REMARK VINA RESULT:      -5.5      0.000      0.000
REMARK  3 active torsions:
REMARK  status: ('A' for Active; 'I' for Inactive)
REMARK    1  A    between atoms: C3_3  and  C7_7 
REMARK    2  A    between atoms: C3_3  and  C10_10 
REMARK    3  A    between atoms: C8_8  and  C11_11 
ROOT
HETATM    1  C1  UNL     1     -32.418   9.929   1.164  1.00 20.00     0.012 C 
HETATM    2  C2  UNL     1     -32.182   8.794   1.473  1.00 20.00    -0.110 C 
HETATM    3  C10 UNL     1     -31.895   7.403   1.843  1.00 20.00     0.171 C 
ENDROOT
BRANCH   3   4
HETATM    4  C3  UNL     1     -31.810   7.207   3.343  1.00 20.00     0.142 C 
HETATM    5  O12 UNL     1     -30.978   7.774   4.049  1.00 20.00    -0.297 OA
BRANCH   4   6
HETATM    6  C7  UNL     1     -32.828   6.256   3.949  1.00 20.00     0.057 C 
HETATM    7  C4  UNL     1     -33.900   5.814   2.959  1.00 20.00     0.013 C 
HETATM    8  C5  UNL     1     -35.014   5.262   3.846  1.00 20.00     0.005 C 
HETATM    9  C8  UNL     1     -34.896   6.010   5.175  1.00 20.00    -0.014 C 
HETATM   10  C6  UNL     1     -33.652   6.890   5.069  1.00 20.00     0.016 C 
BRANCH   9  11
HETATM   11  C11 UNL     1     -34.689   5.009   6.296  1.00 20.00     0.000 C 
HETATM   12  C9  UNL     1     -34.748   3.598   5.805  1.00 20.00     0.005 C 
ENDBRANCH   9  11
ENDBRANCH   4   6
ENDBRANCH   3   4
TORSDOF 3
ENDMDL
MODEL 2
REMARK VINA RESULT:      -5.3     10.764     11.831
REMARK  3 active torsions:
REMARK  status: ('A' for Active; 'I' for Inactive)
REMARK    1  A    between atoms: C3_3  and  C7_7 
REMARK    2  A    between atoms: C3_3  and  C10_10 
REMARK    3  A    between atoms: C8_8  and  C11_11 
ROOT
HETATM    1  C1  UNL     1     -34.426  15.123  -7.208  1.00 20.00     0.012 C 
HETATM    2  C2  UNL     1     -34.675  14.404  -6.280  1.00 20.00    -0.110 C 
HETATM    3  C10 UNL     1     -34.986  13.525  -5.147  1.00 20.00     0.171 C 
ENDROOT
BRANCH   3   4
HETATM    4  C3  UNL     1     -34.018  13.698  -3.994  1.00 20.00     0.142 C 
HETATM    5  O12 UNL     1     -33.020  12.995  -3.843  1.00 20.00    -0.297 OA
BRANCH   4   6
HETATM    6  C7  UNL     1     -34.346  14.808  -3.010  1.00 20.00     0.057 C 
HETATM    7  C4  UNL     1     -35.761  15.353  -3.171  1.00 20.00     0.013 C 
HETATM    8  C5  UNL     1     -35.724  16.692  -2.437  1.00 20.00     0.005 C 
HETATM    9  C8  UNL     1     -34.276  17.174  -2.526  1.00 20.00    -0.014 C 
HETATM   10  C6  UNL     1     -33.486  16.057  -3.204  1.00 20.00     0.016 C 
BRANCH   9  11
HETATM   11  C11 UNL     1     -33.728  17.374  -1.125  1.00 20.00     0.000 C 
HETATM   12  C9  UNL     1     -34.772  17.145  -0.077  1.00 20.00     0.005 C 
ENDBRANCH   9  11
ENDBRANCH   4   6
ENDBRANCH   3   4
TORSDOF 3
ENDMDL
MODEL 3
REMARK VINA RESULT:      -4.8     10.975     12.304
REMARK  3 active torsions:
REMARK  status: ('A' for Active; 'I' for Inactive)
REMARK    1  A    between atoms: C3_3  and  C7_7 
REMARK    2  A    between atoms: C3_3  and  C10_10 
REMARK    3  A    between atoms: C8_8  and  C11_11 
ROOT
HETATM    1  C1  UNL     1     -35.116  13.372  -4.054  1.00 20.00     0.012 C 
HETATM    2  C2  UNL     1     -34.319  14.219  -3.757  1.00 20.00    -0.110 C 
HETATM    3  C10 UNL     1     -33.340  15.249  -3.392  1.00 20.00     0.171 C 
ENDROOT
BRANCH   3   4
HETATM    4  C3  UNL     1     -33.993  16.543  -2.953  1.00 20.00     0.142 C 
HETATM    5  O12 UNL     1     -34.803  17.157  -3.648  1.00 20.00    -0.297 OA
BRANCH   4   6
HETATM    6  C7  UNL     1     -33.595  17.059  -1.581  1.00 20.00     0.057 C 
HETATM    7  C4  UNL     1     -34.705  16.927  -0.545  1.00 20.00     0.013 C 
HETATM    8  C5  UNL     1     -34.276  17.871   0.576  1.00 20.00     0.005 C 
HETATM    9  C8  UNL     1     -33.437  18.959  -0.096  1.00 20.00    -0.014 C 
HETATM   10  C6  UNL     1     -33.302  18.559  -1.564  1.00 20.00     0.016 C 
BRANCH   9  11
HETATM   11  C11 UNL     1     -32.055  18.982   0.529  1.00 20.00     0.000 C 
HETATM   12  C9  UNL     1     -32.115  18.942   2.024  1.00 20.00     0.005 C 
ENDBRANCH   9  11
ENDBRANCH   4   6
ENDBRANCH   3   4
TORSDOF 3
ENDMDL
MODEL 4
REMARK VINA RESULT:      -4.7     11.031     12.551
REMARK  3 active torsions:
REMARK  status: ('A' for Active; 'I' for Inactive)
REMARK    1  A    between atoms: C3_3  and  C7_7 
REMARK    2  A    between atoms: C3_3  and  C10_10 
REMARK    3  A    between atoms: C8_8  and  C11_11 
ROOT
HETATM    1  C1  UNL     1     -37.700  15.348  -7.305  1.00 20.00     0.012 C 
HETATM    2  C2  UNL     1     -36.596  14.900  -7.164  1.00 20.00    -0.110 C 
HETATM    3  C10 UNL     1     -35.245  14.350  -6.999  1.00 20.00     0.171 C 
ENDROOT
BRANCH   3   4
HETATM    4  C3  UNL     1     -34.958  13.934  -5.571  1.00 20.00     0.142 C 
HETATM    5  O12 UNL     1     -34.805  12.762  -5.230  1.00 20.00    -0.297 OA
BRANCH   4   6
HETATM    6  C7  UNL     1     -34.862  15.060  -4.556  1.00 20.00     0.057 C 
HETATM    7  C4  UNL     1     -33.969  16.207  -5.014  1.00 20.00     0.013 C 
HETATM    8  C5  UNL     1     -33.664  16.972  -3.728  1.00 20.00     0.005 C 
HETATM    9  C8  UNL     1     -33.744  15.940  -2.603  1.00 20.00    -0.014 C 
HETATM   10  C6  UNL     1     -34.205  14.632  -3.243  1.00 20.00     0.016 C 
BRANCH   9  11
HETATM   11  C11 UNL     1     -34.788  16.380  -1.593  1.00 20.00     0.000 C 
HETATM   12  C9  UNL     1     -34.219  17.308  -0.567  1.00 20.00     0.005 C 
ENDBRANCH   9  11
ENDBRANCH   4   6
ENDBRANCH   3   4
TORSDOF 3
ENDMDL
MODEL 5
REMARK VINA RESULT:      -4.7     11.430     12.481
REMARK  3 active torsions:
REMARK  status: ('A' for Active; 'I' for Inactive)
REMARK    1  A    between atoms: C3_3  and  C7_7 
REMARK    2  A    between atoms: C3_3  and  C10_10 
REMARK    3  A    between atoms: C8_8  and  C11_11 
ROOT
HETATM    1  C1  UNL     1     -35.221  14.735  -7.090  1.00 20.00     0.012 C 
HETATM    2  C2  UNL     1     -34.727  14.733  -5.996  1.00 20.00    -0.110 C 
HETATM    3  C10 UNL     1     -34.129  14.725  -4.656  1.00 20.00     0.171 C 
ENDROOT
BRANCH   3   4
HETATM    4  C3  UNL     1     -33.472  16.044  -4.305  1.00 20.00     0.142 C 
HETATM    5  O12 UNL     1     -32.946  16.777  -5.141  1.00 20.00    -0.297 OA
BRANCH   4   6
HETATM    6  C7  UNL     1     -33.497  16.430  -2.835  1.00 20.00     0.057 C 
HETATM    7  C4  UNL     1     -34.650  15.794  -2.067  1.00 20.00     0.013 C 
HETATM    8  C5  UNL     1     -34.751  16.631  -0.794  1.00 20.00     0.005 C 
HETATM    9  C8  UNL     1     -34.229  18.019  -1.169  1.00 20.00    -0.014 C 
HETATM   10  C6  UNL     1     -33.733  17.924  -2.610  1.00 20.00     0.016 C 
BRANCH   9  11
HETATM   11  C11 UNL     1     -33.055  18.371  -0.274  1.00 20.00     0.000 C 
HETATM   12  C9  UNL     1     -33.472  18.549   1.152  1.00 20.00     0.005 C 
ENDBRANCH   9  11
ENDBRANCH   4   6
ENDBRANCH   3   4
TORSDOF 3
ENDMDL
MODEL 6
REMARK VINA RESULT:      -4.6     11.163     13.186
REMARK  3 active torsions:
REMARK  status: ('A' for Active; 'I' for Inactive)
REMARK    1  A    between atoms: C3_3  and  C7_7 
REMARK    2  A    between atoms: C3_3  and  C10_10 
REMARK    3  A    between atoms: C8_8  and  C11_11 
ROOT
HETATM    1  C1  UNL     1     -34.637  16.165  -1.941  1.00 20.00     0.012 C 
HETATM    2  C2  UNL     1     -34.112  15.475  -2.771  1.00 20.00    -0.110 C 
HETATM    3  C10 UNL     1     -33.464  14.637  -3.786  1.00 20.00     0.171 C 
ENDROOT
BRANCH   3   4
HETATM    4  C3  UNL     1     -34.449  13.760  -4.531  1.00 20.00     0.142 C 
HETATM    5  O12 UNL     1     -34.798  12.650  -4.131  1.00 20.00    -0.297 OA
BRANCH   4   6
HETATM    6  C7  UNL     1     -35.002  14.331  -5.826  1.00 20.00     0.057 C 
HETATM    7  C4  UNL     1     -34.132  15.436  -6.414  1.00 20.00     0.013 C 
HETATM    8  C5  UNL     1     -35.054  16.142  -7.405  1.00 20.00     0.005 C 
HETATM    9  C8  UNL     1     -36.472  15.942  -6.867  1.00 20.00    -0.014 C 
HETATM   10  C6  UNL     1     -36.350  15.031  -5.648  1.00 20.00     0.016 C 
BRANCH   9  11
HETATM   11  C11 UNL     1     -37.310  15.238  -7.918  1.00 20.00     0.000 C 
HETATM   12  C9  UNL     1     -38.730  15.067  -7.479  1.00 20.00     0.005 C 
ENDBRANCH   9  11
ENDBRANCH   4   6
ENDBRANCH   3   4
TORSDOF 3
ENDMDL
MODEL 7
REMARK VINA RESULT:      -4.6     11.107     12.696
REMARK  3 active torsions:
REMARK  status: ('A' for Active; 'I' for Inactive)
REMARK    1  A    between atoms: C3_3  and  C7_7 
REMARK    2  A    between atoms: C3_3  and  C10_10 
REMARK    3  A    between atoms: C8_8  and  C11_11 
ROOT
HETATM    1  C1  UNL     1     -35.089  17.477   0.592  1.00 20.00     0.012 C 
HETATM    2  C2  UNL     1     -34.801  16.901  -0.421  1.00 20.00    -0.110 C 
HETATM    3  C10 UNL     1     -34.440  16.196  -1.657  1.00 20.00     0.171 C 
ENDROOT
BRANCH   3   4
HETATM    4  C3  UNL     1     -35.390  16.500  -2.797  1.00 20.00     0.142 C 
HETATM    5  O12 UNL     1     -36.088  17.512  -2.840  1.00 20.00    -0.297 OA
BRANCH   4   6
HETATM    6  C7  UNL     1     -35.439  15.472  -3.915  1.00 20.00     0.057 C 
HETATM    7  C4  UNL     1     -34.771  14.152  -3.545  1.00 20.00     0.013 C 
HETATM    8  C5  UNL     1     -34.542  13.467  -4.891  1.00 20.00     0.005 C 
HETATM    9  C8  UNL     1     -34.399  14.596  -5.912  1.00 20.00    -0.014 C 
HETATM   10  C6  UNL     1     -34.663  15.899  -5.160  1.00 20.00     0.016 C 
BRANCH   9  11
HETATM   11  C11 UNL     1     -35.457  14.434  -6.988  1.00 20.00     0.000 C 
HETATM   12  C9  UNL     1     -35.557  15.644  -7.863  1.00 20.00     0.005 C 
ENDBRANCH   9  11
ENDBRANCH   4   6
ENDBRANCH   3   4
TORSDOF 3
ENDMDL
MODEL 8
REMARK VINA RESULT:      -4.5     11.199     13.320
REMARK  3 active torsions:
REMARK  status: ('A' for Active; 'I' for Inactive)
REMARK    1  A    between atoms: C3_3  and  C7_7 
REMARK    2  A    between atoms: C3_3  and  C10_10 
REMARK    3  A    between atoms: C8_8  and  C11_11 
ROOT
HETATM    1  C1  UNL     1     -34.806  16.666  -1.111  1.00 20.00     0.012 C 
HETATM    2  C2  UNL     1     -34.140  16.198  -1.994  1.00 20.00    -0.110 C 
HETATM    3  C10 UNL     1     -33.323  15.633  -3.073  1.00 20.00     0.171 C 
ENDROOT
BRANCH   3   4
HETATM    4  C3  UNL     1     -34.052  14.557  -3.852  1.00 20.00     0.142 C 
HETATM    5  O12 UNL     1     -34.095  13.380  -3.496  1.00 20.00    -0.297 OA
BRANCH   4   6
HETATM    6  C7  UNL     1     -34.747  15.012  -5.125  1.00 20.00     0.057 C 
HETATM    7  C4  UNL     1     -35.174  13.855  -6.020  1.00 20.00     0.013 C 
HETATM    8  C5  UNL     1     -35.422  14.512  -7.376  1.00 20.00     0.005 C 
HETATM    9  C8  UNL     1     -34.508  15.737  -7.417  1.00 20.00    -0.014 C 
HETATM   10  C6  UNL     1     -33.840  15.827  -6.047  1.00 20.00     0.016 C 
BRANCH   9  11
HETATM   11  C11 UNL     1     -35.348  16.982  -7.631  1.00 20.00     0.000 C 
HETATM   12  C9  UNL     1     -34.624  18.225  -7.219  1.00 20.00     0.005 C 
ENDBRANCH   9  11
ENDBRANCH   4   6
ENDBRANCH   3   4
TORSDOF 3
ENDMDL
MODEL 9
REMARK VINA RESULT:      -4.5     10.974     12.036
REMARK  3 active torsions:
REMARK  status: ('A' for Active; 'I' for Inactive)
REMARK    1  A    between atoms: C3_3  and  C7_7 
REMARK    2  A    between atoms: C3_3  and  C10_10 
REMARK    3  A    between atoms: C8_8  and  C11_11 
ROOT
HETATM    1  C1  UNL     1     -35.056  18.035   2.653  1.00 20.00     0.012 C 
HETATM    2  C2  UNL     1     -35.127  17.779   1.482  1.00 20.00    -0.110 C 
HETATM    3  C10 UNL     1     -35.221  17.462   0.052  1.00 20.00     0.171 C 
ENDROOT
BRANCH   3   4
HETATM    4  C3  UNL     1     -33.889  17.586  -0.658  1.00 20.00     0.142 C 
HETATM    5  O12 UNL     1     -32.986  18.326  -0.271  1.00 20.00    -0.297 OA
BRANCH   4   6
HETATM    6  C7  UNL     1     -33.715  16.730  -1.902  1.00 20.00     0.057 C 
HETATM    7  C4  UNL     1     -33.756  17.537  -3.195  1.00 20.00     0.013 C 
HETATM    8  C5  UNL     1     -34.010  16.487  -4.275  1.00 20.00     0.005 C 
HETATM    9  C8  UNL     1     -34.777  15.359  -3.584  1.00 20.00    -0.014 C 
HETATM   10  C6  UNL     1     -34.848  15.724  -2.103  1.00 20.00     0.016 C 
BRANCH   9  11
HETATM   11  C11 UNL     1     -33.999  14.064  -3.728  1.00 20.00     0.000 C 
HETATM   12  C9  UNL     1     -34.537  13.206  -4.829  1.00 20.00     0.005 C 
ENDBRANCH   9  11
ENDBRANCH   4   6
ENDBRANCH   3   4
TORSDOF 3
ENDMDL
