MODEL 1
REMARK VINA RESULT:      -5.4      0.000      0.000
REMARK  2 active torsions:
REMARK  status: ('A' for Active; 'I' for Inactive)
REMARK    1  A    between atoms: C6_6  and  C10_10 
REMARK    2  A    between atoms: C7_7  and  C11_11 
ROOT
HETATM    1  C1  UNL     1     -36.655  14.554  -4.341  1.00 20.00     0.069 C 
HETATM    2  C2  UNL     1     -33.721  13.581  -3.867  1.00 20.00     0.002 C 
HETATM    3  C3  UNL     1     -33.028  14.876  -3.457  1.00 20.00     0.005 C 
HETATM    4  C4  UNL     1     -34.472  13.744  -5.188  1.00 20.00     0.024 C 
HETATM    5  C5  UNL     1     -34.821  16.207  -4.663  1.00 20.00     0.029 C 
HETATM    6  C6  UNL     1     -33.986  16.070  -3.375  1.00 20.00    -0.013 C 
HETATM    7  C7  UNL     1     -35.485  14.908  -5.176  1.00 20.00     0.049 C 
HETATM    8  N12 UNL     1     -37.571  14.277  -3.687  1.00 20.00    -0.196 NA
ENDROOT
BRANCH   7   9
HETATM    9  C11 UNL     1     -35.999  15.140  -6.611  1.00 20.00     0.020 C 
HETATM   10  C9  UNL     1     -34.943  14.840  -7.617  1.00 20.00     0.007 C 
ENDBRANCH   7   9
BRANCH   6  11
HETATM   11  C10 UNL     1     -34.842  16.023  -2.107  1.00 20.00     0.000 C 
HETATM   12  C8  UNL     1     -34.266  16.871  -1.022  1.00 20.00     0.005 C 
ENDBRANCH   6  11
TORSDOF 2
ENDMDL
MODEL 2
REMARK VINA RESULT:      -5.1      1.423      1.778
REMARK  2 active torsions:
REMARK  status: ('A' for Active; 'I' for Inactive)
REMARK    1  A    between atoms: C6_6  and  C10_10 
REMARK    2  A    between atoms: C7_7  and  C11_11 
ROOT
HETATM    1  C1  UNL     1     -35.110  13.899  -4.824  1.00 20.00     0.069 C 
HETATM    2  C2  UNL     1     -33.141  16.328  -4.816  1.00 20.00     0.002 C 
HETATM    3  C3  UNL     1     -33.905  17.344  -3.975  1.00 20.00     0.005 C 
HETATM    4  C4  UNL     1     -33.998  15.796  -5.965  1.00 20.00     0.024 C 
HETATM    5  C5  UNL     1     -36.082  16.176  -4.558  1.00 20.00     0.029 C 
HETATM    6  C6  UNL     1     -35.232  16.798  -3.433  1.00 20.00    -0.013 C 
HETATM    7  C7  UNL     1     -35.341  15.196  -5.499  1.00 20.00     0.049 C 
HETATM    8  N12 UNL     1     -34.929  12.883  -4.296  1.00 20.00    -0.196 NA
ENDROOT
BRANCH   7   9
HETATM    9  C11 UNL     1     -36.223  14.922  -6.733  1.00 20.00     0.020 C 
HETATM   10  C9  UNL     1     -35.397  14.559  -7.916  1.00 20.00     0.007 C 
ENDBRANCH   7   9
BRANCH   6  11
HETATM   11  C10 UNL     1     -35.014  15.851  -2.252  1.00 20.00     0.000 C 
HETATM   12  C8  UNL     1     -34.537  16.581  -1.041  1.00 20.00     0.005 C 
ENDBRANCH   6  11
TORSDOF 2
ENDMDL
MODEL 3
REMARK VINA RESULT:      -5.0      1.604      4.337
REMARK  2 active torsions:
REMARK  status: ('A' for Active; 'I' for Inactive)
REMARK    1  A    between atoms: C6_6  and  C10_10 
REMARK    2  A    between atoms: C7_7  and  C11_11 
ROOT
HETATM    1  C1  UNL     1     -33.799  14.240  -3.664  1.00 20.00     0.069 C 
HETATM    2  C2  UNL     1     -36.780  14.889  -4.346  1.00 20.00     0.002 C 
HETATM    3  C3  UNL     1     -36.628  15.818  -5.546  1.00 20.00     0.005 C 
HETATM    4  C4  UNL     1     -35.945  15.369  -3.159  1.00 20.00     0.024 C 
HETATM    5  C5  UNL     1     -34.283  16.413  -4.776  1.00 20.00     0.029 C 
HETATM    6  C6  UNL     1     -35.168  16.013  -5.973  1.00 20.00    -0.013 C 
HETATM    7  C7  UNL     1     -34.452  15.557  -3.499  1.00 20.00     0.049 C 
HETATM    8  N12 UNL     1     -33.287  13.207  -3.793  1.00 20.00    -0.196 NA
ENDROOT
BRANCH   7   9
HETATM    9  C11 UNL     1     -33.755  16.271  -2.323  1.00 20.00     0.020 C 
HETATM   10  C9  UNL     1     -34.693  16.472  -1.184  1.00 20.00     0.007 C 
ENDBRANCH   7   9
BRANCH   6  11
HETATM   11  C10 UNL     1     -34.634  14.797  -6.734  1.00 20.00     0.000 C 
HETATM   12  C8  UNL     1     -35.533  14.416  -7.863  1.00 20.00     0.005 C 
ENDBRANCH   6  11
TORSDOF 2
ENDMDL
MODEL 4
REMARK VINA RESULT:      -4.9      1.441      1.644
REMARK  2 active torsions:
REMARK  status: ('A' for Active; 'I' for Inactive)
REMARK    1  A    between atoms: C6_6  and  C10_10 
REMARK    2  A    between atoms: C7_7  and  C11_11 
ROOT
HETATM    1  C1  UNL     1     -35.984  16.115  -5.245  1.00 20.00     0.069 C 
HETATM    2  C2  UNL     1     -34.685  13.343  -4.608  1.00 20.00     0.002 C 
HETATM    3  C3  UNL     1     -33.480  13.752  -3.767  1.00 20.00     0.005 C 
HETATM    4  C4  UNL     1     -34.721  14.100  -5.937  1.00 20.00     0.024 C 
HETATM    5  C5  UNL     1     -33.530  16.056  -4.832  1.00 20.00     0.029 C 
HETATM    6  C6  UNL     1     -33.408  15.263  -3.516  1.00 20.00    -0.013 C 
HETATM    7  C7  UNL     1     -34.687  15.633  -5.768  1.00 20.00     0.049 C 
HETATM    8  N12 UNL     1     -37.001  16.493  -4.835  1.00 20.00    -0.196 NA
ENDROOT
BRANCH   7   9
HETATM    9  C11 UNL     1     -34.477  16.284  -7.149  1.00 20.00     0.020 C 
HETATM   10  C9  UNL     1     -34.347  17.763  -7.033  1.00 20.00     0.007 C 
ENDBRANCH   7   9
BRANCH   6  11
HETATM   11  C10 UNL     1     -34.414  15.708  -2.452  1.00 20.00     0.000 C 
HETATM   12  C8  UNL     1     -33.906  16.873  -1.668  1.00 20.00     0.005 C 
ENDBRANCH   6  11
TORSDOF 2
ENDMDL
MODEL 5
REMARK VINA RESULT:      -4.9      1.890      4.051
REMARK  2 active torsions:
REMARK  status: ('A' for Active; 'I' for Inactive)
REMARK    1  A    between atoms: C6_6  and  C10_10 
REMARK    2  A    between atoms: C7_7  and  C11_11 
ROOT
HETATM    1  C1  UNL     1     -33.793  16.788  -4.404  1.00 20.00     0.069 C 
HETATM    2  C2  UNL     1     -33.820  13.662  -4.335  1.00 20.00     0.002 C 
HETATM    3  C3  UNL     1     -35.307  13.368  -4.168  1.00 20.00     0.005 C 
HETATM    4  C4  UNL     1     -33.320  14.637  -3.269  1.00 20.00     0.024 C 
HETATM    5  C5  UNL     1     -35.639  15.674  -3.159  1.00 20.00     0.029 C 
HETATM    6  C6  UNL     1     -36.172  14.635  -4.164  1.00 20.00    -0.013 C 
HETATM    7  C7  UNL     1     -34.119  15.956  -3.224  1.00 20.00     0.049 C 
HETATM    8  N12 UNL     1     -33.537  17.440  -5.328  1.00 20.00    -0.196 NA
ENDROOT
BRANCH   7   9
HETATM    9  C11 UNL     1     -33.703  16.752  -1.971  1.00 20.00     0.020 C 
HETATM   10  C9  UNL     1     -34.688  16.575  -0.868  1.00 20.00     0.007 C 
ENDBRANCH   7   9
BRANCH   6  11
HETATM   11  C10 UNL     1     -36.352  15.201  -5.574  1.00 20.00     0.000 C 
HETATM   12  C8  UNL     1     -37.302  16.353  -5.588  1.00 20.00     0.005 C 
ENDBRANCH   6  11
TORSDOF 2
ENDMDL
MODEL 6
REMARK VINA RESULT:      -4.9      1.858      4.254
REMARK  2 active torsions:
REMARK  status: ('A' for Active; 'I' for Inactive)
REMARK    1  A    between atoms: C6_6  and  C10_10 
REMARK    2  A    between atoms: C7_7  and  C11_11 
ROOT
HETATM    1  C1  UNL     1     -33.808  16.844  -4.464  1.00 20.00     0.069 C 
HETATM    2  C2  UNL     1     -33.466  13.779  -3.949  1.00 20.00     0.002 C 
HETATM    3  C3  UNL     1     -34.659  13.203  -4.704  1.00 20.00     0.005 C 
HETATM    4  C4  UNL     1     -33.900  14.871  -2.970  1.00 20.00     0.024 C 
HETATM    5  C5  UNL     1     -35.858  15.430  -4.493  1.00 20.00     0.029 C 
HETATM    6  C6  UNL     1     -35.479  14.272  -5.436  1.00 20.00    -0.013 C 
HETATM    7  C7  UNL     1     -34.704  16.005  -3.637  1.00 20.00     0.049 C 
HETATM    8  N12 UNL     1     -33.106  17.501  -5.113  1.00 20.00    -0.196 NA
ENDROOT
BRANCH   7   9
HETATM    9  C11 UNL     1     -35.297  16.911  -2.540  1.00 20.00     0.020 C 
HETATM   10  C9  UNL     1     -34.720  16.592  -1.206  1.00 20.00     0.007 C 
ENDBRANCH   7   9
BRANCH   6  11
HETATM   11  C10 UNL     1     -34.784  14.742  -6.715  1.00 20.00     0.000 C 
HETATM   12  C8  UNL     1     -35.643  14.533  -7.918  1.00 20.00     0.005 C 
ENDBRANCH   6  11
TORSDOF 2
ENDMDL
MODEL 7
REMARK VINA RESULT:      -4.7      2.039      2.802
REMARK  2 active torsions:
REMARK  status: ('A' for Active; 'I' for Inactive)
REMARK    1  A    between atoms: C6_6  and  C10_10 
REMARK    2  A    between atoms: C7_7  and  C11_11 
ROOT
HETATM    1  C1  UNL     1     -33.973  17.015  -5.652  1.00 20.00     0.069 C 
HETATM    2  C2  UNL     1     -36.662  16.230  -4.265  1.00 20.00     0.002 C 
HETATM    3  C3  UNL     1     -36.193  15.206  -3.237  1.00 20.00     0.005 C 
HETATM    4  C4  UNL     1     -36.172  15.876  -5.669  1.00 20.00     0.024 C 
HETATM    5  C5  UNL     1     -34.137  14.741  -4.651  1.00 20.00     0.029 C 
HETATM    6  C6  UNL     1     -34.672  15.014  -3.232  1.00 20.00    -0.013 C 
HETATM    7  C7  UNL     1     -34.642  15.700  -5.756  1.00 20.00     0.049 C 
HETATM    8  N12 UNL     1     -33.448  18.046  -5.571  1.00 20.00    -0.196 NA
ENDROOT
BRANCH   7   9
HETATM    9  C11 UNL     1     -34.283  15.109  -7.134  1.00 20.00     0.020 C 
HETATM   10  C9  UNL     1     -35.469  14.478  -7.776  1.00 20.00     0.007 C 
ENDBRANCH   7   9
BRANCH   6  11
HETATM   11  C10 UNL     1     -33.958  16.173  -2.534  1.00 20.00     0.000 C 
HETATM   12  C8  UNL     1     -34.566  16.474  -1.204  1.00 20.00     0.005 C 
ENDBRANCH   6  11
TORSDOF 2
ENDMDL
MODEL 8
REMARK VINA RESULT:      -4.7      1.259      4.168
REMARK  2 active torsions:
REMARK  status: ('A' for Active; 'I' for Inactive)
REMARK    1  A    between atoms: C6_6  and  C10_10 
REMARK    2  A    between atoms: C7_7  and  C11_11 
ROOT
HETATM    1  C1  UNL     1     -36.091  15.478  -3.160  1.00 20.00     0.069 C 
HETATM    2  C2  UNL     1     -35.039  17.819  -4.945  1.00 20.00     0.002 C 
HETATM    3  C3  UNL     1     -33.750  17.227  -5.505  1.00 20.00     0.005 C 
HETATM    4  C4  UNL     1     -35.081  17.725  -3.420  1.00 20.00     0.024 C 
HETATM    5  C5  UNL     1     -33.634  15.637  -3.530  1.00 20.00     0.029 C 
HETATM    6  C6  UNL     1     -33.512  15.779  -5.060  1.00 20.00    -0.013 C 
HETATM    7  C7  UNL     1     -34.883  16.289  -2.891  1.00 20.00     0.049 C 
HETATM    8  N12 UNL     1     -37.038  14.842  -3.370  1.00 20.00    -0.196 NA
ENDROOT
BRANCH   7   9
HETATM    9  C11 UNL     1     -34.694  16.340  -1.362  1.00 20.00     0.020 C 
HETATM   10  C9  UNL     1     -33.762  17.433  -0.970  1.00 20.00     0.007 C 
ENDBRANCH   7   9
BRANCH   6  11
HETATM   11  C10 UNL     1     -34.400  14.797  -5.827  1.00 20.00     0.000 C 
HETATM   12  C8  UNL     1     -34.389  15.075  -7.294  1.00 20.00     0.005 C 
ENDBRANCH   6  11
TORSDOF 2
ENDMDL
MODEL 9
REMARK VINA RESULT:      -4.7      1.395      4.247
REMARK  2 active torsions:
REMARK  status: ('A' for Active; 'I' for Inactive)
REMARK    1  A    between atoms: C6_6  and  C10_10 
REMARK    2  A    between atoms: C7_7  and  C11_11 
ROOT
HETATM    1  C1  UNL     1     -36.162  16.617  -2.906  1.00 20.00     0.069 C 
HETATM    2  C2  UNL     1     -33.736  17.588  -4.623  1.00 20.00     0.002 C 
HETATM    3  C3  UNL     1     -33.102  16.265  -5.039  1.00 20.00     0.005 C 
HETATM    4  C4  UNL     1     -33.926  17.663  -3.108  1.00 20.00     0.024 C 
HETATM    5  C5  UNL     1     -34.167  15.133  -3.032  1.00 20.00     0.029 C 
HETATM    6  C6  UNL     1     -33.884  15.042  -4.545  1.00 20.00    -0.013 C 
HETATM    7  C7  UNL     1     -34.736  16.483  -2.534  1.00 20.00     0.049 C 
HETATM    8  N12 UNL     1     -37.280  16.723  -3.198  1.00 20.00    -0.196 NA
ENDROOT
BRANCH   7   9
HETATM    9  C11 UNL     1     -34.658  16.521  -0.995  1.00 20.00     0.020 C 
HETATM   10  C9  UNL     1     -33.823  17.662  -0.526  1.00 20.00     0.007 C 
ENDBRANCH   7   9
BRANCH   6  11
HETATM   11  C10 UNL     1     -35.145  14.802  -5.378  1.00 20.00     0.000 C 
HETATM   12  C8  UNL     1     -34.834  14.715  -6.835  1.00 20.00     0.005 C 
ENDBRANCH   6  11
TORSDOF 2
ENDMDL
