MODEL 1
REMARK VINA RESULT:      -4.5      0.000      0.000
REMARK  2 active torsions:
REMARK  status: ('A' for Active; 'I' for Inactive)
REMARK    1  A    between atoms: C5_5  and  C8_8 
REMARK    2  A    between atoms: C8_8  and  C9_9 
ROOT
HETATM    1  C1  UNL     1     -34.760  13.816  -4.974  1.00 20.00     0.068 C 
HETATM    2  C6  UNL     1     -35.978  15.926  -5.322  1.00 20.00     0.031 C 
HETATM    3  C7  UNL     1     -34.261  15.157  -6.963  1.00 20.00     0.031 C 
HETATM    4  C9  UNL     1     -34.627  15.207  -5.465  1.00 20.00     0.046 C 
HETATM    5  N10 UNL     1     -34.866  12.725  -4.594  1.00 20.00    -0.196 NA
ENDROOT
BRANCH   4   6
HETATM    6  C8  UNL     1     -33.490  15.954  -4.713  1.00 20.00     0.062 C 
BRANCH   6   7
HETATM    7  C5  UNL     1     -33.858  16.582  -3.388  1.00 20.00    -0.050 A 
HETATM    8  C2  UNL     1     -34.243  15.838  -2.234  1.00 20.00     0.014 A 
HETATM    9  C3  UNL     1     -34.526  16.655  -1.162  1.00 20.00     0.050 A 
HETATM   10  S11 UNL     1     -34.329  18.313  -1.548  1.00 20.00    -0.113 SA
HETATM   11  C4  UNL     1     -33.863  17.940  -3.153  1.00 20.00     0.056 A 
ENDBRANCH   6   7
ENDBRANCH   4   6
TORSDOF 2
ENDMDL
MODEL 2
REMARK VINA RESULT:      -4.5      1.085      1.747
REMARK  2 active torsions:
REMARK  status: ('A' for Active; 'I' for Inactive)
REMARK    1  A    between atoms: C5_5  and  C8_8 
REMARK    2  A    between atoms: C8_8  and  C9_9 
ROOT
HETATM    1  C1  UNL     1     -34.535  13.671  -4.522  1.00 20.00     0.068 C 
HETATM    2  C6  UNL     1     -33.975  15.861  -5.496  1.00 20.00     0.031 C 
HETATM    3  C7  UNL     1     -32.724  14.983  -3.522  1.00 20.00     0.031 C 
HETATM    4  C9  UNL     1     -34.110  15.052  -4.196  1.00 20.00     0.046 C 
HETATM    5  N10 UNL     1     -34.864  12.588  -4.779  1.00 20.00    -0.196 NA
ENDROOT
BRANCH   4   6
HETATM    6  C8  UNL     1     -35.101  15.715  -3.200  1.00 20.00     0.062 C 
BRANCH   6   7
HETATM    7  C5  UNL     1     -34.532  16.785  -2.295  1.00 20.00    -0.050 A 
HETATM    8  C2  UNL     1     -34.471  16.676  -0.875  1.00 20.00     0.014 A 
HETATM    9  C3  UNL     1     -33.907  17.790  -0.294  1.00 20.00     0.050 A 
HETATM   10  S11 UNL     1     -33.454  18.962  -1.458  1.00 20.00    -0.113 SA
HETATM   11  C4  UNL     1     -34.012  17.980  -2.744  1.00 20.00     0.056 A 
ENDBRANCH   6   7
ENDBRANCH   4   6
TORSDOF 2
ENDMDL
MODEL 3
REMARK VINA RESULT:      -4.3      1.361      1.732
REMARK  2 active torsions:
REMARK  status: ('A' for Active; 'I' for Inactive)
REMARK    1  A    between atoms: C5_5  and  C8_8 
REMARK    2  A    between atoms: C8_8  and  C9_9 
ROOT
HETATM    1  C1  UNL     1     -36.314  14.460  -3.986  1.00 20.00     0.068 C 
HETATM    2  C6  UNL     1     -34.816  15.467  -5.658  1.00 20.00     0.031 C 
HETATM    3  C7  UNL     1     -34.569  13.072  -4.999  1.00 20.00     0.031 C 
HETATM    4  C9  UNL     1     -34.919  14.482  -4.482  1.00 20.00     0.046 C 
HETATM    5  N10 UNL     1     -37.408  14.441  -3.600  1.00 20.00    -0.196 NA
ENDROOT
BRANCH   4   6
HETATM    6  C8  UNL     1     -33.929  14.838  -3.338  1.00 20.00     0.062 C 
BRANCH   6   7
HETATM    7  C5  UNL     1     -34.145  16.168  -2.651  1.00 20.00    -0.050 A 
HETATM    8  C2  UNL     1     -34.729  16.310  -1.358  1.00 20.00     0.014 A 
HETATM    9  C3  UNL     1     -34.808  17.628  -0.968  1.00 20.00     0.050 A 
HETATM   10  S11 UNL     1     -34.182  18.690  -2.158  1.00 20.00    -0.113 SA
HETATM   11  C4  UNL     1     -33.802  17.385  -3.200  1.00 20.00     0.056 A 
ENDBRANCH   6   7
ENDBRANCH   4   6
TORSDOF 2
ENDMDL
MODEL 4
REMARK VINA RESULT:      -4.3      1.565      2.322
REMARK  2 active torsions:
REMARK  status: ('A' for Active; 'I' for Inactive)
REMARK    1  A    between atoms: C5_5  and  C8_8 
REMARK    2  A    between atoms: C8_8  and  C9_9 
ROOT
HETATM    1  C1  UNL     1     -34.196  15.439  -5.358  1.00 20.00     0.068 C 
HETATM    2  C6  UNL     1     -32.828  14.641  -3.474  1.00 20.00     0.031 C 
HETATM    3  C7  UNL     1     -34.794  13.326  -4.274  1.00 20.00     0.031 C 
HETATM    4  C9  UNL     1     -34.251  14.751  -4.047  1.00 20.00     0.046 C 
HETATM    5  N10 UNL     1     -34.152  15.974  -6.387  1.00 20.00    -0.196 NA
ENDROOT
BRANCH   4   6
HETATM    6  C8  UNL     1     -35.213  15.488  -3.075  1.00 20.00     0.062 C 
BRANCH   6   7
HETATM    7  C5  UNL     1     -34.617  16.617  -2.264  1.00 20.00    -0.050 A 
HETATM    8  C2  UNL     1     -34.529  16.615  -0.841  1.00 20.00     0.014 A 
HETATM    9  C3  UNL     1     -33.945  17.764  -0.357  1.00 20.00     0.050 A 
HETATM   10  S11 UNL     1     -33.505  18.841  -1.615  1.00 20.00    -0.113 SA
HETATM   11  C4  UNL     1     -34.097  17.770  -2.813  1.00 20.00     0.056 A 
ENDBRANCH   6   7
ENDBRANCH   4   6
TORSDOF 2
ENDMDL
MODEL 5
REMARK VINA RESULT:      -4.2     11.618     12.713
REMARK  2 active torsions:
REMARK  status: ('A' for Active; 'I' for Inactive)
REMARK    1  A    between atoms: C5_5  and  C8_8 
REMARK    2  A    between atoms: C8_8  and  C9_9 
ROOT
HETATM    1  C1  UNL     1     -32.085   8.148   1.888  1.00 20.00     0.068 C 
HETATM    2  C6  UNL     1     -31.309   7.748   4.189  1.00 20.00     0.031 C 
HETATM    3  C7  UNL     1     -31.950   5.844   2.707  1.00 20.00     0.031 C 
HETATM    4  C9  UNL     1     -32.283   7.301   3.087  1.00 20.00     0.046 C 
HETATM    5  N10 UNL     1     -31.927   8.809   0.948  1.00 20.00    -0.196 NA
ENDROOT
BRANCH   4   6
HETATM    6  C8  UNL     1     -33.761   7.352   3.563  1.00 20.00     0.062 C 
BRANCH   6   7
HETATM    7  C5  UNL     1     -34.200   6.263   4.517  1.00 20.00    -0.050 A 
HETATM    8  C2  UNL     1     -34.007   6.316   5.928  1.00 20.00     0.014 A 
HETATM    9  C3  UNL     1     -34.499   5.196   6.560  1.00 20.00     0.050 A 
HETATM   10  S11 UNL     1     -35.190   4.085   5.453  1.00 20.00    -0.113 SA
HETATM   11  C4  UNL     1     -34.832   5.103   4.124  1.00 20.00     0.056 A 
ENDBRANCH   6   7
ENDBRANCH   4   6
TORSDOF 2
ENDMDL
MODEL 6
REMARK VINA RESULT:      -4.2      1.411      2.113
REMARK  2 active torsions:
REMARK  status: ('A' for Active; 'I' for Inactive)
REMARK    1  A    between atoms: C5_5  and  C8_8 
REMARK    2  A    between atoms: C8_8  and  C9_9 
ROOT
HETATM    1  C1  UNL     1     -36.275  14.699  -3.861  1.00 20.00     0.068 C 
HETATM    2  C6  UNL     1     -34.721  15.520  -5.583  1.00 20.00     0.031 C 
HETATM    3  C7  UNL     1     -34.608  13.158  -4.782  1.00 20.00     0.031 C 
HETATM    4  C9  UNL     1     -34.880  14.614  -4.351  1.00 20.00     0.046 C 
HETATM    5  N10 UNL     1     -37.369  14.762  -3.480  1.00 20.00    -0.196 NA
ENDROOT
BRANCH   4   6
HETATM    6  C8  UNL     1     -33.874  14.982  -3.226  1.00 20.00     0.062 C 
BRANCH   6   7
HETATM    7  C5  UNL     1     -34.122  16.286  -2.500  1.00 20.00    -0.050 A 
HETATM    8  C2  UNL     1     -33.824  17.569  -3.045  1.00 20.00     0.014 A 
HETATM    9  C3  UNL     1     -34.147  18.588  -2.177  1.00 20.00     0.050 A 
HETATM   10  S11 UNL     1     -34.805  17.997  -0.709  1.00 20.00    -0.113 SA
HETATM   11  C4  UNL     1     -34.659  16.374  -1.234  1.00 20.00     0.056 A 
ENDBRANCH   6   7
ENDBRANCH   4   6
TORSDOF 2
ENDMDL
MODEL 7
REMARK VINA RESULT:      -4.0      2.940      4.528
REMARK  2 active torsions:
REMARK  status: ('A' for Active; 'I' for Inactive)
REMARK    1  A    between atoms: C5_5  and  C8_8 
REMARK    2  A    between atoms: C8_8  and  C9_9 
ROOT
HETATM    1  C1  UNL     1     -33.951  18.264  -2.815  1.00 20.00     0.068 C 
HETATM    2  C6  UNL     1     -35.914  16.803  -2.551  1.00 20.00     0.031 C 
HETATM    3  C7  UNL     1     -34.274  17.090  -0.690  1.00 20.00     0.031 C 
HETATM    4  C9  UNL     1     -34.424  16.992  -2.222  1.00 20.00     0.046 C 
HETATM    5  N10 UNL     1     -33.583  19.262  -3.277  1.00 20.00    -0.196 NA
ENDROOT
BRANCH   4   6
HETATM    6  C8  UNL     1     -33.564  15.796  -2.718  1.00 20.00     0.062 C 
BRANCH   6   7
HETATM    7  C5  UNL     1     -34.073  15.060  -3.937  1.00 20.00    -0.050 A 
HETATM    8  C2  UNL     1     -34.585  13.731  -3.908  1.00 20.00     0.014 A 
HETATM    9  C3  UNL     1     -34.979  13.300  -5.155  1.00 20.00     0.050 A 
HETATM   10  S11 UNL     1     -34.730  14.496  -6.356  1.00 20.00    -0.113 SA
HETATM   11  C4  UNL     1     -34.093  15.595  -5.207  1.00 20.00     0.056 A 
ENDBRANCH   6   7
ENDBRANCH   4   6
TORSDOF 2
ENDMDL
MODEL 8
REMARK VINA RESULT:      -4.0      2.681      4.306
REMARK  2 active torsions:
REMARK  status: ('A' for Active; 'I' for Inactive)
REMARK    1  A    between atoms: C5_5  and  C8_8 
REMARK    2  A    between atoms: C8_8  and  C9_9 
ROOT
HETATM    1  C1  UNL     1     -35.499  17.520  -2.915  1.00 20.00     0.068 C 
HETATM    2  C6  UNL     1     -34.681  16.545  -0.809  1.00 20.00     0.031 C 
HETATM    3  C7  UNL     1     -33.532  18.507  -1.840  1.00 20.00     0.031 C 
HETATM    4  C9  UNL     1     -34.278  17.192  -2.144  1.00 20.00     0.046 C 
HETATM    5  N10 UNL     1     -36.456  17.781  -3.517  1.00 20.00    -0.196 NA
ENDROOT
BRANCH   4   6
HETATM    6  C8  UNL     1     -33.330  16.278  -2.969  1.00 20.00     0.062 C 
BRANCH   6   7
HETATM    7  C5  UNL     1     -33.993  15.283  -3.896  1.00 20.00    -0.050 A 
HETATM    8  C2  UNL     1     -34.502  14.020  -3.474  1.00 20.00     0.014 A 
HETATM    9  C3  UNL     1     -35.053  13.309  -4.517  1.00 20.00     0.050 A 
HETATM   10  S11 UNL     1     -34.955  14.163  -5.999  1.00 20.00    -0.113 SA
HETATM   11  C4  UNL     1     -34.173  15.488  -5.246  1.00 20.00     0.056 A 
ENDBRANCH   6   7
ENDBRANCH   4   6
TORSDOF 2
ENDMDL
MODEL 9
REMARK VINA RESULT:      -4.0      3.376      4.769
REMARK  2 active torsions:
REMARK  status: ('A' for Active; 'I' for Inactive)
REMARK    1  A    between atoms: C5_5  and  C8_8 
REMARK    2  A    between atoms: C8_8  and  C9_9 
ROOT
HETATM    1  C1  UNL     1     -33.170  18.691  -1.319  1.00 20.00     0.068 C 
HETATM    2  C6  UNL     1     -33.857  18.097  -3.606  1.00 20.00     0.031 C 
HETATM    3  C7  UNL     1     -35.559  18.628  -1.858  1.00 20.00     0.031 C 
HETATM    4  C9  UNL     1     -34.190  17.965  -2.111  1.00 20.00     0.046 C 
HETATM    5  N10 UNL     1     -32.374  19.263  -0.699  1.00 20.00    -0.196 NA
ENDROOT
BRANCH   4   6
HETATM    6  C8  UNL     1     -34.282  16.479  -1.666  1.00 20.00     0.062 C 
BRANCH   6   7
HETATM    7  C5  UNL     1     -34.684  15.481  -2.729  1.00 20.00    -0.050 A 
HETATM    8  C2  UNL     1     -36.024  15.295  -3.179  1.00 20.00     0.014 A 
HETATM    9  C3  UNL     1     -36.113  14.324  -4.152  1.00 20.00     0.050 A 
HETATM   10  S11 UNL     1     -34.586  13.640  -4.519  1.00 20.00    -0.113 SA
HETATM   11  C4  UNL     1     -33.801  14.643  -3.375  1.00 20.00     0.056 A 
ENDBRANCH   6   7
ENDBRANCH   4   6
TORSDOF 2
ENDMDL
