MODEL 1
REMARK VINA RESULT:      -5.2      0.000      0.000
REMARK  3 active torsions:
REMARK  status: ('A' for Active; 'I' for Inactive)
REMARK    1  A    between atoms: C1_1  and  C5_5 
REMARK    2  A    between atoms: C1_1  and  C9_9 
REMARK    3  A    between atoms: C6_6  and  C10_10 
ROOT
HETATM    1  C2  UNL     1     -33.282   5.675   2.238  1.00 20.00     0.012 C 
HETATM    2  C3  UNL     1     -34.467   4.856   2.741  1.00 20.00     0.005 C 
HETATM    3  C4  UNL     1     -33.998   6.727   4.250  1.00 20.00     0.016 C 
HETATM    4  C5  UNL     1     -32.727   6.332   3.497  1.00 20.00     0.056 C 
HETATM    5  C6  UNL     1     -34.969   5.578   3.992  1.00 20.00    -0.014 C 
ENDROOT
BRANCH   4   6
HETATM    6  C1  UNL     1     -31.814   7.509   3.205  1.00 20.00     0.130 C 
HETATM    7  O11 UNL     1     -31.056   7.953   4.065  1.00 20.00    -0.298 OA
BRANCH   6   8
HETATM    8  C9  UNL     1     -31.900   8.090   1.805  1.00 20.00     0.074 C 
HETATM    9  C7  UNL     1     -32.533   9.469   1.782  1.00 20.00     0.013 C 
ENDBRANCH   6   8
ENDBRANCH   4   6
BRANCH   5  10
HETATM   10  C10 UNL     1     -34.921   4.626   5.173  1.00 20.00     0.000 C 
HETATM   11  C8  UNL     1     -34.624   5.339   6.456  1.00 20.00     0.005 C 
ENDBRANCH   5  10
TORSDOF 3
ENDMDL
MODEL 2
REMARK VINA RESULT:      -4.7     10.795     11.733
REMARK  3 active torsions:
REMARK  status: ('A' for Active; 'I' for Inactive)
REMARK    1  A    between atoms: C1_1  and  C5_5 
REMARK    2  A    between atoms: C1_1  and  C9_9 
REMARK    3  A    between atoms: C6_6  and  C10_10 
ROOT
HETATM    1  C2  UNL     1     -35.859  15.508  -3.185  1.00 20.00     0.012 C 
HETATM    2  C3  UNL     1     -35.770  16.802  -2.382  1.00 20.00     0.005 C 
HETATM    3  C4  UNL     1     -33.559  16.125  -3.187  1.00 20.00     0.016 C 
HETATM    4  C5  UNL     1     -34.466  14.901  -3.058  1.00 20.00     0.056 C 
HETATM    5  C6  UNL     1     -34.305  17.234  -2.448  1.00 20.00    -0.014 C 
ENDROOT
BRANCH   4   6
HETATM    6  C1  UNL     1     -34.181  13.833  -4.099  1.00 20.00     0.130 C 
HETATM    7  O11 UNL     1     -33.272  13.021  -3.942  1.00 20.00    -0.298 OA
BRANCH   6   8
HETATM    8  C9  UNL     1     -35.078  13.838  -5.323  1.00 20.00     0.074 C 
HETATM    9  C7  UNL     1     -34.513  14.672  -6.459  1.00 20.00     0.013 C 
ENDBRANCH   6   8
ENDBRANCH   4   6
BRANCH   5  10
HETATM   10  C10 UNL     1     -33.749  17.339  -1.040  1.00 20.00     0.000 C 
HETATM   11  C8  UNL     1     -34.817  17.175  -0.003  1.00 20.00     0.005 C 
ENDBRANCH   5  10
TORSDOF 3
ENDMDL
MODEL 3
REMARK VINA RESULT:      -4.5     11.112     12.045
REMARK  3 active torsions:
REMARK  status: ('A' for Active; 'I' for Inactive)
REMARK    1  A    between atoms: C1_1  and  C5_5 
REMARK    2  A    between atoms: C1_1  and  C9_9 
REMARK    3  A    between atoms: C6_6  and  C10_10 
ROOT
HETATM    1  C2  UNL     1     -35.548  16.377  -4.226  1.00 20.00     0.012 C 
HETATM    2  C3  UNL     1     -35.318  17.347  -3.070  1.00 20.00     0.005 C 
HETATM    3  C4  UNL     1     -33.848  15.398  -2.876  1.00 20.00     0.016 C 
HETATM    4  C5  UNL     1     -35.103  15.030  -3.669  1.00 20.00     0.056 C 
HETATM    5  C6  UNL     1     -34.175  16.750  -2.248  1.00 20.00    -0.014 C 
ENDROOT
BRANCH   4   6
HETATM    6  C1  UNL     1     -34.846  13.992  -4.747  1.00 20.00     0.130 C 
HETATM    7  O11 UNL     1     -34.966  12.791  -4.512  1.00 20.00    -0.298 OA
BRANCH   6   8
HETATM    8  C9  UNL     1     -34.441  14.528  -6.107  1.00 20.00     0.074 C 
HETATM    9  C7  UNL     1     -35.506  14.306  -7.165  1.00 20.00     0.013 C 
ENDBRANCH   6   8
ENDBRANCH   4   6
BRANCH   5  10
HETATM   10  C10 UNL     1     -34.649  16.523  -0.824  1.00 20.00     0.000 C 
HETATM   11  C8  UNL     1     -34.354  17.696   0.059  1.00 20.00     0.005 C 
ENDBRANCH   5  10
TORSDOF 3
ENDMDL
MODEL 4
REMARK VINA RESULT:      -4.5      1.511      4.547
REMARK  3 active torsions:
REMARK  status: ('A' for Active; 'I' for Inactive)
REMARK    1  A    between atoms: C1_1  and  C5_5 
REMARK    2  A    between atoms: C1_1  and  C9_9 
REMARK    3  A    between atoms: C6_6  and  C10_10 
ROOT
HETATM    1  C2  UNL     1     -33.666   5.562   3.199  1.00 20.00     0.012 C 
HETATM    2  C3  UNL     1     -32.803   6.174   2.099  1.00 20.00     0.005 C 
HETATM    3  C4  UNL     1     -32.379   7.268   4.248  1.00 20.00     0.016 C 
HETATM    4  C5  UNL     1     -33.788   6.676   4.233  1.00 20.00     0.056 C 
HETATM    5  C6  UNL     1     -31.926   7.218   2.791  1.00 20.00    -0.014 C 
ENDROOT
BRANCH   4   6
HETATM    6  C1  UNL     1     -34.244   6.182   5.594  1.00 20.00     0.130 C 
HETATM    7  O11 UNL     1     -33.890   6.749   6.626  1.00 20.00    -0.298 OA
BRANCH   6   8
HETATM    8  C9  UNL     1     -35.149   4.964   5.594  1.00 20.00     0.074 C 
HETATM    9  C7  UNL     1     -34.432   3.702   6.037  1.00 20.00     0.013 C 
ENDBRANCH   6   8
ENDBRANCH   4   6
BRANCH   5  10
HETATM   10  C10 UNL     1     -32.170   8.576   2.159  1.00 20.00     0.000 C 
HETATM   11  C8  UNL     1     -31.718   8.618   0.731  1.00 20.00     0.005 C 
ENDBRANCH   5  10
TORSDOF 3
ENDMDL
MODEL 5
REMARK VINA RESULT:      -4.4     10.781     12.361
REMARK  3 active torsions:
REMARK  status: ('A' for Active; 'I' for Inactive)
REMARK    1  A    between atoms: C1_1  and  C5_5 
REMARK    2  A    between atoms: C1_1  and  C9_9 
REMARK    3  A    between atoms: C6_6  and  C10_10 
ROOT
HETATM    1  C2  UNL     1     -34.687  16.664  -0.753  1.00 20.00     0.012 C 
HETATM    2  C3  UNL     1     -34.310  17.735   0.266  1.00 20.00     0.005 C 
HETATM    3  C4  UNL     1     -33.549  18.360  -1.976  1.00 20.00     0.016 C 
HETATM    4  C5  UNL     1     -33.662  16.839  -1.867  1.00 20.00     0.056 C 
HETATM    5  C6  UNL     1     -33.645  18.855  -0.534  1.00 20.00    -0.014 C 
ENDROOT
BRANCH   4   6
HETATM    6  C1  UNL     1     -34.074  16.176  -3.170  1.00 20.00     0.130 C 
HETATM    7  O11 UNL     1     -35.120  16.488  -3.737  1.00 20.00    -0.298 OA
BRANCH   6   8
HETATM    8  C9  UNL     1     -33.126  15.123  -3.713  1.00 20.00     0.074 C 
HETATM    9  C7  UNL     1     -33.765  13.750  -3.801  1.00 20.00     0.013 C 
ENDBRANCH   6   8
ENDBRANCH   4   6
BRANCH   5  10
HETATM   10  C10 UNL     1     -32.241  19.084  -0.004  1.00 20.00     0.000 C 
HETATM   11  C8  UNL     1     -32.189  19.014   1.491  1.00 20.00     0.005 C 
ENDBRANCH   5  10
TORSDOF 3
ENDMDL
MODEL 6
REMARK VINA RESULT:      -4.4     11.121     12.218
REMARK  3 active torsions:
REMARK  status: ('A' for Active; 'I' for Inactive)
REMARK    1  A    between atoms: C1_1  and  C5_5 
REMARK    2  A    between atoms: C1_1  and  C9_9 
REMARK    3  A    between atoms: C6_6  and  C10_10 
ROOT
HETATM    1  C2  UNL     1     -35.781  16.919  -3.852  1.00 20.00     0.012 C 
HETATM    2  C3  UNL     1     -34.874  17.855  -3.058  1.00 20.00     0.005 C 
HETATM    3  C4  UNL     1     -34.374  15.514  -2.542  1.00 20.00     0.016 C 
HETATM    4  C5  UNL     1     -35.823  15.648  -3.011  1.00 20.00     0.056 C 
HETATM    5  C6  UNL     1     -33.924  16.948  -2.275  1.00 20.00    -0.014 C 
ENDROOT
BRANCH   4   6
HETATM    6  C1  UNL     1     -36.317  14.437  -3.783  1.00 20.00     0.130 C 
HETATM    7  O11 UNL     1     -37.518  14.189  -3.875  1.00 20.00    -0.298 OA
BRANCH   6   8
HETATM    8  C9  UNL     1     -35.247  13.569  -4.419  1.00 20.00     0.074 C 
HETATM    9  C7  UNL     1     -34.999  13.920  -5.875  1.00 20.00     0.013 C 
ENDBRANCH   6   8
ENDBRANCH   4   6
BRANCH   5  10
HETATM   10  C10 UNL     1     -34.066  17.234  -0.792  1.00 20.00     0.000 C 
HETATM   11  C8  UNL     1     -33.145  18.325  -0.341  1.00 20.00     0.005 C 
ENDBRANCH   5  10
TORSDOF 3
ENDMDL
MODEL 7
REMARK VINA RESULT:      -4.3     10.750     11.826
REMARK  3 active torsions:
REMARK  status: ('A' for Active; 'I' for Inactive)
REMARK    1  A    between atoms: C1_1  and  C5_5 
REMARK    2  A    between atoms: C1_1  and  C9_9 
REMARK    3  A    between atoms: C6_6  and  C10_10 
ROOT
HETATM    1  C2  UNL     1     -35.526  16.681  -3.137  1.00 20.00     0.012 C 
HETATM    2  C3  UNL     1     -35.985  17.539  -1.963  1.00 20.00     0.005 C 
HETATM    3  C4  UNL     1     -33.609  16.981  -1.756  1.00 20.00     0.016 C 
HETATM    4  C5  UNL     1     -34.327  15.916  -2.587  1.00 20.00     0.056 C 
HETATM    5  C6  UNL     1     -34.735  17.791  -1.118  1.00 20.00    -0.014 C 
ENDROOT
BRANCH   4   6
HETATM    6  C1  UNL     1     -33.451  15.315  -3.673  1.00 20.00     0.130 C 
HETATM    7  O11 UNL     1     -32.765  16.029  -4.402  1.00 20.00    -0.298 OA
BRANCH   6   8
HETATM    8  C9  UNL     1     -33.481  13.803  -3.793  1.00 20.00     0.074 C 
HETATM    9  C7  UNL     1     -34.783  13.288  -4.378  1.00 20.00     0.013 C 
ENDBRANCH   6   8
ENDBRANCH   4   6
BRANCH   5  10
HETATM   10  C10 UNL     1     -34.970  17.273   0.289  1.00 20.00     0.000 C 
HETATM   11  C8  UNL     1     -34.377  18.178   1.325  1.00 20.00     0.005 C 
ENDBRANCH   5  10
TORSDOF 3
ENDMDL
MODEL 8
REMARK VINA RESULT:      -4.3     10.715     11.884
REMARK  3 active torsions:
REMARK  status: ('A' for Active; 'I' for Inactive)
REMARK    1  A    between atoms: C1_1  and  C5_5 
REMARK    2  A    between atoms: C1_1  and  C9_9 
REMARK    3  A    between atoms: C6_6  and  C10_10 
ROOT
HETATM    1  C2  UNL     1     -33.766  17.339  -3.421  1.00 20.00     0.012 C 
HETATM    2  C3  UNL     1     -34.163  16.219  -4.379  1.00 20.00     0.005 C 
HETATM    3  C4  UNL     1     -34.939  15.737  -2.107  1.00 20.00     0.016 C 
HETATM    4  C5  UNL     1     -33.719  16.657  -2.058  1.00 20.00     0.056 C 
HETATM    5  C6  UNL     1     -34.978  15.230  -3.546  1.00 20.00    -0.014 C 
ENDROOT
BRANCH   4   6
HETATM    6  C1  UNL     1     -33.755  17.637  -0.898  1.00 20.00     0.130 C 
HETATM    7  O11 UNL     1     -32.972  18.583  -0.842  1.00 20.00    -0.298 OA
BRANCH   6   8
HETATM    8  C9  UNL     1     -34.803  17.372   0.167  1.00 20.00     0.074 C 
HETATM    9  C7  UNL     1     -34.564  18.173   1.434  1.00 20.00     0.013 C 
ENDBRANCH   6   8
ENDBRANCH   4   6
BRANCH   5  10
HETATM   10  C10 UNL     1     -34.316  13.865  -3.600  1.00 20.00     0.000 C 
HETATM   11  C8  UNL     1     -34.556  13.176  -4.908  1.00 20.00     0.005 C 
ENDBRANCH   5  10
TORSDOF 3
ENDMDL
MODEL 9
REMARK VINA RESULT:      -4.1     11.379     12.416
REMARK  3 active torsions:
REMARK  status: ('A' for Active; 'I' for Inactive)
REMARK    1  A    between atoms: C1_1  and  C5_5 
REMARK    2  A    between atoms: C1_1  and  C9_9 
REMARK    3  A    between atoms: C6_6  and  C10_10 
ROOT
HETATM    1  C2  UNL     1     -35.750  15.259  -3.275  1.00 20.00     0.012 C 
HETATM    2  C3  UNL     1     -35.743  14.389  -4.528  1.00 20.00     0.005 C 
HETATM    3  C4  UNL     1     -33.600  15.541  -4.257  1.00 20.00     0.016 C 
HETATM    4  C5  UNL     1     -34.711  16.335  -3.569  1.00 20.00     0.056 C 
HETATM    5  C6  UNL     1     -34.337  14.516  -5.115  1.00 20.00    -0.014 C 
ENDROOT
BRANCH   4   6
HETATM    6  C1  UNL     1     -34.240  17.067  -2.325  1.00 20.00     0.130 C 
HETATM    7  O11 UNL     1     -33.581  18.101  -2.409  1.00 20.00    -0.298 OA
BRANCH   6   8
HETATM    8  C9  UNL     1     -34.631  16.446  -0.996  1.00 20.00     0.074 C 
HETATM    9  C7  UNL     1     -34.837  17.481   0.095  1.00 20.00     0.013 C 
ENDBRANCH   6   8
ENDBRANCH   4   6
BRANCH   5  10
HETATM   10  C10 UNL     1     -34.432  15.046  -6.534  1.00 20.00     0.000 C 
HETATM   11  C8  UNL     1     -35.547  14.403  -7.299  1.00 20.00     0.005 C 
ENDBRANCH   5  10
TORSDOF 3
ENDMDL
