MODEL 1
REMARK VINA RESULT:      -5.4      0.000      0.000
REMARK  3 active torsions:
REMARK  status: ('A' for Active; 'I' for Inactive)
REMARK    1  A    between atoms: C1_1  and  C7_7 
REMARK    2  A    between atoms: C1_1  and  C9_9 
REMARK    3  A    between atoms: C8_8  and  C9_9 
ROOT
HETATM    1  C1  UNL     1     -32.654   6.384   3.413  1.00 20.00     0.155 C 
HETATM    2  O10 UNL     1     -32.128   5.333   3.049  1.00 20.00    -0.295 OA
ENDROOT
BRANCH   1   3
HETATM    3  C7  UNL     1     -33.933   6.378   4.181  1.00 20.00     0.190 C 
HETATM    4  C3  UNL     1     -33.721   6.241   5.676  1.00 20.00     0.042 C 
HETATM    5  C2  UNL     1     -34.871   5.355   6.085  1.00 20.00     0.029 C 
HETATM    6  C6  UNL     1     -34.993   4.434   4.892  1.00 20.00     0.168 C 
HETATM    7  O11 UNL     1     -34.659   5.223   3.743  1.00 20.00    -0.378 OA
ENDBRANCH   1   3
BRANCH   1   8
HETATM    8  C9  UNL     1     -32.057   7.748   3.118  1.00 20.00     0.085 C 
BRANCH   8   9
HETATM    9  C8  UNL     1     -32.591   8.353   1.832  1.00 20.00    -0.007 A 
HETATM   10  C4  UNL     1     -32.427   9.822   1.560  1.00 20.00     0.005 A 
HETATM   11  C5  UNL     1     -31.640   8.819   0.764  1.00 20.00     0.005 A 
ENDBRANCH   8   9
ENDBRANCH   1   8
TORSDOF 3
ENDMDL
MODEL 2
REMARK VINA RESULT:      -4.6     10.502     11.580
REMARK  3 active torsions:
REMARK  status: ('A' for Active; 'I' for Inactive)
REMARK    1  A    between atoms: C1_1  and  C7_7 
REMARK    2  A    between atoms: C1_1  and  C9_9 
REMARK    3  A    between atoms: C8_8  and  C9_9 
ROOT
HETATM    1  C1  UNL     1     -34.538  14.123  -3.699  1.00 20.00     0.155 C 
HETATM    2  O10 UNL     1     -34.003  13.059  -3.393  1.00 20.00    -0.295 OA
ENDROOT
BRANCH   1   3
HETATM    3  C7  UNL     1     -35.726  14.156  -4.602  1.00 20.00     0.190 C 
HETATM    4  C3  UNL     1     -35.944  15.515  -5.239  1.00 20.00     0.042 C 
HETATM    5  C2  UNL     1     -37.447  15.633  -5.239  1.00 20.00     0.029 C 
HETATM    6  C6  UNL     1     -37.814  14.942  -3.946  1.00 20.00     0.168 C 
HETATM    7  O11 UNL     1     -36.864  13.881  -3.776  1.00 20.00    -0.378 OA
ENDBRANCH   1   3
BRANCH   1   8
HETATM    8  C9  UNL     1     -34.046  15.467  -3.193  1.00 20.00     0.085 C 
BRANCH   8   9
HETATM    9  C8  UNL     1     -34.740  15.899  -1.915  1.00 20.00    -0.007 A 
HETATM   10  C4  UNL     1     -34.150  16.988  -1.061  1.00 20.00     0.005 A 
HETATM   11  C5  UNL     1     -35.413  17.242  -1.837  1.00 20.00     0.005 A 
ENDBRANCH   8   9
ENDBRANCH   1   8
TORSDOF 3
ENDMDL
MODEL 3
REMARK VINA RESULT:      -4.6     10.787     12.473
REMARK  3 active torsions:
REMARK  status: ('A' for Active; 'I' for Inactive)
REMARK    1  A    between atoms: C1_1  and  C7_7 
REMARK    2  A    between atoms: C1_1  and  C9_9 
REMARK    3  A    between atoms: C8_8  and  C9_9 
ROOT
HETATM    1  C1  UNL     1     -34.661  13.769  -4.647  1.00 20.00     0.155 C 
HETATM    2  O10 UNL     1     -35.002  12.616  -4.388  1.00 20.00    -0.295 OA
ENDROOT
BRANCH   1   3
HETATM    3  C7  UNL     1     -34.894  14.354  -6.001  1.00 20.00     0.190 C 
HETATM    4  C3  UNL     1     -34.010  15.552  -6.284  1.00 20.00     0.042 C 
HETATM    5  C2  UNL     1     -34.934  16.460  -7.057  1.00 20.00     0.029 C 
HETATM    6  C6  UNL     1     -36.262  16.195  -6.385  1.00 20.00     0.168 C 
HETATM    7  O11 UNL     1     -36.252  14.810  -6.012  1.00 20.00    -0.378 OA
ENDBRANCH   1   3
BRANCH   1   8
HETATM    8  C9  UNL     1     -33.991  14.678  -3.634  1.00 20.00     0.085 C 
BRANCH   8   9
HETATM    9  C8  UNL     1     -34.989  15.412  -2.758  1.00 20.00    -0.007 A 
HETATM   10  C4  UNL     1     -34.513  16.265  -1.614  1.00 20.00     0.005 A 
HETATM   11  C5  UNL     1     -35.106  16.910  -2.836  1.00 20.00     0.005 A 
ENDBRANCH   8   9
ENDBRANCH   1   8
TORSDOF 3
ENDMDL
MODEL 4
REMARK VINA RESULT:      -4.6     11.111     12.037
REMARK  3 active torsions:
REMARK  status: ('A' for Active; 'I' for Inactive)
REMARK    1  A    between atoms: C1_1  and  C7_7 
REMARK    2  A    between atoms: C1_1  and  C9_9 
REMARK    3  A    between atoms: C8_8  and  C9_9 
ROOT
HETATM    1  C1  UNL     1     -33.776  16.549  -3.988  1.00 20.00     0.155 C 
HETATM    2  O10 UNL     1     -32.874  16.663  -4.816  1.00 20.00    -0.295 OA
ENDROOT
BRANCH   1   3
HETATM    3  C7  UNL     1     -34.710  15.385  -4.024  1.00 20.00     0.190 C 
HETATM    4  C3  UNL     1     -34.006  14.059  -3.808  1.00 20.00     0.042 C 
HETATM    5  C2  UNL     1     -34.746  13.143  -4.751  1.00 20.00     0.029 C 
HETATM    6  C6  UNL     1     -35.043  14.067  -5.910  1.00 20.00     0.168 C 
HETATM    7  O11 UNL     1     -35.272  15.363  -5.341  1.00 20.00    -0.378 OA
ENDBRANCH   1   3
BRANCH   1   8
HETATM    8  C9  UNL     1     -34.010  17.559  -2.880  1.00 20.00     0.085 C 
BRANCH   8   9
HETATM    9  C8  UNL     1     -33.705  16.997  -1.504  1.00 20.00    -0.007 A 
HETATM   10  C4  UNL     1     -33.690  17.901  -0.302  1.00 20.00     0.005 A 
HETATM   11  C5  UNL     1     -34.794  16.894  -0.470  1.00 20.00     0.005 A 
ENDBRANCH   8   9
ENDBRANCH   1   8
TORSDOF 3
ENDMDL
MODEL 5
REMARK VINA RESULT:      -4.5     10.709     12.222
REMARK  3 active torsions:
REMARK  status: ('A' for Active; 'I' for Inactive)
REMARK    1  A    between atoms: C1_1  and  C7_7 
REMARK    2  A    between atoms: C1_1  and  C9_9 
REMARK    3  A    between atoms: C8_8  and  C9_9 
ROOT
HETATM    1  C1  UNL     1     -34.431  13.820  -4.808  1.00 20.00     0.155 C 
HETATM    2  O10 UNL     1     -34.893  12.725  -4.490  1.00 20.00    -0.295 OA
ENDROOT
BRANCH   1   3
HETATM    3  C7  UNL     1     -33.669  14.648  -3.828  1.00 20.00     0.190 C 
HETATM    4  C3  UNL     1     -34.538  15.178  -2.704  1.00 20.00     0.042 C 
HETATM    5  C2  UNL     1     -33.972  16.559  -2.483  1.00 20.00     0.029 C 
HETATM    6  C6  UNL     1     -33.602  16.971  -3.890  1.00 20.00     0.168 C 
HETATM    7  O11 UNL     1     -33.173  15.777  -4.557  1.00 20.00    -0.378 OA
ENDBRANCH   1   3
BRANCH   1   8
HETATM    8  C9  UNL     1     -34.593  14.409  -6.198  1.00 20.00     0.085 C 
BRANCH   8   9
HETATM    9  C8  UNL     1     -36.026  14.805  -6.500  1.00 20.00    -0.007 A 
HETATM   10  C4  UNL     1     -36.836  15.559  -5.481  1.00 20.00     0.005 A 
HETATM   11  C5  UNL     1     -36.378  16.248  -6.737  1.00 20.00     0.005 A 
ENDBRANCH   8   9
ENDBRANCH   1   8
TORSDOF 3
ENDMDL
MODEL 6
REMARK VINA RESULT:      -4.4     11.150     12.672
REMARK  3 active torsions:
REMARK  status: ('A' for Active; 'I' for Inactive)
REMARK    1  A    between atoms: C1_1  and  C7_7 
REMARK    2  A    between atoms: C1_1  and  C9_9 
REMARK    3  A    between atoms: C8_8  and  C9_9 
ROOT
HETATM    1  C1  UNL     1     -36.783  15.028  -4.165  1.00 20.00     0.155 C 
HETATM    2  O10 UNL     1     -37.534  14.126  -3.796  1.00 20.00    -0.295 OA
ENDROOT
BRANCH   1   3
HETATM    3  C7  UNL     1     -36.336  15.124  -5.585  1.00 20.00     0.190 C 
HETATM    4  C3  UNL     1     -35.159  14.219  -5.894  1.00 20.00     0.042 C 
HETATM    5  C2  UNL     1     -34.342  15.063  -6.841  1.00 20.00     0.029 C 
HETATM    6  C6  UNL     1     -34.558  16.451  -6.284  1.00 20.00     0.168 C 
HETATM    7  O11 UNL     1     -35.900  16.475  -5.778  1.00 20.00    -0.378 OA
ENDBRANCH   1   3
BRANCH   1   8
HETATM    8  C9  UNL     1     -36.260  16.099  -3.226  1.00 20.00     0.085 C 
BRANCH   8   9
HETATM    9  C8  UNL     1     -35.075  15.626  -2.404  1.00 20.00    -0.007 A 
HETATM   10  C4  UNL     1     -33.722  16.256  -2.592  1.00 20.00     0.005 A 
HETATM   11  C5  UNL     1     -34.499  16.508  -1.330  1.00 20.00     0.005 A 
ENDBRANCH   8   9
ENDBRANCH   1   8
TORSDOF 3
ENDMDL
MODEL 7
REMARK VINA RESULT:      -4.4      1.113      1.523
REMARK  3 active torsions:
REMARK  status: ('A' for Active; 'I' for Inactive)
REMARK    1  A    between atoms: C1_1  and  C7_7 
REMARK    2  A    between atoms: C1_1  and  C9_9 
REMARK    3  A    between atoms: C8_8  and  C9_9 
ROOT
HETATM    1  C1  UNL     1     -33.337   6.092   3.210  1.00 20.00     0.155 C 
HETATM    2  O10 UNL     1     -34.102   5.686   2.336  1.00 20.00    -0.295 OA
ENDROOT
BRANCH   1   3
HETATM    3  C7  UNL     1     -33.357   5.505   4.582  1.00 20.00     0.190 C 
HETATM    4  C3  UNL     1     -34.694   4.884   4.937  1.00 20.00     0.042 C 
HETATM    5  C2  UNL     1     -34.840   5.243   6.395  1.00 20.00     0.029 C 
HETATM    6  C6  UNL     1     -34.205   6.615   6.441  1.00 20.00     0.168 C 
HETATM    7  O11 UNL     1     -33.135   6.592   5.487  1.00 20.00    -0.378 OA
ENDBRANCH   1   3
BRANCH   1   8
HETATM    8  C9  UNL     1     -32.329   7.201   2.973  1.00 20.00     0.085 C 
BRANCH   8   9
HETATM    9  C8  UNL     1     -32.700   8.084   1.795  1.00 20.00    -0.007 A 
HETATM   10  C4  UNL     1     -32.443   9.565   1.846  1.00 20.00     0.005 A 
HETATM   11  C5  UNL     1     -31.624   8.692   0.937  1.00 20.00     0.005 A 
ENDBRANCH   8   9
ENDBRANCH   1   8
TORSDOF 3
ENDMDL
MODEL 8
REMARK VINA RESULT:      -4.4     10.644     11.742
REMARK  3 active torsions:
REMARK  status: ('A' for Active; 'I' for Inactive)
REMARK    1  A    between atoms: C1_1  and  C7_7 
REMARK    2  A    between atoms: C1_1  and  C9_9 
REMARK    3  A    between atoms: C8_8  and  C9_9 
ROOT
HETATM    1  C1  UNL     1     -34.077  16.936  -2.663  1.00 20.00     0.155 C 
HETATM    2  O10 UNL     1     -33.619  18.047  -2.922  1.00 20.00    -0.295 OA
ENDROOT
BRANCH   1   3
HETATM    3  C7  UNL     1     -34.281  15.919  -3.737  1.00 20.00     0.190 C 
HETATM    4  C3  UNL     1     -35.352  14.903  -3.390  1.00 20.00     0.042 C 
HETATM    5  C2  UNL     1     -34.782  13.627  -3.958  1.00 20.00     0.029 C 
HETATM    6  C6  UNL     1     -33.302  13.810  -3.708  1.00 20.00     0.168 C 
HETATM    7  O11 UNL     1     -33.041  15.212  -3.859  1.00 20.00    -0.378 OA
ENDBRANCH   1   3
BRANCH   1   8
HETATM    8  C9  UNL     1     -34.466  16.511  -1.259  1.00 20.00     0.085 C 
BRANCH   8   9
HETATM    9  C8  UNL     1     -34.887  17.683  -0.391  1.00 20.00    -0.007 A 
HETATM   10  C4  UNL     1     -35.234  17.469   1.056  1.00 20.00     0.005 A 
HETATM   11  C5  UNL     1     -33.970  18.195   0.686  1.00 20.00     0.005 A 
ENDBRANCH   8   9
ENDBRANCH   1   8
TORSDOF 3
ENDMDL
MODEL 9
REMARK VINA RESULT:      -4.3     10.853     11.793
REMARK  3 active torsions:
REMARK  status: ('A' for Active; 'I' for Inactive)
REMARK    1  A    between atoms: C1_1  and  C7_7 
REMARK    2  A    between atoms: C1_1  and  C9_9 
REMARK    3  A    between atoms: C8_8  and  C9_9 
ROOT
HETATM    1  C1  UNL     1     -35.737  15.933  -3.045  1.00 20.00     0.155 C 
HETATM    2  O10 UNL     1     -36.436  16.879  -3.406  1.00 20.00    -0.295 OA
ENDROOT
BRANCH   1   3
HETATM    3  C7  UNL     1     -35.830  14.606  -3.723  1.00 20.00     0.190 C 
HETATM    4  C3  UNL     1     -34.542  13.810  -3.635  1.00 20.00     0.042 C 
HETATM    5  C2  UNL     1     -34.480  13.147  -4.989  1.00 20.00     0.029 C 
HETATM    6  C6  UNL     1     -35.066  14.215  -5.884  1.00 20.00     0.168 C 
HETATM    7  O11 UNL     1     -36.071  14.880  -5.108  1.00 20.00    -0.378 OA
ENDBRANCH   1   3
BRANCH   1   8
HETATM    8  C9  UNL     1     -34.741  16.033  -1.906  1.00 20.00     0.085 C 
BRANCH   8   9
HETATM    9  C8  UNL     1     -34.871  17.331  -1.129  1.00 20.00    -0.007 A 
HETATM   10  C4  UNL     1     -34.907  17.315   0.375  1.00 20.00     0.005 A 
HETATM   11  C5  UNL     1     -33.704  17.862  -0.343  1.00 20.00     0.005 A 
ENDBRANCH   8   9
ENDBRANCH   1   8
TORSDOF 3
ENDMDL
