MODEL 1
REMARK VINA RESULT:      -4.6      0.000      0.000
REMARK  0 active torsions:
REMARK  status: ('A' for Active; 'I' for Inactive)
ROOT
HETATM    1  C1  UNL     1     -36.396  14.398  -4.020  1.00 20.00     0.071 C 
HETATM    2  C2  UNL     1     -34.183  17.080  -3.233  1.00 20.00     0.034 C 
HETATM    3  C3  UNL     1     -34.527  15.930  -2.287  1.00 20.00     0.036 C 
HETATM    4  C4  UNL     1     -34.579  15.615  -5.241  1.00 20.00     0.058 C 
HETATM    5  C5  UNL     1     -33.528  16.346  -4.400  1.00 20.00     0.123 C 
HETATM    6  C6  UNL     1     -34.079  14.706  -3.092  1.00 20.00     0.144 C 
HETATM    7  C7  UNL     1     -34.957  14.425  -4.330  1.00 20.00     0.074 C 
HETATM    8  C8  UNL     1     -34.558  13.095  -4.987  1.00 20.00     0.034 C 
HETATM    9  N9  UNL     1     -37.529  14.376  -3.776  1.00 20.00    -0.196 NA
HETATM   10  O10 UNL     1     -32.885  15.244  -3.719  1.00 20.00    -0.379 OA
ENDROOT
TORSDOF 0
ENDMDL
MODEL 2
REMARK VINA RESULT:      -4.5      1.132      2.509
REMARK  0 active torsions:
REMARK  status: ('A' for Active; 'I' for Inactive)
ROOT
HETATM    1  C1  UNL     1     -36.877  14.922  -3.831  1.00 20.00     0.071 C 
HETATM    2  C2  UNL     1     -33.553  13.631  -3.844  1.00 20.00     0.034 C 
HETATM    3  C3  UNL     1     -34.457  13.719  -5.073  1.00 20.00     0.036 C 
HETATM    4  C4  UNL     1     -34.703  15.609  -2.795  1.00 20.00     0.058 C 
HETATM    5  C5  UNL     1     -33.415  15.098  -3.447  1.00 20.00     0.123 C 
HETATM    6  C6  UNL     1     -34.756  15.219  -5.148  1.00 20.00     0.144 C 
HETATM    7  C7  UNL     1     -35.658  15.729  -4.004  1.00 20.00     0.074 C 
HETATM    8  C8  UNL     1     -36.053  17.195  -4.236  1.00 20.00     0.034 C 
HETATM    9  N9  UNL     1     -37.838  14.287  -3.695  1.00 20.00    -0.196 NA
HETATM   10  O10 UNL     1     -33.468  15.750  -4.738  1.00 20.00    -0.379 OA
ENDROOT
TORSDOF 0
ENDMDL
MODEL 3
REMARK VINA RESULT:      -4.5      1.621      2.112
REMARK  0 active torsions:
REMARK  status: ('A' for Active; 'I' for Inactive)
ROOT
HETATM    1  C1  UNL     1     -34.627  13.811  -5.056  1.00 20.00     0.071 C 
HETATM    2  C2  UNL     1     -34.593  16.470  -2.681  1.00 20.00     0.034 C 
HETATM    3  C3  UNL     1     -33.366  15.658  -3.097  1.00 20.00     0.036 C 
HETATM    4  C4  UNL     1     -35.671  16.084  -4.923  1.00 20.00     0.058 C 
HETATM    5  C5  UNL     1     -35.010  17.113  -4.001  1.00 20.00     0.123 C 
HETATM    6  C6  UNL     1     -33.312  15.906  -4.607  1.00 20.00     0.144 C 
HETATM    7  C7  UNL     1     -34.464  15.236  -5.386  1.00 20.00     0.074 C 
HETATM    8  C8  UNL     1     -34.252  15.382  -6.900  1.00 20.00     0.034 C 
HETATM    9  N9  UNL     1     -34.756  12.688  -4.797  1.00 20.00    -0.196 NA
HETATM   10  O10 UNL     1     -33.728  17.297  -4.646  1.00 20.00    -0.379 OA
ENDROOT
TORSDOF 0
ENDMDL
MODEL 4
REMARK VINA RESULT:      -4.4      1.737      2.753
REMARK  0 active torsions:
REMARK  status: ('A' for Active; 'I' for Inactive)
ROOT
HETATM    1  C1  UNL     1     -34.741  13.953  -4.030  1.00 20.00     0.071 C 
HETATM    2  C2  UNL     1     -34.089  16.350  -6.588  1.00 20.00     0.034 C 
HETATM    3  C3  UNL     1     -35.483  15.916  -6.138  1.00 20.00     0.036 C 
HETATM    4  C4  UNL     1     -33.145  15.863  -4.306  1.00 20.00     0.058 C 
HETATM    5  C5  UNL     1     -33.517  16.958  -5.310  1.00 20.00     0.123 C 
HETATM    6  C6  UNL     1     -35.470  16.279  -4.650  1.00 20.00     0.144 C 
HETATM    7  C7  UNL     1     -34.529  15.392  -3.805  1.00 20.00     0.074 C 
HETATM    8  C8  UNL     1     -34.694  15.698  -2.309  1.00 20.00     0.034 C 
HETATM    9  N9  UNL     1     -34.908  12.819  -4.207  1.00 20.00    -0.196 NA
HETATM   10  O10 UNL     1     -34.707  17.514  -4.702  1.00 20.00    -0.379 OA
ENDROOT
TORSDOF 0
ENDMDL
MODEL 5
REMARK VINA RESULT:      -4.4      2.304      3.429
REMARK  0 active torsions:
REMARK  status: ('A' for Active; 'I' for Inactive)
ROOT
HETATM    1  C1  UNL     1     -33.402  16.024  -4.738  1.00 20.00     0.071 C 
HETATM    2  C2  UNL     1     -36.721  14.820  -5.232  1.00 20.00     0.034 C 
HETATM    3  C3  UNL     1     -35.558  14.585  -6.194  1.00 20.00     0.036 C 
HETATM    4  C4  UNL     1     -35.140  14.966  -3.278  1.00 20.00     0.058 C 
HETATM    5  C5  UNL     1     -36.226  14.131  -3.962  1.00 20.00     0.123 C 
HETATM    6  C6  UNL     1     -34.544  13.858  -5.306  1.00 20.00     0.144 C 
HETATM    7  C7  UNL     1     -33.927  14.754  -4.211  1.00 20.00     0.074 C 
HETATM    8  C8  UNL     1     -32.803  14.012  -3.473  1.00 20.00     0.034 C 
HETATM    9  N9  UNL     1     -32.988  17.025  -5.153  1.00 20.00    -0.196 NA
HETATM   10  O10 UNL     1     -35.448  13.043  -4.513  1.00 20.00    -0.379 OA
ENDROOT
TORSDOF 0
ENDMDL
MODEL 6
REMARK VINA RESULT:      -4.4      1.665      2.588
REMARK  0 active torsions:
REMARK  status: ('A' for Active; 'I' for Inactive)
ROOT
HETATM    1  C1  UNL     1     -35.267  13.636  -4.348  1.00 20.00     0.071 C 
HETATM    2  C2  UNL     1     -33.261  16.582  -4.465  1.00 20.00     0.034 C 
HETATM    3  C3  UNL     1     -34.037  16.010  -5.651  1.00 20.00     0.036 C 
HETATM    4  C4  UNL     1     -34.923  15.609  -2.844  1.00 20.00     0.058 C 
HETATM    5  C5  UNL     1     -34.380  16.894  -3.475  1.00 20.00     0.123 C 
HETATM    6  C6  UNL     1     -35.477  16.017  -5.129  1.00 20.00     0.144 C 
HETATM    7  C7  UNL     1     -35.733  14.990  -4.006  1.00 20.00     0.074 C 
HETATM    8  C8  UNL     1     -37.226  14.934  -3.652  1.00 20.00     0.034 C 
HETATM    9  N9  UNL     1     -34.900  12.570  -4.618  1.00 20.00    -0.196 NA
HETATM   10  O10 UNL     1     -35.460  17.255  -4.369  1.00 20.00    -0.379 OA
ENDROOT
TORSDOF 0
ENDMDL
MODEL 7
REMARK VINA RESULT:      -4.3      1.094      1.175
REMARK  0 active torsions:
REMARK  status: ('A' for Active; 'I' for Inactive)
ROOT
HETATM    1  C1  UNL     1     -36.027  14.681  -4.376  1.00 20.00     0.071 C 
HETATM    2  C2  UNL     1     -33.953  17.250  -3.031  1.00 20.00     0.034 C 
HETATM    3  C3  UNL     1     -33.757  15.755  -2.784  1.00 20.00     0.036 C 
HETATM    4  C4  UNL     1     -35.017  16.792  -5.266  1.00 20.00     0.058 C 
HETATM    5  C5  UNL     1     -33.784  17.346  -4.545  1.00 20.00     0.123 C 
HETATM    6  C6  UNL     1     -33.576  15.213  -4.206  1.00 20.00     0.144 C 
HETATM    7  C7  UNL     1     -34.863  15.269  -5.057  1.00 20.00     0.074 C 
HETATM    8  C8  UNL     1     -34.653  14.558  -6.402  1.00 20.00     0.034 C 
HETATM    9  N9  UNL     1     -36.945  14.217  -3.840  1.00 20.00    -0.196 NA
HETATM   10  O10 UNL     1     -32.813  16.302  -4.791  1.00 20.00    -0.379 OA
ENDROOT
TORSDOF 0
ENDMDL
MODEL 8
REMARK VINA RESULT:      -4.2      1.265      1.922
REMARK  0 active torsions:
REMARK  status: ('A' for Active; 'I' for Inactive)
ROOT
HETATM    1  C1  UNL     1     -36.324  14.422  -4.114  1.00 20.00     0.071 C 
HETATM    2  C2  UNL     1     -35.190  16.866  -6.450  1.00 20.00     0.034 C 
HETATM    3  C3  UNL     1     -35.401  17.120  -4.958  1.00 20.00     0.036 C 
HETATM    4  C4  UNL     1     -34.695  14.436  -6.016  1.00 20.00     0.058 C 
HETATM    5  C5  UNL     1     -34.110  15.787  -6.438  1.00 20.00     0.123 C 
HETATM    6  C6  UNL     1     -34.458  16.096  -4.319  1.00 20.00     0.144 C 
HETATM    7  C7  UNL     1     -34.919  14.634  -4.500  1.00 20.00     0.074 C 
HETATM    8  C8  UNL     1     -34.026  13.680  -3.694  1.00 20.00     0.034 C 
HETATM    9  N9  UNL     1     -37.430  14.255  -3.810  1.00 20.00    -0.196 NA
HETATM   10  O10 UNL     1     -33.354  16.153  -5.260  1.00 20.00    -0.379 OA
ENDROOT
TORSDOF 0
ENDMDL
MODEL 9
REMARK VINA RESULT:      -4.2      1.659      1.992
REMARK  0 active torsions:
REMARK  status: ('A' for Active; 'I' for Inactive)
ROOT
HETATM    1  C1  UNL     1     -34.461  13.701  -4.197  1.00 20.00     0.071 C 
HETATM    2  C2  UNL     1     -35.891  16.966  -4.133  1.00 20.00     0.034 C 
HETATM    3  C3  UNL     1     -35.888  15.994  -2.953  1.00 20.00     0.036 C 
HETATM    4  C4  UNL     1     -33.769  15.957  -5.036  1.00 20.00     0.058 C 
HETATM    5  C5  UNL     1     -34.399  17.183  -4.369  1.00 20.00     0.123 C 
HETATM    6  C6  UNL     1     -34.391  15.750  -2.741  1.00 20.00     0.144 C 
HETATM    7  C7  UNL     1     -33.730  14.937  -3.875  1.00 20.00     0.074 C 
HETATM    8  C8  UNL     1     -32.279  14.585  -3.516  1.00 20.00     0.034 C 
HETATM    9  N9  UNL     1     -35.036  12.726  -4.450  1.00 20.00    -0.196 NA
HETATM   10  O10 UNL     1     -33.879  17.079  -3.023  1.00 20.00    -0.379 OA
ENDROOT
TORSDOF 0
ENDMDL
