MODEL 1
REMARK VINA RESULT:      -5.2      0.000      0.000
REMARK  2 active torsions:
REMARK  status: ('A' for Active; 'I' for Inactive)
REMARK    1  A    between atoms: C5_5  and  C9_9 
REMARK    2  A    between atoms: C6_6  and  C10_10 
ROOT
HETATM    1  C1  UNL     1     -36.549  14.404  -4.204  1.00 20.00     0.069 C 
HETATM    2  C2  UNL     1     -33.050  14.607  -3.530  1.00 20.00     0.006 C 
HETATM    3  C3  UNL     1     -34.188  13.686  -3.956  1.00 20.00     0.025 C 
HETATM    4  C4  UNL     1     -34.694  16.027  -4.515  1.00 20.00     0.029 C 
HETATM    5  C5  UNL     1     -33.704  15.972  -3.346  1.00 20.00    -0.013 C 
HETATM    6  C6  UNL     1     -35.181  14.576  -4.736  1.00 20.00     0.049 C 
HETATM    7  N11 UNL     1     -37.622  14.269  -3.786  1.00 20.00    -0.196 NA
ENDROOT
BRANCH   6   8
HETATM    8  C10 UNL     1     -35.184  14.227  -6.229  1.00 20.00     0.020 C 
HETATM    9  C8  UNL     1     -34.364  15.190  -7.021  1.00 20.00     0.007 C 
ENDBRANCH   6   8
BRANCH   5  10
HETATM   10  C9  UNL     1     -34.386  16.119  -1.988  1.00 20.00     0.000 C 
HETATM   11  C7  UNL     1     -33.799  17.239  -1.187  1.00 20.00     0.005 C 
ENDBRANCH   5  10
TORSDOF 2
ENDMDL
MODEL 2
REMARK VINA RESULT:      -4.9      1.999      4.080
REMARK  2 active torsions:
REMARK  status: ('A' for Active; 'I' for Inactive)
REMARK    1  A    between atoms: C5_5  and  C9_9 
REMARK    2  A    between atoms: C6_6  and  C10_10 
ROOT
HETATM    1  C1  UNL     1     -33.634  17.108  -4.503  1.00 20.00     0.069 C 
HETATM    2  C2  UNL     1     -33.546  13.647  -3.639  1.00 20.00     0.006 C 
HETATM    3  C3  UNL     1     -32.751  14.948  -3.663  1.00 20.00     0.025 C 
HETATM    4  C4  UNL     1     -35.168  15.393  -3.566  1.00 20.00     0.029 C 
HETATM    5  C5  UNL     1     -34.916  14.018  -4.194  1.00 20.00    -0.013 C 
HETATM    6  C6  UNL     1     -33.785  16.077  -3.455  1.00 20.00     0.049 C 
HETATM    7  N11 UNL     1     -33.516  17.918  -5.325  1.00 20.00    -0.196 NA
ENDROOT
BRANCH   6   8
HETATM    8  C10 UNL     1     -33.616  16.738  -2.082  1.00 20.00     0.020 C 
HETATM    9  C8  UNL     1     -34.755  16.417  -1.173  1.00 20.00     0.007 C 
ENDBRANCH   6   8
BRANCH   5  10
HETATM   10  C9  UNL     1     -34.943  14.053  -5.720  1.00 20.00     0.000 C 
HETATM   11  C7  UNL     1     -36.052  14.912  -6.240  1.00 20.00     0.005 C 
ENDBRANCH   5  10
TORSDOF 2
ENDMDL
MODEL 3
REMARK VINA RESULT:      -4.8      1.565      1.903
REMARK  2 active torsions:
REMARK  status: ('A' for Active; 'I' for Inactive)
REMARK    1  A    between atoms: C5_5  and  C9_9 
REMARK    2  A    between atoms: C6_6  and  C10_10 
ROOT
HETATM    1  C1  UNL     1     -34.585  13.806  -4.974  1.00 20.00     0.069 C 
HETATM    2  C2  UNL     1     -33.623  17.070  -3.901  1.00 20.00     0.006 C 
HETATM    3  C3  UNL     1     -33.155  15.796  -4.597  1.00 20.00     0.025 C 
HETATM    4  C4  UNL     1     -35.590  16.071  -4.807  1.00 20.00     0.029 C 
HETATM    5  C5  UNL     1     -35.087  16.813  -3.563  1.00 20.00    -0.013 C 
HETATM    6  C6  UNL     1     -34.398  15.231  -5.320  1.00 20.00     0.049 C 
HETATM    7  N11 UNL     1     -34.732  12.688  -4.704  1.00 20.00    -0.196 NA
ENDROOT
BRANCH   6   8
HETATM    8  C10 UNL     1     -34.260  15.357  -6.841  1.00 20.00     0.020 C 
HETATM    9  C8  UNL     1     -35.456  14.811  -7.548  1.00 20.00     0.007 C 
ENDBRANCH   6   8
BRANCH   5  10
HETATM   10  C9  UNL     1     -35.260  16.002  -2.282  1.00 20.00     0.000 C 
HETATM   11  C7  UNL     1     -34.536  16.619  -1.128  1.00 20.00     0.005 C 
ENDBRANCH   5  10
TORSDOF 2
ENDMDL
MODEL 4
REMARK VINA RESULT:      -4.7      1.761      4.236
REMARK  2 active torsions:
REMARK  status: ('A' for Active; 'I' for Inactive)
REMARK    1  A    between atoms: C5_5  and  C9_9 
REMARK    2  A    between atoms: C6_6  and  C10_10 
ROOT
HETATM    1  C1  UNL     1     -33.439  14.179  -3.806  1.00 20.00     0.069 C 
HETATM    2  C2  UNL     1     -35.710  16.373  -5.469  1.00 20.00     0.006 C 
HETATM    3  C3  UNL     1     -35.492  15.503  -4.235  1.00 20.00     0.025 C 
HETATM    4  C4  UNL     1     -33.346  16.246  -5.181  1.00 20.00     0.029 C 
HETATM    5  C5  UNL     1     -34.422  16.237  -6.273  1.00 20.00    -0.013 C 
HETATM    6  C6  UNL     1     -33.974  15.550  -3.951  1.00 20.00     0.049 C 
HETATM    7  N11 UNL     1     -33.020  13.104  -3.691  1.00 20.00    -0.196 NA
ENDROOT
BRANCH   6   8
HETATM    8  C10 UNL     1     -33.673  16.336  -2.670  1.00 20.00     0.020 C 
HETATM    9  C8  UNL     1     -34.757  16.175  -1.658  1.00 20.00     0.007 C 
ENDBRANCH   6   8
BRANCH   5  10
HETATM   10  C9  UNL     1     -34.390  14.969  -7.122  1.00 20.00     0.000 C 
HETATM   11  C7  UNL     1     -35.659  14.780  -7.891  1.00 20.00     0.005 C 
ENDBRANCH   5  10
TORSDOF 2
ENDMDL
MODEL 5
REMARK VINA RESULT:      -4.6      1.288      1.493
REMARK  2 active torsions:
REMARK  status: ('A' for Active; 'I' for Inactive)
REMARK    1  A    between atoms: C5_5  and  C9_9 
REMARK    2  A    between atoms: C6_6  and  C10_10 
ROOT
HETATM    1  C1  UNL     1     -36.001  16.097  -5.489  1.00 20.00     0.069 C 
HETATM    2  C2  UNL     1     -33.794  13.836  -3.831  1.00 20.00     0.006 C 
HETATM    3  C3  UNL     1     -34.941  13.955  -4.830  1.00 20.00     0.025 C 
HETATM    4  C4  UNL     1     -33.634  16.037  -4.736  1.00 20.00     0.029 C 
HETATM    5  C5  UNL     1     -33.489  15.271  -3.417  1.00 20.00    -0.013 C 
HETATM    6  C6  UNL     1     -34.747  15.316  -5.533  1.00 20.00     0.049 C 
HETATM    7  N11 UNL     1     -36.984  16.711  -5.455  1.00 20.00    -0.196 NA
ENDROOT
BRANCH   6   8
HETATM    8  C10 UNL     1     -34.331  15.130  -6.997  1.00 20.00     0.020 C 
HETATM    9  C8  UNL     1     -35.402  14.459  -7.791  1.00 20.00     0.007 C 
ENDBRANCH   6   8
BRANCH   5  10
HETATM   10  C9  UNL     1     -34.434  15.782  -2.331  1.00 20.00     0.000 C 
HETATM   11  C7  UNL     1     -33.846  16.932  -1.576  1.00 20.00     0.005 C 
ENDBRANCH   5  10
TORSDOF 2
ENDMDL
MODEL 6
REMARK VINA RESULT:      -4.4      2.226      2.800
REMARK  2 active torsions:
REMARK  status: ('A' for Active; 'I' for Inactive)
REMARK    1  A    between atoms: C5_5  and  C9_9 
REMARK    2  A    between atoms: C6_6  and  C10_10 
ROOT
HETATM    1  C1  UNL     1     -33.783  17.589  -5.439  1.00 20.00     0.069 C 
HETATM    2  C2  UNL     1     -35.389  15.223  -3.305  1.00 20.00     0.006 C 
HETATM    3  C3  UNL     1     -35.546  16.088  -4.551  1.00 20.00     0.025 C 
HETATM    4  C4  UNL     1     -33.179  15.563  -4.135  1.00 20.00     0.029 C 
HETATM    5  C5  UNL     1     -33.968  15.490  -2.823  1.00 20.00    -0.013 C 
HETATM    6  C6  UNL     1     -34.138  16.178  -5.181  1.00 20.00     0.049 C 
HETATM    7  N11 UNL     1     -33.504  18.696  -5.643  1.00 20.00    -0.196 NA
ENDROOT
BRANCH   6   8
HETATM    8  C10 UNL     1     -34.071  15.402  -6.501  1.00 20.00     0.020 C 
HETATM    9  C8  UNL     1     -35.310  14.604  -6.734  1.00 20.00     0.007 C 
ENDBRANCH   6   8
BRANCH   5  10
HETATM   10  C9  UNL     1     -33.858  16.770  -1.997  1.00 20.00     0.000 C 
HETATM   11  C7  UNL     1     -34.638  16.680  -0.723  1.00 20.00     0.005 C 
ENDBRANCH   5  10
TORSDOF 2
ENDMDL
MODEL 7
REMARK VINA RESULT:      -4.4      1.373      3.869
REMARK  2 active torsions:
REMARK  status: ('A' for Active; 'I' for Inactive)
REMARK    1  A    between atoms: C5_5  and  C9_9 
REMARK    2  A    between atoms: C6_6  and  C10_10 
ROOT
HETATM    1  C1  UNL     1     -36.313  16.565  -3.012  1.00 20.00     0.069 C 
HETATM    2  C2  UNL     1     -33.107  15.932  -4.446  1.00 20.00     0.006 C 
HETATM    3  C3  UNL     1     -33.969  16.959  -3.718  1.00 20.00     0.025 C 
HETATM    4  C4  UNL     1     -34.721  14.670  -3.225  1.00 20.00     0.029 C 
HETATM    5  C5  UNL     1     -33.997  14.701  -4.575  1.00 20.00    -0.013 C 
HETATM    6  C6  UNL     1     -34.911  16.146  -2.804  1.00 20.00     0.049 C 
HETATM    7  N11 UNL     1     -37.413  16.893  -3.174  1.00 20.00    -0.196 NA
ENDROOT
BRANCH   6   8
HETATM    8  C10 UNL     1     -34.552  16.338  -1.326  1.00 20.00     0.020 C 
HETATM    9  C8  UNL     1     -33.772  17.591  -1.108  1.00 20.00     0.007 C 
ENDBRANCH   6   8
BRANCH   5  10
HETATM   10  C9  UNL     1     -34.957  14.792  -5.759  1.00 20.00     0.000 C 
HETATM   11  C7  UNL     1     -34.251  15.166  -7.023  1.00 20.00     0.005 C 
ENDBRANCH   5  10
TORSDOF 2
ENDMDL
MODEL 8
REMARK VINA RESULT:      -4.3      1.783      3.974
REMARK  2 active torsions:
REMARK  status: ('A' for Active; 'I' for Inactive)
REMARK    1  A    between atoms: C5_5  and  C9_9 
REMARK    2  A    between atoms: C6_6  and  C10_10 
ROOT
HETATM    1  C1  UNL     1     -35.586  17.638  -3.770  1.00 20.00     0.069 C 
HETATM    2  C2  UNL     1     -33.018  15.159  -3.749  1.00 20.00     0.006 C 
HETATM    3  C3  UNL     1     -33.382  16.577  -4.178  1.00 20.00     0.025 C 
HETATM    4  C4  UNL     1     -34.735  15.865  -2.251  1.00 20.00     0.029 C 
HETATM    5  C5  UNL     1     -34.262  14.638  -3.038  1.00 20.00    -0.013 C 
HETATM    6  C6  UNL     1     -34.376  17.096  -3.116  1.00 20.00     0.049 C 
HETATM    7  N11 UNL     1     -36.535  18.063  -4.282  1.00 20.00    -0.196 NA
ENDROOT
BRANCH   6   8
HETATM    8  C10 UNL     1     -33.744  18.197  -2.256  1.00 20.00     0.020 C 
HETATM    9  C8  UNL     1     -33.533  17.743  -0.850  1.00 20.00     0.007 C 
ENDBRANCH   6   8
BRANCH   5  10
HETATM   10  C9  UNL     1     -35.319  14.117  -4.009  1.00 20.00     0.000 C 
HETATM   11  C7  UNL     1     -34.735  13.182  -5.021  1.00 20.00     0.005 C 
ENDBRANCH   5  10
TORSDOF 2
ENDMDL
MODEL 9
REMARK VINA RESULT:      -4.2      1.634      3.805
REMARK  2 active torsions:
REMARK  status: ('A' for Active; 'I' for Inactive)
REMARK    1  A    between atoms: C5_5  and  C9_9 
REMARK    2  A    between atoms: C6_6  and  C10_10 
ROOT
HETATM    1  C1  UNL     1     -36.360  14.352  -4.344  1.00 20.00     0.069 C 
HETATM    2  C2  UNL     1     -34.128  16.222  -6.407  1.00 20.00     0.006 C 
HETATM    3  C3  UNL     1     -34.498  15.864  -4.971  1.00 20.00     0.025 C 
HETATM    4  C4  UNL     1     -35.206  14.098  -6.529  1.00 20.00     0.029 C 
HETATM    5  C5  UNL     1     -35.112  15.437  -7.268  1.00 20.00    -0.013 C 
HETATM    6  C6  UNL     1     -35.050  14.423  -5.025  1.00 20.00     0.049 C 
HETATM    7  N11 UNL     1     -37.387  14.295  -3.809  1.00 20.00    -0.196 NA
ENDROOT
BRANCH   6   8
HETATM    8  C10 UNL     1     -34.090  13.434  -4.354  1.00 20.00     0.020 C 
HETATM    9  C8  UNL     1     -33.021  14.140  -3.589  1.00 20.00     0.007 C 
ENDBRANCH   6   8
BRANCH   5  10
HETATM   10  C9  UNL     1     -36.464  16.135  -7.400  1.00 20.00     0.000 C 
HETATM   11  C7  UNL     1     -37.551  15.179  -7.779  1.00 20.00     0.005 C 
ENDBRANCH   5  10
TORSDOF 2
ENDMDL
