MODEL 1
REMARK VINA RESULT:      -4.9      0.000      0.000
REMARK  3 active torsions:
REMARK  status: ('A' for Active; 'I' for Inactive)
REMARK    1  A    between atoms: C3_3  and  C7_7 
REMARK    2  A    between atoms: C3_3  and  C10_10 
REMARK    3  A    between atoms: C8_8  and  C11_11 
ROOT
HETATM    1  C1  UNL     1     -34.632  17.460   0.231  1.00 20.00     0.012 C 
HETATM    2  C2  UNL     1     -34.712  16.776  -0.752  1.00 20.00    -0.110 C 
HETATM    3  C10 UNL     1     -34.815  15.935  -1.950  1.00 20.00     0.171 C 
ENDROOT
BRANCH   3   4
HETATM    4  C3  UNL     1     -33.891  16.391  -3.062  1.00 20.00     0.142 C 
HETATM    5  O12 UNL     1     -33.540  17.562  -3.207  1.00 20.00    -0.297 OA
BRANCH   4   6
HETATM    6  C7  UNL     1     -33.406  15.312  -4.010  1.00 20.00     0.057 C 
HETATM    7  C4  UNL     1     -33.958  13.959  -3.570  1.00 20.00     0.013 C 
HETATM    8  C5  UNL     1     -34.456  13.301  -4.850  1.00 20.00     0.005 C 
HETATM    9  C8  UNL     1     -34.963  14.462  -5.700  1.00 20.00    -0.014 C 
HETATM   10  C6  UNL     1     -33.945  15.572  -5.417  1.00 20.00     0.016 C 
BRANCH   9  11
HETATM   11  C11 UNL     1     -36.387  14.873  -5.332  1.00 20.00     0.000 C 
HETATM   12  C9  UNL     1     -36.641  16.322  -5.609  1.00 20.00     0.005 C 
ENDBRANCH   9  11
ENDBRANCH   4   6
ENDBRANCH   3   4
TORSDOF 3
ENDMDL
MODEL 2
REMARK VINA RESULT:      -4.8      1.859      4.084
REMARK  3 active torsions:
REMARK  status: ('A' for Active; 'I' for Inactive)
REMARK    1  A    between atoms: C3_3  and  C7_7 
REMARK    2  A    between atoms: C3_3  and  C10_10 
REMARK    3  A    between atoms: C8_8  and  C11_11 
ROOT
HETATM    1  C1  UNL     1     -38.283  15.029  -3.484  1.00 20.00     0.012 C 
HETATM    2  C2  UNL     1     -37.458  14.816  -4.329  1.00 20.00    -0.110 C 
HETATM    3  C10 UNL     1     -36.455  14.557  -5.368  1.00 20.00     0.171 C 
ENDROOT
BRANCH   3   4
HETATM    4  C3  UNL     1     -35.190  13.932  -4.813  1.00 20.00     0.142 C 
HETATM    5  O12 UNL     1     -35.132  12.767  -4.422  1.00 20.00    -0.297 OA
BRANCH   4   6
HETATM    6  C7  UNL     1     -33.971  14.830  -4.762  1.00 20.00     0.057 C 
HETATM    7  C4  UNL     1     -34.392  16.278  -4.998  1.00 20.00     0.013 C 
HETATM    8  C5  UNL     1     -33.650  17.083  -3.938  1.00 20.00     0.005 C 
HETATM    9  C8  UNL     1     -33.580  16.148  -2.734  1.00 20.00    -0.014 C 
HETATM   10  C6  UNL     1     -33.339  14.775  -3.371  1.00 20.00     0.016 C 
BRANCH   9  11
HETATM   11  C11 UNL     1     -34.857  16.184  -1.897  1.00 20.00     0.000 C 
HETATM   12  C9  UNL     1     -34.633  16.823  -0.561  1.00 20.00     0.005 C 
ENDBRANCH   9  11
ENDBRANCH   4   6
ENDBRANCH   3   4
TORSDOF 3
ENDMDL
MODEL 3
REMARK VINA RESULT:      -4.7      2.023      3.252
REMARK  3 active torsions:
REMARK  status: ('A' for Active; 'I' for Inactive)
REMARK    1  A    between atoms: C3_3  and  C7_7 
REMARK    2  A    between atoms: C3_3  and  C10_10 
REMARK    3  A    between atoms: C8_8  and  C11_11 
ROOT
HETATM    1  C1  UNL     1     -34.347  16.134  -1.950  1.00 20.00     0.012 C 
HETATM    2  C2  UNL     1     -35.193  15.587  -2.603  1.00 20.00    -0.110 C 
HETATM    3  C10 UNL     1     -36.233  14.921  -3.395  1.00 20.00     0.171 C 
ENDROOT
BRANCH   3   4
HETATM    4  C3  UNL     1     -35.658  14.021  -4.471  1.00 20.00     0.142 C 
HETATM    5  O12 UNL     1     -35.113  12.945  -4.226  1.00 20.00    -0.297 OA
BRANCH   4   6
HETATM    6  C7  UNL     1     -35.788  14.519  -5.896  1.00 20.00     0.057 C 
HETATM    7  C4  UNL     1     -36.445  15.897  -5.898  1.00 20.00     0.013 C 
HETATM    8  C5  UNL     1     -35.612  16.730  -6.863  1.00 20.00     0.005 C 
HETATM    9  C8  UNL     1     -34.192  16.198  -6.693  1.00 20.00    -0.014 C 
HETATM   10  C6  UNL     1     -34.403  14.690  -6.519  1.00 20.00     0.016 C 
BRANCH   9  11
HETATM   11  C11 UNL     1     -33.475  16.826  -5.499  1.00 20.00     0.000 C 
HETATM   12  C9  UNL     1     -33.622  18.315  -5.478  1.00 20.00     0.005 C 
ENDBRANCH   9  11
ENDBRANCH   4   6
ENDBRANCH   3   4
TORSDOF 3
ENDMDL
MODEL 4
REMARK VINA RESULT:      -4.7      1.217      1.756
REMARK  3 active torsions:
REMARK  status: ('A' for Active; 'I' for Inactive)
REMARK    1  A    between atoms: C3_3  and  C7_7 
REMARK    2  A    between atoms: C3_3  and  C10_10 
REMARK    3  A    between atoms: C8_8  and  C11_11 
ROOT
HETATM    1  C1  UNL     1     -35.149  17.409   0.792  1.00 20.00     0.012 C 
HETATM    2  C2  UNL     1     -34.499  17.365  -0.216  1.00 20.00    -0.110 C 
HETATM    3  C10 UNL     1     -33.697  17.317  -1.444  1.00 20.00     0.171 C 
ENDROOT
BRANCH   3   4
HETATM    4  C3  UNL     1     -34.488  16.814  -2.636  1.00 20.00     0.142 C 
HETATM    5  O12 UNL     1     -34.963  17.560  -3.491  1.00 20.00    -0.297 OA
BRANCH   4   6
HETATM    6  C7  UNL     1     -34.670  15.312  -2.728  1.00 20.00     0.057 C 
HETATM    7  C4  UNL     1     -36.004  14.998  -3.398  1.00 20.00     0.013 C 
HETATM    8  C5  UNL     1     -35.691  13.903  -4.409  1.00 20.00     0.005 C 
HETATM    9  C8  UNL     1     -34.278  14.223  -4.888  1.00 20.00    -0.014 C 
HETATM   10  C6  UNL     1     -33.579  14.708  -3.613  1.00 20.00     0.016 C 
BRANCH   9  11
HETATM   11  C11 UNL     1     -34.265  15.277  -5.994  1.00 20.00     0.000 C 
HETATM   12  C9  UNL     1     -34.840  14.753  -7.273  1.00 20.00     0.005 C 
ENDBRANCH   9  11
ENDBRANCH   4   6
ENDBRANCH   3   4
TORSDOF 3
ENDMDL
MODEL 5
REMARK VINA RESULT:      -4.7      2.335      4.315
REMARK  3 active torsions:
REMARK  status: ('A' for Active; 'I' for Inactive)
REMARK    1  A    between atoms: C3_3  and  C7_7 
REMARK    2  A    between atoms: C3_3  and  C10_10 
REMARK    3  A    between atoms: C8_8  and  C11_11 
ROOT
HETATM    1  C1  UNL     1     -34.670  17.188  -7.716  1.00 20.00     0.012 C 
HETATM    2  C2  UNL     1     -35.056  16.115  -7.340  1.00 20.00    -0.110 C 
HETATM    3  C10 UNL     1     -35.526  14.800  -6.888  1.00 20.00     0.171 C 
ENDROOT
BRANCH   3   4
HETATM    4  C3  UNL     1     -36.342  14.881  -5.613  1.00 20.00     0.142 C 
HETATM    5  O12 UNL     1     -37.396  15.510  -5.528  1.00 20.00    -0.297 OA
BRANCH   4   6
HETATM    6  C7  UNL     1     -35.787  14.132  -4.418  1.00 20.00     0.057 C 
HETATM    7  C4  UNL     1     -34.571  13.316  -4.846  1.00 20.00     0.013 C 
HETATM    8  C5  UNL     1     -33.527  13.567  -3.765  1.00 20.00     0.005 C 
HETATM    9  C8  UNL     1     -33.777  15.007  -3.326  1.00 20.00    -0.014 C 
HETATM   10  C6  UNL     1     -35.304  15.122  -3.358  1.00 20.00     0.016 C 
BRANCH   9  11
HETATM   11  C11 UNL     1     -33.099  16.021  -4.246  1.00 20.00     0.000 C 
HETATM   12  C9  UNL     1     -33.693  17.388  -4.108  1.00 20.00     0.005 C 
ENDBRANCH   9  11
ENDBRANCH   4   6
ENDBRANCH   3   4
TORSDOF 3
ENDMDL
MODEL 6
REMARK VINA RESULT:      -4.6      2.051      3.677
REMARK  3 active torsions:
REMARK  status: ('A' for Active; 'I' for Inactive)
REMARK    1  A    between atoms: C3_3  and  C7_7 
REMARK    2  A    between atoms: C3_3  and  C10_10 
REMARK    3  A    between atoms: C8_8  and  C11_11 
ROOT
HETATM    1  C1  UNL     1     -37.960  17.706  -2.695  1.00 20.00     0.012 C 
HETATM    2  C2  UNL     1     -37.562  17.055  -3.621  1.00 20.00    -0.110 C 
HETATM    3  C10 UNL     1     -37.079  16.266  -4.760  1.00 20.00     0.171 C 
ENDROOT
BRANCH   3   4
HETATM    4  C3  UNL     1     -36.561  14.902  -4.345  1.00 20.00     0.142 C 
HETATM    5  O12 UNL     1     -37.259  14.062  -3.779  1.00 20.00    -0.297 OA
BRANCH   4   6
HETATM    6  C7  UNL     1     -35.108  14.616  -4.667  1.00 20.00     0.057 C 
HETATM    7  C4  UNL     1     -34.511  15.796  -5.429  1.00 20.00     0.013 C 
HETATM    8  C5  UNL     1     -33.159  16.045  -4.774  1.00 20.00     0.005 C 
HETATM    9  C8  UNL     1     -33.379  15.693  -3.306  1.00 20.00    -0.014 C 
HETATM   10  C6  UNL     1     -34.305  14.473  -3.375  1.00 20.00     0.016 C 
BRANCH   9  11
HETATM   11  C11 UNL     1     -33.997  16.846  -2.518  1.00 20.00     0.000 C 
HETATM   12  C9  UNL     1     -34.685  16.372  -1.276  1.00 20.00     0.005 C 
ENDBRANCH   9  11
ENDBRANCH   4   6
ENDBRANCH   3   4
TORSDOF 3
ENDMDL
MODEL 7
REMARK VINA RESULT:      -4.6      1.982      3.179
REMARK  3 active torsions:
REMARK  status: ('A' for Active; 'I' for Inactive)
REMARK    1  A    between atoms: C3_3  and  C7_7 
REMARK    2  A    between atoms: C3_3  and  C10_10 
REMARK    3  A    between atoms: C8_8  and  C11_11 
ROOT
HETATM    1  C1  UNL     1     -34.683  16.289  -1.719  1.00 20.00     0.012 C 
HETATM    2  C2  UNL     1     -34.602  15.414  -2.537  1.00 20.00    -0.110 C 
HETATM    3  C10 UNL     1     -34.493  14.345  -3.535  1.00 20.00     0.171 C 
ENDROOT
BRANCH   3   4
HETATM    4  C3  UNL     1     -35.752  14.196  -4.368  1.00 20.00     0.142 C 
HETATM    5  O12 UNL     1     -36.861  13.987  -3.878  1.00 20.00    -0.297 OA
BRANCH   4   6
HETATM    6  C7  UNL     1     -35.576  14.322  -5.868  1.00 20.00     0.057 C 
HETATM    7  C4  UNL     1     -36.727  15.137  -6.451  1.00 20.00     0.013 C 
HETATM    8  C5  UNL     1     -36.068  16.117  -7.413  1.00 20.00     0.005 C 
HETATM    9  C8  UNL     1     -34.723  16.435  -6.767  1.00 20.00    -0.014 C 
HETATM   10  C6  UNL     1     -34.290  15.087  -6.181  1.00 20.00     0.016 C 
BRANCH   9  11
HETATM   11  C11 UNL     1     -34.834  17.523  -5.701  1.00 20.00     0.000 C 
HETATM   12  C9  UNL     1     -33.504  17.854  -5.098  1.00 20.00     0.005 C 
ENDBRANCH   9  11
ENDBRANCH   4   6
ENDBRANCH   3   4
TORSDOF 3
ENDMDL
MODEL 8
REMARK VINA RESULT:      -4.6      2.150      4.302
REMARK  3 active torsions:
REMARK  status: ('A' for Active; 'I' for Inactive)
REMARK    1  A    between atoms: C3_3  and  C7_7 
REMARK    2  A    between atoms: C3_3  and  C10_10 
REMARK    3  A    between atoms: C8_8  and  C11_11 
ROOT
HETATM    1  C1  UNL     1     -37.047  15.056  -7.135  1.00 20.00     0.012 C 
HETATM    2  C2  UNL     1     -35.915  14.804  -6.823  1.00 20.00    -0.110 C 
HETATM    3  C10 UNL     1     -34.530  14.497  -6.450  1.00 20.00     0.171 C 
ENDROOT
BRANCH   3   4
HETATM    4  C3  UNL     1     -34.425  13.853  -5.082  1.00 20.00     0.142 C 
HETATM    5  O12 UNL     1     -34.874  12.737  -4.828  1.00 20.00    -0.297 OA
BRANCH   4   6
HETATM    6  C7  UNL     1     -33.721  14.668  -4.015  1.00 20.00     0.057 C 
HETATM    7  C4  UNL     1     -33.302  16.016  -4.594  1.00 20.00     0.013 C 
HETATM    8  C5  UNL     1     -33.699  17.040  -3.538  1.00 20.00     0.005 C 
HETATM    9  C8  UNL     1     -34.968  16.467  -2.913  1.00 20.00    -0.014 C 
HETATM   10  C6  UNL     1     -34.683  14.962  -2.863  1.00 20.00     0.016 C 
BRANCH   9  11
HETATM   11  C11 UNL     1     -36.216  16.794  -3.730  1.00 20.00     0.000 C 
HETATM   12  C9  UNL     1     -37.310  15.797  -3.506  1.00 20.00     0.005 C 
ENDBRANCH   9  11
ENDBRANCH   4   6
ENDBRANCH   3   4
TORSDOF 3
ENDMDL
MODEL 9
REMARK VINA RESULT:      -4.6      1.880      2.852
REMARK  3 active torsions:
REMARK  status: ('A' for Active; 'I' for Inactive)
REMARK    1  A    between atoms: C3_3  and  C7_7 
REMARK    2  A    between atoms: C3_3  and  C10_10 
REMARK    3  A    between atoms: C8_8  and  C11_11 
ROOT
HETATM    1  C1  UNL     1     -33.554  18.226  -5.555  1.00 20.00     0.012 C 
HETATM    2  C2  UNL     1     -33.610  17.605  -4.529  1.00 20.00    -0.110 C 
HETATM    3  C10 UNL     1     -33.679  16.854  -3.271  1.00 20.00     0.171 C 
ENDROOT
BRANCH   3   4
HETATM    4  C3  UNL     1     -33.359  15.383  -3.453  1.00 20.00     0.142 C 
HETATM    5  O12 UNL     1     -32.224  14.966  -3.684  1.00 20.00    -0.297 OA
BRANCH   4   6
HETATM    6  C7  UNL     1     -34.528  14.427  -3.333  1.00 20.00     0.057 C 
HETATM    7  C4  UNL     1     -35.824  15.219  -3.185  1.00 20.00     0.013 C 
HETATM    8  C5  UNL     1     -36.809  14.547  -4.133  1.00 20.00     0.005 C 
HETATM    9  C8  UNL     1     -35.947  14.071  -5.299  1.00 20.00    -0.014 C 
HETATM   10  C6  UNL     1     -34.660  13.600  -4.613  1.00 20.00     0.016 C 
BRANCH   9  11
HETATM   11  C11 UNL     1     -35.689  15.178  -6.319  1.00 20.00     0.000 C 
HETATM   12  C9  UNL     1     -34.429  14.944  -7.093  1.00 20.00     0.005 C 
ENDBRANCH   9  11
ENDBRANCH   4   6
ENDBRANCH   3   4
TORSDOF 3
ENDMDL
