MODEL 1
REMARK VINA RESULT:      -4.9      0.000      0.000
REMARK  3 active torsions:
REMARK  status: ('A' for Active; 'I' for Inactive)
REMARK    1  A    between atoms: C1_1  and  C7_7 
REMARK    2  A    between atoms: C1_1  and  C8_8 
REMARK    3  A    between atoms: C9_9  and  C11_11 
ROOT
HETATM    1  C4  UNL     1     -33.811  13.831  -4.193  1.00 20.00     0.013 C 
HETATM    2  C5  UNL     1     -33.074  14.789  -3.260  1.00 20.00     0.005 C 
HETATM    3  C6  UNL     1     -35.386  15.328  -3.063  1.00 20.00     0.016 C 
HETATM    4  C8  UNL     1     -35.298  14.130  -4.005  1.00 20.00     0.056 C 
HETATM    5  C9  UNL     1     -34.009  15.988  -3.154  1.00 20.00    -0.014 C 
ENDROOT
BRANCH   4   6
HETATM    6  C1  UNL     1     -35.902  14.517  -5.343  1.00 20.00     0.135 C 
HETATM    7  O12 UNL     1     -37.027  15.008  -5.426  1.00 20.00    -0.297 OA
BRANCH   6   8
HETATM    8  C7  UNL     1     -35.055  14.275  -6.563  1.00 20.00     0.056 A 
HETATM    9  C2  UNL     1     -35.651  14.550  -7.897  1.00 20.00     0.013 A 
HETATM   10  C3  UNL     1     -34.594  15.456  -7.340  1.00 20.00     0.013 A 
ENDBRANCH   6   8
ENDBRANCH   4   6
BRANCH   5  11
HETATM   11  C11 UNL     1     -33.699  16.887  -1.969  1.00 20.00     0.000 C 
HETATM   12  C10 UNL     1     -34.620  16.634  -0.818  1.00 20.00     0.005 C 
ENDBRANCH   5  11
TORSDOF 3
ENDMDL
MODEL 2
REMARK VINA RESULT:      -4.8      2.263      3.537
REMARK  3 active torsions:
REMARK  status: ('A' for Active; 'I' for Inactive)
REMARK    1  A    between atoms: C1_1  and  C7_7 
REMARK    2  A    between atoms: C1_1  and  C8_8 
REMARK    3  A    between atoms: C9_9  and  C11_11 
ROOT
HETATM    1  C4  UNL     1     -34.940  16.287  -1.410  1.00 20.00     0.013 C 
HETATM    2  C5  UNL     1     -34.356  17.281  -0.410  1.00 20.00     0.005 C 
HETATM    3  C6  UNL     1     -33.739  18.081  -2.566  1.00 20.00     0.016 C 
HETATM    4  C8  UNL     1     -34.608  16.846  -2.794  1.00 20.00     0.056 C 
HETATM    5  C9  UNL     1     -33.179  17.901  -1.154  1.00 20.00    -0.014 C 
ENDROOT
BRANCH   4   6
HETATM    6  C1  UNL     1     -33.800  15.819  -3.566  1.00 20.00     0.135 C 
HETATM    7  O12 UNL     1     -32.869  16.148  -4.299  1.00 20.00    -0.297 OA
BRANCH   6   8
HETATM    8  C7  UNL     1     -34.192  14.376  -3.386  1.00 20.00     0.056 A 
HETATM    9  C2  UNL     1     -35.391  13.880  -4.111  1.00 20.00     0.013 A 
HETATM   10  C3  UNL     1     -34.019  13.456  -4.540  1.00 20.00     0.013 A 
ENDBRANCH   6   8
ENDBRANCH   4   6
BRANCH   5  11
HETATM   11  C11 UNL     1     -32.696  19.201  -0.534  1.00 20.00     0.000 C 
HETATM   12  C10 UNL     1     -31.807  18.962   0.646  1.00 20.00     0.005 C 
ENDBRANCH   5  11
TORSDOF 3
ENDMDL
MODEL 3
REMARK VINA RESULT:      -4.8      1.349      1.749
REMARK  3 active torsions:
REMARK  status: ('A' for Active; 'I' for Inactive)
REMARK    1  A    between atoms: C1_1  and  C7_7 
REMARK    2  A    between atoms: C1_1  and  C8_8 
REMARK    3  A    between atoms: C9_9  and  C11_11 
ROOT
HETATM    1  C4  UNL     1     -33.310  16.224  -4.721  1.00 20.00     0.013 C 
HETATM    2  C5  UNL     1     -33.654  16.988  -3.445  1.00 20.00     0.005 C 
HETATM    3  C6  UNL     1     -34.026  14.688  -2.953  1.00 20.00     0.016 C 
HETATM    4  C8  UNL     1     -33.477  14.744  -4.376  1.00 20.00     0.056 C 
HETATM    5  C9  UNL     1     -34.634  16.072  -2.722  1.00 20.00    -0.014 C 
ENDROOT
BRANCH   4   6
HETATM    6  C1  UNL     1     -34.496  14.125  -5.316  1.00 20.00     0.135 C 
HETATM    7  O12 UNL     1     -34.923  12.984  -5.144  1.00 20.00    -0.297 OA
BRANCH   6   8
HETATM    8  C7  UNL     1     -34.962  14.978  -6.465  1.00 20.00     0.056 A 
HETATM    9  C2  UNL     1     -35.593  14.302  -7.629  1.00 20.00     0.013 A 
HETATM   10  C3  UNL     1     -36.426  15.115  -6.684  1.00 20.00     0.013 A 
ENDBRANCH   6   8
ENDBRANCH   4   6
BRANCH   5  11
HETATM   11  C11 UNL     1     -34.799  16.414  -1.251  1.00 20.00     0.000 C 
HETATM   12  C10 UNL     1     -33.841  17.475  -0.811  1.00 20.00     0.005 C 
ENDBRANCH   5  11
TORSDOF 3
ENDMDL
MODEL 4
REMARK VINA RESULT:      -4.7      1.798      4.919
REMARK  3 active torsions:
REMARK  status: ('A' for Active; 'I' for Inactive)
REMARK    1  A    between atoms: C1_1  and  C7_7 
REMARK    2  A    between atoms: C1_1  and  C8_8 
REMARK    3  A    between atoms: C9_9  and  C11_11 
ROOT
HETATM    1  C4  UNL     1     -34.214  14.349  -3.455  1.00 20.00     0.013 C 
HETATM    2  C5  UNL     1     -34.576  13.984  -4.893  1.00 20.00     0.005 C 
HETATM    3  C6  UNL     1     -33.186  15.913  -5.036  1.00 20.00     0.016 C 
HETATM    4  C8  UNL     1     -33.260  15.540  -3.557  1.00 20.00     0.056 C 
HETATM    5  C9  UNL     1     -34.446  15.301  -5.649  1.00 20.00    -0.014 C 
ENDROOT
BRANCH   4   6
HETATM    6  C1  UNL     1     -33.842  16.712  -2.788  1.00 20.00     0.135 C 
HETATM    7  O12 UNL     1     -33.586  17.876  -3.094  1.00 20.00    -0.297 OA
BRANCH   6   8
HETATM    8  C7  UNL     1     -34.754  16.380  -1.637  1.00 20.00     0.056 A 
HETATM    9  C2  UNL     1     -34.515  17.058  -0.336  1.00 20.00     0.013 A 
HETATM   10  C3  UNL     1     -35.702  17.426  -1.173  1.00 20.00     0.013 A 
ENDBRANCH   6   8
ENDBRANCH   4   6
BRANCH   5  11
HETATM   11  C11 UNL     1     -34.351  15.120  -7.154  1.00 20.00     0.000 C 
HETATM   12  C10 UNL     1     -35.562  14.444  -7.716  1.00 20.00     0.005 C 
ENDBRANCH   5  11
TORSDOF 3
ENDMDL
MODEL 5
REMARK VINA RESULT:      -4.6      2.618      5.359
REMARK  3 active torsions:
REMARK  status: ('A' for Active; 'I' for Inactive)
REMARK    1  A    between atoms: C1_1  and  C7_7 
REMARK    2  A    between atoms: C1_1  and  C8_8 
REMARK    3  A    between atoms: C9_9  and  C11_11 
ROOT
HETATM    1  C4  UNL     1     -33.733  17.494  -4.086  1.00 20.00     0.013 C 
HETATM    2  C5  UNL     1     -33.370  16.126  -4.659  1.00 20.00     0.005 C 
HETATM    3  C6  UNL     1     -34.632  15.698  -2.685  1.00 20.00     0.016 C 
HETATM    4  C8  UNL     1     -34.607  17.214  -2.863  1.00 20.00     0.056 C 
HETATM    5  C9  UNL     1     -33.403  15.201  -3.448  1.00 20.00    -0.014 C 
ENDROOT
BRANCH   4   6
HETATM    6  C1  UNL     1     -33.964  17.837  -1.637  1.00 20.00     0.135 C 
HETATM    7  O12 UNL     1     -33.160  18.763  -1.731  1.00 20.00    -0.297 OA
BRANCH   6   8
HETATM    8  C7  UNL     1     -34.364  17.270  -0.302  1.00 20.00     0.056 A 
HETATM    9  C2  UNL     1     -34.198  18.126   0.902  1.00 20.00     0.013 A 
HETATM   10  C3  UNL     1     -35.567  17.833   0.365  1.00 20.00     0.013 A 
ENDBRANCH   6   8
ENDBRANCH   4   6
BRANCH   5  11
HETATM   11  C11 UNL     1     -33.484  13.731  -3.820  1.00 20.00     0.000 C 
HETATM   12  C10 UNL     1     -34.866  13.333  -4.232  1.00 20.00     0.005 C 
ENDBRANCH   5  11
TORSDOF 3
ENDMDL
MODEL 6
REMARK VINA RESULT:      -4.6      2.270      3.271
REMARK  3 active torsions:
REMARK  status: ('A' for Active; 'I' for Inactive)
REMARK    1  A    between atoms: C1_1  and  C7_7 
REMARK    2  A    between atoms: C1_1  and  C8_8 
REMARK    3  A    between atoms: C9_9  and  C11_11 
ROOT
HETATM    1  C4  UNL     1     -34.853  16.000  -1.838  1.00 20.00     0.013 C 
HETATM    2  C5  UNL     1     -34.517  16.841  -0.609  1.00 20.00     0.005 C 
HETATM    3  C6  UNL     1     -33.832  18.127  -2.493  1.00 20.00     0.016 C 
HETATM    4  C8  UNL     1     -34.482  16.862  -3.046  1.00 20.00     0.056 C 
HETATM    5  C9  UNL     1     -33.384  17.743  -1.081  1.00 20.00    -0.014 C 
ENDROOT
BRANCH   4   6
HETATM    6  C1  UNL     1     -33.463  16.121  -3.893  1.00 20.00     0.135 C 
HETATM    7  O12 UNL     1     -32.814  15.178  -3.444  1.00 20.00    -0.297 OA
BRANCH   6   8
HETATM    8  C7  UNL     1     -33.291  16.596  -5.311  1.00 20.00     0.056 A 
HETATM    9  C2  UNL     1     -33.980  15.842  -6.391  1.00 20.00     0.013 A 
HETATM   10  C3  UNL     1     -34.463  17.204  -5.992  1.00 20.00     0.013 A 
ENDBRANCH   6   8
ENDBRANCH   4   6
BRANCH   5  11
HETATM   11  C11 UNL     1     -33.159  18.944  -0.179  1.00 20.00     0.000 C 
HETATM   12  C10 UNL     1     -31.826  18.894   0.499  1.00 20.00     0.005 C 
ENDBRANCH   5  11
TORSDOF 3
ENDMDL
MODEL 7
REMARK VINA RESULT:      -4.6      1.906      3.289
REMARK  3 active torsions:
REMARK  status: ('A' for Active; 'I' for Inactive)
REMARK    1  A    between atoms: C1_1  and  C7_7 
REMARK    2  A    between atoms: C1_1  and  C8_8 
REMARK    3  A    between atoms: C9_9  and  C11_11 
ROOT
HETATM    1  C4  UNL     1     -35.338  17.261  -3.319  1.00 20.00     0.013 C 
HETATM    2  C5  UNL     1     -35.837  17.642  -1.927  1.00 20.00     0.005 C 
HETATM    3  C6  UNL     1     -33.577  16.948  -1.647  1.00 20.00     0.016 C 
HETATM    4  C8  UNL     1     -33.865  16.890  -3.144  1.00 20.00     0.056 C 
HETATM    5  C9  UNL     1     -34.952  16.835  -0.986  1.00 20.00    -0.014 C 
ENDROOT
BRANCH   4   6
HETATM    6  C1  UNL     1     -33.649  15.467  -3.627  1.00 20.00     0.135 C 
HETATM    7  O12 UNL     1     -32.542  14.931  -3.583  1.00 20.00    -0.297 OA
BRANCH   6   8
HETATM    8  C7  UNL     1     -34.857  14.742  -4.157  1.00 20.00     0.056 A 
HETATM    9  C2  UNL     1     -34.767  14.123  -5.506  1.00 20.00     0.013 A 
HETATM   10  C3  UNL     1     -34.786  13.262  -4.279  1.00 20.00     0.013 A 
ENDBRANCH   6   8
ENDBRANCH   4   6
BRANCH   5  11
HETATM   11  C11 UNL     1     -34.972  17.348   0.443  1.00 20.00     0.000 C 
HETATM   12  C10 UNL     1     -33.850  18.301   0.712  1.00 20.00     0.005 C 
ENDBRANCH   5  11
TORSDOF 3
ENDMDL
MODEL 8
REMARK VINA RESULT:      -4.5     11.254     12.293
REMARK  3 active torsions:
REMARK  status: ('A' for Active; 'I' for Inactive)
REMARK    1  A    between atoms: C1_1  and  C7_7 
REMARK    2  A    between atoms: C1_1  and  C8_8 
REMARK    3  A    between atoms: C9_9  and  C11_11 
ROOT
HETATM    1  C4  UNL     1     -34.473   5.685   2.801  1.00 20.00     0.013 C 
HETATM    2  C5  UNL     1     -35.000   4.998   4.059  1.00 20.00     0.005 C 
HETATM    3  C6  UNL     1     -33.812   6.921   4.809  1.00 20.00     0.016 C 
HETATM    4  C8  UNL     1     -33.778   6.959   3.284  1.00 20.00     0.056 C 
HETATM    5  C9  UNL     1     -34.038   5.447   5.152  1.00 20.00    -0.014 C 
ENDROOT
BRANCH   4   6
HETATM    6  C1  UNL     1     -32.330   6.940   2.829  1.00 20.00     0.135 C 
HETATM    7  O12 UNL     1     -31.662   5.907   2.844  1.00 20.00    -0.297 OA
BRANCH   6   8
HETATM    8  C7  UNL     1     -31.753   8.246   2.353  1.00 20.00     0.056 A 
HETATM    9  C2  UNL     1     -31.753   8.522   0.892  1.00 20.00     0.013 A 
HETATM   10  C3  UNL     1     -32.687   9.262   1.801  1.00 20.00     0.013 A 
ENDBRANCH   6   8
ENDBRANCH   4   6
BRANCH   5  11
HETATM   11  C11 UNL     1     -34.584   5.237   6.554  1.00 20.00     0.000 C 
HETATM   12  C10 UNL     1     -35.457   4.024   6.639  1.00 20.00     0.005 C 
ENDBRANCH   5  11
TORSDOF 3
ENDMDL
MODEL 9
REMARK VINA RESULT:      -4.5     10.941     12.235
REMARK  3 active torsions:
REMARK  status: ('A' for Active; 'I' for Inactive)
REMARK    1  A    between atoms: C1_1  and  C7_7 
REMARK    2  A    between atoms: C1_1  and  C8_8 
REMARK    3  A    between atoms: C9_9  and  C11_11 
ROOT
HETATM    1  C4  UNL     1     -31.963   6.059   3.373  1.00 20.00     0.013 C 
HETATM    2  C5  UNL     1     -31.529   7.277   2.562  1.00 20.00     0.005 C 
HETATM    3  C6  UNL     1     -33.610   7.861   3.560  1.00 20.00     0.016 C 
HETATM    4  C8  UNL     1     -33.260   6.466   4.073  1.00 20.00     0.056 C 
HETATM    5  C9  UNL     1     -32.837   7.993   2.247  1.00 20.00    -0.014 C 
ENDROOT
BRANCH   4   6
HETATM    6  C1  UNL     1     -34.366   5.507   3.671  1.00 20.00     0.135 C 
HETATM    7  O12 UNL     1     -34.509   5.139   2.506  1.00 20.00    -0.297 OA
BRANCH   6   8
HETATM    8  C7  UNL     1     -35.275   5.026   4.769  1.00 20.00     0.056 A 
HETATM    9  C2  UNL     1     -34.836   3.863   5.584  1.00 20.00     0.013 A 
HETATM   10  C3  UNL     1     -34.847   5.240   6.176  1.00 20.00     0.013 A 
ENDBRANCH   6   8
ENDBRANCH   4   6
BRANCH   5  11
HETATM   11  C11 UNL     1     -32.641   9.435   1.813  1.00 20.00     0.000 C 
HETATM   12  C10 UNL     1     -32.298   9.541   0.360  1.00 20.00     0.005 C 
ENDBRANCH   5  11
TORSDOF 3
ENDMDL
