MODEL 1
REMARK VINA RESULT:      -4.6      0.000      0.000
REMARK  2 active torsions:
REMARK  status: ('A' for Active; 'I' for Inactive)
REMARK    1  A    between atoms: C9_9  and  C10_10 
REMARK    2  A    between atoms: C9_9  and  N11_11 
ROOT
HETATM    1  C1  UNL     1     -34.768  13.291  -4.975  1.00 20.00     0.002 C 
HETATM    2  C2  UNL     1     -33.559  17.955  -4.821  1.00 20.00     0.028 C 
HETATM    3  C3  UNL     1     -34.609  14.402  -6.028  1.00 20.00     0.007 C 
HETATM    4  C4  UNL     1     -34.136  16.948  -5.821  1.00 20.00     0.008 C 
HETATM    5  C5  UNL     1     -34.534  13.952  -3.605  1.00 20.00     0.034 C 
HETATM    6  C6  UNL     1     -34.141  17.802  -3.414  1.00 20.00     0.235 C 
HETATM    7  C7  UNL     1     -33.981  15.551  -5.253  1.00 20.00     0.016 C 
HETATM    8  C8  UNL     1     -34.683  15.434  -3.906  1.00 20.00     0.192 C 
HETATM    9  N11 UNL     1     -34.026  16.362  -2.932  1.00 20.00    -0.065 N 
HETATM   10  H31 UNL     1     -33.024  16.132  -2.896  1.00 20.00     0.280 HD
ENDROOT
BRANCH   9  11
HETATM   11  C9  UNL     1     -34.555  16.220  -1.531  1.00 20.00     0.250 C 
BRANCH  11  12
HETATM   12  C10 UNL     1     -34.135  17.412  -0.692  1.00 20.00     0.142 C 
HETATM   13 CL12 UNL     1     -35.044  17.488   0.837  1.00 20.00    -0.129 Cl
ENDBRANCH  11  12
ENDBRANCH   9  11
TORSDOF 2
ENDMDL
MODEL 2
REMARK VINA RESULT:      -4.6      1.999      3.916
REMARK  2 active torsions:
REMARK  status: ('A' for Active; 'I' for Inactive)
REMARK    1  A    between atoms: C9_9  and  C10_10 
REMARK    2  A    between atoms: C9_9  and  N11_11 
ROOT
HETATM    1  C1  UNL     1     -34.426  17.430  -0.735  1.00 20.00     0.002 C 
HETATM    2  C2  UNL     1     -33.712  17.723  -5.493  1.00 20.00     0.028 C 
HETATM    3  C3  UNL     1     -34.026  18.560  -1.701  1.00 20.00     0.007 C 
HETATM    4  C4  UNL     1     -33.477  18.572  -4.239  1.00 20.00     0.008 C 
HETATM    5  C5  UNL     1     -34.520  16.147  -1.580  1.00 20.00     0.034 C 
HETATM    6  C6  UNL     1     -33.384  16.243  -5.283  1.00 20.00     0.235 C 
HETATM    7  C7  UNL     1     -34.227  17.948  -3.078  1.00 20.00     0.016 C 
HETATM    8  C8  UNL     1     -33.770  16.513  -2.849  1.00 20.00     0.192 C 
HETATM    9  N11 UNL     1     -34.105  15.696  -4.058  1.00 20.00    -0.065 N 
HETATM   10  H31 UNL     1     -35.115  15.784  -4.235  1.00 20.00     0.280 HD
ENDROOT
BRANCH   9  11
HETATM   11  C9  UNL     1     -33.822  14.230  -3.877  1.00 20.00     0.250 C 
BRANCH  11  12
HETATM   12  C10 UNL     1     -35.041  13.412  -4.262  1.00 20.00     0.142 C 
HETATM   13 CL12 UNL     1     -36.545  14.340  -4.048  1.00 20.00    -0.129 Cl
ENDBRANCH  11  12
ENDBRANCH   9  11
TORSDOF 2
ENDMDL
MODEL 3
REMARK VINA RESULT:      -4.5      2.901      5.012
REMARK  2 active torsions:
REMARK  status: ('A' for Active; 'I' for Inactive)
REMARK    1  A    between atoms: C9_9  and  C10_10 
REMARK    2  A    between atoms: C9_9  and  N11_11 
ROOT
HETATM    1  C1  UNL     1     -33.664  18.416  -4.347  1.00 20.00     0.002 C 
HETATM    2  C2  UNL     1     -34.123  13.649  -3.799  1.00 20.00     0.028 C 
HETATM    3  C3  UNL     1     -33.937  17.486  -3.151  1.00 20.00     0.007 C 
HETATM    4  C4  UNL     1     -34.359  14.929  -2.990  1.00 20.00     0.008 C 
HETATM    5  C5  UNL     1     -33.618  17.517  -5.596  1.00 20.00     0.034 C 
HETATM    6  C6  UNL     1     -34.563  13.775  -5.259  1.00 20.00     0.235 C 
HETATM    7  C7  UNL     1     -33.712  16.092  -3.716  1.00 20.00     0.016 C 
HETATM    8  C8  UNL     1     -34.278  16.234  -5.122  1.00 20.00     0.192 C 
HETATM    9  N11 UNL     1     -33.942  15.005  -5.908  1.00 20.00    -0.065 N 
HETATM   10  H31 UNL     1     -32.921  14.879  -5.886  1.00 20.00     0.280 HD
ENDROOT
BRANCH   9  11
HETATM   11  C9  UNL     1     -34.335  15.104  -7.357  1.00 20.00     0.250 C 
BRANCH  11  12
HETATM   12  C10 UNL     1     -35.621  14.336  -7.602  1.00 20.00     0.142 C 
HETATM   13 CL12 UNL     1     -37.054  15.364  -7.354  1.00 20.00    -0.129 Cl
ENDBRANCH  11  12
ENDBRANCH   9  11
TORSDOF 2
ENDMDL
MODEL 4
REMARK VINA RESULT:      -4.5      3.049      3.759
REMARK  2 active torsions:
REMARK  status: ('A' for Active; 'I' for Inactive)
REMARK    1  A    between atoms: C9_9  and  C10_10 
REMARK    2  A    between atoms: C9_9  and  N11_11 
ROOT
HETATM    1  C1  UNL     1     -34.538  13.361  -4.638  1.00 20.00     0.002 C 
HETATM    2  C2  UNL     1     -34.964  17.001  -1.507  1.00 20.00     0.028 C 
HETATM    3  C3  UNL     1     -33.549  14.173  -3.783  1.00 20.00     0.007 C 
HETATM    4  C4  UNL     1     -33.859  16.256  -2.262  1.00 20.00     0.008 C 
HETATM    5  C5  UNL     1     -35.925  13.988  -4.412  1.00 20.00     0.034 C 
HETATM    6  C6  UNL     1     -36.202  17.266  -2.367  1.00 20.00     0.235 C 
HETATM    7  C7  UNL     1     -34.447  15.000  -2.875  1.00 20.00     0.016 C 
HETATM    8  C8  UNL     1     -35.599  15.344  -3.810  1.00 20.00     0.192 C 
HETATM    9  N11 UNL     1     -36.696  15.981  -3.017  1.00 20.00    -0.065 N 
HETATM   10  H31 UNL     1     -36.960  15.337  -2.258  1.00 20.00     0.280 HD
ENDROOT
BRANCH   9  11
HETATM   11  C9  UNL     1     -37.941  16.231  -3.824  1.00 20.00     0.250 C 
BRANCH  11  12
HETATM   12  C10 UNL     1     -39.083  15.382  -3.298  1.00 20.00     0.142 C 
HETATM   13 CL12 UNL     1     -39.772  14.349  -4.575  1.00 20.00    -0.129 Cl
ENDBRANCH  11  12
ENDBRANCH   9  11
TORSDOF 2
ENDMDL
MODEL 5
REMARK VINA RESULT:      -4.5      1.793      2.924
REMARK  2 active torsions:
REMARK  status: ('A' for Active; 'I' for Inactive)
REMARK    1  A    between atoms: C9_9  and  C10_10 
REMARK    2  A    between atoms: C9_9  and  N11_11 
ROOT
HETATM    1  C1  UNL     1     -38.033  16.094  -3.847  1.00 20.00     0.002 C 
HETATM    2  C2  UNL     1     -33.838  13.724  -3.702  1.00 20.00     0.028 C 
HETATM    3  C3  UNL     1     -37.545  14.726  -4.359  1.00 20.00     0.007 C 
HETATM    4  C4  UNL     1     -35.198  13.614  -4.399  1.00 20.00     0.008 C 
HETATM    5  C5  UNL     1     -36.805  16.794  -3.237  1.00 20.00     0.034 C 
HETATM    6  C6  UNL     1     -33.315  15.160  -3.633  1.00 20.00     0.235 C 
HETATM    7  C7  UNL     1     -36.165  14.577  -3.737  1.00 20.00     0.016 C 
HETATM    8  C8  UNL     1     -35.639  16.004  -3.806  1.00 20.00     0.192 C 
HETATM    9  N11 UNL     1     -34.360  16.090  -3.033  1.00 20.00    -0.065 N 
HETATM   10  H31 UNL     1     -34.543  15.765  -2.074  1.00 20.00     0.280 HD
ENDROOT
BRANCH   9  11
HETATM   11  C9  UNL     1     -33.830  17.493  -2.920  1.00 20.00     0.250 C 
BRANCH  11  12
HETATM   12  C10 UNL     1     -33.657  17.871  -1.461  1.00 20.00     0.142 C 
HETATM   13 CL12 UNL     1     -34.599  16.802  -0.393  1.00 20.00    -0.129 Cl
ENDBRANCH  11  12
ENDBRANCH   9  11
TORSDOF 2
ENDMDL
MODEL 6
REMARK VINA RESULT:      -4.4      1.016      2.847
REMARK  2 active torsions:
REMARK  status: ('A' for Active; 'I' for Inactive)
REMARK    1  A    between atoms: C9_9  and  C10_10 
REMARK    2  A    between atoms: C9_9  and  N11_11 
ROOT
HETATM    1  C1  UNL     1     -34.302  17.573  -6.739  1.00 20.00     0.002 C 
HETATM    2  C2  UNL     1     -35.123  13.391  -4.487  1.00 20.00     0.028 C 
HETATM    3  C3  UNL     1     -34.540  16.124  -7.202  1.00 20.00     0.007 C 
HETATM    4  C4  UNL     1     -34.784  13.893  -5.894  1.00 20.00     0.008 C 
HETATM    5  C5  UNL     1     -34.271  17.539  -5.201  1.00 20.00     0.034 C 
HETATM    6  C6  UNL     1     -34.342  14.116  -3.389  1.00 20.00     0.235 C 
HETATM    7  C7  UNL     1     -34.952  15.399  -5.929  1.00 20.00     0.016 C 
HETATM    8  C8  UNL     1     -34.060  16.067  -4.891  1.00 20.00     0.192 C 
HETATM    9  N11 UNL     1     -34.488  15.625  -3.526  1.00 20.00    -0.065 N 
HETATM   10  H31 UNL     1     -35.486  15.847  -3.415  1.00 20.00     0.280 HD
ENDROOT
BRANCH   9  11
HETATM   11  C9  UNL     1     -33.760  16.338  -2.420  1.00 20.00     0.250 C 
BRANCH  11  12
HETATM   12  C10 UNL     1     -34.660  16.475  -1.206  1.00 20.00     0.142 C 
HETATM   13 CL12 UNL     1     -34.031  17.680  -0.057  1.00 20.00    -0.129 Cl
ENDBRANCH  11  12
ENDBRANCH   9  11
TORSDOF 2
ENDMDL
MODEL 7
REMARK VINA RESULT:      -4.3      1.708      2.425
REMARK  2 active torsions:
REMARK  status: ('A' for Active; 'I' for Inactive)
REMARK    1  A    between atoms: C9_9  and  C10_10 
REMARK    2  A    between atoms: C9_9  and  N11_11 
ROOT
HETATM    1  C1  UNL     1     -33.390  13.727  -3.829  1.00 20.00     0.002 C 
HETATM    2  C2  UNL     1     -37.573  16.112  -4.048  1.00 20.00     0.028 C 
HETATM    3  C3  UNL     1     -34.857  13.320  -4.061  1.00 20.00     0.007 C 
HETATM    4  C4  UNL     1     -37.077  14.665  -3.969  1.00 20.00     0.008 C 
HETATM    5  C5  UNL     1     -33.398  15.240  -3.548  1.00 20.00     0.034 C 
HETATM    6  C6  UNL     1     -36.792  17.064  -3.140  1.00 20.00     0.235 C 
HETATM    7  C7  UNL     1     -35.581  14.647  -4.222  1.00 20.00     0.016 C 
HETATM    8  C8  UNL     1     -34.852  15.522  -3.210  1.00 20.00     0.192 C 
HETATM    9  N11 UNL     1     -35.294  16.941  -3.386  1.00 20.00    -0.065 N 
HETATM   10  H31 UNL     1     -35.123  17.212  -4.364  1.00 20.00     0.280 HD
ENDROOT
BRANCH   9  11
HETATM   11  C9  UNL     1     -34.527  17.910  -2.528  1.00 20.00     0.250 C 
BRANCH  11  12
HETATM   12  C10 UNL     1     -35.283  18.177  -1.240  1.00 20.00     0.142 C 
HETATM   13 CL12 UNL     1     -34.830  17.021   0.036  1.00 20.00    -0.129 Cl
ENDBRANCH  11  12
ENDBRANCH   9  11
TORSDOF 2
ENDMDL
MODEL 8
REMARK VINA RESULT:      -4.3      2.646      4.744
REMARK  2 active torsions:
REMARK  status: ('A' for Active; 'I' for Inactive)
REMARK    1  A    between atoms: C9_9  and  C10_10 
REMARK    2  A    between atoms: C9_9  and  N11_11 
ROOT
HETATM    1  C1  UNL     1     -33.730  17.652  -2.869  1.00 20.00     0.002 C 
HETATM    2  C2  UNL     1     -34.305  13.254  -4.755  1.00 20.00     0.028 C 
HETATM    3  C3  UNL     1     -34.043  16.260  -2.291  1.00 20.00     0.007 C 
HETATM    4  C4  UNL     1     -34.525  13.971  -3.419  1.00 20.00     0.008 C 
HETATM    5  C5  UNL     1     -33.683  17.488  -4.399  1.00 20.00     0.034 C 
HETATM    6  C6  UNL     1     -34.718  14.098  -5.963  1.00 20.00     0.235 C 
HETATM    7  C7  UNL     1     -33.840  15.323  -3.472  1.00 20.00     0.016 C 
HETATM    8  C8  UNL     1     -34.380  16.158  -4.625  1.00 20.00     0.192 C 
HETATM    9  N11 UNL     1     -34.059  15.470  -5.916  1.00 20.00    -0.065 N 
HETATM   10  H31 UNL     1     -33.042  15.321  -5.956  1.00 20.00     0.280 HD
ENDROOT
BRANCH   9  11
HETATM   11  C9  UNL     1     -34.426  16.284  -7.126  1.00 20.00     0.250 C 
BRANCH  11  12
HETATM   12  C10 UNL     1     -35.932  16.290  -7.314  1.00 20.00     0.142 C 
HETATM   13 CL12 UNL     1     -36.639  17.864  -6.880  1.00 20.00    -0.129 Cl
ENDBRANCH  11  12
ENDBRANCH   9  11
TORSDOF 2
ENDMDL
MODEL 9
REMARK VINA RESULT:      -4.3      2.129      3.892
REMARK  2 active torsions:
REMARK  status: ('A' for Active; 'I' for Inactive)
REMARK    1  A    between atoms: C9_9  and  C10_10 
REMARK    2  A    between atoms: C9_9  and  N11_11 
ROOT
HETATM    1  C1  UNL     1     -33.921  18.114  -6.223  1.00 20.00     0.002 C 
HETATM    2  C2  UNL     1     -33.849  17.110  -1.509  1.00 20.00     0.028 C 
HETATM    3  C3  UNL     1     -33.579  18.913  -4.952  1.00 20.00     0.007 C 
HETATM    4  C4  UNL     1     -33.757  18.333  -2.426  1.00 20.00     0.008 C 
HETATM    5  C5  UNL     1     -34.398  16.729  -5.751  1.00 20.00     0.034 C 
HETATM    6  C6  UNL     1     -34.905  16.100  -1.962  1.00 20.00     0.235 C 
HETATM    7  C7  UNL     1     -33.565  17.860  -3.854  1.00 20.00     0.016 C 
HETATM    8  C8  UNL     1     -34.710  16.952  -4.282  1.00 20.00     0.192 C 
HETATM    9  N11 UNL     1     -34.705  15.725  -3.425  1.00 20.00    -0.065 N 
HETATM   10  H31 UNL     1     -33.778  15.284  -3.502  1.00 20.00     0.280 HD
ENDROOT
BRANCH   9  11
HETATM   11  C9  UNL     1     -35.713  14.697  -3.859  1.00 20.00     0.250 C 
BRANCH  11  12
HETATM   12  C10 UNL     1     -35.014  13.395  -4.205  1.00 20.00     0.142 C 
HETATM   13 CL12 UNL     1     -33.276  13.465  -3.825  1.00 20.00    -0.129 Cl
ENDBRANCH  11  12
ENDBRANCH   9  11
TORSDOF 2
ENDMDL
