MODEL 1
REMARK VINA RESULT:      -6.1      0.000      0.000
REMARK  2 active torsions:
REMARK  status: ('A' for Active; 'I' for Inactive)
REMARK    1  A    between atoms: C2_2  and  C3_3 
REMARK    2  A    between atoms: C3_3  and  C4_4 
ROOT
HETATM    1  C3  UNL     1     -34.939   4.945   4.510  1.00 20.00     0.402 C 
HETATM    2  F7  UNL     1     -34.888   3.628   4.168  1.00 20.00    -0.189 F 
HETATM    3  F8  UNL     1     -36.219   5.348   4.294  1.00 20.00    -0.189 F 
ENDROOT
BRANCH   1   4
HETATM    4  C2  UNL     1     -34.620   5.060   5.989  1.00 20.00     0.313 C 
HETATM    5  C1  UNL     1     -34.134   6.418   6.447  1.00 20.00     0.097 C 
HETATM    6  F5  UNL     1     -35.745   4.754   6.692  1.00 20.00    -0.200 F 
HETATM    7  F6  UNL     1     -33.695   4.124   6.326  1.00 20.00    -0.200 F 
ENDBRANCH   1   4
BRANCH   1   8
HETATM    8  C4  UNL     1     -34.026   5.705   3.579  1.00 20.00     0.460 C 
HETATM    9  F9  UNL     1     -34.308   7.023   3.563  1.00 20.00    -0.165 F 
HETATM   10  F10 UNL     1     -34.157   5.248   2.313  1.00 20.00    -0.165 F 
HETATM   11  F11 UNL     1     -32.732   5.561   3.934  1.00 20.00    -0.165 F 
ENDBRANCH   1   8
TORSDOF 2
ENDMDL
MODEL 2
REMARK VINA RESULT:      -5.8      1.703      3.047
REMARK  2 active torsions:
REMARK  status: ('A' for Active; 'I' for Inactive)
REMARK    1  A    between atoms: C2_2  and  C3_3 
REMARK    2  A    between atoms: C3_3  and  C4_4 
ROOT
HETATM    1  C3  UNL     1     -33.851   6.525   4.101  1.00 20.00     0.402 C 
HETATM    2  F7  UNL     1     -34.546   7.670   3.856  1.00 20.00    -0.189 F 
HETATM    3  F8  UNL     1     -33.657   6.475   5.445  1.00 20.00    -0.189 F 
ENDROOT
BRANCH   1   4
HETATM    4  C2  UNL     1     -34.713   5.351   3.675  1.00 20.00     0.313 C 
HETATM    5  C1  UNL     1     -34.856   4.243   4.697  1.00 20.00     0.097 C 
HETATM    6  F5  UNL     1     -35.957   5.820   3.382  1.00 20.00    -0.200 F 
HETATM    7  F6  UNL     1     -34.223   4.825   2.522  1.00 20.00    -0.200 F 
ENDBRANCH   1   4
BRANCH   1   8
HETATM    8  C4  UNL     1     -32.510   6.638   3.419  1.00 20.00     0.460 C 
HETATM    9  F9  UNL     1     -31.902   5.440   3.303  1.00 20.00    -0.165 F 
HETATM   10  F10 UNL     1     -31.686   7.442   4.130  1.00 20.00    -0.165 F 
HETATM   11  F11 UNL     1     -32.629   7.166   2.183  1.00 20.00    -0.165 F 
ENDBRANCH   1   8
TORSDOF 2
ENDMDL
MODEL 3
REMARK VINA RESULT:      -5.7      1.124      3.157
REMARK  2 active torsions:
REMARK  status: ('A' for Active; 'I' for Inactive)
REMARK    1  A    between atoms: C2_2  and  C3_3 
REMARK    2  A    between atoms: C3_3  and  C4_4 
ROOT
HETATM    1  C3  UNL     1     -34.711   5.164   4.482  1.00 20.00     0.402 C 
HETATM    2  F7  UNL     1     -35.965   5.572   4.141  1.00 20.00    -0.189 F 
HETATM    3  F8  UNL     1     -34.422   4.106   3.681  1.00 20.00    -0.189 F 
ENDROOT
BRANCH   1   4
HETATM    4  C2  UNL     1     -33.749   6.298   4.180  1.00 20.00     0.313 C 
HETATM    5  C1  UNL     1     -32.634   5.967   3.211  1.00 20.00     0.097 C 
HETATM    6  F5  UNL     1     -34.463   7.337   3.665  1.00 20.00    -0.200 F 
HETATM    7  F6  UNL     1     -33.204   6.750   5.340  1.00 20.00    -0.200 F 
ENDBRANCH   1   4
BRANCH   1   8
HETATM    8  C4  UNL     1     -34.746   4.695   5.916  1.00 20.00     0.460 C 
HETATM    9  F9  UNL     1     -33.572   4.150   6.295  1.00 20.00    -0.165 F 
HETATM   10  F10 UNL     1     -35.701   3.751   6.079  1.00 20.00    -0.165 F 
HETATM   11  F11 UNL     1     -35.025   5.710   6.759  1.00 20.00    -0.165 F 
ENDBRANCH   1   8
TORSDOF 2
ENDMDL
MODEL 4
REMARK VINA RESULT:      -5.7      0.837      3.266
REMARK  2 active torsions:
REMARK  status: ('A' for Active; 'I' for Inactive)
REMARK    1  A    between atoms: C2_2  and  C3_3 
REMARK    2  A    between atoms: C3_3  and  C4_4 
ROOT
HETATM    1  C3  UNL     1     -34.950   4.946   4.532  1.00 20.00     0.402 C 
HETATM    2  F7  UNL     1     -36.268   5.211   4.313  1.00 20.00    -0.189 F 
HETATM    3  F8  UNL     1     -34.764   3.640   4.207  1.00 20.00    -0.189 F 
ENDROOT
BRANCH   1   4
HETATM    4  C2  UNL     1     -34.133   5.817   3.595  1.00 20.00     0.313 C 
HETATM    5  C1  UNL     1     -32.640   5.816   3.841  1.00 20.00     0.097 C 
HETATM    6  F5  UNL     1     -34.352   5.392   2.320  1.00 20.00    -0.200 F 
HETATM    7  F6  UNL     1     -34.589   7.095   3.654  1.00 20.00    -0.200 F 
ENDBRANCH   1   4
BRANCH   1   8
HETATM    8  C4  UNL     1     -34.675   5.125   6.004  1.00 20.00     0.460 C 
HETATM    9  F9  UNL     1     -33.684   4.317   6.433  1.00 20.00    -0.165 F 
HETATM   10  F10 UNL     1     -35.779   4.831   6.729  1.00 20.00    -0.165 F 
HETATM   11  F11 UNL     1     -34.327   6.398   6.288  1.00 20.00    -0.165 F 
ENDBRANCH   1   8
TORSDOF 2
ENDMDL
MODEL 5
REMARK VINA RESULT:      -5.6      0.734      2.164
REMARK  2 active torsions:
REMARK  status: ('A' for Active; 'I' for Inactive)
REMARK    1  A    between atoms: C2_2  and  C3_3 
REMARK    2  A    between atoms: C3_3  and  C4_4 
ROOT
HETATM    1  C3  UNL     1     -34.038   5.980   4.460  1.00 20.00     0.402 C 
HETATM    2  F7  UNL     1     -34.306   7.281   4.160  1.00 20.00    -0.189 F 
HETATM    3  F8  UNL     1     -32.746   5.762   4.098  1.00 20.00    -0.189 F 
ENDROOT
BRANCH   1   4
HETATM    4  C2  UNL     1     -34.173   5.805   5.961  1.00 20.00     0.313 C 
HETATM    5  C1  UNL     1     -33.740   6.991   6.797  1.00 20.00     0.097 C 
HETATM    6  F5  UNL     1     -35.479   5.544   6.244  1.00 20.00    -0.200 F 
HETATM    7  F6  UNL     1     -33.473   4.710   6.354  1.00 20.00    -0.200 F 
ENDBRANCH   1   4
BRANCH   1   8
HETATM    8  C4  UNL     1     -34.933   5.111   3.613  1.00 20.00     0.460 C 
HETATM    9  F9  UNL     1     -34.431   4.926   2.375  1.00 20.00    -0.165 F 
HETATM   10  F10 UNL     1     -36.151   5.684   3.473  1.00 20.00    -0.165 F 
HETATM   11  F11 UNL     1     -35.115   3.897   4.174  1.00 20.00    -0.165 F 
ENDBRANCH   1   8
TORSDOF 2
ENDMDL
MODEL 6
REMARK VINA RESULT:      -5.5      1.484      3.320
REMARK  2 active torsions:
REMARK  status: ('A' for Active; 'I' for Inactive)
REMARK    1  A    between atoms: C2_2  and  C3_3 
REMARK    2  A    between atoms: C3_3  and  C4_4 
ROOT
HETATM    1  C3  UNL     1     -34.016   6.160   3.734  1.00 20.00     0.402 C 
HETATM    2  F7  UNL     1     -34.801   7.257   3.548  1.00 20.00    -0.189 F 
HETATM    3  F8  UNL     1     -34.327   5.293   2.735  1.00 20.00    -0.189 F 
ENDROOT
BRANCH   1   4
HETATM    4  C2  UNL     1     -32.567   6.589   3.593  1.00 20.00     0.313 C 
HETATM    5  C1  UNL     1     -32.294   7.620   2.518  1.00 20.00     0.097 C 
HETATM    6  F5  UNL     1     -32.155   7.102   4.785  1.00 20.00    -0.200 F 
HETATM    7  F6  UNL     1     -31.793   5.497   3.361  1.00 20.00    -0.200 F 
ENDBRANCH   1   4
BRANCH   1   8
HETATM    8  C4  UNL     1     -34.391   5.536   5.055  1.00 20.00     0.460 C 
HETATM    9  F9  UNL     1     -33.574   4.513   5.378  1.00 20.00    -0.165 F 
HETATM   10  F10 UNL     1     -35.651   5.046   5.004  1.00 20.00    -0.165 F 
HETATM   11  F11 UNL     1     -34.344   6.438   6.057  1.00 20.00    -0.165 F 
ENDBRANCH   1   8
TORSDOF 2
ENDMDL
MODEL 7
REMARK VINA RESULT:      -5.5      1.151      3.258
REMARK  2 active torsions:
REMARK  status: ('A' for Active; 'I' for Inactive)
REMARK    1  A    between atoms: C2_2  and  C3_3 
REMARK    2  A    between atoms: C3_3  and  C4_4 
ROOT
HETATM    1  C3  UNL     1     -33.999   5.602   4.966  1.00 20.00     0.402 C 
HETATM    2  F7  UNL     1     -32.932   4.846   5.346  1.00 20.00    -0.189 F 
HETATM    3  F8  UNL     1     -34.110   6.597   5.885  1.00 20.00    -0.189 F 
ENDROOT
BRANCH   1   4
HETATM    4  C2  UNL     1     -33.686   6.207   3.609  1.00 20.00     0.313 C 
HETATM    5  C1  UNL     1     -32.226   6.516   3.354  1.00 20.00     0.097 C 
HETATM    6  F5  UNL     1     -34.109   5.340   2.648  1.00 20.00    -0.200 F 
HETATM    7  F6  UNL     1     -34.412   7.344   3.443  1.00 20.00    -0.200 F 
ENDBRANCH   1   4
BRANCH   1   8
HETATM    8  C4  UNL     1     -35.233   4.738   5.032  1.00 20.00     0.460 C 
HETATM    9  F9  UNL     1     -36.239   5.239   4.287  1.00 20.00    -0.165 F 
HETATM   10  F10 UNL     1     -35.679   4.650   6.306  1.00 20.00    -0.165 F 
HETATM   11  F11 UNL     1     -34.980   3.485   4.600  1.00 20.00    -0.165 F 
ENDBRANCH   1   8
TORSDOF 2
ENDMDL
MODEL 8
REMARK VINA RESULT:      -5.5      1.213      1.776
REMARK  2 active torsions:
REMARK  status: ('A' for Active; 'I' for Inactive)
REMARK    1  A    between atoms: C2_2  and  C3_3 
REMARK    2  A    between atoms: C3_3  and  C4_4 
ROOT
HETATM    1  C3  UNL     1     -34.062   6.145   3.778  1.00 20.00     0.402 C 
HETATM    2  F7  UNL     1     -34.481   5.279   2.814  1.00 20.00    -0.189 F 
HETATM    3  F8  UNL     1     -34.833   7.257   3.655  1.00 20.00    -0.189 F 
ENDROOT
BRANCH   1   4
HETATM    4  C2  UNL     1     -34.319   5.504   5.130  1.00 20.00     0.313 C 
HETATM    5  C1  UNL     1     -34.114   6.406   6.328  1.00 20.00     0.097 C 
HETATM    6  F5  UNL     1     -35.606   5.058   5.152  1.00 20.00    -0.200 F 
HETATM    7  F6  UNL     1     -33.533   4.405   5.266  1.00 20.00    -0.200 F 
ENDBRANCH   1   4
BRANCH   1   8
HETATM    8  C4  UNL     1     -32.628   6.511   3.486  1.00 20.00     0.460 C 
HETATM    9  F9  UNL     1     -32.068   7.199   4.501  1.00 20.00    -0.165 F 
HETATM   10  F10 UNL     1     -32.556   7.289   2.382  1.00 20.00    -0.165 F 
HETATM   11  F11 UNL     1     -31.876   5.413   3.263  1.00 20.00    -0.165 F 
ENDBRANCH   1   8
TORSDOF 2
ENDMDL
MODEL 9
REMARK VINA RESULT:      -5.4      1.631      3.276
REMARK  2 active torsions:
REMARK  status: ('A' for Active; 'I' for Inactive)
REMARK    1  A    between atoms: C2_2  and  C3_3 
REMARK    2  A    between atoms: C3_3  and  C4_4 
ROOT
HETATM    1  C3  UNL     1     -33.836   6.601   4.042  1.00 20.00     0.402 C 
HETATM    2  F7  UNL     1     -33.770   6.503   5.398  1.00 20.00    -0.189 F 
HETATM    3  F8  UNL     1     -34.561   7.719   3.774  1.00 20.00    -0.189 F 
ENDROOT
BRANCH   1   4
HETATM    4  C2  UNL     1     -32.424   6.783   3.514  1.00 20.00     0.313 C 
HETATM    5  C1  UNL     1     -32.298   7.634   2.268  1.00 20.00     0.097 C 
HETATM    6  F5  UNL     1     -31.673   7.355   4.495  1.00 20.00    -0.200 F 
HETATM    7  F6  UNL     1     -31.871   5.565   3.273  1.00 20.00    -0.200 F 
ENDBRANCH   1   4
BRANCH   1   8
HETATM    8  C4  UNL     1     -34.583   5.399   3.521  1.00 20.00     0.460 C 
HETATM    9  F9  UNL     1     -34.154   5.031   2.297  1.00 20.00    -0.165 F 
HETATM   10  F10 UNL     1     -35.904   5.672   3.422  1.00 20.00    -0.165 F 
HETATM   11  F11 UNL     1     -34.446   4.340   4.346  1.00 20.00    -0.165 F 
ENDBRANCH   1   8
TORSDOF 2
ENDMDL
