MODEL 1
REMARK VINA RESULT:      -5.0      0.000      0.000
REMARK  4 active torsions:
REMARK  status: ('A' for Active; 'I' for Inactive)
REMARK    1  A    between atoms: C2_2  and  C8_8 
REMARK    2  A    between atoms: C6_6  and  C9_9 
REMARK    3  A    between atoms: C8_8  and  C9_9 
REMARK    4  A    between atoms: C9_9  and  O11_11 
ROOT
HETATM    1  C1  UNL     1     -32.147   8.743   1.509  1.00 20.00    -0.111 C 
HETATM    2  C2  UNL     1     -32.176   7.802   2.254  1.00 20.00    -0.104 C 
HETATM    3  C7  UNL     1     -32.111   9.889   0.602  1.00 20.00     0.112 C 
ENDROOT
BRANCH   2   4
HETATM    4  C8  UNL     1     -32.213   6.648   3.168  1.00 20.00     0.128 C 
BRANCH   4   5
HETATM    5  C9  UNL     1     -33.645   6.155   3.386  1.00 20.00     0.158 C 
BRANCH   5   6
HETATM    6  C6  UNL     1     -33.750   5.324   4.651  1.00 20.00     0.151 C 
HETATM    7  C4  UNL     1     -35.024   4.501   4.730  1.00 20.00     0.036 C 
HETATM    8  C3  UNL     1     -35.184   4.339   6.221  1.00 20.00     0.029 C 
HETATM    9  C5  UNL     1     -34.731   5.690   6.732  1.00 20.00     0.168 C 
HETATM   10  O10 UNL     1     -33.757   6.185   5.802  1.00 20.00    -0.383 OA
ENDBRANCH   5   6
BRANCH   5  11
HETATM   11  O11 UNL     1     -34.025   5.342   2.277  1.00 20.00    -0.392 OA
HETATM   12  H25 UNL     1     -34.959   5.118   2.408  1.00 20.00     0.210 HD
ENDBRANCH   5  11
ENDBRANCH   4   5
ENDBRANCH   2   4
TORSDOF 4
ENDMDL
MODEL 2
REMARK VINA RESULT:      -5.0      1.043      1.324
REMARK  4 active torsions:
REMARK  status: ('A' for Active; 'I' for Inactive)
REMARK    1  A    between atoms: C2_2  and  C8_8 
REMARK    2  A    between atoms: C6_6  and  C9_9 
REMARK    3  A    between atoms: C8_8  and  C9_9 
REMARK    4  A    between atoms: C9_9  and  O11_11 
ROOT
HETATM    1  C1  UNL     1     -32.206   8.616   1.712  1.00 20.00    -0.111 C 
HETATM    2  C2  UNL     1     -32.408   7.633   2.372  1.00 20.00    -0.104 C 
HETATM    3  C7  UNL     1     -31.959   9.813   0.909  1.00 20.00     0.112 C 
ENDROOT
BRANCH   2   4
HETATM    4  C8  UNL     1     -32.655   6.429   3.180  1.00 20.00     0.128 C 
BRANCH   4   5
HETATM    5  C9  UNL     1     -34.064   5.879   2.945  1.00 20.00     0.158 C 
BRANCH   5   6
HETATM    6  C6  UNL     1     -34.811   5.710   4.254  1.00 20.00     0.151 C 
HETATM    7  C4  UNL     1     -34.032   6.195   5.463  1.00 20.00     0.036 C 
HETATM    8  C3  UNL     1     -34.640   5.363   6.565  1.00 20.00     0.029 C 
HETATM    9  C5  UNL     1     -34.851   4.034   5.872  1.00 20.00     0.168 C 
HETATM   10  O10 UNL     1     -35.083   4.317   4.484  1.00 20.00    -0.383 OA
ENDBRANCH   5   6
BRANCH   5  11
HETATM   11  O11 UNL     1     -33.960   4.603   2.314  1.00 20.00    -0.392 OA
HETATM   12  H25 UNL     1     -33.150   4.194   2.654  1.00 20.00     0.210 HD
ENDBRANCH   5  11
ENDBRANCH   4   5
ENDBRANCH   2   4
TORSDOF 4
ENDMDL
MODEL 3
REMARK VINA RESULT:      -4.7     11.128     12.801
REMARK  4 active torsions:
REMARK  status: ('A' for Active; 'I' for Inactive)
REMARK    1  A    between atoms: C2_2  and  C8_8 
REMARK    2  A    between atoms: C6_6  and  C9_9 
REMARK    3  A    between atoms: C8_8  and  C9_9 
REMARK    4  A    between atoms: C9_9  and  O11_11 
ROOT
HETATM    1  C1  UNL     1     -34.685  16.420  -1.608  1.00 20.00    -0.111 C 
HETATM    2  C2  UNL     1     -35.179  15.740  -2.466  1.00 20.00    -0.104 C 
HETATM    3  C7  UNL     1     -34.084  17.249  -0.565  1.00 20.00     0.112 C 
ENDROOT
BRANCH   2   4
HETATM    4  C8  UNL     1     -35.786  14.906  -3.516  1.00 20.00     0.128 C 
BRANCH   4   5
HETATM    5  C9  UNL     1     -34.771  13.921  -4.101  1.00 20.00     0.158 C 
BRANCH   5   6
HETATM    6  C6  UNL     1     -34.451  14.259  -5.545  1.00 20.00     0.151 C 
HETATM    7  C4  UNL     1     -34.033  15.705  -5.750  1.00 20.00     0.036 C 
HETATM    8  C3  UNL     1     -34.412  15.924  -7.194  1.00 20.00     0.029 C 
HETATM    9  C5  UNL     1     -35.703  15.141  -7.301  1.00 20.00     0.168 C 
HETATM   10  O10 UNL     1     -35.615  14.057  -6.363  1.00 20.00    -0.383 OA
ENDBRANCH   5   6
BRANCH   5  11
HETATM   11  O11 UNL     1     -35.326  12.608  -4.056  1.00 20.00    -0.392 OA
HETATM   12  H25 UNL     1     -35.723  12.508  -3.178  1.00 20.00     0.210 HD
ENDBRANCH   5  11
ENDBRANCH   4   5
ENDBRANCH   2   4
TORSDOF 4
ENDMDL
MODEL 4
REMARK VINA RESULT:      -4.7     11.820     13.217
REMARK  4 active torsions:
REMARK  status: ('A' for Active; 'I' for Inactive)
REMARK    1  A    between atoms: C2_2  and  C8_8 
REMARK    2  A    between atoms: C6_6  and  C9_9 
REMARK    3  A    between atoms: C8_8  and  C9_9 
REMARK    4  A    between atoms: C9_9  and  O11_11 
ROOT
HETATM    1  C1  UNL     1     -34.618  16.641  -0.940  1.00 20.00    -0.111 C 
HETATM    2  C2  UNL     1     -34.439  16.034  -1.961  1.00 20.00    -0.104 C 
HETATM    3  C7  UNL     1     -34.836  17.379   0.303  1.00 20.00     0.112 C 
ENDROOT
BRANCH   2   4
HETATM    4  C8  UNL     1     -34.220  15.292  -3.213  1.00 20.00     0.128 C 
BRANCH   4   5
HETATM    5  C9  UNL     1     -33.706  16.210  -4.324  1.00 20.00     0.158 C 
BRANCH   5   6
HETATM    6  C6  UNL     1     -34.618  16.166  -5.535  1.00 20.00     0.151 C 
HETATM    7  C4  UNL     1     -35.775  15.195  -5.387  1.00 20.00     0.036 C 
HETATM    8  C3  UNL     1     -36.079  14.867  -6.828  1.00 20.00     0.029 C 
HETATM    9  C5  UNL     1     -34.693  14.820  -7.436  1.00 20.00     0.168 C 
HETATM   10  O10 UNL     1     -33.876  15.733  -6.689  1.00 20.00    -0.383 OA
ENDBRANCH   5   6
BRANCH   5  11
HETATM   11  O11 UNL     1     -32.407  15.773  -4.718  1.00 20.00    -0.392 OA
HETATM   12  H25 UNL     1     -32.056  16.454  -5.312  1.00 20.00     0.210 HD
ENDBRANCH   5  11
ENDBRANCH   4   5
ENDBRANCH   2   4
TORSDOF 4
ENDMDL
MODEL 5
REMARK VINA RESULT:      -4.6     11.105     12.023
REMARK  4 active torsions:
REMARK  status: ('A' for Active; 'I' for Inactive)
REMARK    1  A    between atoms: C2_2  and  C8_8 
REMARK    2  A    between atoms: C6_6  and  C9_9 
REMARK    3  A    between atoms: C8_8  and  C9_9 
REMARK    4  A    between atoms: C9_9  and  O11_11 
ROOT
HETATM    1  C1  UNL     1     -35.019  17.383   0.641  1.00 20.00    -0.111 C 
HETATM    2  C2  UNL     1     -34.630  17.059  -0.448  1.00 20.00    -0.104 C 
HETATM    3  C7  UNL     1     -35.493  17.776   1.967  1.00 20.00     0.112 C 
ENDROOT
BRANCH   2   4
HETATM    4  C8  UNL     1     -34.152  16.663  -1.783  1.00 20.00     0.128 C 
BRANCH   4   5
HETATM    5  C9  UNL     1     -34.879  15.414  -2.287  1.00 20.00     0.158 C 
BRANCH   5   6
HETATM    6  C6  UNL     1     -34.244  14.888  -3.560  1.00 20.00     0.151 C 
HETATM    7  C4  UNL     1     -34.899  15.415  -4.825  1.00 20.00     0.036 C 
HETATM    8  C3  UNL     1     -34.572  14.320  -5.810  1.00 20.00     0.029 C 
HETATM    9  C5  UNL     1     -34.707  13.079  -4.954  1.00 20.00     0.168 C 
HETATM   10  O10 UNL     1     -34.366  13.456  -3.611  1.00 20.00    -0.383 OA
ENDBRANCH   5   6
BRANCH   5  11
HETATM   11  O11 UNL     1     -36.237  15.752  -2.563  1.00 20.00    -0.392 OA
HETATM   12  H25 UNL     1     -36.601  16.119  -1.743  1.00 20.00     0.210 HD
ENDBRANCH   5  11
ENDBRANCH   4   5
ENDBRANCH   2   4
TORSDOF 4
ENDMDL
MODEL 6
REMARK VINA RESULT:      -4.5     11.171     12.031
REMARK  4 active torsions:
REMARK  status: ('A' for Active; 'I' for Inactive)
REMARK    1  A    between atoms: C2_2  and  C8_8 
REMARK    2  A    between atoms: C6_6  and  C9_9 
REMARK    3  A    between atoms: C8_8  and  C9_9 
REMARK    4  A    between atoms: C9_9  and  O11_11 
ROOT
HETATM    1  C1  UNL     1     -34.291  16.244  -1.870  1.00 20.00    -0.111 C 
HETATM    2  C2  UNL     1     -33.970  15.829  -2.951  1.00 20.00    -0.104 C 
HETATM    3  C7  UNL     1     -34.683  16.748  -0.555  1.00 20.00     0.112 C 
ENDROOT
BRANCH   2   4
HETATM    4  C8  UNL     1     -33.577  15.320  -4.274  1.00 20.00     0.128 C 
BRANCH   4   5
HETATM    5  C9  UNL     1     -34.135  13.917  -4.521  1.00 20.00     0.158 C 
BRANCH   5   6
HETATM    6  C6  UNL     1     -35.573  13.977  -5.001  1.00 20.00     0.151 C 
HETATM    7  C4  UNL     1     -35.945  15.307  -5.633  1.00 20.00     0.036 C 
HETATM    8  C3  UNL     1     -37.437  15.339  -5.406  1.00 20.00     0.029 C 
HETATM    9  C5  UNL     1     -37.557  14.719  -4.030  1.00 20.00     0.168 C 
HETATM   10  O10 UNL     1     -36.466  13.797  -3.889  1.00 20.00    -0.383 OA
ENDBRANCH   5   6
BRANCH   5  11
HETATM   11  O11 UNL     1     -34.096  13.184  -3.298  1.00 20.00    -0.392 OA
HETATM   12  H25 UNL     1     -33.402  13.590  -2.757  1.00 20.00     0.210 HD
ENDBRANCH   5  11
ENDBRANCH   4   5
ENDBRANCH   2   4
TORSDOF 4
ENDMDL
MODEL 7
REMARK VINA RESULT:      -4.5     11.375     12.314
REMARK  4 active torsions:
REMARK  status: ('A' for Active; 'I' for Inactive)
REMARK    1  A    between atoms: C2_2  and  C8_8 
REMARK    2  A    between atoms: C6_6  and  C9_9 
REMARK    3  A    between atoms: C8_8  and  C9_9 
REMARK    4  A    between atoms: C9_9  and  O11_11 
ROOT
HETATM    1  C1  UNL     1     -34.873  17.198   0.289  1.00 20.00    -0.111 C 
HETATM    2  C2  UNL     1     -34.558  16.783  -0.794  1.00 20.00    -0.104 C 
HETATM    3  C7  UNL     1     -35.256  17.702   1.607  1.00 20.00     0.112 C 
ENDROOT
BRANCH   2   4
HETATM    4  C8  UNL     1     -34.171  16.276  -2.120  1.00 20.00     0.128 C 
BRANCH   4   5
HETATM    5  C9  UNL     1     -35.347  16.320  -3.098  1.00 20.00     0.158 C 
BRANCH   5   6
HETATM    6  C6  UNL     1     -35.563  14.970  -3.756  1.00 20.00     0.151 C 
HETATM    7  C4  UNL     1     -34.371  14.038  -3.629  1.00 20.00     0.036 C 
HETATM    8  C3  UNL     1     -34.561  13.144  -4.830  1.00 20.00     0.029 C 
HETATM    9  C5  UNL     1     -35.071  14.119  -5.868  1.00 20.00     0.168 C 
HETATM   10  O10 UNL     1     -35.789  15.144  -5.165  1.00 20.00    -0.383 OA
ENDBRANCH   5   6
BRANCH   5  11
HETATM   11  O11 UNL     1     -35.063  17.280  -4.115  1.00 20.00    -0.392 OA
HETATM   12  H25 UNL     1     -35.531  18.091  -3.865  1.00 20.00     0.210 HD
ENDBRANCH   5  11
ENDBRANCH   4   5
ENDBRANCH   2   4
TORSDOF 4
ENDMDL
MODEL 8
REMARK VINA RESULT:      -4.5     11.350     12.614
REMARK  4 active torsions:
REMARK  status: ('A' for Active; 'I' for Inactive)
REMARK    1  A    between atoms: C2_2  and  C8_8 
REMARK    2  A    between atoms: C6_6  and  C9_9 
REMARK    3  A    between atoms: C8_8  and  C9_9 
REMARK    4  A    between atoms: C9_9  and  O11_11 
ROOT
HETATM    1  C1  UNL     1     -34.745  17.042  -0.228  1.00 20.00    -0.111 C 
HETATM    2  C2  UNL     1     -34.375  16.646  -1.299  1.00 20.00    -0.104 C 
HETATM    3  C7  UNL     1     -35.197  17.527   1.076  1.00 20.00     0.112 C 
ENDROOT
BRANCH   2   4
HETATM    4  C8  UNL     1     -33.921  16.159  -2.612  1.00 20.00     0.128 C 
BRANCH   4   5
HETATM    5  C9  UNL     1     -34.722  14.934  -3.060  1.00 20.00     0.158 C 
BRANCH   5   6
HETATM    6  C6  UNL     1     -34.426  14.586  -4.506  1.00 20.00     0.151 C 
HETATM    7  C4  UNL     1     -33.919  15.763  -5.321  1.00 20.00     0.036 C 
HETATM    8  C3  UNL     1     -34.328  15.361  -6.716  1.00 20.00     0.029 C 
HETATM    9  C5  UNL     1     -35.672  14.709  -6.472  1.00 20.00     0.168 C 
HETATM   10  O10 UNL     1     -35.628  14.137  -5.156  1.00 20.00    -0.383 OA
ENDBRANCH   5   6
BRANCH   5  11
HETATM   11  O11 UNL     1     -36.114  15.226  -2.939  1.00 20.00    -0.392 OA
HETATM   12  H25 UNL     1     -36.361  15.011  -2.027  1.00 20.00     0.210 HD
ENDBRANCH   5  11
ENDBRANCH   4   5
ENDBRANCH   2   4
TORSDOF 4
ENDMDL
MODEL 9
REMARK VINA RESULT:      -4.3     11.625     12.686
REMARK  4 active torsions:
REMARK  status: ('A' for Active; 'I' for Inactive)
REMARK    1  A    between atoms: C2_2  and  C8_8 
REMARK    2  A    between atoms: C6_6  and  C9_9 
REMARK    3  A    between atoms: C8_8  and  C9_9 
REMARK    4  A    between atoms: C9_9  and  O11_11 
ROOT
HETATM    1  C1  UNL     1     -34.880  14.433  -6.471  1.00 20.00    -0.111 C 
HETATM    2  C2  UNL     1     -34.451  14.283  -5.359  1.00 20.00    -0.104 C 
HETATM    3  C7  UNL     1     -35.403  14.616  -7.824  1.00 20.00     0.112 C 
ENDROOT
BRANCH   2   4
HETATM    4  C8  UNL     1     -33.924  14.100  -3.998  1.00 20.00     0.128 C 
BRANCH   4   5
HETATM    5  C9  UNL     1     -32.937  15.209  -3.627  1.00 20.00     0.158 C 
BRANCH   5   6
HETATM    6  C6  UNL     1     -33.631  16.330  -2.877  1.00 20.00     0.151 C 
HETATM    7  C4  UNL     1     -34.878  15.882  -2.136  1.00 20.00     0.036 C 
HETATM    8  C3  UNL     1     -35.666  17.168  -2.069  1.00 20.00     0.029 C 
HETATM    9  C5  UNL     1     -35.367  17.787  -3.418  1.00 20.00     0.168 C 
HETATM   10  O10 UNL     1     -34.056  17.346  -3.801  1.00 20.00    -0.383 OA
ENDBRANCH   5   6
BRANCH   5  11
HETATM   11  O11 UNL     1     -32.376  15.745  -4.825  1.00 20.00    -0.392 OA
HETATM   12  H25 UNL     1     -31.939  15.007  -5.276  1.00 20.00     0.210 HD
ENDBRANCH   5  11
ENDBRANCH   4   5
ENDBRANCH   2   4
TORSDOF 4
ENDMDL
