MODEL 1
REMARK VINA RESULT:      -5.5      0.000      0.000
REMARK  4 active torsions:
REMARK  status: ('A' for Active; 'I' for Inactive)
REMARK    1  A    between atoms: C5_5  and  C9_9 
REMARK    2  A    between atoms: C6_6  and  C10_10 
REMARK    3  A    between atoms: C10_10  and  C12_12 
REMARK    4  A    between atoms: C11_11  and  C12_12 
ROOT
HETATM    1  C1  UNL     1     -36.931  14.690  -3.715  1.00 20.00     0.069 C 
HETATM    2  C2  UNL     1     -34.483  13.577  -5.276  1.00 20.00     0.006 C 
HETATM    3  C3  UNL     1     -34.646  13.750  -3.772  1.00 20.00     0.025 C 
HETATM    4  C4  UNL     1     -35.086  15.894  -4.851  1.00 20.00     0.029 C 
HETATM    5  C5  UNL     1     -34.217  15.000  -5.753  1.00 20.00    -0.013 C 
HETATM    6  C6  UNL     1     -35.492  15.028  -3.636  1.00 20.00     0.049 C 
HETATM    7  N13 UNL     1     -38.059  14.426  -3.777  1.00 20.00    -0.196 NA
ENDROOT
BRANCH   6   8
HETATM    8  C10 UNL     1     -35.220  15.741  -2.309  1.00 20.00     0.024 C 
BRANCH   8   9
HETATM    9  C12 UNL     1     -33.847  16.407  -2.313  1.00 20.00     0.001 C 
BRANCH   9  10
HETATM   10  C11 UNL     1     -33.709  17.383  -1.145  1.00 20.00    -0.004 C 
HETATM   11  C8  UNL     1     -34.784  17.149  -0.094  1.00 20.00     0.005 C 
ENDBRANCH   9  10
ENDBRANCH   8   9
ENDBRANCH   6   8
BRANCH   5  12
HETATM   12  C9  UNL     1     -34.494  15.192  -7.235  1.00 20.00     0.000 C 
HETATM   13  C7  UNL     1     -35.661  14.377  -7.695  1.00 20.00     0.005 C 
ENDBRANCH   5  12
TORSDOF 4
ENDMDL
MODEL 2
REMARK VINA RESULT:      -5.0      1.741      2.267
REMARK  4 active torsions:
REMARK  status: ('A' for Active; 'I' for Inactive)
REMARK    1  A    between atoms: C5_5  and  C9_9 
REMARK    2  A    between atoms: C6_6  and  C10_10 
REMARK    3  A    between atoms: C10_10  and  C12_12 
REMARK    4  A    between atoms: C11_11  and  C12_12 
ROOT
HETATM    1  C1  UNL     1     -33.861  14.229  -3.712  1.00 20.00     0.069 C 
HETATM    2  C2  UNL     1     -33.448  16.701  -5.552  1.00 20.00     0.006 C 
HETATM    3  C3  UNL     1     -33.403  16.636  -4.031  1.00 20.00     0.025 C 
HETATM    4  C4  UNL     1     -35.533  15.712  -4.784  1.00 20.00     0.029 C 
HETATM    5  C5  UNL     1     -34.943  16.654  -5.848  1.00 20.00    -0.013 C 
HETATM    6  C6  UNL     1     -34.463  15.581  -3.674  1.00 20.00     0.049 C 
HETATM    7  N13 UNL     1     -33.390  13.169  -3.742  1.00 20.00    -0.196 NA
ENDROOT
BRANCH   6   8
HETATM    8  C10 UNL     1     -35.050  15.825  -2.282  1.00 20.00     0.024 C 
BRANCH   8   9
HETATM    9  C12 UNL     1     -34.123  16.697  -1.440  1.00 20.00     0.001 C 
BRANCH   9  10
HETATM   10  C11 UNL     1     -34.789  17.087  -0.120  1.00 20.00    -0.004 C 
HETATM   11  C8  UNL     1     -34.031  18.208   0.576  1.00 20.00     0.005 C 
ENDBRANCH   9  10
ENDBRANCH   8   9
ENDBRANCH   6   8
BRANCH   5  12
HETATM   12  C9  UNL     1     -35.254  16.221  -7.271  1.00 20.00     0.000 C 
HETATM   13  C7  UNL     1     -34.778  14.831  -7.549  1.00 20.00     0.005 C 
ENDBRANCH   5  12
TORSDOF 4
ENDMDL
MODEL 3
REMARK VINA RESULT:      -4.9      0.857      4.867
REMARK  4 active torsions:
REMARK  status: ('A' for Active; 'I' for Inactive)
REMARK    1  A    between atoms: C5_5  and  C9_9 
REMARK    2  A    between atoms: C6_6  and  C10_10 
REMARK    3  A    between atoms: C10_10  and  C12_12 
REMARK    4  A    between atoms: C11_11  and  C12_12 
ROOT
HETATM    1  C1  UNL     1     -36.816  14.685  -3.911  1.00 20.00     0.069 C 
HETATM    2  C2  UNL     1     -35.517  17.367  -3.023  1.00 20.00     0.006 C 
HETATM    3  C3  UNL     1     -35.520  16.730  -4.406  1.00 20.00     0.025 C 
HETATM    4  C4  UNL     1     -34.637  15.110  -2.809  1.00 20.00     0.029 C 
HETATM    5  C5  UNL     1     -34.474  16.544  -2.275  1.00 20.00    -0.013 C 
HETATM    6  C6  UNL     1     -35.451  15.221  -4.119  1.00 20.00     0.049 C 
HETATM    7  N13 UNL     1     -37.885  14.265  -3.747  1.00 20.00    -0.196 NA
ENDROOT
BRANCH   6   8
HETATM    8  C10 UNL     1     -34.790  14.461  -5.270  1.00 20.00     0.024 C 
BRANCH   8   9
HETATM    9  C12 UNL     1     -34.111  15.419  -6.244  1.00 20.00     0.001 C 
BRANCH   9  10
HETATM   10  C11 UNL     1     -34.531  15.126  -7.684  1.00 20.00    -0.004 C 
HETATM   11  C8  UNL     1     -35.913  14.492  -7.743  1.00 20.00     0.005 C 
ENDBRANCH   9  10
ENDBRANCH   8   9
ENDBRANCH   6   8
BRANCH   5  12
HETATM   12  C9  UNL     1     -34.613  16.640  -0.764  1.00 20.00     0.000 C 
HETATM   13  C7  UNL     1     -33.938  17.858  -0.218  1.00 20.00     0.005 C 
ENDBRANCH   5  12
TORSDOF 4
ENDMDL
MODEL 4
REMARK VINA RESULT:      -4.9      1.978      2.941
REMARK  4 active torsions:
REMARK  status: ('A' for Active; 'I' for Inactive)
REMARK    1  A    between atoms: C5_5  and  C9_9 
REMARK    2  A    between atoms: C6_6  and  C10_10 
REMARK    3  A    between atoms: C10_10  and  C12_12 
REMARK    4  A    between atoms: C11_11  and  C12_12 
ROOT
HETATM    1  C1  UNL     1     -33.916  17.480  -3.871  1.00 20.00     0.069 C 
HETATM    2  C2  UNL     1     -36.013  15.184  -3.871  1.00 20.00     0.006 C 
HETATM    3  C3  UNL     1     -35.771  16.243  -2.804  1.00 20.00     0.025 C 
HETATM    4  C4  UNL     1     -33.664  15.094  -3.248  1.00 20.00     0.029 C 
HETATM    5  C5  UNL     1     -34.859  14.212  -3.650  1.00 20.00    -0.013 C 
HETATM    6  C6  UNL     1     -34.250  16.467  -2.844  1.00 20.00     0.049 C 
HETATM    7  N13 UNL     1     -33.654  18.273  -4.676  1.00 20.00    -0.196 NA
ENDROOT
BRANCH   6   8
HETATM    8  C10 UNL     1     -33.718  16.939  -1.489  1.00 20.00     0.024 C 
BRANCH   8   9
HETATM    9  C12 UNL     1     -34.813  16.909  -0.426  1.00 20.00     0.001 C 
BRANCH   9  10
HETATM   10  C11 UNL     1     -34.527  17.922   0.683  1.00 20.00    -0.004 C 
HETATM   11  C8  UNL     1     -35.317  17.604   1.943  1.00 20.00     0.005 C 
ENDBRANCH   9  10
ENDBRANCH   8   9
ENDBRANCH   6   8
BRANCH   5  12
HETATM   12  C9  UNL     1     -34.579  13.337  -4.861  1.00 20.00     0.000 C 
HETATM   13  C7  UNL     1     -34.865  14.051  -6.144  1.00 20.00     0.005 C 
ENDBRANCH   5  12
TORSDOF 4
ENDMDL
MODEL 5
REMARK VINA RESULT:      -4.8      1.856      4.650
REMARK  4 active torsions:
REMARK  status: ('A' for Active; 'I' for Inactive)
REMARK    1  A    between atoms: C5_5  and  C9_9 
REMARK    2  A    between atoms: C6_6  and  C10_10 
REMARK    3  A    between atoms: C10_10  and  C12_12 
REMARK    4  A    between atoms: C11_11  and  C12_12 
ROOT
HETATM    1  C1  UNL     1     -34.677  13.757  -5.009  1.00 20.00     0.069 C 
HETATM    2  C2  UNL     1     -35.727  16.250  -3.477  1.00 20.00     0.006 C 
HETATM    3  C3  UNL     1     -35.937  15.882  -4.939  1.00 20.00     0.025 C 
HETATM    4  C4  UNL     1     -33.540  15.895  -4.479  1.00 20.00     0.029 C 
HETATM    5  C5  UNL     1     -34.293  16.769  -3.461  1.00 20.00    -0.013 C 
HETATM    6  C6  UNL     1     -34.618  15.199  -5.341  1.00 20.00     0.049 C 
HETATM    7  N13 UNL     1     -34.721  12.628  -4.748  1.00 20.00    -0.196 NA
ENDROOT
BRANCH   6   8
HETATM    8  C10 UNL     1     -34.341  15.353  -6.838  1.00 20.00     0.024 C 
BRANCH   8   9
HETATM    9  C12 UNL     1     -35.239  16.421  -7.457  1.00 20.00     0.001 C 
BRANCH   9  10
HETATM   10  C11 UNL     1     -34.421  17.634  -7.901  1.00 20.00    -0.004 C 
HETATM   11  C8  UNL     1     -34.392  18.710  -6.827  1.00 20.00     0.005 C 
ENDBRANCH   9  10
ENDBRANCH   8   9
ENDBRANCH   6   8
BRANCH   5  12
HETATM   12  C9  UNL     1     -33.669  16.750  -2.075  1.00 20.00     0.000 C 
HETATM   13  C7  UNL     1     -34.691  16.538  -1.005  1.00 20.00     0.005 C 
ENDBRANCH   5  12
TORSDOF 4
ENDMDL
MODEL 6
REMARK VINA RESULT:      -4.8      1.632      5.116
REMARK  4 active torsions:
REMARK  status: ('A' for Active; 'I' for Inactive)
REMARK    1  A    between atoms: C5_5  and  C9_9 
REMARK    2  A    between atoms: C6_6  and  C10_10 
REMARK    3  A    between atoms: C10_10  and  C12_12 
REMARK    4  A    between atoms: C11_11  and  C12_12 
ROOT
HETATM    1  C1  UNL     1     -33.979  14.245  -3.827  1.00 20.00     0.069 C 
HETATM    2  C2  UNL     1     -35.967  16.276  -2.565  1.00 20.00     0.006 C 
HETATM    3  C3  UNL     1     -35.559  16.136  -4.025  1.00 20.00     0.025 C 
HETATM    4  C4  UNL     1     -33.541  16.397  -2.677  1.00 20.00     0.029 C 
HETATM    5  C5  UNL     1     -34.764  16.975  -1.943  1.00 20.00    -0.013 C 
HETATM    6  C6  UNL     1     -34.080  15.717  -3.957  1.00 20.00     0.049 C 
HETATM    7  N13 UNL     1     -33.899  13.093  -3.724  1.00 20.00    -0.196 NA
ENDROOT
BRANCH   6   8
HETATM    8  C10 UNL     1     -33.314  16.159  -5.206  1.00 20.00     0.024 C 
BRANCH   8   9
HETATM    9  C12 UNL     1     -34.258  16.360  -6.388  1.00 20.00     0.001 C 
BRANCH   9  10
HETATM   10  C11 UNL     1     -34.262  15.133  -7.300  1.00 20.00    -0.004 C 
HETATM   11  C8  UNL     1     -35.637  14.486  -7.358  1.00 20.00     0.005 C 
ENDBRANCH   9  10
ENDBRANCH   8   9
ENDBRANCH   6   8
BRANCH   5  12
HETATM   12  C9  UNL     1     -34.693  16.807  -0.434  1.00 20.00     0.000 C 
HETATM   13  C7  UNL     1     -34.113  18.011   0.236  1.00 20.00     0.005 C 
ENDBRANCH   5  12
TORSDOF 4
ENDMDL
MODEL 7
REMARK VINA RESULT:      -4.7      1.769      2.876
REMARK  4 active torsions:
REMARK  status: ('A' for Active; 'I' for Inactive)
REMARK    1  A    between atoms: C5_5  and  C9_9 
REMARK    2  A    between atoms: C6_6  and  C10_10 
REMARK    3  A    between atoms: C10_10  and  C12_12 
REMARK    4  A    between atoms: C11_11  and  C12_12 
ROOT
HETATM    1  C1  UNL     1     -34.705  13.752  -5.087  1.00 20.00     0.069 C 
HETATM    2  C2  UNL     1     -35.811  14.659  -7.848  1.00 20.00     0.006 C 
HETATM    3  C3  UNL     1     -34.427  14.899  -7.259  1.00 20.00     0.025 C 
HETATM    4  C4  UNL     1     -36.095  15.718  -5.677  1.00 20.00     0.029 C 
HETATM    5  C5  UNL     1     -36.675  15.670  -7.101  1.00 20.00    -0.013 C 
HETATM    6  C6  UNL     1     -34.691  15.074  -5.754  1.00 20.00     0.049 C 
HETATM    7  N13 UNL     1     -34.716  12.717  -4.565  1.00 20.00    -0.196 NA
ENDROOT
BRANCH   6   8
HETATM    8  C10 UNL     1     -33.623  15.951  -5.097  1.00 20.00     0.024 C 
BRANCH   8   9
HETATM    9  C12 UNL     1     -34.209  16.762  -3.944  1.00 20.00     0.001 C 
BRANCH   9  10
HETATM   10  C11 UNL     1     -33.656  16.283  -2.602  1.00 20.00    -0.004 C 
HETATM   11  C8  UNL     1     -34.722  16.313  -1.517  1.00 20.00     0.005 C 
ENDBRANCH   9  10
ENDBRANCH   8   9
ENDBRANCH   6   8
BRANCH   5  12
HETATM   12  C9  UNL     1     -38.155  15.327  -7.135  1.00 20.00     0.000 C 
HETATM   13  C7  UNL     1     -38.746  15.264  -5.763  1.00 20.00     0.005 C 
ENDBRANCH   5  12
TORSDOF 4
ENDMDL
MODEL 8
REMARK VINA RESULT:      -4.7      2.037      5.384
REMARK  4 active torsions:
REMARK  status: ('A' for Active; 'I' for Inactive)
REMARK    1  A    between atoms: C5_5  and  C9_9 
REMARK    2  A    between atoms: C6_6  and  C10_10 
REMARK    3  A    between atoms: C10_10  and  C12_12 
REMARK    4  A    between atoms: C11_11  and  C12_12 
ROOT
HETATM    1  C1  UNL     1     -36.304  17.438  -2.478  1.00 20.00     0.069 C 
HETATM    2  C2  UNL     1     -33.598  18.704  -1.614  1.00 20.00     0.006 C 
HETATM    3  C3  UNL     1     -33.884  17.812  -2.814  1.00 20.00     0.025 C 
HETATM    4  C4  UNL     1     -34.651  16.668  -0.799  1.00 20.00     0.029 C 
HETATM    5  C5  UNL     1     -33.575  17.713  -0.455  1.00 20.00    -0.013 C 
HETATM    6  C6  UNL     1     -34.961  16.839  -2.304  1.00 20.00     0.049 C 
HETATM    7  N13 UNL     1     -37.356  17.907  -2.613  1.00 20.00    -0.196 NA
ENDROOT
BRANCH   6   8
HETATM    8  C10 UNL     1     -34.911  15.506  -3.054  1.00 20.00     0.024 C 
BRANCH   8   9
HETATM    9  C12 UNL     1     -33.473  15.106  -3.371  1.00 20.00     0.001 C 
BRANCH   9  10
HETATM   10  C11 UNL     1     -33.395  13.643  -3.806  1.00 20.00    -0.004 C 
HETATM   11  C8  UNL     1     -34.550  13.271  -4.723  1.00 20.00     0.005 C 
ENDBRANCH   9  10
ENDBRANCH   8   9
ENDBRANCH   6   8
BRANCH   5  12
HETATM   12  C9  UNL     1     -33.791  18.374   0.897  1.00 20.00     0.000 C 
HETATM   13  C7  UNL     1     -35.040  17.891   1.562  1.00 20.00     0.005 C 
ENDBRANCH   5  12
TORSDOF 4
ENDMDL
MODEL 9
REMARK VINA RESULT:      -4.4      1.768      4.670
REMARK  4 active torsions:
REMARK  status: ('A' for Active; 'I' for Inactive)
REMARK    1  A    between atoms: C5_5  and  C9_9 
REMARK    2  A    between atoms: C6_6  and  C10_10 
REMARK    3  A    between atoms: C10_10  and  C12_12 
REMARK    4  A    between atoms: C11_11  and  C12_12 
ROOT
HETATM    1  C1  UNL     1     -36.264  17.757  -4.390  1.00 20.00     0.069 C 
HETATM    2  C2  UNL     1     -33.661  17.392  -2.728  1.00 20.00     0.006 C 
HETATM    3  C3  UNL     1     -33.946  16.933  -4.152  1.00 20.00     0.025 C 
HETATM    4  C4  UNL     1     -35.687  16.048  -2.689  1.00 20.00     0.029 C 
HETATM    5  C5  UNL     1     -34.414  16.368  -1.886  1.00 20.00    -0.013 C 
HETATM    6  C6  UNL     1     -35.437  16.557  -4.128  1.00 20.00     0.049 C 
HETATM    7  N13 UNL     1     -36.912  18.696  -4.593  1.00 20.00    -0.196 NA
ENDROOT
BRANCH   6   8
HETATM    8  C10 UNL     1     -35.763  15.491  -5.176  1.00 20.00     0.024 C 
BRANCH   8   9
HETATM    9  C12 UNL     1     -34.513  14.710  -5.573  1.00 20.00     0.001 C 
BRANCH   9  10
HETATM   10  C11 UNL     1     -34.438  13.379  -4.825  1.00 20.00    -0.004 C 
HETATM   11  C8  UNL     1     -33.353  13.399  -3.760  1.00 20.00     0.005 C 
ENDBRANCH   9  10
ENDBRANCH   8   9
ENDBRANCH   6   8
BRANCH   5  12
HETATM   12  C9  UNL     1     -34.701  16.854  -0.475  1.00 20.00     0.000 C 
HETATM   13  C7  UNL     1     -35.674  17.989  -0.462  1.00 20.00     0.005 C 
ENDBRANCH   5  12
TORSDOF 4
ENDMDL
