MODEL 1
REMARK VINA RESULT:      -4.9      0.000      0.000
REMARK  3 active torsions:
REMARK  status: ('A' for Active; 'I' for Inactive)
REMARK    1  A    between atoms: C6_6  and  C9_9 
REMARK    2  A    between atoms: C9_9  and  C11_11 
REMARK    3  A    between atoms: C10_10  and  C11_11 
ROOT
HETATM    1  C1  UNL     1     -36.943  14.784  -3.839  1.00 20.00     0.069 C 
HETATM    2  C2  UNL     1     -35.707  16.586  -6.055  1.00 20.00     0.006 C 
HETATM    3  C3  UNL     1     -35.711  16.806  -4.548  1.00 20.00     0.025 C 
HETATM    4  C4  UNL     1     -34.764  14.603  -5.009  1.00 20.00     0.029 C 
HETATM    5  C5  UNL     1     -34.629  15.522  -6.236  1.00 20.00    -0.017 C 
HETATM    6  C6  UNL     1     -35.596  15.387  -3.966  1.00 20.00     0.049 C 
HETATM    7  C7  UNL     1     -34.743  14.780  -7.558  1.00 20.00     0.010 C 
HETATM    8  N12 UNL     1     -37.997  14.312  -3.740  1.00 20.00    -0.196 NA
ENDROOT
BRANCH   6   9
HETATM    9  C9  UNL     1     -34.925  15.399  -2.591  1.00 20.00     0.024 C 
BRANCH   9  10
HETATM   10  C11 UNL     1     -33.683  16.285  -2.592  1.00 20.00     0.001 C 
BRANCH  10  11
HETATM   11  C10 UNL     1     -33.693  17.243  -1.401  1.00 20.00    -0.004 C 
HETATM   12  C8  UNL     1     -34.779  16.876  -0.402  1.00 20.00     0.005 C 
ENDBRANCH  10  11
ENDBRANCH   9  10
ENDBRANCH   6   9
TORSDOF 3
ENDMDL
MODEL 2
REMARK VINA RESULT:      -4.7      1.496      1.720
REMARK  3 active torsions:
REMARK  status: ('A' for Active; 'I' for Inactive)
REMARK    1  A    between atoms: C6_6  and  C9_9 
REMARK    2  A    between atoms: C9_9  and  C11_11 
REMARK    3  A    between atoms: C10_10  and  C11_11 
ROOT
HETATM    1  C1  UNL     1     -34.698  13.836  -4.588  1.00 20.00     0.069 C 
HETATM    2  C2  UNL     1     -36.265  16.239  -5.793  1.00 20.00     0.006 C 
HETATM    3  C3  UNL     1     -35.981  15.932  -4.328  1.00 20.00     0.025 C 
HETATM    4  C4  UNL     1     -33.862  15.967  -5.540  1.00 20.00     0.029 C 
HETATM    5  C5  UNL     1     -34.929  16.786  -6.286  1.00 20.00    -0.017 C 
HETATM    6  C6  UNL     1     -34.582  15.292  -4.349  1.00 20.00     0.049 C 
HETATM    7  C7  UNL     1     -34.785  16.726  -7.798  1.00 20.00     0.010 C 
HETATM    8  N12 UNL     1     -34.788  12.695  -4.775  1.00 20.00    -0.196 NA
ENDROOT
BRANCH   6   9
HETATM    9  C9  UNL     1     -33.843  15.522  -3.029  1.00 20.00     0.024 C 
BRANCH   9  10
HETATM   10  C11 UNL     1     -34.789  16.044  -1.951  1.00 20.00     0.001 C 
BRANCH  10  11
HETATM   11  C10 UNL     1     -34.090  17.070  -1.059  1.00 20.00    -0.004 C 
HETATM   12  C8  UNL     1     -34.862  17.303   0.230  1.00 20.00     0.005 C 
ENDBRANCH  10  11
ENDBRANCH   9  10
ENDBRANCH   6   9
TORSDOF 3
ENDMDL
MODEL 3
REMARK VINA RESULT:      -4.7      2.365      3.213
REMARK  3 active torsions:
REMARK  status: ('A' for Active; 'I' for Inactive)
REMARK    1  A    between atoms: C6_6  and  C9_9 
REMARK    2  A    between atoms: C9_9  and  C11_11 
REMARK    3  A    between atoms: C10_10  and  C11_11 
ROOT
HETATM    1  C1  UNL     1     -33.682  16.647  -4.355  1.00 20.00     0.069 C 
HETATM    2  C2  UNL     1     -35.342  14.032  -4.049  1.00 20.00     0.006 C 
HETATM    3  C3  UNL     1     -34.162  14.509  -3.212  1.00 20.00     0.025 C 
HETATM    4  C4  UNL     1     -35.859  16.264  -3.232  1.00 20.00     0.029 C 
HETATM    5  C5  UNL     1     -36.490  14.892  -3.530  1.00 20.00    -0.017 C 
HETATM    6  C6  UNL     1     -34.330  16.037  -3.172  1.00 20.00     0.049 C 
HETATM    7  C7  UNL     1     -37.660  14.967  -4.498  1.00 20.00     0.010 C 
HETATM    8  N12 UNL     1     -33.175  17.124  -5.282  1.00 20.00    -0.196 NA
ENDROOT
BRANCH   6   9
HETATM    9  C9  UNL     1     -33.713  16.634  -1.905  1.00 20.00     0.024 C 
BRANCH   9  10
HETATM   10  C11 UNL     1     -34.720  16.655  -0.759  1.00 20.00     0.001 C 
BRANCH  10  11
HETATM   11  C10 UNL     1     -34.389  17.763   0.241  1.00 20.00    -0.004 C 
HETATM   12  C8  UNL     1     -33.077  18.449  -0.103  1.00 20.00     0.005 C 
ENDBRANCH  10  11
ENDBRANCH   9  10
ENDBRANCH   6   9
TORSDOF 3
ENDMDL
MODEL 4
REMARK VINA RESULT:      -4.6      2.155      2.900
REMARK  3 active torsions:
REMARK  status: ('A' for Active; 'I' for Inactive)
REMARK    1  A    between atoms: C6_6  and  C9_9 
REMARK    2  A    between atoms: C9_9  and  C11_11 
REMARK    3  A    between atoms: C10_10  and  C11_11 
ROOT
HETATM    1  C1  UNL     1     -35.107  17.402  -4.139  1.00 20.00     0.069 C 
HETATM    2  C2  UNL     1     -33.242  14.928  -3.841  1.00 20.00     0.006 C 
HETATM    3  C3  UNL     1     -33.444  16.085  -2.871  1.00 20.00     0.025 C 
HETATM    4  C4  UNL     1     -35.622  15.101  -3.371  1.00 20.00     0.029 C 
HETATM    5  C5  UNL     1     -34.494  14.085  -3.623  1.00 20.00    -0.017 C 
HETATM    6  C6  UNL     1     -34.932  16.442  -3.025  1.00 20.00     0.049 C 
HETATM    7  C7  UNL     1     -34.783  13.141  -4.779  1.00 20.00     0.010 C 
HETATM    8  N12 UNL     1     -35.244  18.153  -5.012  1.00 20.00    -0.196 NA
ENDROOT
BRANCH   6   9
HETATM    9  C9  UNL     1     -35.494  17.060  -1.744  1.00 20.00     0.024 C 
BRANCH   9  10
HETATM   10  C11 UNL     1     -34.611  16.736  -0.542  1.00 20.00     0.001 C 
BRANCH  10  11
HETATM   11  C10 UNL     1     -34.265  18.002   0.241  1.00 20.00    -0.004 C 
HETATM   12  C8  UNL     1     -32.897  18.540  -0.147  1.00 20.00     0.005 C 
ENDBRANCH  10  11
ENDBRANCH   9  10
ENDBRANCH   6   9
TORSDOF 3
ENDMDL
MODEL 5
REMARK VINA RESULT:      -4.5      1.942      4.710
REMARK  3 active torsions:
REMARK  status: ('A' for Active; 'I' for Inactive)
REMARK    1  A    between atoms: C6_6  and  C9_9 
REMARK    2  A    between atoms: C9_9  and  C11_11 
REMARK    3  A    between atoms: C10_10  and  C11_11 
ROOT
HETATM    1  C1  UNL     1     -33.749  13.890  -3.931  1.00 20.00     0.069 C 
HETATM    2  C2  UNL     1     -33.595  16.867  -3.037  1.00 20.00     0.006 C 
HETATM    3  C3  UNL     1     -33.898  16.308  -4.421  1.00 20.00     0.025 C 
HETATM    4  C4  UNL     1     -35.452  15.310  -2.823  1.00 20.00     0.029 C 
HETATM    5  C5  UNL     1     -34.909  16.648  -2.292  1.00 20.00    -0.017 C 
HETATM    6  C6  UNL     1     -34.686  15.018  -4.135  1.00 20.00     0.049 C 
HETATM    7  C7  UNL     1     -34.745  16.673  -0.780  1.00 20.00     0.010 C 
HETATM    8  N12 UNL     1     -33.015  13.007  -3.772  1.00 20.00    -0.196 NA
ENDROOT
BRANCH   6   9
HETATM    9  C9  UNL     1     -35.634  14.675  -5.286  1.00 20.00     0.024 C 
BRANCH   9  10
HETATM   10  C11 UNL     1     -34.871  14.501  -6.595  1.00 20.00     0.001 C 
BRANCH  10  11
HETATM   11  C10 UNL     1     -35.804  14.651  -7.797  1.00 20.00    -0.004 C 
HETATM   12  C8  UNL     1     -37.172  15.165  -7.378  1.00 20.00     0.005 C 
ENDBRANCH  10  11
ENDBRANCH   9  10
ENDBRANCH   6   9
TORSDOF 3
ENDMDL
MODEL 6
REMARK VINA RESULT:      -4.5      2.515      4.707
REMARK  3 active torsions:
REMARK  status: ('A' for Active; 'I' for Inactive)
REMARK    1  A    between atoms: C6_6  and  C9_9 
REMARK    2  A    between atoms: C9_9  and  C11_11 
REMARK    3  A    between atoms: C10_10  and  C11_11 
ROOT
HETATM    1  C1  UNL     1     -33.703  18.185  -4.052  1.00 20.00     0.069 C 
HETATM    2  C2  UNL     1     -35.983  17.310  -2.123  1.00 20.00     0.006 C 
HETATM    3  C3  UNL     1     -35.651  16.765  -3.506  1.00 20.00     0.025 C 
HETATM    4  C4  UNL     1     -33.646  16.637  -2.117  1.00 20.00     0.029 C 
HETATM    5  C5  UNL     1     -34.913  16.671  -1.244  1.00 20.00    -0.017 C 
HETATM    6  C6  UNL     1     -34.116  16.846  -3.576  1.00 20.00     0.049 C 
HETATM    7  C7  UNL     1     -34.714  17.402   0.075  1.00 20.00     0.010 C 
HETATM    8  N12 UNL     1     -33.380  19.235  -4.425  1.00 20.00    -0.196 NA
ENDROOT
BRANCH   6   9
HETATM    9  C9  UNL     1     -33.543  15.785  -4.519  1.00 20.00     0.024 C 
BRANCH   9  10
HETATM   10  C11 UNL     1     -33.340  14.457  -3.795  1.00 20.00     0.001 C 
BRANCH  10  11
HETATM   11  C10 UNL     1     -34.364  13.420  -4.255  1.00 20.00    -0.004 C 
HETATM   12  C8  UNL     1     -34.928  13.765  -5.624  1.00 20.00     0.005 C 
ENDBRANCH  10  11
ENDBRANCH   9  10
ENDBRANCH   6   9
TORSDOF 3
ENDMDL
MODEL 7
REMARK VINA RESULT:      -4.5      1.648      4.292
REMARK  3 active torsions:
REMARK  status: ('A' for Active; 'I' for Inactive)
REMARK    1  A    between atoms: C6_6  and  C9_9 
REMARK    2  A    between atoms: C9_9  and  C11_11 
REMARK    3  A    between atoms: C10_10  and  C11_11 
ROOT
HETATM    1  C1  UNL     1     -34.956  13.817  -4.515  1.00 20.00     0.069 C 
HETATM    2  C2  UNL     1     -33.177  15.904  -3.043  1.00 20.00     0.006 C 
HETATM    3  C3  UNL     1     -33.392  15.731  -4.541  1.00 20.00     0.025 C 
HETATM    4  C4  UNL     1     -35.571  15.978  -3.465  1.00 20.00     0.029 C 
HETATM    5  C5  UNL     1     -34.461  16.595  -2.597  1.00 20.00    -0.017 C 
HETATM    6  C6  UNL     1     -34.861  15.288  -4.655  1.00 20.00     0.049 C 
HETATM    7  C7  UNL     1     -34.720  16.460  -1.105  1.00 20.00     0.010 C 
HETATM    8  N12 UNL     1     -35.030  12.665  -4.405  1.00 20.00    -0.196 NA
ENDROOT
BRANCH   6   9
HETATM    9  C9  UNL     1     -35.467  15.700  -5.998  1.00 20.00     0.024 C 
BRANCH   9  10
HETATM   10  C11 UNL     1     -34.379  16.040  -7.012  1.00 20.00     0.001 C 
BRANCH  10  11
HETATM   11  C10 UNL     1     -34.635  17.403  -7.654  1.00 20.00    -0.004 C 
HETATM   12  C8  UNL     1     -34.060  18.532  -6.813  1.00 20.00     0.005 C 
ENDBRANCH  10  11
ENDBRANCH   9  10
ENDBRANCH   6   9
TORSDOF 3
ENDMDL
MODEL 8
REMARK VINA RESULT:      -4.5      1.465      1.688
REMARK  3 active torsions:
REMARK  status: ('A' for Active; 'I' for Inactive)
REMARK    1  A    between atoms: C6_6  and  C9_9 
REMARK    2  A    between atoms: C9_9  and  C11_11 
REMARK    3  A    between atoms: C10_10  and  C11_11 
ROOT
HETATM    1  C1  UNL     1     -35.899  16.922  -4.184  1.00 20.00     0.069 C 
HETATM    2  C2  UNL     1     -33.988  16.115  -6.504  1.00 20.00     0.006 C 
HETATM    3  C3  UNL     1     -33.648  16.368  -5.041  1.00 20.00     0.025 C 
HETATM    4  C4  UNL     1     -35.417  14.689  -5.148  1.00 20.00     0.029 C 
HETATM    5  C5  UNL     1     -34.623  14.729  -6.466  1.00 20.00    -0.017 C 
HETATM    6  C6  UNL     1     -34.880  15.851  -4.280  1.00 20.00     0.049 C 
HETATM    7  C7  UNL     1     -35.475  14.432  -7.690  1.00 20.00     0.010 C 
HETATM    8  N12 UNL     1     -36.697  17.760  -4.109  1.00 20.00    -0.196 NA
ENDROOT
BRANCH   6   9
HETATM    9  C9  UNL     1     -34.512  15.388  -2.869  1.00 20.00     0.024 C 
BRANCH   9  10
HETATM   10  C11 UNL     1     -33.914  16.530  -2.053  1.00 20.00     0.001 C 
BRANCH  10  11
HETATM   11  C10 UNL     1     -34.630  16.678  -0.711  1.00 20.00    -0.004 C 
HETATM   12  C8  UNL     1     -34.084  17.853   0.085  1.00 20.00     0.005 C 
ENDBRANCH  10  11
ENDBRANCH   9  10
ENDBRANCH   6   9
TORSDOF 3
ENDMDL
MODEL 9
REMARK VINA RESULT:      -4.5      1.208      4.280
REMARK  3 active torsions:
REMARK  status: ('A' for Active; 'I' for Inactive)
REMARK    1  A    between atoms: C6_6  and  C9_9 
REMARK    2  A    between atoms: C9_9  and  C11_11 
REMARK    3  A    between atoms: C10_10  and  C11_11 
ROOT
HETATM    1  C1  UNL     1     -36.580  14.513  -4.070  1.00 20.00     0.069 C 
HETATM    2  C2  UNL     1     -34.358  15.886  -2.378  1.00 20.00     0.006 C 
HETATM    3  C3  UNL     1     -34.277  14.592  -3.177  1.00 20.00     0.025 C 
HETATM    4  C4  UNL     1     -35.049  16.373  -4.658  1.00 20.00     0.029 C 
HETATM    5  C5  UNL     1     -34.276  16.956  -3.462  1.00 20.00    -0.017 C 
HETATM    6  C6  UNL     1     -35.176  14.853  -4.397  1.00 20.00     0.049 C 
HETATM    7  C7  UNL     1     -34.805  18.306  -3.005  1.00 20.00     0.010 C 
HETATM    8  N12 UNL     1     -37.679  14.247  -3.814  1.00 20.00    -0.196 NA
ENDROOT
BRANCH   6   9
HETATM    9  C9  UNL     1     -34.733  14.026  -5.605  1.00 20.00     0.024 C 
BRANCH   9  10
HETATM   10  C11 UNL     1     -34.628  14.893  -6.857  1.00 20.00     0.001 C 
BRANCH  10  11
HETATM   11  C10 UNL     1     -35.633  14.446  -7.918  1.00 20.00    -0.004 C 
HETATM   12  C8  UNL     1     -36.976  15.137  -7.738  1.00 20.00     0.005 C 
ENDBRANCH  10  11
ENDBRANCH   9  10
ENDBRANCH   6   9
TORSDOF 3
ENDMDL
