MODEL 1
REMARK VINA RESULT:      -4.6      0.000      0.000
REMARK  5 active torsions:
REMARK  status: ('A' for Active; 'I' for Inactive)
REMARK    1  A    between atoms: C6_6  and  C8_8 
REMARK    2  A    between atoms: C7_7  and  C11_11 
REMARK    3  A    between atoms: C8_8  and  C10_10 
REMARK    4  A    between atoms: C9_9  and  C10_10 
REMARK    5  A    between atoms: C9_9  and  C11_11 
ROOT
HETATM    1  C1  UNL     1     -37.183  14.455  -4.042  1.00 20.00     0.069 C 
HETATM    2  C5  UNL     1     -35.191  13.190  -4.731  1.00 20.00     0.031 C 
HETATM    3  C11 UNL     1     -35.723  14.563  -4.279  1.00 20.00     0.045 C 
HETATM    4  N12 UNL     1     -38.328  14.375  -3.864  1.00 20.00    -0.196 NA
ENDROOT
BRANCH   3   5
HETATM    5  C7  UNL     1     -35.492  15.562  -5.456  1.00 20.00     0.020 C 
HETATM    6  C3  UNL     1     -34.633  15.038  -6.606  1.00 20.00     0.007 C 
ENDBRANCH   3   5
BRANCH   3   7
HETATM    7  C9  UNL     1     -34.991  15.068  -3.001  1.00 20.00     0.028 C 
BRANCH   7   8
HETATM    8  C10 UNL     1     -33.816  16.075  -3.151  1.00 20.00    -0.017 C 
HETATM    9  C4  UNL     1     -32.540  15.281  -3.469  1.00 20.00     0.010 C 
BRANCH   8  10
HETATM   10  C8  UNL     1     -33.629  16.969  -1.907  1.00 20.00     0.004 C 
BRANCH  10  11
HETATM   11  C6  UNL     1     -34.613  16.672  -0.770  1.00 20.00    -0.004 C 
HETATM   12  C2  UNL     1     -34.515  17.717   0.332  1.00 20.00     0.005 C 
ENDBRANCH  10  11
ENDBRANCH   8  10
ENDBRANCH   7   8
ENDBRANCH   3   7
TORSDOF 5
ENDMDL
MODEL 2
REMARK VINA RESULT:      -4.6      1.680      2.432
REMARK  5 active torsions:
REMARK  status: ('A' for Active; 'I' for Inactive)
REMARK    1  A    between atoms: C6_6  and  C8_8 
REMARK    2  A    between atoms: C7_7  and  C11_11 
REMARK    3  A    between atoms: C8_8  and  C10_10 
REMARK    4  A    between atoms: C9_9  and  C10_10 
REMARK    5  A    between atoms: C9_9  and  C11_11 
ROOT
HETATM    1  C1  UNL     1     -34.768  13.687  -5.094  1.00 20.00     0.069 C 
HETATM    2  C5  UNL     1     -34.549  14.872  -7.237  1.00 20.00     0.031 C 
HETATM    3  C11 UNL     1     -34.767  15.031  -5.720  1.00 20.00     0.045 C 
HETATM    4  N12 UNL     1     -34.777  12.635  -4.603  1.00 20.00    -0.196 NA
ENDROOT
BRANCH   3   5
HETATM    5  C7  UNL     1     -36.179  15.666  -5.518  1.00 20.00     0.020 C 
HETATM    6  C3  UNL     1     -37.056  15.000  -4.459  1.00 20.00     0.007 C 
ENDBRANCH   3   5
BRANCH   3   7
HETATM    7  C9  UNL     1     -33.679  15.941  -5.078  1.00 20.00     0.028 C 
BRANCH   7   8
HETATM    8  C10 UNL     1     -34.112  17.047  -4.076  1.00 20.00    -0.017 C 
HETATM    9  C4  UNL     1     -33.579  18.395  -4.587  1.00 20.00     0.010 C 
BRANCH   8  10
HETATM   10  C8  UNL     1     -33.644  16.766  -2.633  1.00 20.00     0.004 C 
BRANCH  10  11
HETATM   11  C6  UNL     1     -34.740  16.212  -1.717  1.00 20.00    -0.004 C 
HETATM   12  C2  UNL     1     -34.783  16.957  -0.391  1.00 20.00     0.005 C 
ENDBRANCH  10  11
ENDBRANCH   8  10
ENDBRANCH   7   8
ENDBRANCH   3   7
TORSDOF 5
ENDMDL
MODEL 3
REMARK VINA RESULT:      -4.6      2.184      4.496
REMARK  5 active torsions:
REMARK  status: ('A' for Active; 'I' for Inactive)
REMARK    1  A    between atoms: C6_6  and  C8_8 
REMARK    2  A    between atoms: C7_7  and  C11_11 
REMARK    3  A    between atoms: C8_8  and  C10_10 
REMARK    4  A    between atoms: C9_9  and  C10_10 
REMARK    5  A    between atoms: C9_9  and  C11_11 
ROOT
HETATM    1  C1  UNL     1     -34.574  16.146  -1.992  1.00 20.00     0.069 C 
HETATM    2  C5  UNL     1     -33.093  15.145  -3.680  1.00 20.00     0.031 C 
HETATM    3  C11 UNL     1     -34.497  15.720  -3.410  1.00 20.00     0.045 C 
HETATM    4  N12 UNL     1     -34.638  16.473  -0.879  1.00 20.00    -0.196 NA
ENDROOT
BRANCH   3   5
HETATM    5  C7  UNL     1     -35.522  14.563  -3.628  1.00 20.00     0.020 C 
HETATM    6  C3  UNL     1     -34.944  13.267  -4.191  1.00 20.00     0.007 C 
ENDBRANCH   3   5
BRANCH   3   7
HETATM    7  C9  UNL     1     -34.822  16.907  -4.364  1.00 20.00     0.028 C 
BRANCH   7   8
HETATM    8  C10 UNL     1     -33.905  17.165  -5.591  1.00 20.00    -0.017 C 
HETATM    9  C4  UNL     1     -33.577  18.665  -5.640  1.00 20.00     0.010 C 
BRANCH   8  10
HETATM   10  C8  UNL     1     -34.525  16.679  -6.917  1.00 20.00     0.004 C 
BRANCH  10  11
HETATM   11  C6  UNL     1     -34.266  15.201  -7.225  1.00 20.00    -0.004 C 
HETATM   12  C2  UNL     1     -35.533  14.503  -7.697  1.00 20.00     0.005 C 
ENDBRANCH  10  11
ENDBRANCH   8  10
ENDBRANCH   7   8
ENDBRANCH   3   7
TORSDOF 5
ENDMDL
MODEL 4
REMARK VINA RESULT:      -4.5      1.168      1.533
REMARK  5 active torsions:
REMARK  status: ('A' for Active; 'I' for Inactive)
REMARK    1  A    between atoms: C6_6  and  C8_8 
REMARK    2  A    between atoms: C7_7  and  C11_11 
REMARK    3  A    between atoms: C8_8  and  C10_10 
REMARK    4  A    between atoms: C9_9  and  C10_10 
REMARK    5  A    between atoms: C9_9  and  C11_11 
ROOT
HETATM    1  C1  UNL     1     -36.335  14.414  -4.153  1.00 20.00     0.069 C 
HETATM    2  C5  UNL     1     -34.067  13.487  -3.938  1.00 20.00     0.031 C 
HETATM    3  C11 UNL     1     -34.954  14.501  -4.686  1.00 20.00     0.045 C 
HETATM    4  N12 UNL     1     -37.419  14.340  -3.742  1.00 20.00    -0.196 NA
ENDROOT
BRANCH   3   5
HETATM    5  C7  UNL     1     -34.982  14.074  -6.188  1.00 20.00     0.020 C 
HETATM    6  C3  UNL     1     -34.497  15.126  -7.182  1.00 20.00     0.007 C 
ENDBRANCH   3   5
BRANCH   3   7
HETATM    7  C9  UNL     1     -34.401  15.950  -4.556  1.00 20.00     0.028 C 
BRANCH   7   8
HETATM    8  C10 UNL     1     -34.850  16.827  -3.354  1.00 20.00    -0.017 C 
HETATM    9  C4  UNL     1     -34.962  18.282  -3.835  1.00 20.00     0.010 C 
BRANCH   8  10
HETATM   10  C8  UNL     1     -33.910  16.705  -2.138  1.00 20.00     0.004 C 
BRANCH  10  11
HETATM   11  C6  UNL     1     -34.637  16.594  -0.794  1.00 20.00    -0.004 C 
HETATM   12  C2  UNL     1     -34.307  17.771   0.113  1.00 20.00     0.005 C 
ENDBRANCH  10  11
ENDBRANCH   8  10
ENDBRANCH   7   8
ENDBRANCH   3   7
TORSDOF 5
ENDMDL
MODEL 5
REMARK VINA RESULT:      -4.5      1.755      2.823
REMARK  5 active torsions:
REMARK  status: ('A' for Active; 'I' for Inactive)
REMARK    1  A    between atoms: C6_6  and  C8_8 
REMARK    2  A    between atoms: C7_7  and  C11_11 
REMARK    3  A    between atoms: C8_8  and  C10_10 
REMARK    4  A    between atoms: C9_9  and  C10_10 
REMARK    5  A    between atoms: C9_9  and  C11_11 
ROOT
HETATM    1  C1  UNL     1     -34.439  13.850  -4.915  1.00 20.00     0.069 C 
HETATM    2  C5  UNL     1     -33.113  15.919  -4.842  1.00 20.00     0.031 C 
HETATM    3  C11 UNL     1     -34.404  15.262  -5.366  1.00 20.00     0.045 C 
HETATM    4  N12 UNL     1     -34.464  12.741  -4.568  1.00 20.00    -0.196 NA
ENDROOT
BRANCH   3   5
HETATM    5  C7  UNL     1     -34.332  15.274  -6.926  1.00 20.00     0.020 C 
HETATM    6  C3  UNL     1     -35.424  14.483  -7.643  1.00 20.00     0.007 C 
ENDBRANCH   3   5
BRANCH   3   7
HETATM    7  C9  UNL     1     -35.672  16.028  -4.887  1.00 20.00     0.028 C 
BRANCH   7   8
HETATM    8  C10 UNL     1     -36.260  15.715  -3.483  1.00 20.00    -0.017 C 
HETATM    9  C4  UNL     1     -37.788  15.619  -3.612  1.00 20.00     0.010 C 
BRANCH   8  10
HETATM   10  C8  UNL     1     -35.848  16.749  -2.415  1.00 20.00     0.004 C 
BRANCH  10  11
HETATM   11  C6  UNL     1     -34.715  16.282  -1.496  1.00 20.00    -0.004 C 
HETATM   12  C2  UNL     1     -33.696  17.389  -1.267  1.00 20.00     0.005 C 
ENDBRANCH  10  11
ENDBRANCH   8  10
ENDBRANCH   7   8
ENDBRANCH   3   7
TORSDOF 5
ENDMDL
MODEL 6
REMARK VINA RESULT:      -4.5      1.695      4.171
REMARK  5 active torsions:
REMARK  status: ('A' for Active; 'I' for Inactive)
REMARK    1  A    between atoms: C6_6  and  C8_8 
REMARK    2  A    between atoms: C7_7  and  C11_11 
REMARK    3  A    between atoms: C8_8  and  C10_10 
REMARK    4  A    between atoms: C9_9  and  C10_10 
REMARK    5  A    between atoms: C9_9  and  C11_11 
ROOT
HETATM    1  C1  UNL     1     -35.939  14.900  -3.519  1.00 20.00     0.069 C 
HETATM    2  C5  UNL     1     -34.825  16.159  -1.724  1.00 20.00     0.031 C 
HETATM    3  C11 UNL     1     -34.811  15.817  -3.226  1.00 20.00     0.045 C 
HETATM    4  N12 UNL     1     -36.817  14.175  -3.748  1.00 20.00    -0.196 NA
ENDROOT
BRANCH   3   5
HETATM    5  C7  UNL     1     -33.478  15.060  -3.518  1.00 20.00     0.020 C 
HETATM    6  C3  UNL     1     -33.622  13.581  -3.869  1.00 20.00     0.007 C 
ENDBRANCH   3   5
BRANCH   3   7
HETATM    7  C9  UNL     1     -34.898  17.099  -4.105  1.00 20.00     0.028 C 
BRANCH   7   8
HETATM    8  C10 UNL     1     -34.020  17.201  -5.383  1.00 20.00    -0.017 C 
HETATM    9  C4  UNL     1     -33.551  18.657  -5.530  1.00 20.00     0.010 C 
BRANCH   8  10
HETATM   10  C8  UNL     1     -34.749  16.713  -6.652  1.00 20.00     0.004 C 
BRANCH  10  11
HETATM   11  C6  UNL     1     -34.299  15.332  -7.139  1.00 20.00    -0.004 C 
HETATM   12  C2  UNL     1     -35.477  14.373  -7.249  1.00 20.00     0.005 C 
ENDBRANCH  10  11
ENDBRANCH   8  10
ENDBRANCH   7   8
ENDBRANCH   3   7
TORSDOF 5
ENDMDL
MODEL 7
REMARK VINA RESULT:      -4.4      1.925      2.600
REMARK  5 active torsions:
REMARK  status: ('A' for Active; 'I' for Inactive)
REMARK    1  A    between atoms: C6_6  and  C8_8 
REMARK    2  A    between atoms: C7_7  and  C11_11 
REMARK    3  A    between atoms: C8_8  and  C10_10 
REMARK    4  A    between atoms: C9_9  and  C10_10 
REMARK    5  A    between atoms: C9_9  and  C11_11 
ROOT
HETATM    1  C1  UNL     1     -35.352  14.555  -6.645  1.00 20.00     0.069 C 
HETATM    2  C5  UNL     1     -36.571  15.427  -4.696  1.00 20.00     0.031 C 
HETATM    3  C11 UNL     1     -35.222  14.885  -5.205  1.00 20.00     0.045 C 
HETATM    4  N12 UNL     1     -35.454  14.288  -7.771  1.00 20.00    -0.196 NA
ENDROOT
BRANCH   3   5
HETATM    5  C7  UNL     1     -34.928  13.565  -4.426  1.00 20.00     0.020 C 
HETATM    6  C3  UNL     1     -33.510  13.427  -3.874  1.00 20.00     0.007 C 
ENDBRANCH   3   5
BRANCH   3   7
HETATM    7  C9  UNL     1     -34.070  15.907  -4.974  1.00 20.00     0.028 C 
BRANCH   7   8
HETATM    8  C10 UNL     1     -34.313  17.121  -4.034  1.00 20.00    -0.017 C 
HETATM    9  C4  UNL     1     -33.741  18.376  -4.710  1.00 20.00     0.010 C 
BRANCH   8  10
HETATM   10  C8  UNL     1     -33.718  16.918  -2.625  1.00 20.00     0.004 C 
BRANCH  10  11
HETATM   11  C6  UNL     1     -34.662  16.219  -1.642  1.00 20.00    -0.004 C 
HETATM   12  C2  UNL     1     -34.739  16.970  -0.320  1.00 20.00     0.005 C 
ENDBRANCH  10  11
ENDBRANCH   8  10
ENDBRANCH   7   8
ENDBRANCH   3   7
TORSDOF 5
ENDMDL
MODEL 8
REMARK VINA RESULT:      -4.4      1.247      2.300
REMARK  5 active torsions:
REMARK  status: ('A' for Active; 'I' for Inactive)
REMARK    1  A    between atoms: C6_6  and  C8_8 
REMARK    2  A    between atoms: C7_7  and  C11_11 
REMARK    3  A    between atoms: C8_8  and  C10_10 
REMARK    4  A    between atoms: C9_9  and  C10_10 
REMARK    5  A    between atoms: C9_9  and  C11_11 
ROOT
HETATM    1  C1  UNL     1     -37.795  14.566  -4.046  1.00 20.00     0.069 C 
HETATM    2  C5  UNL     1     -35.515  13.643  -4.080  1.00 20.00     0.031 C 
HETATM    3  C11 UNL     1     -36.363  14.926  -4.180  1.00 20.00     0.045 C 
HETATM    4  N12 UNL     1     -38.917  14.284  -3.950  1.00 20.00    -0.196 NA
ENDROOT
BRANCH   3   5
HETATM    5  C7  UNL     1     -36.140  15.519  -5.607  1.00 20.00     0.020 C 
HETATM    6  C3  UNL     1     -35.080  14.818  -6.455  1.00 20.00     0.007 C 
ENDBRANCH   3   5
BRANCH   3   7
HETATM    7  C9  UNL     1     -35.951  15.970  -3.100  1.00 20.00     0.028 C 
BRANCH   7   8
HETATM    8  C10 UNL     1     -34.542  15.872  -2.452  1.00 20.00    -0.017 C 
HETATM    9  C4  UNL     1     -34.613  16.496  -1.050  1.00 20.00     0.010 C 
BRANCH   8  10
HETATM   10  C8  UNL     1     -33.440  16.530  -3.308  1.00 20.00     0.004 C 
BRANCH  10  11
HETATM   11  C6  UNL     1     -33.786  17.941  -3.795  1.00 20.00    -0.004 C 
HETATM   12  C2  UNL     1     -33.516  18.093  -5.286  1.00 20.00     0.005 C 
ENDBRANCH  10  11
ENDBRANCH   8  10
ENDBRANCH   7   8
ENDBRANCH   3   7
TORSDOF 5
ENDMDL
MODEL 9
REMARK VINA RESULT:      -4.4      1.537      4.111
REMARK  5 active torsions:
REMARK  status: ('A' for Active; 'I' for Inactive)
REMARK    1  A    between atoms: C6_6  and  C8_8 
REMARK    2  A    between atoms: C7_7  and  C11_11 
REMARK    3  A    between atoms: C8_8  and  C10_10 
REMARK    4  A    between atoms: C9_9  and  C10_10 
REMARK    5  A    between atoms: C9_9  and  C11_11 
ROOT
HETATM    1  C1  UNL     1     -37.310  15.227  -3.544  1.00 20.00     0.069 C 
HETATM    2  C5  UNL     1     -36.827  17.453  -2.617  1.00 20.00     0.031 C 
HETATM    3  C11 UNL     1     -36.259  16.265  -3.418  1.00 20.00     0.045 C 
HETATM    4  N12 UNL     1     -38.129  14.409  -3.636  1.00 20.00    -0.196 NA
ENDROOT
BRANCH   3   5
HETATM    5  C7  UNL     1     -35.079  15.668  -2.589  1.00 20.00     0.020 C 
HETATM    6  C3  UNL     1     -34.694  16.448  -1.334  1.00 20.00     0.007 C 
ENDBRANCH   3   5
BRANCH   3   7
HETATM    7  C9  UNL     1     -35.750  16.712  -4.820  1.00 20.00     0.028 C 
BRANCH   7   8
HETATM    8  C10 UNL     1     -34.279  16.414  -5.222  1.00 20.00    -0.017 C 
HETATM    9  C4  UNL     1     -33.576  17.752  -5.499  1.00 20.00     0.010 C 
BRANCH   8  10
HETATM   10  C8  UNL     1     -34.167  15.459  -6.427  1.00 20.00     0.004 C 
BRANCH  10  11
HETATM   11  C6  UNL     1     -35.119  14.260  -6.366  1.00 20.00    -0.004 C 
HETATM   12  C2  UNL     1     -34.690  13.266  -5.295  1.00 20.00     0.005 C 
ENDBRANCH  10  11
ENDBRANCH   8  10
ENDBRANCH   7   8
ENDBRANCH   3   7
TORSDOF 5
ENDMDL
