MODEL 1
REMARK VINA RESULT:      -5.3      0.000      0.000
REMARK  3 active torsions:
REMARK  status: ('A' for Active; 'I' for Inactive)
REMARK    1  A    between atoms: C3_3  and  C7_7 
REMARK    2  A    between atoms: C3_3  and  C9_9 
REMARK    3  A    between atoms: C8_8  and  C9_9 
ROOT
HETATM    1  C1  UNL     1     -32.502   9.770   1.472  1.00 20.00     0.012 C 
HETATM    2  C2  UNL     1     -32.165   8.683   1.854  1.00 20.00    -0.117 C 
HETATM    3  C8  UNL     1     -31.750   7.351   2.319  1.00 20.00     0.100 C 
ENDROOT
BRANCH   3   4
HETATM    4  C9  UNL     1     -32.494   6.932   3.585  1.00 20.00     0.091 C 
BRANCH   4   5
HETATM    5  C3  UNL     1     -33.650   5.976   3.329  1.00 20.00     0.134 C 
HETATM    6  O10 UNL     1     -33.734   5.281   2.317  1.00 20.00    -0.297 OA
BRANCH   5   7
HETATM    7  C7  UNL     1     -34.706   5.902   4.414  1.00 20.00     0.081 C 
HETATM    8  C4  UNL     1     -34.070   6.178   5.758  1.00 20.00     0.040 C 
HETATM    9  C5  UNL     1     -34.742   5.176   6.666  1.00 20.00     0.168 C 
HETATM   10  O11 UNL     1     -34.953   4.021   5.852  1.00 20.00    -0.390 OA
HETATM   11  C6  UNL     1     -35.236   4.484   4.524  1.00 20.00     0.179 C 
ENDBRANCH   5   7
ENDBRANCH   4   5
ENDBRANCH   3   4
TORSDOF 3
ENDMDL
MODEL 2
REMARK VINA RESULT:      -4.8     11.047     12.721
REMARK  3 active torsions:
REMARK  status: ('A' for Active; 'I' for Inactive)
REMARK    1  A    between atoms: C3_3  and  C7_7 
REMARK    2  A    between atoms: C3_3  and  C9_9 
REMARK    3  A    between atoms: C8_8  and  C9_9 
ROOT
HETATM    1  C1  UNL     1     -34.484  16.609  -1.278  1.00 20.00     0.012 C 
HETATM    2  C2  UNL     1     -33.966  16.169  -2.268  1.00 20.00    -0.117 C 
HETATM    3  C8  UNL     1     -33.331  15.634  -3.482  1.00 20.00     0.100 C 
ENDROOT
BRANCH   3   4
HETATM    4  C9  UNL     1     -33.536  14.127  -3.615  1.00 20.00     0.091 C 
BRANCH   4   5
HETATM    5  C3  UNL     1     -34.483  13.733  -4.738  1.00 20.00     0.134 C 
HETATM    6  O10 UNL     1     -34.815  12.569  -4.959  1.00 20.00    -0.297 OA
BRANCH   5   7
HETATM    7  C7  UNL     1     -35.030  14.870  -5.578  1.00 20.00     0.081 C 
HETATM    8  C4  UNL     1     -36.520  14.995  -5.355  1.00 20.00     0.040 C 
HETATM    9  C5  UNL     1     -37.052  15.270  -6.741  1.00 20.00     0.168 C 
HETATM   10  O11 UNL     1     -36.209  14.522  -7.618  1.00 20.00    -0.390 OA
HETATM   11  C6  UNL     1     -34.889  14.537  -7.054  1.00 20.00     0.179 C 
ENDBRANCH   5   7
ENDBRANCH   4   5
ENDBRANCH   3   4
TORSDOF 3
ENDMDL
MODEL 3
REMARK VINA RESULT:      -4.7     11.366     12.304
REMARK  3 active torsions:
REMARK  status: ('A' for Active; 'I' for Inactive)
REMARK    1  A    between atoms: C3_3  and  C7_7 
REMARK    2  A    between atoms: C3_3  and  C9_9 
REMARK    3  A    between atoms: C8_8  and  C9_9 
ROOT
HETATM    1  C1  UNL     1     -34.875  17.805   0.919  1.00 20.00     0.012 C 
HETATM    2  C2  UNL     1     -34.803  17.151  -0.085  1.00 20.00    -0.117 C 
HETATM    3  C8  UNL     1     -34.717  16.346  -1.313  1.00 20.00     0.100 C 
ENDROOT
BRANCH   3   4
HETATM    4  C9  UNL     1     -33.629  16.859  -2.255  1.00 20.00     0.091 C 
BRANCH   4   5
HETATM    5  C3  UNL     1     -33.653  16.209  -3.631  1.00 20.00     0.134 C 
HETATM    6  O10 UNL     1     -32.905  16.550  -4.546  1.00 20.00    -0.297 OA
BRANCH   5   7
HETATM    7  C7  UNL     1     -34.649  15.083  -3.818  1.00 20.00     0.081 C 
HETATM    8  C4  UNL     1     -33.915  13.763  -3.886  1.00 20.00     0.040 C 
HETATM    9  C5  UNL     1     -34.645  13.022  -4.981  1.00 20.00     0.168 C 
HETATM   10  O11 UNL     1     -35.029  14.028  -5.919  1.00 20.00    -0.390 OA
HETATM   11  C6  UNL     1     -35.330  15.214  -5.170  1.00 20.00     0.179 C 
ENDBRANCH   5   7
ENDBRANCH   4   5
ENDBRANCH   3   4
TORSDOF 3
ENDMDL
MODEL 4
REMARK VINA RESULT:      -4.6     11.234     12.972
REMARK  3 active torsions:
REMARK  status: ('A' for Active; 'I' for Inactive)
REMARK    1  A    between atoms: C3_3  and  C7_7 
REMARK    2  A    between atoms: C3_3  and  C9_9 
REMARK    3  A    between atoms: C8_8  and  C9_9 
ROOT
HETATM    1  C1  UNL     1     -33.957  17.130  -1.192  1.00 20.00     0.012 C 
HETATM    2  C2  UNL     1     -34.418  16.259  -1.878  1.00 20.00    -0.117 C 
HETATM    3  C8  UNL     1     -34.986  15.193  -2.717  1.00 20.00     0.100 C 
ENDROOT
BRANCH   3   4
HETATM    4  C9  UNL     1     -33.960  14.635  -3.701  1.00 20.00     0.091 C 
BRANCH   4   5
HETATM    5  C3  UNL     1     -34.570  13.788  -4.808  1.00 20.00     0.134 C 
HETATM    6  O10 UNL     1     -34.901  12.614  -4.649  1.00 20.00    -0.297 OA
BRANCH   5   7
HETATM    7  C7  UNL     1     -34.776  14.481  -6.140  1.00 20.00     0.081 C 
HETATM    8  C4  UNL     1     -33.935  15.737  -6.193  1.00 20.00     0.040 C 
HETATM    9  C5  UNL     1     -34.852  16.734  -6.860  1.00 20.00     0.168 C 
HETATM   10  O11 UNL     1     -36.162  16.399  -6.401  1.00 20.00    -0.390 OA
HETATM   11  C6  UNL     1     -36.208  14.972  -6.252  1.00 20.00     0.179 C 
ENDBRANCH   5   7
ENDBRANCH   4   5
ENDBRANCH   3   4
TORSDOF 3
ENDMDL
MODEL 5
REMARK VINA RESULT:      -4.6     11.048     12.555
REMARK  3 active torsions:
REMARK  status: ('A' for Active; 'I' for Inactive)
REMARK    1  A    between atoms: C3_3  and  C7_7 
REMARK    2  A    between atoms: C3_3  and  C9_9 
REMARK    3  A    between atoms: C8_8  and  C9_9 
ROOT
HETATM    1  C1  UNL     1     -34.128  17.646  -6.574  1.00 20.00     0.012 C 
HETATM    2  C2  UNL     1     -34.355  16.473  -6.698  1.00 20.00    -0.117 C 
HETATM    3  C8  UNL     1     -34.631  15.038  -6.855  1.00 20.00     0.100 C 
ENDROOT
BRANCH   3   4
HETATM    4  C9  UNL     1     -35.563  14.514  -5.765  1.00 20.00     0.091 C 
BRANCH   4   5
HETATM    5  C3  UNL     1     -34.876  13.608  -4.754  1.00 20.00     0.134 C 
HETATM    6  O10 UNL     1     -34.648  12.418  -4.966  1.00 20.00    -0.297 OA
BRANCH   5   7
HETATM    7  C7  UNL     1     -34.456  14.261  -3.452  1.00 20.00     0.081 C 
HETATM    8  C4  UNL     1     -35.403  15.394  -3.126  1.00 20.00     0.040 C 
HETATM    9  C5  UNL     1     -34.480  16.470  -2.604  1.00 20.00     0.168 C 
HETATM   10  O11 UNL     1     -33.278  16.328  -3.362  1.00 20.00    -0.390 OA
HETATM   11  C6  UNL     1     -33.102  14.927  -3.620  1.00 20.00     0.179 C 
ENDBRANCH   5   7
ENDBRANCH   4   5
ENDBRANCH   3   4
TORSDOF 3
ENDMDL
MODEL 6
REMARK VINA RESULT:      -4.5     11.232     12.713
REMARK  3 active torsions:
REMARK  status: ('A' for Active; 'I' for Inactive)
REMARK    1  A    between atoms: C3_3  and  C7_7 
REMARK    2  A    between atoms: C3_3  and  C9_9 
REMARK    3  A    between atoms: C8_8  and  C9_9 
ROOT
HETATM    1  C1  UNL     1     -36.738  17.147  -5.409  1.00 20.00     0.012 C 
HETATM    2  C2  UNL     1     -36.421  16.092  -5.887  1.00 20.00    -0.117 C 
HETATM    3  C8  UNL     1     -36.036  14.800  -6.473  1.00 20.00     0.100 C 
ENDROOT
BRANCH   3   4
HETATM    4  C9  UNL     1     -34.612  14.403  -6.093  1.00 20.00     0.091 C 
BRANCH   4   5
HETATM    5  C3  UNL     1     -34.491  13.812  -4.696  1.00 20.00     0.134 C 
HETATM    6  O10 UNL     1     -34.981  12.728  -4.382  1.00 20.00    -0.297 OA
BRANCH   5   7
HETATM    7  C7  UNL     1     -33.703  14.630  -3.693  1.00 20.00     0.081 C 
HETATM    8  C4  UNL     1     -34.654  15.290  -2.719  1.00 20.00     0.040 C 
HETATM    9  C5  UNL     1     -34.063  16.668  -2.546  1.00 20.00     0.168 C 
HETATM   10  O11 UNL     1     -33.512  17.000  -3.821  1.00 20.00    -0.390 OA
HETATM   11  C6  UNL     1     -33.011  15.785  -4.396  1.00 20.00     0.179 C 
ENDBRANCH   5   7
ENDBRANCH   4   5
ENDBRANCH   3   4
TORSDOF 3
ENDMDL
MODEL 7
REMARK VINA RESULT:      -4.5     11.053     12.558
REMARK  3 active torsions:
REMARK  status: ('A' for Active; 'I' for Inactive)
REMARK    1  A    between atoms: C3_3  and  C7_7 
REMARK    2  A    between atoms: C3_3  and  C9_9 
REMARK    3  A    between atoms: C8_8  and  C9_9 
ROOT
HETATM    1  C1  UNL     1     -34.409  15.210  -6.825  1.00 20.00     0.012 C 
HETATM    2  C2  UNL     1     -34.602  14.373  -5.986  1.00 20.00    -0.117 C 
HETATM    3  C8  UNL     1     -34.841  13.347  -4.961  1.00 20.00     0.100 C 
ENDROOT
BRANCH   3   4
HETATM    4  C9  UNL     1     -34.281  13.758  -3.601  1.00 20.00     0.091 C 
BRANCH   4   5
HETATM    5  C3  UNL     1     -34.817  15.088  -3.093  1.00 20.00     0.134 C 
HETATM    6  O10 UNL     1     -36.018  15.341  -3.015  1.00 20.00    -0.297 OA
BRANCH   5   7
HETATM    7  C7  UNL     1     -33.778  16.102  -2.658  1.00 20.00     0.081 C 
HETATM    8  C4  UNL     1     -34.204  16.735  -1.352  1.00 20.00     0.040 C 
HETATM    9  C5  UNL     1     -33.841  18.188  -1.542  1.00 20.00     0.168 C 
HETATM   10  O11 UNL     1     -34.069  18.450  -2.928  1.00 20.00    -0.390 OA
HETATM   11  C6  UNL     1     -33.733  17.254  -3.646  1.00 20.00     0.179 C 
ENDBRANCH   5   7
ENDBRANCH   4   5
ENDBRANCH   3   4
TORSDOF 3
ENDMDL
MODEL 8
REMARK VINA RESULT:      -4.4     11.076     12.700
REMARK  3 active torsions:
REMARK  status: ('A' for Active; 'I' for Inactive)
REMARK    1  A    between atoms: C3_3  and  C7_7 
REMARK    2  A    between atoms: C3_3  and  C9_9 
REMARK    3  A    between atoms: C8_8  and  C9_9 
ROOT
HETATM    1  C1  UNL     1     -34.792  14.947  -7.635  1.00 20.00     0.012 C 
HETATM    2  C2  UNL     1     -34.440  15.845  -6.920  1.00 20.00    -0.117 C 
HETATM    3  C8  UNL     1     -34.010  16.948  -6.047  1.00 20.00     0.100 C 
ENDROOT
BRANCH   3   4
HETATM    4  C9  UNL     1     -33.116  16.459  -4.910  1.00 20.00     0.091 C 
BRANCH   4   5
HETATM    5  C3  UNL     1     -33.789  16.487  -3.545  1.00 20.00     0.134 C 
HETATM    6  O10 UNL     1     -33.844  17.497  -2.845  1.00 20.00    -0.297 OA
BRANCH   5   7
HETATM    7  C7  UNL     1     -34.422  15.188  -3.089  1.00 20.00     0.081 C 
HETATM    8  C4  UNL     1     -33.818  14.033  -3.856  1.00 20.00     0.040 C 
HETATM    9  C5  UNL     1     -35.010  13.152  -4.144  1.00 20.00     0.168 C 
HETATM   10  O11 UNL     1     -36.099  14.054  -4.344  1.00 20.00    -0.390 OA
HETATM   11  C6  UNL     1     -35.894  15.169  -3.464  1.00 20.00     0.179 C 
ENDBRANCH   5   7
ENDBRANCH   4   5
ENDBRANCH   3   4
TORSDOF 3
ENDMDL
MODEL 9
REMARK VINA RESULT:      -4.4     11.385     12.393
REMARK  3 active torsions:
REMARK  status: ('A' for Active; 'I' for Inactive)
REMARK    1  A    between atoms: C3_3  and  C7_7 
REMARK    2  A    between atoms: C3_3  and  C9_9 
REMARK    3  A    between atoms: C8_8  and  C9_9 
ROOT
HETATM    1  C1  UNL     1     -34.672  16.388  -1.662  1.00 20.00     0.012 C 
HETATM    2  C2  UNL     1     -34.017  15.805  -2.483  1.00 20.00    -0.117 C 
HETATM    3  C8  UNL     1     -33.212  15.093  -3.485  1.00 20.00     0.100 C 
ENDROOT
BRANCH   3   4
HETATM    4  C9  UNL     1     -33.972  14.902  -4.796  1.00 20.00     0.091 C 
BRANCH   4   5
HETATM    5  C3  UNL     1     -35.184  13.990  -4.675  1.00 20.00     0.134 C 
HETATM    6  O10 UNL     1     -35.108  12.818  -4.309  1.00 20.00    -0.297 OA
BRANCH   5   7
HETATM    7  C7  UNL     1     -36.523  14.614  -5.013  1.00 20.00     0.081 C 
HETATM    8  C4  UNL     1     -36.313  16.032  -5.496  1.00 20.00     0.040 C 
HETATM    9  C5  UNL     1     -37.447  16.786  -4.843  1.00 20.00     0.168 C 
HETATM   10  O11 UNL     1     -37.632  16.155  -3.576  1.00 20.00    -0.390 OA
HETATM   11  C6  UNL     1     -37.360  14.757  -3.754  1.00 20.00     0.179 C 
ENDBRANCH   5   7
ENDBRANCH   4   5
ENDBRANCH   3   4
TORSDOF 3
ENDMDL
