MODEL 1
REMARK VINA RESULT:      -5.4      0.000      0.000
REMARK  2 active torsions:
REMARK  status: ('A' for Active; 'I' for Inactive)
REMARK    1  A    between atoms: C1_1  and  C7_7 
REMARK    2  A    between atoms: C6_6  and  C10_10 
ROOT
HETATM    1  C2  UNL     1     -34.307  17.080  -5.032  1.00 20.00     0.002 C 
HETATM    2  C3  UNL     1     -33.779  17.589  -3.694  1.00 20.00     0.005 C 
HETATM    3  C4  UNL     1     -34.105  15.573  -5.183  1.00 20.00     0.020 C 
HETATM    4  C5  UNL     1     -34.184  15.315  -2.664  1.00 20.00     0.025 C 
HETATM    5  C6  UNL     1     -34.393  16.830  -2.510  1.00 20.00    -0.014 C 
HETATM    6  C7  UNL     1     -34.698  14.786  -4.009  1.00 20.00     0.045 C 
HETATM    7  C8  UNL     1     -36.222  14.705  -4.067  1.00 20.00     0.027 C 
ENDROOT
BRANCH   6   8
HETATM    8  C1  UNL     1     -34.184  13.359  -4.177  1.00 20.00     0.181 C 
HETATM    9  O11 UNL     1     -34.957  12.577  -4.797  1.00 20.00    -0.647 OA
HETATM   10  O12 UNL     1     -33.047  13.143  -3.672  1.00 20.00    -0.647 OA
ENDBRANCH   6   8
BRANCH   5  11
HETATM   11  C10 UNL     1     -33.798  17.323  -1.190  1.00 20.00     0.000 C 
HETATM   12  C9  UNL     1     -34.760  17.161  -0.059  1.00 20.00     0.005 C 
ENDBRANCH   5  11
TORSDOF 2
ENDMDL
MODEL 2
REMARK VINA RESULT:      -5.2      1.206      3.215
REMARK  2 active torsions:
REMARK  status: ('A' for Active; 'I' for Inactive)
REMARK    1  A    between atoms: C1_1  and  C7_7 
REMARK    2  A    between atoms: C6_6  and  C10_10 
ROOT
HETATM    1  C2  UNL     1     -33.984  16.644  -2.214  1.00 20.00     0.002 C 
HETATM    2  C3  UNL     1     -34.006  17.622  -3.386  1.00 20.00     0.005 C 
HETATM    3  C4  UNL     1     -34.810  15.393  -2.507  1.00 20.00     0.020 C 
HETATM    4  C5  UNL     1     -34.393  15.703  -4.986  1.00 20.00     0.025 C 
HETATM    5  C6  UNL     1     -33.555  16.958  -4.694  1.00 20.00    -0.014 C 
HETATM    6  C7  UNL     1     -34.392  14.712  -3.814  1.00 20.00     0.045 C 
HETATM    7  C8  UNL     1     -33.074  13.952  -3.686  1.00 20.00     0.027 C 
ENDROOT
BRANCH   6   8
HETATM    8  C1  UNL     1     -35.468  13.664  -4.088  1.00 20.00     0.181 C 
HETATM    9  O11 UNL     1     -35.047  12.566  -4.546  1.00 20.00    -0.647 OA
HETATM   10  O12 UNL     1     -36.646  14.032  -3.818  1.00 20.00    -0.647 OA
ENDBRANCH   6   8
BRANCH   5  11
HETATM   11  C10 UNL     1     -33.647  17.947  -5.857  1.00 20.00     0.000 C 
HETATM   12  C9  UNL     1     -34.424  17.381  -7.000  1.00 20.00     0.005 C 
ENDBRANCH   5  11
TORSDOF 2
ENDMDL
MODEL 3
REMARK VINA RESULT:      -4.8      2.194      3.024
REMARK  2 active torsions:
REMARK  status: ('A' for Active; 'I' for Inactive)
REMARK    1  A    between atoms: C1_1  and  C7_7 
REMARK    2  A    between atoms: C6_6  and  C10_10 
ROOT
HETATM    1  C2  UNL     1     -34.068  13.547  -4.466  1.00 20.00     0.002 C 
HETATM    2  C3  UNL     1     -33.611  14.396  -3.283  1.00 20.00     0.005 C 
HETATM    3  C4  UNL     1     -35.586  13.575  -4.628  1.00 20.00     0.020 C 
HETATM    4  C5  UNL     1     -35.656  15.861  -3.539  1.00 20.00     0.025 C 
HETATM    5  C6  UNL     1     -34.127  15.839  -3.380  1.00 20.00    -0.014 C 
HETATM    6  C7  UNL     1     -36.135  15.003  -4.717  1.00 20.00     0.045 C 
HETATM    7  C8  UNL     1     -35.862  15.654  -6.071  1.00 20.00     0.027 C 
ENDROOT
BRANCH   6   8
HETATM    8  C1  UNL     1     -37.651  14.862  -4.606  1.00 20.00     0.181 C 
HETATM    9  O11 UNL     1     -38.062  14.230  -3.593  1.00 20.00    -0.647 OA
HETATM   10  O12 UNL     1     -38.302  15.399  -5.545  1.00 20.00    -0.647 OA
ENDBRANCH   6   8
BRANCH   5  11
HETATM   11  C10 UNL     1     -33.703  16.644  -2.152  1.00 20.00     0.000 C 
HETATM   12  C9  UNL     1     -34.693  16.516  -1.041  1.00 20.00     0.005 C 
ENDBRANCH   5  11
TORSDOF 2
ENDMDL
MODEL 4
REMARK VINA RESULT:      -4.7      1.833      2.717
REMARK  2 active torsions:
REMARK  status: ('A' for Active; 'I' for Inactive)
REMARK    1  A    between atoms: C1_1  and  C7_7 
REMARK    2  A    between atoms: C6_6  and  C10_10 
ROOT
HETATM    1  C2  UNL     1     -37.015  14.934  -3.637  1.00 20.00     0.002 C 
HETATM    2  C3  UNL     1     -36.185  15.882  -2.776  1.00 20.00     0.005 C 
HETATM    3  C4  UNL     1     -36.533  14.919  -5.086  1.00 20.00     0.020 C 
HETATM    4  C5  UNL     1     -34.206  15.554  -4.315  1.00 20.00     0.025 C 
HETATM    5  C6  UNL     1     -34.686  15.563  -2.855  1.00 20.00    -0.014 C 
HETATM    6  C7  UNL     1     -35.036  14.615  -5.199  1.00 20.00     0.045 C 
HETATM    7  C8  UNL     1     -34.716  13.141  -4.956  1.00 20.00     0.027 C 
ENDROOT
BRANCH   6   8
HETATM    8  C1  UNL     1     -34.672  14.899  -6.654  1.00 20.00     0.181 C 
HETATM    9  O11 UNL     1     -33.818  15.811  -6.828  1.00 20.00    -0.647 OA
HETATM   10  O12 UNL     1     -35.276  14.181  -7.500  1.00 20.00    -0.647 OA
ENDBRANCH   6   8
BRANCH   5  11
HETATM   11  C10 UNL     1     -33.880  16.568  -2.031  1.00 20.00     0.000 C 
HETATM   12  C9  UNL     1     -34.512  16.822  -0.702  1.00 20.00     0.005 C 
ENDBRANCH   5  11
TORSDOF 2
ENDMDL
MODEL 5
REMARK VINA RESULT:      -4.7      1.234      2.908
REMARK  2 active torsions:
REMARK  status: ('A' for Active; 'I' for Inactive)
REMARK    1  A    between atoms: C1_1  and  C7_7 
REMARK    2  A    between atoms: C6_6  and  C10_10 
ROOT
HETATM    1  C2  UNL     1     -34.238  16.897  -2.611  1.00 20.00     0.002 C 
HETATM    2  C3  UNL     1     -35.749  16.943  -2.400  1.00 20.00     0.005 C 
HETATM    3  C4  UNL     1     -33.757  15.484  -2.936  1.00 20.00     0.020 C 
HETATM    4  C5  UNL     1     -36.027  14.940  -3.917  1.00 20.00     0.025 C 
HETATM    5  C6  UNL     1     -36.513  16.363  -3.598  1.00 20.00    -0.014 C 
HETATM    6  C7  UNL     1     -34.509  14.871  -4.121  1.00 20.00     0.045 C 
HETATM    7  C8  UNL     1     -34.067  15.454  -5.463  1.00 20.00     0.027 C 
ENDROOT
BRANCH   6   8
HETATM    8  C1  UNL     1     -34.106  13.399  -4.140  1.00 20.00     0.181 C 
HETATM    9  O11 UNL     1     -32.929  13.157  -3.755  1.00 20.00    -0.647 OA
HETATM   10  O12 UNL     1     -35.007  12.608  -4.539  1.00 20.00    -0.647 OA
ENDBRANCH   6   8
BRANCH   5  11
HETATM   11  C10 UNL     1     -38.018  16.368  -3.327  1.00 20.00     0.000 C 
HETATM   12  C9  UNL     1     -38.643  15.056  -3.668  1.00 20.00     0.005 C 
ENDBRANCH   5  11
TORSDOF 2
ENDMDL
MODEL 6
REMARK VINA RESULT:      -4.7      1.370      1.853
REMARK  2 active torsions:
REMARK  status: ('A' for Active; 'I' for Inactive)
REMARK    1  A    between atoms: C1_1  and  C7_7 
REMARK    2  A    between atoms: C6_6  and  C10_10 
ROOT
HETATM    1  C2  UNL     1     -33.820  16.410  -5.463  1.00 20.00     0.002 C 
HETATM    2  C3  UNL     1     -33.264  16.819  -4.101  1.00 20.00     0.005 C 
HETATM    3  C4  UNL     1     -34.750  15.203  -5.354  1.00 20.00     0.020 C 
HETATM    4  C5  UNL     1     -35.311  15.856  -2.972  1.00 20.00     0.025 C 
HETATM    5  C6  UNL     1     -34.381  17.075  -3.080  1.00 20.00    -0.014 C 
HETATM    6  C7  UNL     1     -35.871  15.422  -4.332  1.00 20.00     0.045 C 
HETATM    7  C8  UNL     1     -36.960  16.361  -4.847  1.00 20.00     0.027 C 
ENDROOT
BRANCH   6   8
HETATM    8  C1  UNL     1     -36.529  14.057  -4.154  1.00 20.00     0.181 C 
HETATM    9  O11 UNL     1     -35.776  13.065  -4.354  1.00 20.00    -0.647 OA
HETATM   10  O12 UNL     1     -37.749  14.097  -3.827  1.00 20.00    -0.647 OA
ENDBRANCH   6   8
BRANCH   5  11
HETATM   11  C10 UNL     1     -33.788  17.421  -1.714  1.00 20.00     0.000 C 
HETATM   12  C9  UNL     1     -34.572  16.804  -0.602  1.00 20.00     0.005 C 
ENDBRANCH   5  11
TORSDOF 2
ENDMDL
MODEL 7
REMARK VINA RESULT:      -4.7      1.772      3.726
REMARK  2 active torsions:
REMARK  status: ('A' for Active; 'I' for Inactive)
REMARK    1  A    between atoms: C1_1  and  C7_7 
REMARK    2  A    between atoms: C6_6  and  C10_10 
ROOT
HETATM    1  C2  UNL     1     -36.359  16.335  -3.987  1.00 20.00     0.002 C 
HETATM    2  C3  UNL     1     -36.311  16.732  -5.460  1.00 20.00     0.005 C 
HETATM    3  C4  UNL     1     -35.768  14.945  -3.757  1.00 20.00     0.020 C 
HETATM    4  C5  UNL     1     -34.303  15.236  -5.802  1.00 20.00     0.025 C 
HETATM    5  C6  UNL     1     -34.891  16.637  -6.033  1.00 20.00    -0.014 C 
HETATM    6  C7  UNL     1     -34.352  14.814  -4.329  1.00 20.00     0.045 C 
HETATM    7  C8  UNL     1     -33.305  15.527  -3.475  1.00 20.00     0.027 C 
ENDROOT
BRANCH   6   8
HETATM    8  C1  UNL     1     -34.023  13.325  -4.257  1.00 20.00     0.181 C 
HETATM    9  O11 UNL     1     -32.916  13.042  -3.722  1.00 20.00    -0.647 OA
HETATM   10  O12 UNL     1     -34.906  12.564  -4.745  1.00 20.00    -0.647 OA
ENDBRANCH   6   8
BRANCH   5  11
HETATM   11  C10 UNL     1     -34.890  16.982  -7.522  1.00 20.00     0.000 C 
HETATM   12  C9  UNL     1     -34.358  18.355  -7.768  1.00 20.00     0.005 C 
ENDBRANCH   5  11
TORSDOF 2
ENDMDL
MODEL 8
REMARK VINA RESULT:      -4.6      1.729      2.366
REMARK  2 active torsions:
REMARK  status: ('A' for Active; 'I' for Inactive)
REMARK    1  A    between atoms: C1_1  and  C7_7 
REMARK    2  A    between atoms: C6_6  and  C10_10 
ROOT
HETATM    1  C2  UNL     1     -36.259  17.599  -3.317  1.00 20.00     0.002 C 
HETATM    2  C3  UNL     1     -35.868  18.093  -1.927  1.00 20.00     0.005 C 
HETATM    3  C4  UNL     1     -35.056  17.047  -4.079  1.00 20.00     0.020 C 
HETATM    4  C5  UNL     1     -33.940  16.459  -1.883  1.00 20.00     0.025 C 
HETATM    5  C6  UNL     1     -35.152  17.007  -1.113  1.00 20.00    -0.014 C 
HETATM    6  C7  UNL     1     -34.311  15.967  -3.288  1.00 20.00     0.045 C 
HETATM    7  C8  UNL     1     -35.057  14.634  -3.268  1.00 20.00     0.027 C 
ENDROOT
BRANCH   6   8
HETATM    8  C1  UNL     1     -33.015  15.723  -4.056  1.00 20.00     0.181 C 
HETATM    9  O11 UNL     1     -32.296  14.783  -3.616  1.00 20.00    -0.647 OA
HETATM   10  O12 UNL     1     -32.828  16.496  -5.037  1.00 20.00    -0.647 OA
ENDBRANCH   6   8
BRANCH   5  11
HETATM   11  C10 UNL     1     -34.720  17.554   0.248  1.00 20.00     0.000 C 
HETATM   12  C9  UNL     1     -33.414  18.274   0.162  1.00 20.00     0.005 C 
ENDBRANCH   5  11
TORSDOF 2
ENDMDL
MODEL 9
REMARK VINA RESULT:      -4.6      2.405      4.127
REMARK  2 active torsions:
REMARK  status: ('A' for Active; 'I' for Inactive)
REMARK    1  A    between atoms: C1_1  and  C7_7 
REMARK    2  A    between atoms: C6_6  and  C10_10 
ROOT
HETATM    1  C2  UNL     1     -34.096  13.780  -3.545  1.00 20.00     0.002 C 
HETATM    2  C3  UNL     1     -35.468  13.730  -4.212  1.00 20.00     0.005 C 
HETATM    3  C4  UNL     1     -33.468  15.169  -3.649  1.00 20.00     0.020 C 
HETATM    4  C5  UNL     1     -35.779  16.199  -3.769  1.00 20.00     0.025 C 
HETATM    5  C6  UNL     1     -36.414  14.804  -3.658  1.00 20.00    -0.014 C 
HETATM    6  C7  UNL     1     -34.393  16.267  -3.115  1.00 20.00     0.045 C 
HETATM    7  C8  UNL     1     -34.462  16.285  -1.589  1.00 20.00     0.027 C 
ENDROOT
BRANCH   6   8
HETATM    8  C1  UNL     1     -33.743  17.583  -3.531  1.00 20.00     0.181 C 
HETATM    9  O11 UNL     1     -33.392  17.653  -4.741  1.00 20.00    -0.647 OA
HETATM   10  O12 UNL     1     -33.639  18.438  -2.607  1.00 20.00    -0.647 OA
ENDBRANCH   6   8
BRANCH   5  11
HETATM   11  C10 UNL     1     -37.756  14.765  -4.389  1.00 20.00     0.000 C 
HETATM   12  C9  UNL     1     -38.884  15.148  -3.488  1.00 20.00     0.005 C 
ENDBRANCH   5  11
TORSDOF 2
ENDMDL
