MODEL 1
REMARK VINA RESULT:      -4.7      0.000      0.000
REMARK  5 active torsions:
REMARK  status: ('A' for Active; 'I' for Inactive)
REMARK    1  A    between atoms: C1_1  and  C5_5 
REMARK    2  A    between atoms: C1_1  and  C9_9 
REMARK    3  A    between atoms: C6_6  and  C10_10 
REMARK    4  A    between atoms: C9_9  and  C12_12 
REMARK    5  A    between atoms: C11_11  and  C12_12 
ROOT
HETATM    1  C2  UNL     1     -33.928  15.985  -6.124  1.00 20.00     0.012 C 
HETATM    2  C3  UNL     1     -34.972  16.894  -6.758  1.00 20.00     0.005 C 
HETATM    3  C4  UNL     1     -35.967  14.720  -6.644  1.00 20.00     0.016 C 
HETATM    4  C5  UNL     1     -34.491  14.569  -6.258  1.00 20.00     0.056 C 
HETATM    5  C6  UNL     1     -36.304  16.205  -6.471  1.00 20.00    -0.014 C 
ENDROOT
BRANCH   4   6
HETATM    6  C1  UNL     1     -34.354  13.802  -4.979  1.00 20.00     0.131 C 
HETATM    7  O13 UNL     1     -34.833  12.672  -4.831  1.00 20.00    -0.298 OA
BRANCH   6   8
HETATM    8  C9  UNL     1     -33.587  14.490  -3.859  1.00 20.00     0.079 C 
BRANCH   8   9
HETATM    9  C12 UNL     1     -34.498  15.003  -2.745  1.00 20.00     0.007 C 
BRANCH   9  10
HETATM   10  C11 UNL     1     -34.046  16.375  -2.245  1.00 20.00    -0.004 C 
HETATM   11  C8  UNL     1     -34.600  16.673  -0.861  1.00 20.00     0.005 C 
ENDBRANCH   9  10
ENDBRANCH   8   9
ENDBRANCH   6   8
ENDBRANCH   4   6
BRANCH   5  12
HETATM   12  C10 UNL     1     -36.833  16.522  -5.074  1.00 20.00     0.000 C 
HETATM   13  C7  UNL     1     -37.714  15.432  -4.549  1.00 20.00     0.005 C 
ENDBRANCH   5  12
TORSDOF 5
ENDMDL
MODEL 2
REMARK VINA RESULT:      -4.6      1.652      3.129
REMARK  5 active torsions:
REMARK  status: ('A' for Active; 'I' for Inactive)
REMARK    1  A    between atoms: C1_1  and  C5_5 
REMARK    2  A    between atoms: C1_1  and  C9_9 
REMARK    3  A    between atoms: C6_6  and  C10_10 
REMARK    4  A    between atoms: C9_9  and  C12_12 
REMARK    5  A    between atoms: C11_11  and  C12_12 
ROOT
HETATM    1  C2  UNL     1     -33.848  13.781  -3.846  1.00 20.00     0.012 C 
HETATM    2  C3  UNL     1     -34.702  13.122  -4.920  1.00 20.00     0.005 C 
HETATM    3  C4  UNL     1     -35.669  15.277  -4.534  1.00 20.00     0.016 C 
HETATM    4  C5  UNL     1     -34.600  15.055  -3.457  1.00 20.00     0.056 C 
HETATM    5  C6  UNL     1     -35.352  14.288  -5.660  1.00 20.00    -0.014 C 
ENDROOT
BRANCH   4   6
HETATM    6  C1  UNL     1     -33.679  16.232  -3.376  1.00 20.00     0.131 C 
HETATM    7  O13 UNL     1     -32.933  16.555  -4.306  1.00 20.00    -0.298 OA
BRANCH   6   8
HETATM    8  C9  UNL     1     -33.708  17.023  -2.075  1.00 20.00     0.079 C 
BRANCH   8   9
HETATM    9  C12 UNL     1     -34.702  16.460  -1.061  1.00 20.00     0.007 C 
BRANCH   9  10
HETATM   10  C11 UNL     1     -34.792  17.346   0.181  1.00 20.00    -0.004 C 
HETATM   11  C8  UNL     1     -33.640  18.337   0.242  1.00 20.00     0.005 C 
ENDBRANCH   9  10
ENDBRANCH   8   9
ENDBRANCH   6   8
ENDBRANCH   4   6
BRANCH   5  12
HETATM   12  C10 UNL     1     -34.431  14.890  -6.720  1.00 20.00     0.000 C 
HETATM   13  C7  UNL     1     -34.938  16.207  -7.219  1.00 20.00     0.005 C 
ENDBRANCH   5  12
TORSDOF 5
ENDMDL
MODEL 3
REMARK VINA RESULT:      -4.6      1.441      4.225
REMARK  5 active torsions:
REMARK  status: ('A' for Active; 'I' for Inactive)
REMARK    1  A    between atoms: C1_1  and  C5_5 
REMARK    2  A    between atoms: C1_1  and  C9_9 
REMARK    3  A    between atoms: C6_6  and  C10_10 
REMARK    4  A    between atoms: C9_9  and  C12_12 
REMARK    5  A    between atoms: C11_11  and  C12_12 
ROOT
HETATM    1  C2  UNL     1     -35.410  17.337  -3.897  1.00 20.00     0.012 C 
HETATM    2  C3  UNL     1     -34.093  17.532  -3.159  1.00 20.00     0.005 C 
HETATM    3  C4  UNL     1     -35.035  15.503  -2.308  1.00 20.00     0.016 C 
HETATM    4  C5  UNL     1     -36.097  16.166  -3.193  1.00 20.00     0.056 C 
HETATM    5  C6  UNL     1     -33.695  16.129  -2.708  1.00 20.00    -0.014 C 
ENDROOT
BRANCH   4   6
HETATM    6  C1  UNL     1     -36.653  15.184  -4.177  1.00 20.00     0.131 C 
HETATM    7  O13 UNL     1     -37.287  14.183  -3.827  1.00 20.00    -0.298 OA
BRANCH   6   8
HETATM    8  C9  UNL     1     -36.396  15.483  -5.647  1.00 20.00     0.079 C 
BRANCH   8   9
HETATM    9  C12 UNL     1     -35.605  14.380  -6.347  1.00 20.00     0.007 C 
BRANCH   9  10
HETATM   10  C11 UNL     1     -34.473  14.959  -7.195  1.00 20.00    -0.004 C 
HETATM   11  C8  UNL     1     -34.551  16.476  -7.267  1.00 20.00     0.005 C 
ENDBRANCH   9  10
ENDBRANCH   8   9
ENDBRANCH   6   8
ENDBRANCH   4   6
BRANCH   5  12
HETATM   12  C10 UNL     1     -32.993  15.341  -3.813  1.00 20.00     0.000 C 
HETATM   13  C7  UNL     1     -33.175  13.865  -3.649  1.00 20.00     0.005 C 
ENDBRANCH   5  12
TORSDOF 5
ENDMDL
MODEL 4
REMARK VINA RESULT:      -4.5      1.160      3.842
REMARK  5 active torsions:
REMARK  status: ('A' for Active; 'I' for Inactive)
REMARK    1  A    between atoms: C1_1  and  C5_5 
REMARK    2  A    between atoms: C1_1  and  C9_9 
REMARK    3  A    between atoms: C6_6  and  C10_10 
REMARK    4  A    between atoms: C9_9  and  C12_12 
REMARK    5  A    between atoms: C11_11  and  C12_12 
ROOT
HETATM    1  C2  UNL     1     -35.040  15.488  -2.752  1.00 20.00     0.012 C 
HETATM    2  C3  UNL     1     -33.865  16.448  -2.623  1.00 20.00     0.005 C 
HETATM    3  C4  UNL     1     -33.016  14.507  -3.735  1.00 20.00     0.016 C 
HETATM    4  C5  UNL     1     -34.437  14.179  -3.261  1.00 20.00     0.056 C 
HETATM    5  C6  UNL     1     -32.910  16.035  -3.739  1.00 20.00    -0.014 C 
ENDROOT
BRANCH   4   6
HETATM    6  C1  UNL     1     -35.247  13.601  -4.380  1.00 20.00     0.131 C 
HETATM    7  O13 UNL     1     -34.999  12.496  -4.874  1.00 20.00    -0.298 OA
BRANCH   6   8
HETATM    8  C9  UNL     1     -36.405  14.451  -4.883  1.00 20.00     0.079 C 
BRANCH   8   9
HETATM    9  C12 UNL     1     -36.247  14.863  -6.345  1.00 20.00     0.007 C 
BRANCH   9  10
HETATM   10  C11 UNL     1     -36.577  16.342  -6.545  1.00 20.00    -0.004 C 
HETATM   11  C8  UNL     1     -37.239  16.936  -5.312  1.00 20.00     0.005 C 
ENDBRANCH   9  10
ENDBRANCH   8   9
ENDBRANCH   6   8
ENDBRANCH   4   6
BRANCH   5  12
HETATM   12  C10 UNL     1     -33.295  16.641  -5.088  1.00 20.00     0.000 C 
HETATM   13  C7  UNL     1     -33.560  18.110  -4.987  1.00 20.00     0.005 C 
ENDBRANCH   5  12
TORSDOF 5
ENDMDL
MODEL 5
REMARK VINA RESULT:      -4.4      1.217      2.221
REMARK  5 active torsions:
REMARK  status: ('A' for Active; 'I' for Inactive)
REMARK    1  A    between atoms: C1_1  and  C5_5 
REMARK    2  A    between atoms: C1_1  and  C9_9 
REMARK    3  A    between atoms: C6_6  and  C10_10 
REMARK    4  A    between atoms: C9_9  and  C12_12 
REMARK    5  A    between atoms: C11_11  and  C12_12 
ROOT
HETATM    1  C2  UNL     1     -34.789  14.096  -6.280  1.00 20.00     0.012 C 
HETATM    2  C3  UNL     1     -34.808  15.230  -7.296  1.00 20.00     0.005 C 
HETATM    3  C4  UNL     1     -35.897  16.074  -5.339  1.00 20.00     0.016 C 
HETATM    4  C5  UNL     1     -35.673  14.572  -5.127  1.00 20.00     0.056 C 
HETATM    5  C6  UNL     1     -34.933  16.496  -6.453  1.00 20.00    -0.014 C 
ENDROOT
BRANCH   4   6
HETATM    6  C1  UNL     1     -35.029  14.316  -3.800  1.00 20.00     0.131 C 
HETATM    7  O13 UNL     1     -34.453  13.255  -3.538  1.00 20.00    -0.298 OA
BRANCH   6   8
HETATM    8  C9  UNL     1     -35.118  15.441  -2.778  1.00 20.00     0.079 C 
BRANCH   8   9
HETATM    9  C12 UNL     1     -33.751  16.006  -2.398  1.00 20.00     0.007 C 
BRANCH   9  10
HETATM   10  C11 UNL     1     -33.888  17.239  -1.505  1.00 20.00    -0.004 C 
HETATM   11  C8  UNL     1     -34.775  16.960  -0.302  1.00 20.00     0.005 C 
ENDBRANCH   9  10
ENDBRANCH   8   9
ENDBRANCH   6   8
ENDBRANCH   4   6
BRANCH   5  12
HETATM   12  C10 UNL     1     -33.586  16.968  -5.907  1.00 20.00     0.000 C 
HETATM   13  C7  UNL     1     -33.687  18.309  -5.251  1.00 20.00     0.005 C 
ENDBRANCH   5  12
TORSDOF 5
ENDMDL
MODEL 6
REMARK VINA RESULT:      -4.3      1.594      1.859
REMARK  5 active torsions:
REMARK  status: ('A' for Active; 'I' for Inactive)
REMARK    1  A    between atoms: C1_1  and  C5_5 
REMARK    2  A    between atoms: C1_1  and  C9_9 
REMARK    3  A    between atoms: C6_6  and  C10_10 
REMARK    4  A    between atoms: C9_9  and  C12_12 
REMARK    5  A    between atoms: C11_11  and  C12_12 
ROOT
HETATM    1  C2  UNL     1     -34.389  15.131  -6.943  1.00 20.00     0.012 C 
HETATM    2  C3  UNL     1     -35.849  14.909  -7.319  1.00 20.00     0.005 C 
HETATM    3  C4  UNL     1     -35.693  14.465  -4.972  1.00 20.00     0.016 C 
HETATM    4  C5  UNL     1     -34.264  14.635  -5.502  1.00 20.00     0.056 C 
HETATM    5  C6  UNL     1     -36.614  15.109  -6.014  1.00 20.00    -0.014 C 
ENDROOT
BRANCH   4   6
HETATM    6  C1  UNL     1     -33.498  15.603  -4.654  1.00 20.00     0.131 C 
HETATM    7  O13 UNL     1     -32.873  16.554  -5.136  1.00 20.00    -0.298 OA
BRANCH   6   8
HETATM    8  C9  UNL     1     -33.529  15.356  -3.153  1.00 20.00     0.079 C 
BRANCH   8   9
HETATM    9  C12 UNL     1     -33.789  16.628  -2.347  1.00 20.00     0.007 C 
BRANCH   9  10
HETATM   10  C11 UNL     1     -34.792  16.378  -1.221  1.00 20.00    -0.004 C 
HETATM   11  C8  UNL     1     -34.599  17.359  -0.076  1.00 20.00     0.005 C 
ENDBRANCH   9  10
ENDBRANCH   8   9
ENDBRANCH   6   8
ENDBRANCH   4   6
BRANCH   5  12
HETATM   12  C10 UNL     1     -36.884  16.583  -5.718  1.00 20.00     0.000 C 
HETATM   13  C7  UNL     1     -37.066  16.836  -4.254  1.00 20.00     0.005 C 
ENDBRANCH   5  12
TORSDOF 5
ENDMDL
MODEL 7
REMARK VINA RESULT:      -4.3      1.897      2.616
REMARK  5 active torsions:
REMARK  status: ('A' for Active; 'I' for Inactive)
REMARK    1  A    between atoms: C1_1  and  C5_5 
REMARK    2  A    between atoms: C1_1  and  C9_9 
REMARK    3  A    between atoms: C6_6  and  C10_10 
REMARK    4  A    between atoms: C9_9  and  C12_12 
REMARK    5  A    between atoms: C11_11  and  C12_12 
ROOT
HETATM    1  C2  UNL     1     -33.721  16.345  -6.089  1.00 20.00     0.012 C 
HETATM    2  C3  UNL     1     -34.380  15.164  -6.788  1.00 20.00     0.005 C 
HETATM    3  C4  UNL     1     -34.072  14.499  -4.510  1.00 20.00     0.016 C 
HETATM    4  C5  UNL     1     -33.335  15.830  -4.703  1.00 20.00     0.056 C 
HETATM    5  C6  UNL     1     -35.071  14.393  -5.667  1.00 20.00    -0.014 C 
ENDROOT
BRANCH   4   6
HETATM    6  C1  UNL     1     -33.713  16.804  -3.630  1.00 20.00     0.131 C 
HETATM    7  O13 UNL     1     -33.916  18.000  -3.865  1.00 20.00    -0.298 OA
BRANCH   6   8
HETATM    8  C9  UNL     1     -33.839  16.241  -2.222  1.00 20.00     0.079 C 
BRANCH   8   9
HETATM    9  C12 UNL     1     -35.076  16.753  -1.487  1.00 20.00     0.007 C 
BRANCH   9  10
HETATM   10  C11 UNL     1     -34.737  17.184  -0.060  1.00 20.00    -0.004 C 
HETATM   11  C8  UNL     1     -33.584  18.175  -0.037  1.00 20.00     0.005 C 
ENDBRANCH   9  10
ENDBRANCH   8   9
ENDBRANCH   6   8
ENDBRANCH   4   6
BRANCH   5  12
HETATM   12  C10 UNL     1     -36.435  14.982  -5.311  1.00 20.00     0.000 C 
HETATM   13  C7  UNL     1     -36.881  14.574  -3.942  1.00 20.00     0.005 C 
ENDBRANCH   5  12
TORSDOF 5
ENDMDL
MODEL 8
REMARK VINA RESULT:      -4.2      2.014      3.973
REMARK  5 active torsions:
REMARK  status: ('A' for Active; 'I' for Inactive)
REMARK    1  A    between atoms: C1_1  and  C5_5 
REMARK    2  A    between atoms: C1_1  and  C9_9 
REMARK    3  A    between atoms: C6_6  and  C10_10 
REMARK    4  A    between atoms: C9_9  and  C12_12 
REMARK    5  A    between atoms: C11_11  and  C12_12 
ROOT
HETATM    1  C2  UNL     1     -33.880  14.200  -4.269  1.00 20.00     0.012 C 
HETATM    2  C3  UNL     1     -35.150  13.374  -4.106  1.00 20.00     0.005 C 
HETATM    3  C4  UNL     1     -35.509  15.392  -2.871  1.00 20.00     0.016 C 
HETATM    4  C5  UNL     1     -34.038  15.376  -3.304  1.00 20.00     0.056 C 
HETATM    5  C6  UNL     1     -36.234  14.399  -3.785  1.00 20.00    -0.014 C 
ENDROOT
BRANCH   4   6
HETATM    6  C1  UNL     1     -33.664  16.672  -3.954  1.00 20.00     0.131 C 
HETATM    7  O13 UNL     1     -33.612  17.736  -3.327  1.00 20.00    -0.298 OA
BRANCH   6   8
HETATM    8  C9  UNL     1     -33.347  16.614  -5.441  1.00 20.00     0.079 C 
BRANCH   8   9
HETATM    9  C12 UNL     1     -34.253  17.517  -6.276  1.00 20.00     0.007 C 
BRANCH   9  10
HETATM   10  C11 UNL     1     -34.608  16.866  -7.613  1.00 20.00    -0.004 C 
HETATM   11  C8  UNL     1     -34.458  15.354  -7.553  1.00 20.00     0.005 C 
ENDBRANCH   9  10
ENDBRANCH   8   9
ENDBRANCH   6   8
ENDBRANCH   4   6
BRANCH   5  12
HETATM   12  C10 UNL     1     -36.794  15.067  -5.040  1.00 20.00     0.000 C 
HETATM   13  C7  UNL     1     -37.404  16.399  -4.739  1.00 20.00     0.005 C 
ENDBRANCH   5  12
TORSDOF 5
ENDMDL
MODEL 9
REMARK VINA RESULT:      -4.2      1.776      4.146
REMARK  5 active torsions:
REMARK  status: ('A' for Active; 'I' for Inactive)
REMARK    1  A    between atoms: C1_1  and  C5_5 
REMARK    2  A    between atoms: C1_1  and  C9_9 
REMARK    3  A    between atoms: C6_6  and  C10_10 
REMARK    4  A    between atoms: C9_9  and  C12_12 
REMARK    5  A    between atoms: C11_11  and  C12_12 
ROOT
HETATM    1  C2  UNL     1     -34.719  16.292  -1.461  1.00 20.00     0.012 C 
HETATM    2  C3  UNL     1     -33.897  17.571  -1.559  1.00 20.00     0.005 C 
HETATM    3  C4  UNL     1     -33.631  16.450  -3.657  1.00 20.00     0.016 C 
HETATM    4  C5  UNL     1     -34.366  15.489  -2.713  1.00 20.00     0.056 C 
HETATM    5  C6  UNL     1     -33.800  17.849  -3.057  1.00 20.00    -0.014 C 
ENDROOT
BRANCH   4   6
HETATM    6  C1  UNL     1     -35.590  14.935  -3.372  1.00 20.00     0.131 C 
HETATM    7  O13 UNL     1     -36.671  15.535  -3.374  1.00 20.00    -0.298 OA
BRANCH   6   8
HETATM    8  C9  UNL     1     -35.437  13.580  -4.049  1.00 20.00     0.079 C 
BRANCH   8   9
HETATM    9  C12 UNL     1     -34.575  13.640  -5.308  1.00 20.00     0.007 C 
BRANCH   9  10
HETATM   10  C11 UNL     1     -35.285  14.389  -6.434  1.00 20.00    -0.004 C 
HETATM   11  C8  UNL     1     -34.332  15.310  -7.178  1.00 20.00     0.005 C 
ENDBRANCH   9  10
ENDBRANCH   8   9
ENDBRANCH   6   8
ENDBRANCH   4   6
BRANCH   5  12
HETATM   12  C10 UNL     1     -35.036  18.567  -3.596  1.00 20.00     0.000 C 
HETATM   13  C7  UNL     1     -35.238  18.312  -5.057  1.00 20.00     0.005 C 
ENDBRANCH   5  12
TORSDOF 5
ENDMDL
