MODEL 1
REMARK VINA RESULT:      -5.2      0.000      0.000
REMARK  3 active torsions:
REMARK  status: ('A' for Active; 'I' for Inactive)
REMARK    1  A    between atoms: C6_6  and  C11_11 
REMARK    2  A    between atoms: C7_7  and  C12_12 
REMARK    3  A    between atoms: C12_12  and  C13_13 
ROOT
HETATM    1  C1  UNL     1     -33.769  14.276  -3.649  1.00 20.00     0.069 C 
HETATM    2  C2  UNL     1     -36.722  15.007  -4.373  1.00 20.00     0.002 C 
HETATM    3  C3  UNL     1     -36.528  15.939  -5.564  1.00 20.00     0.005 C 
HETATM    4  C4  UNL     1     -35.893  15.458  -3.170  1.00 20.00     0.024 C 
HETATM    5  C5  UNL     1     -34.180  16.468  -4.755  1.00 20.00     0.029 C 
HETATM    6  C6  UNL     1     -35.057  16.098  -5.967  1.00 20.00    -0.013 C 
HETATM    7  C7  UNL     1     -34.390  15.610  -3.485  1.00 20.00     0.050 C 
HETATM    8  N14 UNL     1     -33.283  13.230  -3.777  1.00 20.00    -0.196 NA
ENDROOT
BRANCH   7   9
HETATM    9  C12 UNL     1     -33.695  16.298  -2.294  1.00 20.00     0.028 C 
BRANCH   9  10
HETATM   10  C13 UNL     1     -34.562  17.375  -1.637  1.00 20.00    -0.021 C 
HETATM   11  C9  UNL     1     -34.770  17.134  -0.141  1.00 20.00     0.009 C 
HETATM   12  C10 UNL     1     -33.916  18.746  -1.855  1.00 20.00     0.009 C 
ENDBRANCH   9  10
ENDBRANCH   7   9
BRANCH   6  13
HETATM   13  C11 UNL     1     -34.543  14.873  -6.728  1.00 20.00     0.000 C 
HETATM   14  C8  UNL     1     -35.430  14.526  -7.877  1.00 20.00     0.005 C 
ENDBRANCH   6  13
TORSDOF 3
ENDMDL
MODEL 2
REMARK VINA RESULT:      -5.1      1.032      1.172
REMARK  3 active torsions:
REMARK  status: ('A' for Active; 'I' for Inactive)
REMARK    1  A    between atoms: C6_6  and  C11_11 
REMARK    2  A    between atoms: C7_7  and  C12_12 
REMARK    3  A    between atoms: C12_12  and  C13_13 
ROOT
HETATM    1  C1  UNL     1     -34.973  13.750  -4.307  1.00 20.00     0.069 C 
HETATM    2  C2  UNL     1     -37.831  15.018  -4.349  1.00 20.00     0.002 C 
HETATM    3  C3  UNL     1     -37.701  16.039  -5.474  1.00 20.00     0.005 C 
HETATM    4  C4  UNL     1     -36.724  15.189  -3.308  1.00 20.00     0.024 C 
HETATM    5  C5  UNL     1     -35.187  16.093  -5.120  1.00 20.00     0.029 C 
HETATM    6  C6  UNL     1     -36.327  16.010  -6.154  1.00 20.00    -0.013 C 
HETATM    7  C7  UNL     1     -35.305  15.137  -3.909  1.00 20.00     0.050 C 
HETATM    8  N14 UNL     1     -34.713  12.663  -4.618  1.00 20.00    -0.196 NA
ENDROOT
BRANCH   7   9
HETATM    9  C12 UNL     1     -34.288  15.563  -2.833  1.00 20.00     0.028 C 
BRANCH   9  10
HETATM   10  C13 UNL     1     -34.694  16.845  -2.102  1.00 20.00    -0.021 C 
HETATM   11  C9  UNL     1     -34.675  16.688  -0.580  1.00 20.00     0.009 C 
HETATM   12  C10 UNL     1     -33.754  17.981  -2.516  1.00 20.00     0.009 C 
ENDBRANCH   9  10
ENDBRANCH   7   9
BRANCH   6  13
HETATM   13  C11 UNL     1     -36.191  14.816  -7.103  1.00 20.00     0.000 C 
HETATM   14  C8  UNL     1     -34.883  14.832  -7.823  1.00 20.00     0.005 C 
ENDBRANCH   6  13
TORSDOF 3
ENDMDL
MODEL 3
REMARK VINA RESULT:      -5.0      1.697      2.649
REMARK  3 active torsions:
REMARK  status: ('A' for Active; 'I' for Inactive)
REMARK    1  A    between atoms: C6_6  and  C11_11 
REMARK    2  A    between atoms: C7_7  and  C12_12 
REMARK    3  A    between atoms: C12_12  and  C13_13 
ROOT
HETATM    1  C1  UNL     1     -33.939  17.156  -4.782  1.00 20.00     0.069 C 
HETATM    2  C2  UNL     1     -33.337  14.234  -3.845  1.00 20.00     0.002 C 
HETATM    3  C3  UNL     1     -34.731  13.617  -3.838  1.00 20.00     0.005 C 
HETATM    4  C4  UNL     1     -33.294  15.528  -3.030  1.00 20.00     0.024 C 
HETATM    5  C5  UNL     1     -35.743  15.932  -3.581  1.00 20.00     0.029 C 
HETATM    6  C6  UNL     1     -35.817  14.584  -4.325  1.00 20.00    -0.013 C 
HETATM    7  C7  UNL     1     -34.337  16.570  -3.482  1.00 20.00     0.050 C 
HETATM    8  N14 UNL     1     -33.626  17.615  -5.801  1.00 20.00    -0.196 NA
ENDROOT
BRANCH   7   9
HETATM    9  C12 UNL     1     -34.378  17.717  -2.454  1.00 20.00     0.028 C 
BRANCH   9  10
HETATM   10  C13 UNL     1     -33.775  17.329  -1.101  1.00 20.00    -0.021 C 
HETATM   11  C9  UNL     1     -32.853  18.410  -0.534  1.00 20.00     0.009 C 
HETATM   12  C10 UNL     1     -34.904  17.039  -0.109  1.00 20.00     0.009 C 
ENDBRANCH   9  10
ENDBRANCH   7   9
BRANCH   6  13
HETATM   13  C11 UNL     1     -35.796  14.737  -5.848  1.00 20.00     0.000 C 
HETATM   14  C8  UNL     1     -36.953  15.545  -6.335  1.00 20.00     0.005 C 
ENDBRANCH   6  13
TORSDOF 3
ENDMDL
MODEL 4
REMARK VINA RESULT:      -5.0      1.764      4.716
REMARK  3 active torsions:
REMARK  status: ('A' for Active; 'I' for Inactive)
REMARK    1  A    between atoms: C6_6  and  C11_11 
REMARK    2  A    between atoms: C7_7  and  C12_12 
REMARK    3  A    between atoms: C12_12  and  C13_13 
ROOT
HETATM    1  C1  UNL     1     -36.699  14.703  -4.182  1.00 20.00     0.069 C 
HETATM    2  C2  UNL     1     -33.775  13.628  -3.930  1.00 20.00     0.002 C 
HETATM    3  C3  UNL     1     -33.033  14.860  -3.422  1.00 20.00     0.005 C 
HETATM    4  C4  UNL     1     -34.573  13.938  -5.196  1.00 20.00     0.024 C 
HETATM    5  C5  UNL     1     -34.841  16.342  -4.414  1.00 20.00     0.029 C 
HETATM    6  C6  UNL     1     -33.959  16.059  -3.183  1.00 20.00    -0.013 C 
HETATM    7  C7  UNL     1     -35.556  15.114  -5.027  1.00 20.00     0.050 C 
HETATM    8  N14 UNL     1     -37.596  14.379  -3.520  1.00 20.00    -0.196 NA
ENDROOT
BRANCH   7   9
HETATM    9  C12 UNL     1     -36.119  15.500  -6.408  1.00 20.00     0.028 C 
BRANCH   9  10
HETATM   10  C13 UNL     1     -35.909  16.978  -6.748  1.00 20.00    -0.021 C 
HETATM   11  C9  UNL     1     -34.945  17.183  -7.918  1.00 20.00     0.009 C 
HETATM   12  C10 UNL     1     -37.260  17.619  -7.073  1.00 20.00     0.009 C 
ENDBRANCH   9  10
ENDBRANCH   7   9
BRANCH   6  13
HETATM   13  C11 UNL     1     -34.765  15.903  -1.891  1.00 20.00     0.000 C 
HETATM   14  C8  UNL     1     -34.436  16.974  -0.904  1.00 20.00     0.005 C 
ENDBRANCH   6  13
TORSDOF 3
ENDMDL
MODEL 5
REMARK VINA RESULT:      -5.0      1.653      2.172
REMARK  3 active torsions:
REMARK  status: ('A' for Active; 'I' for Inactive)
REMARK    1  A    between atoms: C6_6  and  C11_11 
REMARK    2  A    between atoms: C7_7  and  C12_12 
REMARK    3  A    between atoms: C12_12  and  C13_13 
ROOT
HETATM    1  C1  UNL     1     -36.013  15.431  -3.146  1.00 20.00     0.069 C 
HETATM    2  C2  UNL     1     -35.104  17.914  -4.815  1.00 20.00     0.002 C 
HETATM    3  C3  UNL     1     -33.795  17.418  -5.421  1.00 20.00     0.005 C 
HETATM    4  C4  UNL     1     -35.118  17.736  -3.296  1.00 20.00     0.024 C 
HETATM    5  C5  UNL     1     -33.573  15.732  -3.536  1.00 20.00     0.029 C 
HETATM    6  C6  UNL     1     -33.480  15.963  -5.057  1.00 20.00    -0.013 C 
HETATM    7  C7  UNL     1     -34.842  16.287  -2.847  1.00 20.00     0.050 C 
HETATM    8  N14 UNL     1     -36.931  14.761  -3.379  1.00 20.00    -0.196 NA
ENDROOT
BRANCH   7   9
HETATM    9  C12 UNL     1     -34.634  16.265  -1.321  1.00 20.00     0.028 C 
BRANCH   9  10
HETATM   10  C13 UNL     1     -34.607  17.665  -0.701  1.00 20.00    -0.021 C 
HETATM   11  C9  UNL     1     -35.398  17.748   0.605  1.00 20.00     0.009 C 
HETATM   12  C10 UNL     1     -33.154  18.079  -0.453  1.00 20.00     0.009 C 
ENDBRANCH   9  10
ENDBRANCH   7   9
BRANCH   6  13
HETATM   13  C11 UNL     1     -34.331  14.980  -5.866  1.00 20.00     0.000 C 
HETATM   14  C8  UNL     1     -34.318  15.310  -7.322  1.00 20.00     0.005 C 
ENDBRANCH   6  13
TORSDOF 3
ENDMDL
MODEL 6
REMARK VINA RESULT:      -5.0      1.629      2.450
REMARK  3 active torsions:
REMARK  status: ('A' for Active; 'I' for Inactive)
REMARK    1  A    between atoms: C6_6  and  C11_11 
REMARK    2  A    between atoms: C7_7  and  C12_12 
REMARK    3  A    between atoms: C12_12  and  C13_13 
ROOT
HETATM    1  C1  UNL     1     -33.777  16.753  -4.355  1.00 20.00     0.069 C 
HETATM    2  C2  UNL     1     -33.851  13.628  -4.352  1.00 20.00     0.002 C 
HETATM    3  C3  UNL     1     -35.346  13.353  -4.225  1.00 20.00     0.005 C 
HETATM    4  C4  UNL     1     -33.361  14.573  -3.255  1.00 20.00     0.024 C 
HETATM    5  C5  UNL     1     -35.667  15.643  -3.176  1.00 20.00     0.029 C 
HETATM    6  C6  UNL     1     -36.191  14.632  -4.215  1.00 20.00    -0.013 C 
HETATM    7  C7  UNL     1     -34.142  15.902  -3.200  1.00 20.00     0.050 C 
HETATM    8  N14 UNL     1     -33.489  17.421  -5.260  1.00 20.00    -0.196 NA
ENDROOT
BRANCH   7   9
HETATM    9  C12 UNL     1     -33.743  16.665  -1.922  1.00 20.00     0.028 C 
BRANCH   9  10
HETATM   10  C13 UNL     1     -34.924  17.383  -1.261  1.00 20.00    -0.021 C 
HETATM   11  C9  UNL     1     -34.921  17.245   0.262  1.00 20.00     0.009 C 
HETATM   12  C10 UNL     1     -34.894  18.864  -1.647  1.00 20.00     0.009 C 
ENDBRANCH   9  10
ENDBRANCH   7   9
BRANCH   6  13
HETATM   13  C11 UNL     1     -36.330  15.230  -5.617  1.00 20.00     0.000 C 
HETATM   14  C8  UNL     1     -37.240  16.414  -5.622  1.00 20.00     0.005 C 
ENDBRANCH   6  13
TORSDOF 3
ENDMDL
MODEL 7
REMARK VINA RESULT:      -5.0      2.276      3.316
REMARK  3 active torsions:
REMARK  status: ('A' for Active; 'I' for Inactive)
REMARK    1  A    between atoms: C6_6  and  C11_11 
REMARK    2  A    between atoms: C7_7  and  C12_12 
REMARK    3  A    between atoms: C12_12  and  C13_13 
ROOT
HETATM    1  C1  UNL     1     -36.278  17.242  -3.163  1.00 20.00     0.069 C 
HETATM    2  C2  UNL     1     -33.516  16.868  -4.580  1.00 20.00     0.002 C 
HETATM    3  C3  UNL     1     -33.069  15.515  -4.036  1.00 20.00     0.005 C 
HETATM    4  C4  UNL     1     -33.889  17.829  -3.450  1.00 20.00     0.024 C 
HETATM    5  C5  UNL     1     -34.569  15.844  -2.014  1.00 20.00     0.029 C 
HETATM    6  C6  UNL     1     -34.108  14.867  -3.114  1.00 20.00    -0.013 C 
HETATM    7  C7  UNL     1     -34.958  17.262  -2.493  1.00 20.00     0.050 C 
HETATM    8  N14 UNL     1     -37.313  17.226  -3.688  1.00 20.00    -0.196 NA
ENDROOT
BRANCH   7   9
HETATM    9  C12 UNL     1     -35.078  18.190  -1.269  1.00 20.00     0.028 C 
BRANCH   9  10
HETATM   10  C13 UNL     1     -34.313  17.670  -0.048  1.00 20.00    -0.021 C 
HETATM   11  C9  UNL     1     -33.087  18.521   0.287  1.00 20.00     0.009 C 
HETATM   12  C10 UNL     1     -35.257  17.625   1.157  1.00 20.00     0.009 C 
ENDBRANCH   9  10
ENDBRANCH   7   9
BRANCH   6  13
HETATM   13  C11 UNL     1     -35.270  14.264  -3.907  1.00 20.00     0.000 C 
HETATM   14  C8  UNL     1     -34.791  13.290  -4.931  1.00 20.00     0.005 C 
ENDBRANCH   6  13
TORSDOF 3
ENDMDL
MODEL 8
REMARK VINA RESULT:      -4.9      1.581      4.814
REMARK  3 active torsions:
REMARK  status: ('A' for Active; 'I' for Inactive)
REMARK    1  A    between atoms: C6_6  and  C11_11 
REMARK    2  A    between atoms: C7_7  and  C12_12 
REMARK    3  A    between atoms: C12_12  and  C13_13 
ROOT
HETATM    1  C1  UNL     1     -35.075  13.875  -4.808  1.00 20.00     0.069 C 
HETATM    2  C2  UNL     1     -33.163  16.336  -5.048  1.00 20.00     0.002 C 
HETATM    3  C3  UNL     1     -33.837  17.345  -4.123  1.00 20.00     0.005 C 
HETATM    4  C4  UNL     1     -34.144  15.784  -6.082  1.00 20.00     0.024 C 
HETATM    5  C5  UNL     1     -36.048  16.135  -4.434  1.00 20.00     0.029 C 
HETATM    6  C6  UNL     1     -35.078  16.779  -3.423  1.00 20.00    -0.013 C 
HETATM    7  C7  UNL     1     -35.409  15.163  -5.455  1.00 20.00     0.050 C 
HETATM    8  N14 UNL     1     -34.813  12.864  -4.301  1.00 20.00    -0.196 NA
ENDROOT
BRANCH   7   9
HETATM    9  C12 UNL     1     -36.429  14.867  -6.570  1.00 20.00     0.028 C 
BRANCH   9  10
HETATM   10  C13 UNL     1     -37.522  15.934  -6.680  1.00 20.00    -0.021 C 
HETATM   11  C9  UNL     1     -37.307  16.880  -7.863  1.00 20.00     0.009 C 
HETATM   12  C10 UNL     1     -38.885  15.249  -6.806  1.00 20.00     0.009 C 
ENDBRANCH   9  10
ENDBRANCH   7   9
BRANCH   6  13
HETATM   13  C11 UNL     1     -34.701  15.842  -2.273  1.00 20.00     0.000 C 
HETATM   14  C8  UNL     1     -34.587  16.577  -0.979  1.00 20.00     0.005 C 
ENDBRANCH   6  13
TORSDOF 3
ENDMDL
MODEL 9
REMARK VINA RESULT:      -4.3      1.627      4.943
REMARK  3 active torsions:
REMARK  status: ('A' for Active; 'I' for Inactive)
REMARK    1  A    between atoms: C6_6  and  C11_11 
REMARK    2  A    between atoms: C7_7  and  C12_12 
REMARK    3  A    between atoms: C12_12  and  C13_13 
ROOT
HETATM    1  C1  UNL     1     -33.916  16.173  -4.711  1.00 20.00     0.069 C 
HETATM    2  C2  UNL     1     -35.828  18.360  -3.555  1.00 20.00     0.002 C 
HETATM    3  C3  UNL     1     -36.074  17.843  -2.142  1.00 20.00     0.005 C 
HETATM    4  C4  UNL     1     -36.126  17.287  -4.603  1.00 20.00     0.024 C 
HETATM    5  C5  UNL     1     -35.499  15.493  -2.914  1.00 20.00     0.029 C 
HETATM    6  C6  UNL     1     -35.288  16.565  -1.827  1.00 20.00    -0.013 C 
HETATM    7  C7  UNL     1     -35.345  15.977  -4.376  1.00 20.00     0.050 C 
HETATM    8  N14 UNL     1     -32.796  16.327  -4.974  1.00 20.00    -0.196 NA
ENDROOT
BRANCH   7   9
HETATM    9  C12 UNL     1     -35.895  14.894  -5.323  1.00 20.00     0.028 C 
BRANCH   9  10
HETATM   10  C13 UNL     1     -36.111  15.403  -6.751  1.00 20.00    -0.021 C 
HETATM   11  C9  UNL     1     -35.180  14.733  -7.763  1.00 20.00     0.009 C 
HETATM   12  C10 UNL     1     -37.568  15.168  -7.156  1.00 20.00     0.009 C 
ENDBRANCH   9  10
ENDBRANCH   7   9
BRANCH   6  13
HETATM   13  C11 UNL     1     -33.811  16.862  -1.557  1.00 20.00     0.000 C 
HETATM   14  C8  UNL     1     -33.643  17.899  -0.496  1.00 20.00     0.005 C 
ENDBRANCH   6  13
TORSDOF 3
ENDMDL
