MODEL 1
REMARK VINA RESULT:      -5.1      0.000      0.000
REMARK  3 active torsions:
REMARK  status: ('A' for Active; 'I' for Inactive)
REMARK    1  A    between atoms: C5_5  and  C9_9 
REMARK    2  A    between atoms: C6_6  and  C10_10 
REMARK    3  A    between atoms: C10_10  and  O11_11 
ROOT
HETATM    1  C1  UNL     1     -33.366  17.265  -4.537  1.00 20.00     0.001 C 
HETATM    2  C2  UNL     1     -34.063  17.512  -3.202  1.00 20.00     0.005 C 
HETATM    3  C3  UNL     1     -33.896  16.012  -5.227  1.00 20.00     0.007 C 
HETATM    4  C4  UNL     1     -34.504  15.033  -2.977  1.00 20.00     0.011 C 
HETATM    5  C5  UNL     1     -33.966  16.290  -2.280  1.00 20.00    -0.014 C 
HETATM    6  C6  UNL     1     -33.797  14.781  -4.317  1.00 20.00     0.014 C 
ENDROOT
BRANCH   6   7
HETATM    7  C10 UNL     1     -34.378  13.551  -5.011  1.00 20.00     0.118 C 
HETATM    8  C8  UNL     1     -35.290  13.935  -6.164  1.00 20.00     0.040 C 
BRANCH   7   9
HETATM    9  O11 UNL     1     -35.113  12.788  -4.061  1.00 20.00    -0.396 OA
HETATM   10  H31 UNL     1     -36.013  13.150  -4.047  1.00 20.00     0.210 HD
ENDBRANCH   7   9
ENDBRANCH   6   7
BRANCH   5  11
HETATM   11  C9  UNL     1     -34.715  16.542  -0.972  1.00 20.00     0.000 C 
HETATM   12  C7  UNL     1     -34.109  17.667  -0.198  1.00 20.00     0.005 C 
ENDBRANCH   5  11
TORSDOF 3
ENDMDL
MODEL 2
REMARK VINA RESULT:      -4.8      1.057      1.057
REMARK  3 active torsions:
REMARK  status: ('A' for Active; 'I' for Inactive)
REMARK    1  A    between atoms: C5_5  and  C9_9 
REMARK    2  A    between atoms: C6_6  and  C10_10 
REMARK    3  A    between atoms: C10_10  and  O11_11 
ROOT
HETATM    1  C1  UNL     1     -33.643  17.865  -4.108  1.00 20.00     0.001 C 
HETATM    2  C2  UNL     1     -34.311  17.985  -2.741  1.00 20.00     0.005 C 
HETATM    3  C3  UNL     1     -33.976  16.539  -4.784  1.00 20.00     0.007 C 
HETATM    4  C4  UNL     1     -34.297  15.467  -2.518  1.00 20.00     0.011 C 
HETATM    5  C5  UNL     1     -33.958  16.799  -1.835  1.00 20.00    -0.014 C 
HETATM    6  C6  UNL     1     -33.620  15.344  -3.890  1.00 20.00     0.014 C 
ENDROOT
BRANCH   6   7
HETATM    7  C10 UNL     1     -34.007  14.031  -4.567  1.00 20.00     0.118 C 
HETATM    8  C8  UNL     1     -35.431  13.625  -4.231  1.00 20.00     0.040 C 
BRANCH   7   9
HETATM    9  O11 UNL     1     -33.112  13.010  -4.143  1.00 20.00    -0.396 OA
HETATM   10  H31 UNL     1     -32.356  13.029  -4.750  1.00 20.00     0.210 HD
ENDBRANCH   7   9
ENDBRANCH   6   7
BRANCH   5  11
HETATM   11  C9  UNL     1     -34.678  16.914  -0.491  1.00 20.00     0.000 C 
HETATM   12  C7  UNL     1     -34.115  18.019   0.342  1.00 20.00     0.005 C 
ENDBRANCH   5  11
TORSDOF 3
ENDMDL
MODEL 3
REMARK VINA RESULT:      -4.8      2.058      2.625
REMARK  3 active torsions:
REMARK  status: ('A' for Active; 'I' for Inactive)
REMARK    1  A    between atoms: C5_5  and  C9_9 
REMARK    2  A    between atoms: C6_6  and  C10_10 
REMARK    3  A    between atoms: C10_10  and  O11_11 
ROOT
HETATM    1  C1  UNL     1     -33.825  13.760  -4.168  1.00 20.00     0.001 C 
HETATM    2  C2  UNL     1     -33.345  15.017  -3.449  1.00 20.00     0.005 C 
HETATM    3  C3  UNL     1     -35.177  13.976  -4.841  1.00 20.00     0.007 C 
HETATM    4  C4  UNL     1     -35.744  15.744  -3.125  1.00 20.00     0.011 C 
HETATM    5  C5  UNL     1     -34.386  15.524  -2.444  1.00 20.00    -0.014 C 
HETATM    6  C6  UNL     1     -36.230  14.476  -3.843  1.00 20.00     0.014 C 
ENDROOT
BRANCH   6   7
HETATM    7  C10 UNL     1     -37.561  14.732  -4.549  1.00 20.00     0.118 C 
HETATM    8  C8  UNL     1     -37.746  16.203  -4.880  1.00 20.00     0.040 C 
BRANCH   7   9
HETATM    9  O11 UNL     1     -38.622  14.300  -3.705  1.00 20.00    -0.396 OA
HETATM   10  H31 UNL     1     -39.373  14.095  -4.284  1.00 20.00     0.210 HD
ENDBRANCH   7   9
ENDBRANCH   6   7
BRANCH   5  11
HETATM   11  C9  UNL     1     -33.906  16.811  -1.774  1.00 20.00     0.000 C 
HETATM   12  C7  UNL     1     -34.568  17.024  -0.452  1.00 20.00     0.005 C 
ENDBRANCH   5  11
TORSDOF 3
ENDMDL
MODEL 4
REMARK VINA RESULT:      -4.5      3.475      6.549
REMARK  3 active torsions:
REMARK  status: ('A' for Active; 'I' for Inactive)
REMARK    1  A    between atoms: C5_5  and  C9_9 
REMARK    2  A    between atoms: C6_6  and  C10_10 
REMARK    3  A    between atoms: C10_10  and  O11_11 
ROOT
HETATM    1  C1  UNL     1     -32.596  19.186   0.204  1.00 20.00     0.001 C 
HETATM    2  C2  UNL     1     -32.990  17.999  -0.671  1.00 20.00     0.005 C 
HETATM    3  C3  UNL     1     -32.974  18.960   1.665  1.00 20.00     0.007 C 
HETATM    4  C4  UNL     1     -34.856  17.436   0.939  1.00 20.00     0.011 C 
HETATM    5  C5  UNL     1     -34.481  17.666  -0.531  1.00 20.00    -0.014 C 
HETATM    6  C6  UNL     1     -34.465  18.633   1.819  1.00 20.00     0.014 C 
ENDROOT
BRANCH   6   7
HETATM    7  C10 UNL     1     -34.809  18.363   3.282  1.00 20.00     0.118 C 
HETATM    8  C8  UNL     1     -33.562  18.130   4.117  1.00 20.00     0.040 C 
BRANCH   7   9
HETATM    9  O11 UNL     1     -35.648  17.216   3.356  1.00 20.00    -0.396 OA
HETATM   10  H31 UNL     1     -35.204  16.581   3.938  1.00 20.00     0.210 HD
ENDBRANCH   7   9
ENDBRANCH   6   7
BRANCH   5  11
HETATM   11  C9  UNL     1     -34.841  16.444  -1.376  1.00 20.00     0.000 C 
HETATM   12  C7  UNL     1     -33.866  16.238  -2.489  1.00 20.00     0.005 C 
ENDBRANCH   5  11
TORSDOF 3
ENDMDL
MODEL 5
REMARK VINA RESULT:      -4.4     11.721     13.272
REMARK  3 active torsions:
REMARK  status: ('A' for Active; 'I' for Inactive)
REMARK    1  A    between atoms: C5_5  and  C9_9 
REMARK    2  A    between atoms: C6_6  and  C10_10 
REMARK    3  A    between atoms: C10_10  and  O11_11 
ROOT
HETATM    1  C1  UNL     1     -40.757   5.486  -0.661  1.00 20.00     0.001 C 
HETATM    2  C2  UNL     1     -41.134   6.785  -1.367  1.00 20.00     0.005 C 
HETATM    3  C3  UNL     1     -41.022   4.268  -1.542  1.00 20.00     0.007 C 
HETATM    4  C4  UNL     1     -42.851   5.537  -2.740  1.00 20.00     0.011 C 
HETATM    5  C5  UNL     1     -42.589   6.762  -1.852  1.00 20.00    -0.014 C 
HETATM    6  C6  UNL     1     -42.478   4.229  -2.027  1.00 20.00     0.014 C 
ENDROOT
BRANCH   6   7
HETATM    7  C10 UNL     1     -42.707   3.030  -2.946  1.00 20.00     0.118 C 
HETATM    8  C8  UNL     1     -41.396   2.390  -3.369  1.00 20.00     0.040 C 
BRANCH   7   9
HETATM    9  O11 UNL     1     -43.417   3.461  -4.100  1.00 20.00    -0.396 OA
HETATM   10  H31 UNL     1     -42.757   3.607  -4.797  1.00 20.00     0.210 HD
ENDBRANCH   7   9
ENDBRANCH   6   7
BRANCH   5  11
HETATM   11  C9  UNL     1     -42.929   8.051  -2.599  1.00 20.00     0.000 C 
HETATM   12  C7  UNL     1     -42.563   7.963  -4.044  1.00 20.00     0.005 C 
ENDBRANCH   5  11
TORSDOF 3
ENDMDL
MODEL 6
REMARK VINA RESULT:      -4.4      1.963      4.811
REMARK  3 active torsions:
REMARK  status: ('A' for Active; 'I' for Inactive)
REMARK    1  A    between atoms: C5_5  and  C9_9 
REMARK    2  A    between atoms: C6_6  and  C10_10 
REMARK    3  A    between atoms: C10_10  and  O11_11 
ROOT
HETATM    1  C1  UNL     1     -34.303  13.565  -4.084  1.00 20.00     0.001 C 
HETATM    2  C2  UNL     1     -34.832  13.959  -5.460  1.00 20.00     0.005 C 
HETATM    3  C3  UNL     1     -34.448  14.702  -3.077  1.00 20.00     0.007 C 
HETATM    4  C4  UNL     1     -34.316  16.383  -4.960  1.00 20.00     0.011 C 
HETATM    5  C5  UNL     1     -34.165  15.241  -5.974  1.00 20.00    -0.014 C 
HETATM    6  C6  UNL     1     -33.778  15.988  -3.577  1.00 20.00     0.014 C 
ENDROOT
BRANCH   6   7
HETATM    7  C10 UNL     1     -33.978  17.124  -2.575  1.00 20.00     0.118 C 
HETATM    8  C8  UNL     1     -34.475  16.609  -1.236  1.00 20.00     0.040 C 
BRANCH   7   9
HETATM    9  O11 UNL     1     -34.921  18.047  -3.106  1.00 20.00    -0.396 OA
HETATM   10  H31 UNL     1     -35.211  17.692  -3.961  1.00 20.00     0.210 HD
ENDBRANCH   7   9
ENDBRANCH   6   7
BRANCH   5  11
HETATM   11  C9  UNL     1     -34.746  15.644  -7.329  1.00 20.00     0.000 C 
HETATM   12  C7  UNL     1     -35.580  14.553  -7.917  1.00 20.00     0.005 C 
ENDBRANCH   5  11
TORSDOF 3
ENDMDL
MODEL 7
REMARK VINA RESULT:      -4.3      1.985      4.430
REMARK  3 active torsions:
REMARK  status: ('A' for Active; 'I' for Inactive)
REMARK    1  A    between atoms: C5_5  and  C9_9 
REMARK    2  A    between atoms: C6_6  and  C10_10 
REMARK    3  A    between atoms: C10_10  and  O11_11 
ROOT
HETATM    1  C1  UNL     1     -33.704  17.751  -4.468  1.00 20.00     0.001 C 
HETATM    2  C2  UNL     1     -33.314  16.278  -4.555  1.00 20.00     0.005 C 
HETATM    3  C3  UNL     1     -33.733  18.243  -3.024  1.00 20.00     0.007 C 
HETATM    4  C4  UNL     1     -34.252  15.897  -2.239  1.00 20.00     0.011 C 
HETATM    5  C5  UNL     1     -34.228  15.401  -3.691  1.00 20.00    -0.014 C 
HETATM    6  C6  UNL     1     -34.652  17.377  -2.151  1.00 20.00     0.014 C 
ENDROOT
BRANCH   6   7
HETATM    7  C10 UNL     1     -34.627  17.858  -0.701  1.00 20.00     0.118 C 
HETATM    8  C8  UNL     1     -33.226  18.249  -0.265  1.00 20.00     0.040 C 
BRANCH   7   9
HETATM    9  O11 UNL     1     -35.110  16.817   0.139  1.00 20.00    -0.396 OA
HETATM   10  H31 UNL     1     -36.064  16.746  -0.023  1.00 20.00     0.210 HD
ENDBRANCH   7   9
ENDBRANCH   6   7
BRANCH   5  11
HETATM   11  C9  UNL     1     -33.787  13.939  -3.753  1.00 20.00     0.000 C 
HETATM   12  C7  UNL     1     -34.571  13.170  -4.766  1.00 20.00     0.005 C 
ENDBRANCH   5  11
TORSDOF 3
ENDMDL
MODEL 8
REMARK VINA RESULT:      -4.3      2.085      3.007
REMARK  3 active torsions:
REMARK  status: ('A' for Active; 'I' for Inactive)
REMARK    1  A    between atoms: C5_5  and  C9_9 
REMARK    2  A    between atoms: C6_6  and  C10_10 
REMARK    3  A    between atoms: C10_10  and  O11_11 
ROOT
HETATM    1  C1  UNL     1     -34.687  13.254  -4.499  1.00 20.00     0.001 C 
HETATM    2  C2  UNL     1     -33.931  14.136  -3.511  1.00 20.00     0.005 C 
HETATM    3  C3  UNL     1     -35.058  14.017  -5.768  1.00 20.00     0.007 C 
HETATM    4  C4  UNL     1     -35.083  16.178  -4.456  1.00 20.00     0.011 C 
HETATM    5  C5  UNL     1     -34.715  15.411  -3.178  1.00 20.00    -0.014 C 
HETATM    6  C6  UNL     1     -35.851  15.291  -5.448  1.00 20.00     0.014 C 
ENDROOT
BRANCH   6   7
HETATM    7  C10 UNL     1     -36.167  16.063  -6.728  1.00 20.00     0.118 C 
HETATM    8  C8  UNL     1     -34.950  16.180  -7.628  1.00 20.00     0.040 C 
BRANCH   7   9
HETATM    9  O11 UNL     1     -36.626  17.364  -6.382  1.00 20.00    -0.396 OA
HETATM   10  H31 UNL     1     -35.839  17.898  -6.192  1.00 20.00     0.210 HD
ENDBRANCH   7   9
ENDBRANCH   6   7
BRANCH   5  11
HETATM   11  C9  UNL     1     -33.917  16.302  -2.227  1.00 20.00     0.000 C 
HETATM   12  C7  UNL     1     -34.664  16.566  -0.961  1.00 20.00     0.005 C 
ENDBRANCH   5  11
TORSDOF 3
ENDMDL
MODEL 9
REMARK VINA RESULT:      -4.2      2.686      3.933
REMARK  3 active torsions:
REMARK  status: ('A' for Active; 'I' for Inactive)
REMARK    1  A    between atoms: C5_5  and  C9_9 
REMARK    2  A    between atoms: C6_6  and  C10_10 
REMARK    3  A    between atoms: C10_10  and  O11_11 
ROOT
HETATM    1  C1  UNL     1     -35.834  14.721  -6.796  1.00 20.00     0.001 C 
HETATM    2  C2  UNL     1     -34.545  14.503  -6.009  1.00 20.00     0.005 C 
HETATM    3  C3  UNL     1     -36.853  15.528  -5.998  1.00 20.00     0.007 C 
HETATM    4  C4  UNL     1     -35.842  14.670  -3.846  1.00 20.00     0.011 C 
HETATM    5  C5  UNL     1     -34.819  13.853  -4.647  1.00 20.00    -0.014 C 
HETATM    6  C6  UNL     1     -37.142  14.883  -4.636  1.00 20.00     0.014 C 
ENDROOT
BRANCH   6   7
HETATM    7  C10 UNL     1     -38.126  15.734  -3.835  1.00 20.00     0.118 C 
HETATM    8  C8  UNL     1     -37.467  16.987  -3.287  1.00 20.00     0.040 C 
BRANCH   7   9
HETATM    9  O11 UNL     1     -38.638  14.959  -2.758  1.00 20.00    -0.396 OA
HETATM   10  H31 UNL     1     -37.872  14.598  -2.284  1.00 20.00     0.210 HD
ENDBRANCH   7   9
ENDBRANCH   6   7
BRANCH   5  11
HETATM   11  C9  UNL     1     -33.521  13.692  -3.856  1.00 20.00     0.000 C 
HETATM   12  C7  UNL     1     -32.859  15.008  -3.610  1.00 20.00     0.005 C 
ENDBRANCH   5  11
TORSDOF 3
ENDMDL
