MODEL 1
REMARK VINA RESULT:      -3.8      0.000      0.000
REMARK  0 active torsions:
REMARK  status: ('A' for Active; 'I' for Inactive)
ROOT
HETATM    1  C1  UNL     1     -36.799  14.617  -3.753  1.00 20.00     0.071 C 
HETATM    2  C2  UNL     1     -34.921  15.547  -5.054  1.00 20.00     0.052 C 
HETATM    3  C3  UNL     1     -34.730  14.336  -5.949  1.00 20.00     0.169 C 
HETATM    4  C4  UNL     1     -34.532  13.642  -3.728  1.00 20.00     0.192 C 
HETATM    5  C5  UNL     1     -35.354  14.929  -3.734  1.00 20.00     0.069 C 
HETATM    6  C6  UNL     1     -35.047  15.821  -2.535  1.00 20.00     0.033 C 
HETATM    7  N7  UNL     1     -37.933  14.371  -3.768  1.00 20.00    -0.196 NA
HETATM    8  O8  UNL     1     -34.364  13.241  -5.099  1.00 20.00    -0.389 OA
ENDROOT
TORSDOF 0
ENDMDL
MODEL 2
REMARK VINA RESULT:      -3.8      2.117      2.931
REMARK  0 active torsions:
REMARK  status: ('A' for Active; 'I' for Inactive)
ROOT
HETATM    1  C1  UNL     1     -34.566  13.724  -4.110  1.00 20.00     0.071 C 
HETATM    2  C2  UNL     1     -34.633  15.595  -2.504  1.00 20.00     0.052 C 
HETATM    3  C3  UNL     1     -35.889  16.240  -3.060  1.00 20.00     0.169 C 
HETATM    4  C4  UNL     1     -34.323  16.085  -4.785  1.00 20.00     0.192 C 
HETATM    5  C5  UNL     1     -33.966  15.026  -3.746  1.00 20.00     0.069 C 
HETATM    6  C6  UNL     1     -32.458  14.856  -3.583  1.00 20.00     0.033 C 
HETATM    7  N7  UNL     1     -35.038  12.703  -4.396  1.00 20.00    -0.196 NA
HETATM    8  O8  UNL     1     -35.596  16.637  -4.406  1.00 20.00    -0.389 OA
ENDROOT
TORSDOF 0
ENDMDL
MODEL 3
REMARK VINA RESULT:      -3.8      2.320      2.804
REMARK  0 active torsions:
REMARK  status: ('A' for Active; 'I' for Inactive)
ROOT
HETATM    1  C1  UNL     1     -33.688  16.118  -4.342  1.00 20.00     0.071 C 
HETATM    2  C2  UNL     1     -34.149  13.886  -3.399  1.00 20.00     0.052 C 
HETATM    3  C3  UNL     1     -34.908  13.356  -4.602  1.00 20.00     0.169 C 
HETATM    4  C4  UNL     1     -35.969  15.302  -3.867  1.00 20.00     0.192 C 
HETATM    5  C5  UNL     1     -34.522  15.359  -3.384  1.00 20.00     0.069 C 
HETATM    6  C6  UNL     1     -34.396  15.988  -1.999  1.00 20.00     0.033 C 
HETATM    7  N7  UNL     1     -33.035  16.713  -5.094  1.00 20.00    -0.196 NA
HETATM    8  O8  UNL     1     -36.074  14.176  -4.756  1.00 20.00    -0.389 OA
ENDROOT
TORSDOF 0
ENDMDL
MODEL 4
REMARK VINA RESULT:      -3.8      1.963      2.400
REMARK  0 active torsions:
REMARK  status: ('A' for Active; 'I' for Inactive)
ROOT
HETATM    1  C1  UNL     1     -34.407  15.822  -2.519  1.00 20.00     0.071 C 
HETATM    2  C2  UNL     1     -35.328  15.025  -4.664  1.00 20.00     0.052 C 
HETATM    3  C3  UNL     1     -35.697  13.637  -4.175  1.00 20.00     0.169 C 
HETATM    4  C4  UNL     1     -33.415  13.961  -3.800  1.00 20.00     0.192 C 
HETATM    5  C5  UNL     1     -34.067  15.339  -3.874  1.00 20.00     0.069 C 
HETATM    6  C6  UNL     1     -33.176  16.367  -4.566  1.00 20.00     0.033 C 
HETATM    7  N7  UNL     1     -34.674  16.200  -1.455  1.00 20.00    -0.196 NA
HETATM    8  O8  UNL     1     -34.477  12.991  -3.789  1.00 20.00    -0.389 OA
ENDROOT
TORSDOF 0
ENDMDL
MODEL 5
REMARK VINA RESULT:      -3.7      1.972      2.439
REMARK  0 active torsions:
REMARK  status: ('A' for Active; 'I' for Inactive)
ROOT
HETATM    1  C1  UNL     1     -35.119  13.749  -4.228  1.00 20.00     0.071 C 
HETATM    2  C2  UNL     1     -34.957  16.128  -4.860  1.00 20.00     0.052 C 
HETATM    3  C3  UNL     1     -33.493  16.292  -4.496  1.00 20.00     0.169 C 
HETATM    4  C4  UNL     1     -34.637  15.543  -2.603  1.00 20.00     0.192 C 
HETATM    5  C5  UNL     1     -35.455  15.132  -3.825  1.00 20.00     0.069 C 
HETATM    6  C6  UNL     1     -36.957  15.234  -3.580  1.00 20.00     0.033 C 
HETATM    7  N7  UNL     1     -34.855  12.664  -4.544  1.00 20.00    -0.196 NA
HETATM    8  O8  UNL     1     -33.382  16.055  -3.086  1.00 20.00    -0.389 OA
ENDROOT
TORSDOF 0
ENDMDL
MODEL 6
REMARK VINA RESULT:      -3.7      2.300      3.220
REMARK  0 active torsions:
REMARK  status: ('A' for Active; 'I' for Inactive)
ROOT
HETATM    1  C1  UNL     1     -34.687  13.832  -5.054  1.00 20.00     0.071 C 
HETATM    2  C2  UNL     1     -33.402  15.938  -5.055  1.00 20.00     0.052 C 
HETATM    3  C3  UNL     1     -34.006  16.496  -3.780  1.00 20.00     0.169 C 
HETATM    4  C4  UNL     1     -35.742  16.053  -5.277  1.00 20.00     0.192 C 
HETATM    5  C5  UNL     1     -34.561  15.170  -5.672  1.00 20.00     0.069 C 
HETATM    6  C6  UNL     1     -34.430  15.016  -7.184  1.00 20.00     0.033 C 
HETATM    7  N7  UNL     1     -34.787  12.783  -4.569  1.00 20.00    -0.196 NA
HETATM    8  O8  UNL     1     -35.408  16.669  -4.021  1.00 20.00    -0.389 OA
ENDROOT
TORSDOF 0
ENDMDL
MODEL 7
REMARK VINA RESULT:      -3.6      1.407      2.365
REMARK  0 active torsions:
REMARK  status: ('A' for Active; 'I' for Inactive)
ROOT
HETATM    1  C1  UNL     1     -36.649  14.416  -4.362  1.00 20.00     0.071 C 
HETATM    2  C2  UNL     1     -34.494  13.338  -4.890  1.00 20.00     0.052 C 
HETATM    3  C3  UNL     1     -33.793  13.744  -3.607  1.00 20.00     0.169 C 
HETATM    4  C4  UNL     1     -34.552  15.680  -4.669  1.00 20.00     0.192 C 
HETATM    5  C5  UNL     1     -35.411  14.519  -5.164  1.00 20.00     0.069 C 
HETATM    6  C6  UNL     1     -35.777  14.654  -6.640  1.00 20.00     0.033 C 
HETATM    7  N7  UNL     1     -37.621  14.335  -3.733  1.00 20.00    -0.196 NA
HETATM    8  O8  UNL     1     -33.740  15.177  -3.594  1.00 20.00    -0.389 OA
ENDROOT
TORSDOF 0
ENDMDL
MODEL 8
REMARK VINA RESULT:      -3.6      2.450      3.022
REMARK  0 active torsions:
REMARK  status: ('A' for Active; 'I' for Inactive)
ROOT
HETATM    1  C1  UNL     1     -34.715  16.117  -1.853  1.00 20.00     0.071 C 
HETATM    2  C2  UNL     1     -34.042  14.315  -3.397  1.00 20.00     0.052 C 
HETATM    3  C3  UNL     1     -32.675  14.886  -3.725  1.00 20.00     0.169 C 
HETATM    4  C4  UNL     1     -34.283  16.494  -4.253  1.00 20.00     0.192 C 
HETATM    5  C5  UNL     1     -34.894  15.561  -3.211  1.00 20.00     0.069 C 
HETATM    6  C6  UNL     1     -36.378  15.305  -3.458  1.00 20.00     0.033 C 
HETATM    7  N7  UNL     1     -34.573  16.554  -0.787  1.00 20.00    -0.196 NA
HETATM    8  O8  UNL     1     -32.891  16.151  -4.364  1.00 20.00    -0.389 OA
ENDROOT
TORSDOF 0
ENDMDL
MODEL 9
REMARK VINA RESULT:      -3.6      1.557      2.522
REMARK  0 active torsions:
REMARK  status: ('A' for Active; 'I' for Inactive)
ROOT
HETATM    1  C1  UNL     1     -36.679  14.438  -3.979  1.00 20.00     0.071 C 
HETATM    2  C2  UNL     1     -34.529  15.148  -3.002  1.00 20.00     0.052 C 
HETATM    3  C3  UNL     1     -34.787  16.639  -3.109  1.00 20.00     0.169 C 
HETATM    4  C4  UNL     1     -34.982  15.709  -5.242  1.00 20.00     0.192 C 
HETATM    5  C5  UNL     1     -35.230  14.592  -4.231  1.00 20.00     0.069 C 
HETATM    6  C6  UNL     1     -34.654  13.255  -4.688  1.00 20.00     0.033 C 
HETATM    7  N7  UNL     1     -37.817  14.317  -3.782  1.00 20.00    -0.196 NA
HETATM    8  O8  UNL     1     -34.922  16.942  -4.504  1.00 20.00    -0.389 OA
ENDROOT
TORSDOF 0
ENDMDL
