MODEL 1
REMARK VINA RESULT:      -5.1      0.000      0.000
REMARK  3 active torsions:
REMARK  status: ('A' for Active; 'I' for Inactive)
REMARK    1  A    between atoms: C6_6  and  C10_10 
REMARK    2  A    between atoms: C7_7  and  C11_11 
REMARK    3  A    between atoms: C11_11  and  C12_12 
ROOT
HETATM    1  C1  UNL     1     -34.885  13.692  -4.487  1.00 20.00     0.069 C 
HETATM    2  C2  UNL     1     -33.705  17.103  -3.178  1.00 20.00     0.006 C 
HETATM    3  C3  UNL     1     -36.169  16.828  -2.680  1.00 20.00     0.006 C 
HETATM    4  C4  UNL     1     -33.646  15.664  -3.694  1.00 20.00     0.025 C 
HETATM    5  C5  UNL     1     -36.115  15.388  -3.196  1.00 20.00     0.025 C 
HETATM    6  C6  UNL     1     -34.820  17.328  -2.147  1.00 20.00    -0.015 C 
HETATM    7  C7  UNL     1     -34.998  15.149  -4.236  1.00 20.00     0.049 C 
HETATM    8  N13 UNL     1     -34.798  12.552  -4.683  1.00 20.00    -0.196 NA
ENDROOT
BRANCH   7   9
HETATM    9  C11 UNL     1     -35.344  15.833  -5.572  1.00 20.00     0.024 C 
BRANCH   9  10
HETATM   10  C12 UNL     1     -34.285  15.536  -6.622  1.00 20.00    -0.003 C 
HETATM   11  C9  UNL     1     -34.913  14.926  -7.866  1.00 20.00     0.005 C 
ENDBRANCH   9  10
ENDBRANCH   7   9
BRANCH   6  12
HETATM   12  C10 UNL     1     -34.477  16.694  -0.796  1.00 20.00     0.000 C 
HETATM   13  C8  UNL     1     -35.093  17.444   0.338  1.00 20.00     0.005 C 
ENDBRANCH   6  12
TORSDOF 3
ENDMDL
MODEL 2
REMARK VINA RESULT:      -5.0      1.449      1.750
REMARK  3 active torsions:
REMARK  status: ('A' for Active; 'I' for Inactive)
REMARK    1  A    between atoms: C6_6  and  C10_10 
REMARK    2  A    between atoms: C7_7  and  C11_11 
REMARK    3  A    between atoms: C11_11  and  C12_12 
ROOT
HETATM    1  C1  UNL     1     -37.312  14.905  -3.831  1.00 20.00     0.069 C 
HETATM    2  C2  UNL     1     -33.751  15.857  -2.757  1.00 20.00     0.006 C 
HETATM    3  C3  UNL     1     -35.196  17.932  -2.779  1.00 20.00     0.006 C 
HETATM    4  C4  UNL     1     -34.980  14.995  -3.054  1.00 20.00     0.025 C 
HETATM    5  C5  UNL     1     -36.428  17.073  -3.076  1.00 20.00     0.025 C 
HETATM    6  C6  UNL     1     -34.094  17.167  -2.035  1.00 20.00    -0.015 C 
HETATM    7  C7  UNL     1     -36.096  15.753  -3.806  1.00 20.00     0.049 C 
HETATM    8  N13 UNL     1     -38.264  14.242  -3.851  1.00 20.00    -0.196 NA
ENDROOT
BRANCH   7   9
HETATM    9  C11 UNL     1     -35.681  16.027  -5.263  1.00 20.00     0.024 C 
BRANCH   9  10
HETATM   10  C12 UNL     1     -35.295  14.736  -5.968  1.00 20.00    -0.003 C 
HETATM   11  C9  UNL     1     -34.426  15.022  -7.182  1.00 20.00     0.005 C 
ENDBRANCH   9  10
ENDBRANCH   7   9
BRANCH   6  12
HETATM   12  C10 UNL     1     -34.467  16.922  -0.570  1.00 20.00     0.000 C 
HETATM   13  C8  UNL     1     -34.048  18.058   0.304  1.00 20.00     0.005 C 
ENDBRANCH   6  12
TORSDOF 3
ENDMDL
MODEL 3
REMARK VINA RESULT:      -4.7      2.034      4.958
REMARK  3 active torsions:
REMARK  status: ('A' for Active; 'I' for Inactive)
REMARK    1  A    between atoms: C6_6  and  C10_10 
REMARK    2  A    between atoms: C7_7  and  C11_11 
REMARK    3  A    between atoms: C11_11  and  C12_12 
ROOT
HETATM    1  C1  UNL     1     -36.672  17.069  -2.923  1.00 20.00     0.069 C 
HETATM    2  C2  UNL     1     -33.831  15.489  -4.966  1.00 20.00     0.006 C 
HETATM    3  C3  UNL     1     -35.406  13.671  -4.187  1.00 20.00     0.006 C 
HETATM    4  C4  UNL     1     -34.776  16.553  -4.404  1.00 20.00     0.025 C 
HETATM    5  C5  UNL     1     -36.354  14.731  -3.622  1.00 20.00     0.025 C 
HETATM    6  C6  UNL     1     -34.548  14.188  -5.349  1.00 20.00    -0.015 C 
HETATM    7  C7  UNL     1     -35.644  16.046  -3.231  1.00 20.00     0.049 C 
HETATM    8  N13 UNL     1     -37.477  17.869  -2.683  1.00 20.00    -0.196 NA
ENDROOT
BRANCH   7   9
HETATM    9  C11 UNL     1     -34.786  15.845  -1.968  1.00 20.00     0.024 C 
BRANCH   9  10
HETATM   10  C12 UNL     1     -34.066  17.131  -1.592  1.00 20.00    -0.003 C 
HETATM   11  C9  UNL     1     -34.319  17.487  -0.135  1.00 20.00     0.005 C 
ENDBRANCH   9  10
ENDBRANCH   7   9
BRANCH   6  12
HETATM   12  C10 UNL     1     -35.373  14.353  -6.629  1.00 20.00     0.000 C 
HETATM   13  C8  UNL     1     -34.594  15.040  -7.702  1.00 20.00     0.005 C 
ENDBRANCH   6  12
TORSDOF 3
ENDMDL
MODEL 4
REMARK VINA RESULT:      -4.7      1.684      4.539
REMARK  3 active torsions:
REMARK  status: ('A' for Active; 'I' for Inactive)
REMARK    1  A    between atoms: C6_6  and  C10_10 
REMARK    2  A    between atoms: C7_7  and  C11_11 
REMARK    3  A    between atoms: C11_11  and  C12_12 
ROOT
HETATM    1  C1  UNL     1     -33.868  14.378  -3.712  1.00 20.00     0.069 C 
HETATM    2  C2  UNL     1     -35.897  17.572  -4.359  1.00 20.00     0.006 C 
HETATM    3  C3  UNL     1     -33.535  17.903  -5.197  1.00 20.00     0.006 C 
HETATM    4  C4  UNL     1     -35.585  16.106  -4.051  1.00 20.00     0.025 C 
HETATM    5  C5  UNL     1     -33.218  16.437  -4.891  1.00 20.00     0.025 C 
HETATM    6  C6  UNL     1     -35.023  18.151  -5.479  1.00 20.00    -0.015 C 
HETATM    7  C7  UNL     1     -34.091  15.843  -3.763  1.00 20.00     0.049 C 
HETATM    8  N13 UNL     1     -33.692  13.232  -3.672  1.00 20.00    -0.196 NA
ENDROOT
BRANCH   7   9
HETATM    9  C11 UNL     1     -33.688  16.429  -2.398  1.00 20.00     0.024 C 
BRANCH   9  10
HETATM   10  C12 UNL     1     -34.779  16.195  -1.365  1.00 20.00    -0.003 C 
HETATM   11  C9  UNL     1     -34.668  17.194  -0.224  1.00 20.00     0.005 C 
ENDBRANCH   9  10
ENDBRANCH   7   9
BRANCH   6  12
HETATM   12  C10 UNL     1     -35.435  17.615  -6.852  1.00 20.00     0.000 C 
HETATM   13  C8  UNL     1     -34.474  18.028  -7.917  1.00 20.00     0.005 C 
ENDBRANCH   6  12
TORSDOF 3
ENDMDL
MODEL 5
REMARK VINA RESULT:      -4.7      2.144      5.123
REMARK  3 active torsions:
REMARK  status: ('A' for Active; 'I' for Inactive)
REMARK    1  A    between atoms: C6_6  and  C10_10 
REMARK    2  A    between atoms: C7_7  and  C11_11 
REMARK    3  A    between atoms: C11_11  and  C12_12 
ROOT
HETATM    1  C1  UNL     1     -33.948  18.080  -3.240  1.00 20.00     0.069 C 
HETATM    2  C2  UNL     1     -33.800  14.363  -4.189  1.00 20.00     0.006 C 
HETATM    3  C3  UNL     1     -36.090  15.276  -4.754  1.00 20.00     0.006 C 
HETATM    4  C4  UNL     1     -33.329  15.770  -3.815  1.00 20.00     0.025 C 
HETATM    5  C5  UNL     1     -35.623  16.685  -4.380  1.00 20.00     0.025 C 
HETATM    6  C6  UNL     1     -34.944  14.363  -5.212  1.00 20.00    -0.015 C 
HETATM    7  C7  UNL     1     -34.473  16.698  -3.349  1.00 20.00     0.049 C 
HETATM    8  N13 UNL     1     -33.538  19.162  -3.154  1.00 20.00    -0.196 NA
ENDROOT
BRANCH   7   9
HETATM    9  C11 UNL     1     -34.984  16.276  -1.959  1.00 20.00     0.024 C 
BRANCH   9  10
HETATM   10  C12 UNL     1     -34.138  16.898  -0.859  1.00 20.00    -0.003 C 
HETATM   11  C9  UNL     1     -35.007  17.337   0.308  1.00 20.00     0.005 C 
ENDBRANCH   9  10
ENDBRANCH   7   9
BRANCH   6  12
HETATM   12  C10 UNL     1     -34.450  14.737  -6.612  1.00 20.00     0.000 C 
HETATM   13  C8  UNL     1     -35.490  14.480  -7.652  1.00 20.00     0.005 C 
ENDBRANCH   6  12
TORSDOF 3
ENDMDL
MODEL 6
REMARK VINA RESULT:      -4.6      1.732      4.608
REMARK  3 active torsions:
REMARK  status: ('A' for Active; 'I' for Inactive)
REMARK    1  A    between atoms: C6_6  and  C10_10 
REMARK    2  A    between atoms: C7_7  and  C11_11 
REMARK    3  A    between atoms: C11_11  and  C12_12 
ROOT
HETATM    1  C1  UNL     1     -33.866  13.938  -3.742  1.00 20.00     0.069 C 
HETATM    2  C2  UNL     1     -37.449  15.098  -4.486  1.00 20.00     0.006 C 
HETATM    3  C3  UNL     1     -35.821  16.861  -5.283  1.00 20.00     0.006 C 
HETATM    4  C4  UNL     1     -36.282  14.169  -4.146  1.00 20.00     0.025 C 
HETATM    5  C5  UNL     1     -34.650  15.936  -4.944  1.00 20.00     0.025 C 
HETATM    6  C6  UNL     1     -37.117  16.102  -5.598  1.00 20.00    -0.015 C 
HETATM    7  C7  UNL     1     -34.972  14.922  -3.824  1.00 20.00     0.049 C 
HETATM    8  N13 UNL     1     -33.000  13.168  -3.678  1.00 20.00    -0.196 NA
ENDROOT
BRANCH   7   9
HETATM    9  C11 UNL     1     -35.073  15.632  -2.461  1.00 20.00     0.024 C 
BRANCH   9  10
HETATM   10  C12 UNL     1     -33.821  16.450  -2.183  1.00 20.00    -0.003 C 
HETATM   11  C9  UNL     1     -33.995  17.294  -0.930  1.00 20.00     0.005 C 
ENDBRANCH   9  10
ENDBRANCH   7   9
BRANCH   6  12
HETATM   12  C10 UNL     1     -37.055  15.424  -6.970  1.00 20.00     0.000 C 
HETATM   13  C8  UNL     1     -38.417  15.100  -7.488  1.00 20.00     0.005 C 
ENDBRANCH   6  12
TORSDOF 3
ENDMDL
MODEL 7
REMARK VINA RESULT:      -4.5      2.039      2.916
REMARK  3 active torsions:
REMARK  status: ('A' for Active; 'I' for Inactive)
REMARK    1  A    between atoms: C6_6  and  C10_10 
REMARK    2  A    between atoms: C7_7  and  C11_11 
REMARK    3  A    between atoms: C11_11  and  C12_12 
ROOT
HETATM    1  C1  UNL     1     -33.720  16.628  -4.407  1.00 20.00     0.069 C 
HETATM    2  C2  UNL     1     -36.418  17.883  -1.982  1.00 20.00     0.006 C 
HETATM    3  C3  UNL     1     -34.628  16.663  -0.677  1.00 20.00     0.006 C 
HETATM    4  C4  UNL     1     -35.584  17.747  -3.257  1.00 20.00     0.025 C 
HETATM    5  C5  UNL     1     -33.791  16.525  -1.950  1.00 20.00     0.025 C 
HETATM    6  C6  UNL     1     -35.569  17.874  -0.703  1.00 20.00    -0.015 C 
HETATM    7  C7  UNL     1     -34.634  16.529  -3.244  1.00 20.00     0.049 C 
HETATM    8  N13 UNL     1     -33.003  16.704  -5.317  1.00 20.00    -0.196 NA
ENDROOT
BRANCH   7   9
HETATM    9  C11 UNL     1     -35.429  15.218  -3.379  1.00 20.00     0.024 C 
BRANCH   9  10
HETATM   10  C12 UNL     1     -34.493  14.022  -3.454  1.00 20.00    -0.003 C 
HETATM   11  C9  UNL     1     -34.758  13.205  -4.709  1.00 20.00     0.005 C 
ENDBRANCH   9  10
ENDBRANCH   7   9
BRANCH   6  12
HETATM   12  C10 UNL     1     -34.803  19.188  -0.525  1.00 20.00     0.000 C 
HETATM   13  C8  UNL     1     -33.803  19.098   0.580  1.00 20.00     0.005 C 
ENDBRANCH   6  12
TORSDOF 3
ENDMDL
MODEL 8
REMARK VINA RESULT:      -4.4      2.421      5.094
REMARK  3 active torsions:
REMARK  status: ('A' for Active; 'I' for Inactive)
REMARK    1  A    between atoms: C6_6  and  C10_10 
REMARK    2  A    between atoms: C7_7  and  C11_11 
REMARK    3  A    between atoms: C11_11  and  C12_12 
ROOT
HETATM    1  C1  UNL     1     -36.001  17.949  -1.909  1.00 20.00     0.069 C 
HETATM    2  C2  UNL     1     -33.669  17.201  -4.865  1.00 20.00     0.006 C 
HETATM    3  C3  UNL     1     -33.346  15.436  -3.084  1.00 20.00     0.006 C 
HETATM    4  C4  UNL     1     -34.828  17.800  -4.066  1.00 20.00     0.025 C 
HETATM    5  C5  UNL     1     -34.505  16.032  -2.281  1.00 20.00     0.025 C 
HETATM    6  C6  UNL     1     -33.455  15.707  -4.590  1.00 20.00    -0.015 C 
HETATM    7  C7  UNL     1     -34.728  17.537  -2.548  1.00 20.00     0.049 C 
HETATM    8  N13 UNL     1     -36.998  18.270  -1.410  1.00 20.00    -0.196 NA
ENDROOT
BRANCH   7   9
HETATM    9  C11 UNL     1     -33.596  18.373  -1.924  1.00 20.00     0.024 C 
BRANCH   9  10
HETATM   10  C12 UNL     1     -33.458  18.076  -0.439  1.00 20.00    -0.003 C 
HETATM   11  C9  UNL     1     -32.258  18.802   0.149  1.00 20.00     0.005 C 
ENDBRANCH   9  10
ENDBRANCH   7   9
BRANCH   6  12
HETATM   12  C10 UNL     1     -34.547  14.851  -5.239  1.00 20.00     0.000 C 
HETATM   13  C8  UNL     1     -34.431  13.416  -4.843  1.00 20.00     0.005 C 
ENDBRANCH   6  12
TORSDOF 3
ENDMDL
MODEL 9
REMARK VINA RESULT:      -4.3      2.240      3.032
REMARK  3 active torsions:
REMARK  status: ('A' for Active; 'I' for Inactive)
REMARK    1  A    between atoms: C6_6  and  C10_10 
REMARK    2  A    between atoms: C7_7  and  C11_11 
REMARK    3  A    between atoms: C11_11  and  C12_12 
ROOT
HETATM    1  C1  UNL     1     -34.191  17.789  -6.380  1.00 20.00     0.069 C 
HETATM    2  C2  UNL     1     -35.624  15.930  -3.342  1.00 20.00     0.006 C 
HETATM    3  C3  UNL     1     -33.215  15.240  -3.680  1.00 20.00     0.006 C 
HETATM    4  C4  UNL     1     -35.483  16.973  -4.453  1.00 20.00     0.025 C 
HETATM    5  C5  UNL     1     -33.070  16.282  -4.792  1.00 20.00     0.025 C 
HETATM    6  C6  UNL     1     -34.293  15.604  -2.651  1.00 20.00    -0.015 C 
HETATM    7  C7  UNL     1     -34.402  16.617  -5.497  1.00 20.00     0.049 C 
HETATM    8  N13 UNL     1     -34.024  18.706  -7.071  1.00 20.00    -0.196 NA
ENDROOT
BRANCH   7   9
HETATM    9  C11 UNL     1     -34.862  15.441  -6.378  1.00 20.00     0.024 C 
BRANCH   9  10
HETATM   10  C12 UNL     1     -36.371  15.466  -6.569  1.00 20.00    -0.003 C 
HETATM   11  C9  UNL     1     -36.754  14.877  -7.918  1.00 20.00     0.005 C 
ENDBRANCH   9  10
ENDBRANCH   7   9
BRANCH   6  12
HETATM   12  C10 UNL     1     -33.838  16.743  -1.735  1.00 20.00     0.000 C 
HETATM   13  C8  UNL     1     -34.787  16.952  -0.601  1.00 20.00     0.005 C 
ENDBRANCH   6  12
TORSDOF 3
ENDMDL
