MODEL 1
REMARK VINA RESULT:      -4.7      0.000      0.000
REMARK  1 active torsions:
REMARK  status: ('A' for Active; 'I' for Inactive)
REMARK    1  A    between atoms: C1_1  and  N10_10 
ROOT
HETATM    1  C2  UNL     1     -34.262  16.939  -1.557  1.00 20.00     0.002 C 
HETATM    2  C3  UNL     1     -34.210  16.706  -6.372  1.00 20.00     0.020 C 
HETATM    3  C4  UNL     1     -33.713  17.829  -2.681  1.00 20.00     0.007 C 
HETATM    4  C5  UNL     1     -33.550  17.511  -5.250  1.00 20.00     0.008 C 
HETATM    5  C6  UNL     1     -34.817  15.675  -2.237  1.00 20.00     0.026 C 
HETATM    6  C7  UNL     1     -34.294  15.209  -6.055  1.00 20.00     0.125 C 
HETATM    7  C8  UNL     1     -34.267  17.197  -3.949  1.00 20.00     0.009 C 
HETATM    8  C9  UNL     1     -34.190  15.704  -3.628  1.00 20.00     0.090 C 
HETATM    9  N10 UNL     1     -34.779  14.915  -4.703  1.00 20.00    -0.354 N 
ENDROOT
BRANCH   9  10
HETATM   10  C1  UNL     1     -35.461  13.730  -4.467  1.00 20.00     0.351 C 
HETATM   11  O11 UNL     1     -34.981  12.605  -4.361  1.00 20.00    -0.284 OA
ENDBRANCH   9  10
TORSDOF 1
ENDMDL
MODEL 2
REMARK VINA RESULT:      -4.5      2.259      3.533
REMARK  1 active torsions:
REMARK  status: ('A' for Active; 'I' for Inactive)
REMARK    1  A    between atoms: C1_1  and  N10_10 
ROOT
HETATM    1  C2  UNL     1     -34.020  13.238  -4.564  1.00 20.00     0.002 C 
HETATM    2  C3  UNL     1     -35.131  16.954  -1.701  1.00 20.00     0.020 C 
HETATM    3  C4  UNL     1     -33.216  14.224  -3.705  1.00 20.00     0.007 C 
HETATM    4  C5  UNL     1     -33.894  16.334  -2.358  1.00 20.00     0.008 C 
HETATM    5  C6  UNL     1     -35.488  13.692  -4.488  1.00 20.00     0.026 C 
HETATM    6  C7  UNL     1     -36.339  17.000  -2.642  1.00 20.00     0.125 C 
HETATM    7  C8  UNL     1     -34.282  14.981  -2.927  1.00 20.00     0.009 C 
HETATM    8  C9  UNL     1     -35.400  15.122  -3.960  1.00 20.00     0.090 C 
HETATM    9  N10 UNL     1     -36.576  15.747  -3.366  1.00 20.00    -0.354 N 
ENDROOT
BRANCH   9  10
HETATM   10  C1  UNL     1     -37.867  15.415  -3.749  1.00 20.00     0.351 C 
HETATM   11  O11 UNL     1     -38.493  14.403  -3.452  1.00 20.00    -0.284 OA
ENDBRANCH   9  10
TORSDOF 1
ENDMDL
MODEL 3
REMARK VINA RESULT:      -4.5      2.079      2.479
REMARK  1 active torsions:
REMARK  status: ('A' for Active; 'I' for Inactive)
REMARK    1  A    between atoms: C1_1  and  N10_10 
ROOT
HETATM    1  C2  UNL     1     -34.915  17.542  -1.847  1.00 20.00     0.002 C 
HETATM    2  C3  UNL     1     -33.990  13.650  -4.537  1.00 20.00     0.020 C 
HETATM    3  C4  UNL     1     -33.678  16.669  -2.104  1.00 20.00     0.007 C 
HETATM    4  C5  UNL     1     -33.334  14.458  -3.415  1.00 20.00     0.008 C 
HETATM    5  C6  UNL     1     -36.081  16.875  -2.597  1.00 20.00     0.026 C 
HETATM    6  C7  UNL     1     -35.492  13.444  -4.317  1.00 20.00     0.125 C 
HETATM    7  C8  UNL     1     -34.112  15.749  -3.235  1.00 20.00     0.009 C 
HETATM    8  C9  UNL     1     -35.572  15.464  -2.881  1.00 20.00     0.090 C 
HETATM    9  N10 UNL     1     -36.207  14.662  -3.919  1.00 20.00    -0.354 N 
ENDROOT
BRANCH   9  10
HETATM   10  C1  UNL     1     -37.544  14.806  -4.256  1.00 20.00     0.351 C 
HETATM   11  O11 UNL     1     -38.504  14.231  -3.751  1.00 20.00    -0.284 OA
ENDBRANCH   9  10
TORSDOF 1
ENDMDL
MODEL 4
REMARK VINA RESULT:      -4.4      0.936      3.017
REMARK  1 active torsions:
REMARK  status: ('A' for Active; 'I' for Inactive)
REMARK    1  A    between atoms: C1_1  and  N10_10 
ROOT
HETATM    1  C2  UNL     1     -34.393  17.181  -7.357  1.00 20.00     0.002 C 
HETATM    2  C3  UNL     1     -33.703  16.447  -2.642  1.00 20.00     0.020 C 
HETATM    3  C4  UNL     1     -34.252  18.088  -6.126  1.00 20.00     0.007 C 
HETATM    4  C5  UNL     1     -34.092  17.588  -3.587  1.00 20.00     0.008 C 
HETATM    5  C6  UNL     1     -34.389  15.735  -6.832  1.00 20.00     0.026 C 
HETATM    6  C7  UNL     1     -34.390  15.125  -2.998  1.00 20.00     0.125 C 
HETATM    7  C8  UNL     1     -33.848  17.132  -5.014  1.00 20.00     0.009 C 
HETATM    8  C9  UNL     1     -34.673  15.887  -5.341  1.00 20.00     0.090 C 
HETATM    9  N10 UNL     1     -34.347  14.798  -4.428  1.00 20.00    -0.354 N 
ENDROOT
BRANCH   9  10
HETATM   10  C1  UNL     1     -34.357  13.469  -4.822  1.00 20.00     0.351 C 
HETATM   11  O11 UNL     1     -35.087  12.576  -4.405  1.00 20.00    -0.284 OA
ENDBRANCH   9  10
TORSDOF 1
ENDMDL
MODEL 5
REMARK VINA RESULT:      -4.4      1.865      3.366
REMARK  1 active torsions:
REMARK  status: ('A' for Active; 'I' for Inactive)
REMARK    1  A    between atoms: C1_1  and  N10_10 
ROOT
HETATM    1  C2  UNL     1     -34.763  13.308  -4.816  1.00 20.00     0.002 C 
HETATM    2  C3  UNL     1     -33.555  17.945  -5.339  1.00 20.00     0.020 C 
HETATM    3  C4  UNL     1     -34.683  14.282  -6.000  1.00 20.00     0.007 C 
HETATM    4  C5  UNL     1     -34.221  16.829  -6.148  1.00 20.00     0.008 C 
HETATM    5  C6  UNL     1     -34.455  14.133  -3.554  1.00 20.00     0.026 C 
HETATM    6  C7  UNL     1     -34.022  17.977  -3.880  1.00 20.00     0.125 C 
HETATM    7  C8  UNL     1     -34.022  15.518  -5.410  1.00 20.00     0.009 C 
HETATM    8  C9  UNL     1     -34.634  15.578  -4.011  1.00 20.00     0.090 C 
HETATM    9  N10 UNL     1     -34.042  16.660  -3.234  1.00 20.00    -0.354 N 
ENDROOT
BRANCH   9  10
HETATM   10  C1  UNL     1     -33.847  16.572  -1.864  1.00 20.00     0.351 C 
HETATM   11  O11 UNL     1     -34.705  16.430  -0.999  1.00 20.00    -0.284 OA
ENDBRANCH   9  10
TORSDOF 1
ENDMDL
MODEL 6
REMARK VINA RESULT:      -4.3      1.946      3.713
REMARK  1 active torsions:
REMARK  status: ('A' for Active; 'I' for Inactive)
REMARK    1  A    between atoms: C1_1  and  N10_10 
ROOT
HETATM    1  C2  UNL     1     -35.380  15.127  -7.605  1.00 20.00     0.002 C 
HETATM    2  C3  UNL     1     -34.008  15.441  -2.994  1.00 20.00     0.020 C 
HETATM    3  C4  UNL     1     -34.047  15.372  -6.883  1.00 20.00     0.007 C 
HETATM    4  C5  UNL     1     -33.444  15.734  -4.387  1.00 20.00     0.008 C 
HETATM    5  C6  UNL     1     -36.462  15.077  -6.512  1.00 20.00     0.026 C 
HETATM    6  C7  UNL     1     -35.470  15.875  -2.845  1.00 20.00     0.125 C 
HETATM    7  C8  UNL     1     -34.376  15.124  -5.419  1.00 20.00     0.009 C 
HETATM    8  C9  UNL     1     -35.784  15.706  -5.298  1.00 20.00     0.090 C 
HETATM    9  N10 UNL     1     -36.326  15.473  -3.965  1.00 20.00    -0.354 N 
ENDROOT
BRANCH   9  10
HETATM   10  C1  UNL     1     -37.675  15.241  -3.741  1.00 20.00     0.351 C 
HETATM   11  O11 UNL     1     -38.246  14.156  -3.698  1.00 20.00    -0.284 OA
ENDBRANCH   9  10
TORSDOF 1
ENDMDL
MODEL 7
REMARK VINA RESULT:      -4.2      1.928      2.202
REMARK  1 active torsions:
REMARK  status: ('A' for Active; 'I' for Inactive)
REMARK    1  A    between atoms: C1_1  and  N10_10 
ROOT
HETATM    1  C2  UNL     1     -33.662  15.873  -2.753  1.00 20.00     0.002 C 
HETATM    2  C3  UNL     1     -35.495  15.781  -7.211  1.00 20.00     0.020 C 
HETATM    3  C4  UNL     1     -33.073  15.923  -4.170  1.00 20.00     0.007 C 
HETATM    4  C5  UNL     1     -34.134  15.654  -6.521  1.00 20.00     0.008 C 
HETATM    5  C6  UNL     1     -35.176  15.653  -2.920  1.00 20.00     0.026 C 
HETATM    6  C7  UNL     1     -36.604  15.023  -6.474  1.00 20.00     0.125 C 
HETATM    7  C8  UNL     1     -34.294  16.058  -5.067  1.00 20.00     0.009 C 
HETATM    8  C9  UNL     1     -35.317  15.168  -4.360  1.00 20.00     0.090 C 
HETATM    9  N10 UNL     1     -36.612  15.244  -5.024  1.00 20.00    -0.354 N 
ENDROOT
BRANCH   9  10
HETATM   10  C1  UNL     1     -37.810  15.157  -4.330  1.00 20.00     0.351 C 
HETATM   11  O11 UNL     1     -38.263  14.175  -3.750  1.00 20.00    -0.284 OA
ENDBRANCH   9  10
TORSDOF 1
ENDMDL
MODEL 8
REMARK VINA RESULT:      -4.2      1.779      3.593
REMARK  1 active torsions:
REMARK  status: ('A' for Active; 'I' for Inactive)
REMARK    1  A    between atoms: C1_1  and  N10_10 
ROOT
HETATM    1  C2  UNL     1     -34.035  17.799  -6.513  1.00 20.00     0.002 C 
HETATM    2  C3  UNL     1     -35.089  13.530  -4.537  1.00 20.00     0.020 C 
HETATM    3  C4  UNL     1     -34.399  16.411  -7.058  1.00 20.00     0.007 C 
HETATM    4  C5  UNL     1     -34.746  14.111  -5.911  1.00 20.00     0.008 C 
HETATM    5  C6  UNL     1     -33.921  17.649  -4.986  1.00 20.00     0.026 C 
HETATM    6  C7  UNL     1     -34.221  14.111  -3.416  1.00 20.00     0.125 C 
HETATM    7  C8  UNL     1     -34.795  15.626  -5.817  1.00 20.00     0.009 C 
HETATM    8  C9  UNL     1     -33.803  16.142  -4.775  1.00 20.00     0.090 C 
HETATM    9  N10 UNL     1     -34.088  15.571  -3.464  1.00 20.00    -0.354 N 
ENDROOT
BRANCH   9  10
HETATM   10  C1  UNL     1     -33.885  16.275  -2.287  1.00 20.00     0.351 C 
HETATM   11  O11 UNL     1     -34.561  16.223  -1.264  1.00 20.00    -0.284 OA
ENDBRANCH   9  10
TORSDOF 1
ENDMDL
MODEL 9
REMARK VINA RESULT:      -4.2      2.585      3.739
REMARK  1 active torsions:
REMARK  status: ('A' for Active; 'I' for Inactive)
REMARK    1  A    between atoms: C1_1  and  N10_10 
ROOT
HETATM    1  C2  UNL     1     -34.069  13.729  -3.522  1.00 20.00     0.002 C 
HETATM    2  C3  UNL     1     -35.052  15.580  -7.863  1.00 20.00     0.020 C 
HETATM    3  C4  UNL     1     -34.756  13.210  -4.793  1.00 20.00     0.007 C 
HETATM    4  C5  UNL     1     -35.428  14.360  -7.019  1.00 20.00     0.008 C 
HETATM    5  C6  UNL     1     -33.746  15.212  -3.778  1.00 20.00     0.026 C 
HETATM    6  C7  UNL     1     -35.018  16.876  -7.047  1.00 20.00     0.125 C 
HETATM    7  C8  UNL     1     -34.501  14.305  -5.817  1.00 20.00     0.009 C 
HETATM    8  C9  UNL     1     -34.622  15.575  -4.974  1.00 20.00     0.090 C 
HETATM    9  N10 UNL     1     -34.306  16.755  -5.770  1.00 20.00    -0.354 N 
ENDROOT
BRANCH   9  10
HETATM   10  C1  UNL     1     -33.680  17.869  -5.231  1.00 20.00     0.351 C 
HETATM   11  O11 UNL     1     -33.355  18.895  -5.820  1.00 20.00    -0.284 OA
ENDBRANCH   9  10
TORSDOF 1
ENDMDL
