MODEL 1
REMARK VINA RESULT:      -4.6      0.000      0.000
REMARK  1 active torsions:
REMARK  status: ('A' for Active; 'I' for Inactive)
REMARK    1  A    between atoms: C6_6  and  C8_8 
ROOT
HETATM    1  C1  UNL     1     -36.780  14.732  -3.678  1.00 20.00     0.069 C 
HETATM    2  C2  UNL     1     -35.022  16.069  -4.808  1.00 20.00     0.051 C 
HETATM    3  C3  UNL     1     -34.443  13.945  -3.589  1.00 20.00     0.051 C 
HETATM    4  C4  UNL     1     -34.385  15.292  -5.961  1.00 20.00     0.169 C 
HETATM    5  C5  UNL     1     -34.490  13.171  -4.912  1.00 20.00     0.169 C 
HETATM    6  C6  UNL     1     -35.367  15.175  -3.594  1.00 20.00     0.052 C 
HETATM    7  N9  UNL     1     -37.885  14.385  -3.742  1.00 20.00    -0.196 NA
HETATM    8  O10 UNL     1     -34.900  13.969  -6.024  1.00 20.00    -0.391 OA
ENDROOT
BRANCH   6   9
HETATM    9  C8  UNL     1     -35.193  15.969  -2.292  1.00 20.00     0.020 C 
HETATM   10  C7  UNL     1     -33.821  16.538  -2.185  1.00 20.00     0.007 C 
ENDBRANCH   6   9
TORSDOF 1
ENDMDL
MODEL 2
REMARK VINA RESULT:      -4.3      1.998      3.560
REMARK  1 active torsions:
REMARK  status: ('A' for Active; 'I' for Inactive)
REMARK    1  A    between atoms: C6_6  and  C8_8 
ROOT
HETATM    1  C1  UNL     1     -34.614  13.756  -4.909  1.00 20.00     0.069 C 
HETATM    2  C2  UNL     1     -33.287  15.760  -4.293  1.00 20.00     0.051 C 
HETATM    3  C3  UNL     1     -35.753  15.939  -4.758  1.00 20.00     0.051 C 
HETATM    4  C4  UNL     1     -33.746  16.344  -2.955  1.00 20.00     0.169 C 
HETATM    5  C5  UNL     1     -36.045  15.859  -3.254  1.00 20.00     0.169 C 
HETATM    6  C6  UNL     1     -34.455  15.212  -5.145  1.00 20.00     0.052 C 
HETATM    7  N9  UNL     1     -34.739  12.618  -4.725  1.00 20.00    -0.196 NA
HETATM    8  O10 UNL     1     -34.878  15.642  -2.460  1.00 20.00    -0.391 OA
ENDROOT
BRANCH   6   9
HETATM    9  C8  UNL     1     -34.159  15.422  -6.637  1.00 20.00     0.020 C 
HETATM   10  C7  UNL     1     -35.159  14.722  -7.490  1.00 20.00     0.007 C 
ENDBRANCH   6   9
TORSDOF 1
ENDMDL
MODEL 3
REMARK VINA RESULT:      -4.3      2.080      2.729
REMARK  1 active torsions:
REMARK  status: ('A' for Active; 'I' for Inactive)
REMARK    1  A    between atoms: C6_6  and  C8_8 
ROOT
HETATM    1  C1  UNL     1     -33.972  16.991  -4.337  1.00 20.00     0.069 C 
HETATM    2  C2  UNL     1     -33.028  14.902  -3.388  1.00 20.00     0.051 C 
HETATM    3  C3  UNL     1     -35.453  15.486  -3.061  1.00 20.00     0.051 C 
HETATM    4  C4  UNL     1     -33.665  13.663  -4.021  1.00 20.00     0.169 C 
HETATM    5  C5  UNL     1     -35.830  14.594  -4.250  1.00 20.00     0.169 C 
HETATM    6  C6  UNL     1     -34.032  16.060  -3.184  1.00 20.00     0.052 C 
HETATM    7  N9  UNL     1     -33.926  17.719  -5.239  1.00 20.00    -0.196 NA
HETATM    8  O10 UNL     1     -34.701  14.033  -4.920  1.00 20.00    -0.391 OA
ENDROOT
BRANCH   6   9
HETATM    9  C8  UNL     1     -33.671  16.849  -1.917  1.00 20.00     0.020 C 
HETATM   10  C7  UNL     1     -34.663  16.613  -0.832  1.00 20.00     0.007 C 
ENDBRANCH   6   9
TORSDOF 1
ENDMDL
MODEL 4
REMARK VINA RESULT:      -4.2      1.867      2.891
REMARK  1 active torsions:
REMARK  status: ('A' for Active; 'I' for Inactive)
REMARK    1  A    between atoms: C6_6  and  C8_8 
ROOT
HETATM    1  C1  UNL     1     -35.102  13.753  -4.627  1.00 20.00     0.069 C 
HETATM    2  C2  UNL     1     -34.586  15.893  -5.770  1.00 20.00     0.051 C 
HETATM    3  C3  UNL     1     -35.174  15.847  -3.324  1.00 20.00     0.051 C 
HETATM    4  C4  UNL     1     -33.320  16.538  -5.203  1.00 20.00     0.169 C 
HETATM    5  C5  UNL     1     -33.683  15.857  -2.964  1.00 20.00     0.169 C 
HETATM    6  C6  UNL     1     -35.444  15.194  -4.690  1.00 20.00     0.052 C 
HETATM    7  N9  UNL     1     -34.835  12.625  -4.577  1.00 20.00    -0.196 NA
HETATM    8  O10 UNL     1     -32.823  15.790  -4.102  1.00 20.00    -0.391 OA
ENDROOT
BRANCH   6   9
HETATM    9  C8  UNL     1     -36.933  15.315  -5.045  1.00 20.00     0.020 C 
HETATM   10  C7  UNL     1     -37.795  14.798  -3.946  1.00 20.00     0.007 C 
ENDBRANCH   6   9
TORSDOF 1
ENDMDL
MODEL 5
REMARK VINA RESULT:      -4.2      1.598      2.232
REMARK  1 active torsions:
REMARK  status: ('A' for Active; 'I' for Inactive)
REMARK    1  A    between atoms: C6_6  and  C8_8 
ROOT
HETATM    1  C1  UNL     1     -34.671  14.024  -4.164  1.00 20.00     0.069 C 
HETATM    2  C2  UNL     1     -35.831  16.216  -4.103  1.00 20.00     0.051 C 
HETATM    3  C3  UNL     1     -33.604  15.967  -5.247  1.00 20.00     0.051 C 
HETATM    4  C4  UNL     1     -36.225  16.679  -5.508  1.00 20.00     0.169 C 
HETATM    5  C5  UNL     1     -34.313  15.802  -6.597  1.00 20.00     0.169 C 
HETATM    6  C6  UNL     1     -34.466  15.490  -4.067  1.00 20.00     0.052 C 
HETATM    7  N9  UNL     1     -34.830  12.877  -4.240  1.00 20.00    -0.196 NA
HETATM    8  O10 UNL     1     -35.737  15.776  -6.491  1.00 20.00    -0.391 OA
ENDROOT
BRANCH   6   9
HETATM    9  C8  UNL     1     -33.752  15.783  -2.740  1.00 20.00     0.020 C 
HETATM   10  C7  UNL     1     -34.714  16.231  -1.695  1.00 20.00     0.007 C 
ENDBRANCH   6   9
TORSDOF 1
ENDMDL
MODEL 6
REMARK VINA RESULT:      -4.2      1.517      3.144
REMARK  1 active torsions:
REMARK  status: ('A' for Active; 'I' for Inactive)
REMARK    1  A    between atoms: C6_6  and  C8_8 
ROOT
HETATM    1  C1  UNL     1     -36.820  14.511  -4.395  1.00 20.00     0.069 C 
HETATM    2  C2  UNL     1     -34.614  13.523  -4.956  1.00 20.00     0.051 C 
HETATM    3  C3  UNL     1     -34.908  16.017  -4.799  1.00 20.00     0.051 C 
HETATM    4  C4  UNL     1     -33.576  13.824  -3.873  1.00 20.00     0.169 C 
HETATM    5  C5  UNL     1     -34.382  15.990  -3.359  1.00 20.00     0.169 C 
HETATM    6  C6  UNL     1     -35.589  14.698  -5.201  1.00 20.00     0.052 C 
HETATM    7  N9  UNL     1     -37.783  14.365  -3.766  1.00 20.00    -0.196 NA
HETATM    8  O10 UNL     1     -34.122  14.673  -2.873  1.00 20.00    -0.391 OA
ENDROOT
BRANCH   6   9
HETATM    9  C8  UNL     1     -35.993  14.744  -6.682  1.00 20.00     0.020 C 
HETATM   10  C7  UNL     1     -34.797  14.844  -7.565  1.00 20.00     0.007 C 
ENDBRANCH   6   9
TORSDOF 1
ENDMDL
MODEL 7
REMARK VINA RESULT:      -4.1      1.977      2.627
REMARK  1 active torsions:
REMARK  status: ('A' for Active; 'I' for Inactive)
REMARK    1  A    between atoms: C6_6  and  C8_8 
ROOT
HETATM    1  C1  UNL     1     -33.977  16.453  -4.420  1.00 20.00     0.069 C 
HETATM    2  C2  UNL     1     -34.553  14.215  -3.517  1.00 20.00     0.051 C 
HETATM    3  C3  UNL     1     -36.233  15.546  -4.836  1.00 20.00     0.051 C 
HETATM    4  C4  UNL     1     -34.830  13.214  -4.641  1.00 20.00     0.169 C 
HETATM    5  C5  UNL     1     -35.856  14.768  -6.103  1.00 20.00     0.169 C 
HETATM    6  C6  UNL     1     -35.069  15.638  -3.835  1.00 20.00     0.052 C 
HETATM    7  N9  UNL     1     -33.123  17.091  -4.877  1.00 20.00    -0.196 NA
HETATM    8  O10 UNL     1     -34.778  13.853  -5.909  1.00 20.00    -0.391 OA
ENDROOT
BRANCH   6   9
HETATM    9  C8  UNL     1     -35.537  16.326  -2.544  1.00 20.00     0.020 C 
HETATM   10  C7  UNL     1     -34.460  16.336  -1.516  1.00 20.00     0.007 C 
ENDBRANCH   6   9
TORSDOF 1
ENDMDL
MODEL 8
REMARK VINA RESULT:      -4.1      1.662      3.155
REMARK  1 active torsions:
REMARK  status: ('A' for Active; 'I' for Inactive)
REMARK    1  A    between atoms: C6_6  and  C8_8 
ROOT
HETATM    1  C1  UNL     1     -36.598  14.724  -3.641  1.00 20.00     0.069 C 
HETATM    2  C2  UNL     1     -34.963  15.894  -2.187  1.00 20.00     0.051 C 
HETATM    3  C3  UNL     1     -34.840  16.099  -4.692  1.00 20.00     0.051 C 
HETATM    4  C4  UNL     1     -35.090  17.413  -2.315  1.00 20.00     0.169 C 
HETATM    5  C5  UNL     1     -35.615  17.421  -4.624  1.00 20.00     0.169 C 
HETATM    6  C6  UNL     1     -35.184  15.155  -3.528  1.00 20.00     0.052 C 
HETATM    7  N9  UNL     1     -37.704  14.386  -3.730  1.00 20.00    -0.196 NA
HETATM    8  O10 UNL     1     -36.048  17.758  -3.306  1.00 20.00    -0.391 OA
ENDROOT
BRANCH   6   9
HETATM    9  C8  UNL     1     -34.298  13.902  -3.587  1.00 20.00     0.020 C 
HETATM   10  C7  UNL     1     -34.476  13.175  -4.875  1.00 20.00     0.007 C 
ENDBRANCH   6   9
TORSDOF 1
ENDMDL
MODEL 9
REMARK VINA RESULT:      -4.1      1.296      1.316
REMARK  1 active torsions:
REMARK  status: ('A' for Active; 'I' for Inactive)
REMARK    1  A    between atoms: C6_6  and  C8_8 
ROOT
HETATM    1  C1  UNL     1     -36.215  15.829  -3.346  1.00 20.00     0.069 C 
HETATM    2  C2  UNL     1     -34.041  16.928  -3.815  1.00 20.00     0.051 C 
HETATM    3  C3  UNL     1     -34.148  14.491  -3.200  1.00 20.00     0.051 C 
HETATM    4  C4  UNL     1     -33.372  16.334  -5.056  1.00 20.00     0.169 C 
HETATM    5  C5  UNL     1     -34.104  14.112  -4.686  1.00 20.00     0.169 C 
HETATM    6  C6  UNL     1     -34.783  15.871  -2.964  1.00 20.00     0.052 C 
HETATM    7  N9  UNL     1     -37.336  15.796  -3.643  1.00 20.00    -0.196 NA
HETATM    8  O10 UNL     1     -34.126  15.240  -5.561  1.00 20.00    -0.391 OA
ENDROOT
BRANCH   6   9
HETATM    9  C8  UNL     1     -34.697  16.243  -1.477  1.00 20.00     0.020 C 
HETATM   10  C7  UNL     1     -33.691  17.316  -1.245  1.00 20.00     0.007 C 
ENDBRANCH   6   9
TORSDOF 1
ENDMDL
