MODEL 1
REMARK VINA RESULT:      -5.3      0.000      0.000
REMARK  2 active torsions:
REMARK  status: ('A' for Active; 'I' for Inactive)
REMARK    1  A    between atoms: C3_3  and  C8_8 
REMARK    2  A    between atoms: C3_3  and  C9_9 
ROOT
HETATM    1  C1  UNL     1     -32.040   8.795   1.379  1.00 20.00     0.012 C 
HETATM    2  C2  UNL     1     -32.068   8.010   2.287  1.00 20.00    -0.110 C 
HETATM    3  C9  UNL     1     -32.094   7.053   3.399  1.00 20.00     0.171 C 
ENDROOT
BRANCH   3   4
HETATM    4  C3  UNL     1     -33.275   6.107   3.325  1.00 20.00     0.142 C 
HETATM    5  O10 UNL     1     -33.295   5.112   2.602  1.00 20.00    -0.297 OA
BRANCH   4   6
HETATM    6  C8  UNL     1     -34.464   6.453   4.208  1.00 20.00     0.060 C 
HETATM    7  C4  UNL     1     -35.566   5.421   3.997  1.00 20.00     0.038 C 
HETATM    8  C6  UNL     1     -35.289   4.111   4.725  1.00 20.00     0.168 C 
HETATM    9  O11 UNL     1     -35.005   4.346   6.103  1.00 20.00    -0.391 OA
HETATM   10  C7  UNL     1     -33.828   5.132   6.277  1.00 20.00     0.168 C 
HETATM   11  C5  UNL     1     -34.002   6.515   5.659  1.00 20.00     0.038 C 
ENDBRANCH   4   6
ENDBRANCH   3   4
TORSDOF 2
ENDMDL
MODEL 2
REMARK VINA RESULT:      -4.7     11.060     12.235
REMARK  2 active torsions:
REMARK  status: ('A' for Active; 'I' for Inactive)
REMARK    1  A    between atoms: C3_3  and  C8_8 
REMARK    2  A    between atoms: C3_3  and  C9_9 
ROOT
HETATM    1  C1  UNL     1     -35.124  17.362   0.533  1.00 20.00     0.012 C 
HETATM    2  C2  UNL     1     -34.606  17.017  -0.494  1.00 20.00    -0.110 C 
HETATM    3  C9  UNL     1     -33.966  16.599  -1.747  1.00 20.00     0.171 C 
ENDROOT
BRANCH   3   4
HETATM    4  C3  UNL     1     -34.971  16.187  -2.804  1.00 20.00     0.142 C 
HETATM    5  O10 UNL     1     -36.181  16.127  -2.594  1.00 20.00    -0.297 OA
BRANCH   4   6
HETATM    6  C8  UNL     1     -34.398  15.846  -4.171  1.00 20.00     0.060 C 
HETATM    7  C4  UNL     1     -33.010  15.240  -3.999  1.00 20.00     0.038 C 
HETATM    8  C6  UNL     1     -33.058  13.783  -3.554  1.00 20.00     0.168 C 
HETATM    9  O11 UNL     1     -33.896  13.015  -4.415  1.00 20.00    -0.391 OA
HETATM   10  C7  UNL     1     -35.248  13.466  -4.382  1.00 20.00     0.168 C 
HETATM   11  C5  UNL     1     -35.355  14.901  -4.887  1.00 20.00     0.038 C 
ENDBRANCH   4   6
ENDBRANCH   3   4
TORSDOF 2
ENDMDL
MODEL 3
REMARK VINA RESULT:      -4.7     11.895     13.006
REMARK  2 active torsions:
REMARK  status: ('A' for Active; 'I' for Inactive)
REMARK    1  A    between atoms: C3_3  and  C8_8 
REMARK    2  A    between atoms: C3_3  and  C9_9 
ROOT
HETATM    1  C1  UNL     1     -34.728  17.453   0.295  1.00 20.00     0.012 C 
HETATM    2  C2  UNL     1     -34.727  16.758  -0.684  1.00 20.00    -0.110 C 
HETATM    3  C9  UNL     1     -34.728  15.902  -1.876  1.00 20.00     0.171 C 
ENDROOT
BRANCH   3   4
HETATM    4  C3  UNL     1     -34.234  16.626  -3.113  1.00 20.00     0.142 C 
HETATM    5  O10 UNL     1     -34.634  17.741  -3.443  1.00 20.00    -0.297 OA
BRANCH   4   6
HETATM    6  C8  UNL     1     -33.196  15.891  -3.946  1.00 20.00     0.060 C 
HETATM    7  C4  UNL     1     -33.416  14.389  -3.817  1.00 20.00     0.038 C 
HETATM    8  C6  UNL     1     -34.582  13.892  -4.664  1.00 20.00     0.168 C 
HETATM    9  O11 UNL     1     -34.444  14.318  -6.018  1.00 20.00    -0.391 OA
HETATM   10  C7  UNL     1     -34.469  15.739  -6.134  1.00 20.00     0.168 C 
HETATM   11  C5  UNL     1     -33.294  16.366  -5.391  1.00 20.00     0.038 C 
ENDBRANCH   4   6
ENDBRANCH   3   4
TORSDOF 2
ENDMDL
MODEL 4
REMARK VINA RESULT:      -4.6     11.464     12.559
REMARK  2 active torsions:
REMARK  status: ('A' for Active; 'I' for Inactive)
REMARK    1  A    between atoms: C3_3  and  C8_8 
REMARK    2  A    between atoms: C3_3  and  C9_9 
ROOT
HETATM    1  C1  UNL     1     -34.751  17.012  -0.101  1.00 20.00     0.012 C 
HETATM    2  C2  UNL     1     -34.350  16.981  -1.232  1.00 20.00    -0.110 C 
HETATM    3  C9  UNL     1     -33.859  16.952  -2.615  1.00 20.00     0.171 C 
ENDROOT
BRANCH   3   4
HETATM    4  C3  UNL     1     -33.798  15.548  -3.181  1.00 20.00     0.142 C 
HETATM    5  O10 UNL     1     -32.746  15.003  -3.512  1.00 20.00    -0.297 OA
BRANCH   4   6
HETATM    6  C8  UNL     1     -35.129  14.827  -3.323  1.00 20.00     0.060 C 
HETATM    7  C4  UNL     1     -36.128  15.745  -4.016  1.00 20.00     0.038 C 
HETATM    8  C6  UNL     1     -35.906  15.824  -5.522  1.00 20.00     0.168 C 
HETATM    9  O11 UNL     1     -35.859  14.520  -6.097  1.00 20.00    -0.391 OA
HETATM   10  C7  UNL     1     -34.767  13.754  -5.592  1.00 20.00     0.168 C 
HETATM   11  C5  UNL     1     -34.910  13.529  -4.091  1.00 20.00     0.038 C 
ENDBRANCH   4   6
ENDBRANCH   3   4
TORSDOF 2
ENDMDL
MODEL 5
REMARK VINA RESULT:      -4.5     11.566     12.900
REMARK  2 active torsions:
REMARK  status: ('A' for Active; 'I' for Inactive)
REMARK    1  A    between atoms: C3_3  and  C8_8 
REMARK    2  A    between atoms: C3_3  and  C9_9 
ROOT
HETATM    1  C1  UNL     1     -35.533  14.527  -7.467  1.00 20.00     0.012 C 
HETATM    2  C2  UNL     1     -35.182  14.082  -6.409  1.00 20.00    -0.110 C 
HETATM    3  C9  UNL     1     -34.748  13.531  -5.120  1.00 20.00     0.171 C 
ENDROOT
BRANCH   3   4
HETATM    4  C3  UNL     1     -35.338  14.277  -3.940  1.00 20.00     0.142 C 
HETATM    5  O10 UNL     1     -36.549  14.382  -3.749  1.00 20.00    -0.297 OA
BRANCH   4   6
HETATM    6  C8  UNL     1     -34.339  14.904  -2.981  1.00 20.00     0.060 C 
HETATM    7  C4  UNL     1     -33.083  15.298  -3.747  1.00 20.00     0.038 C 
HETATM    8  C6  UNL     1     -33.262  16.585  -4.545  1.00 20.00     0.168 C 
HETATM    9  O11 UNL     1     -33.758  17.633  -3.714  1.00 20.00    -0.391 OA
HETATM   10  C7  UNL     1     -35.048  17.330  -3.188  1.00 20.00     0.168 C 
HETATM   11  C5  UNL     1     -34.993  16.096  -2.293  1.00 20.00     0.038 C 
ENDBRANCH   4   6
ENDBRANCH   3   4
TORSDOF 2
ENDMDL
MODEL 6
REMARK VINA RESULT:      -4.4     11.326     12.518
REMARK  2 active torsions:
REMARK  status: ('A' for Active; 'I' for Inactive)
REMARK    1  A    between atoms: C3_3  and  C8_8 
REMARK    2  A    between atoms: C3_3  and  C9_9 
ROOT
HETATM    1  C1  UNL     1     -34.098  17.107  -0.746  1.00 20.00     0.012 C 
HETATM    2  C2  UNL     1     -33.960  17.195  -1.936  1.00 20.00    -0.110 C 
HETATM    3  C9  UNL     1     -33.793  17.312  -3.389  1.00 20.00     0.171 C 
ENDROOT
BRANCH   3   4
HETATM    4  C3  UNL     1     -33.556  15.972  -4.057  1.00 20.00     0.142 C 
HETATM    5  O10 UNL     1     -32.602  15.245  -3.783  1.00 20.00    -0.297 OA
BRANCH   4   6
HETATM    6  C8  UNL     1     -34.577  15.559  -5.105  1.00 20.00     0.060 C 
HETATM    7  C4  UNL     1     -34.474  14.057  -5.345  1.00 20.00     0.038 C 
HETATM    8  C6  UNL     1     -35.139  13.241  -4.243  1.00 20.00     0.168 C 
HETATM    9  O11 UNL     1     -36.479  13.677  -4.025  1.00 20.00    -0.391 OA
HETATM   10  C7  UNL     1     -36.532  15.030  -3.579  1.00 20.00     0.168 C 
HETATM   11  C5  UNL     1     -35.965  15.973  -4.635  1.00 20.00     0.038 C 
ENDBRANCH   4   6
ENDBRANCH   3   4
TORSDOF 2
ENDMDL
MODEL 7
REMARK VINA RESULT:      -4.4     11.367     12.683
REMARK  2 active torsions:
REMARK  status: ('A' for Active; 'I' for Inactive)
REMARK    1  A    between atoms: C3_3  and  C8_8 
REMARK    2  A    between atoms: C3_3  and  C9_9 
ROOT
HETATM    1  C1  UNL     1     -33.369  18.828  -1.669  1.00 20.00     0.012 C 
HETATM    2  C2  UNL     1     -33.854  17.742  -1.506  1.00 20.00    -0.110 C 
HETATM    3  C9  UNL     1     -34.446  16.416  -1.297  1.00 20.00     0.171 C 
ENDROOT
BRANCH   3   4
HETATM    4  C3  UNL     1     -34.751  15.703  -2.599  1.00 20.00     0.142 C 
HETATM    5  O10 UNL     1     -35.893  15.536  -3.023  1.00 20.00    -0.297 OA
BRANCH   4   6
HETATM    6  C8  UNL     1     -33.548  15.192  -3.376  1.00 20.00     0.060 C 
HETATM    7  C4  UNL     1     -33.777  13.734  -3.757  1.00 20.00     0.038 C 
HETATM    8  C6  UNL     1     -34.723  13.579  -4.942  1.00 20.00     0.168 C 
HETATM    9  O11 UNL     1     -34.296  14.380  -6.042  1.00 20.00    -0.391 OA
HETATM   10  C7  UNL     1     -34.309  15.770  -5.725  1.00 20.00     0.168 C 
HETATM   11  C5  UNL     1     -33.332  16.079  -4.596  1.00 20.00     0.038 C 
ENDBRANCH   4   6
ENDBRANCH   3   4
TORSDOF 2
ENDMDL
MODEL 8
REMARK VINA RESULT:      -4.3     12.050     13.049
REMARK  2 active torsions:
REMARK  status: ('A' for Active; 'I' for Inactive)
REMARK    1  A    between atoms: C3_3  and  C8_8 
REMARK    2  A    between atoms: C3_3  and  C9_9 
ROOT
HETATM    1  C1  UNL     1     -34.828  17.025  -0.489  1.00 20.00     0.012 C 
HETATM    2  C2  UNL     1     -34.339  16.494  -1.449  1.00 20.00    -0.110 C 
HETATM    3  C9  UNL     1     -33.736  15.840  -2.616  1.00 20.00     0.171 C 
ENDROOT
BRANCH   3   4
HETATM    4  C3  UNL     1     -34.261  16.390  -3.927  1.00 20.00     0.142 C 
HETATM    5  O10 UNL     1     -33.684  17.268  -4.567  1.00 20.00    -0.297 OA
BRANCH   4   6
HETATM    6  C8  UNL     1     -35.567  15.792  -4.426  1.00 20.00     0.060 C 
HETATM    7  C4  UNL     1     -35.698  16.044  -5.923  1.00 20.00     0.038 C 
HETATM    8  C6  UNL     1     -34.839  15.097  -6.754  1.00 20.00     0.168 C 
HETATM    9  O11 UNL     1     -35.088  13.739  -6.396  1.00 20.00    -0.391 OA
HETATM   10  C7  UNL     1     -34.740  13.474  -5.040  1.00 20.00     0.168 C 
HETATM   11  C5  UNL     1     -35.592  14.306  -4.088  1.00 20.00     0.038 C 
ENDBRANCH   4   6
ENDBRANCH   3   4
TORSDOF 2
ENDMDL
MODEL 9
REMARK VINA RESULT:      -4.2     11.793     12.961
REMARK  2 active torsions:
REMARK  status: ('A' for Active; 'I' for Inactive)
REMARK    1  A    between atoms: C3_3  and  C8_8 
REMARK    2  A    between atoms: C3_3  and  C9_9 
ROOT
HETATM    1  C1  UNL     1     -34.583  14.774  -7.024  1.00 20.00     0.012 C 
HETATM    2  C2  UNL     1     -34.559  14.394  -5.885  1.00 20.00    -0.110 C 
HETATM    3  C9  UNL     1     -34.535  13.924  -4.495  1.00 20.00     0.171 C 
ENDROOT
BRANCH   3   4
HETATM    4  C3  UNL     1     -33.807  14.878  -3.570  1.00 20.00     0.142 C 
HETATM    5  O10 UNL     1     -32.609  15.137  -3.680  1.00 20.00    -0.297 OA
BRANCH   4   6
HETATM    6  C8  UNL     1     -34.646  15.515  -2.474  1.00 20.00     0.060 C 
HETATM    7  C4  UNL     1     -33.887  16.696  -1.880  1.00 20.00     0.038 C 
HETATM    8  C6  UNL     1     -33.942  17.934  -2.768  1.00 20.00     0.168 C 
HETATM    9  O11 UNL     1     -35.289  18.255  -3.110  1.00 20.00    -0.391 OA
HETATM   10  C7  UNL     1     -35.907  17.217  -3.868  1.00 20.00     0.168 C 
HETATM   11  C5  UNL     1     -35.991  15.929  -3.057  1.00 20.00     0.038 C 
ENDBRANCH   4   6
ENDBRANCH   3   4
TORSDOF 2
ENDMDL
