MODEL 1
REMARK VINA RESULT:      -4.7      0.000      0.000
REMARK  5 active torsions:
REMARK  status: ('A' for Active; 'I' for Inactive)
REMARK    1  A    between atoms: C1_1  and  C6_6 
REMARK    2  A    between atoms: C1_1  and  C10_10 
REMARK    3  A    between atoms: C7_7  and  C11_11 
REMARK    4  A    between atoms: C10_10  and  C13_13 
REMARK    5  A    between atoms: C12_12  and  C13_13 
ROOT
HETATM    1  C2  UNL     1     -33.728  17.210  -2.190  1.00 20.00     0.001 C 
HETATM    2  C3  UNL     1     -34.379  18.168  -3.185  1.00 20.00     0.012 C 
HETATM    3  C4  UNL     1     -34.718  16.167  -1.683  1.00 20.00     0.005 C 
HETATM    4  C5  UNL     1     -35.993  16.315  -3.871  1.00 20.00     0.016 C 
HETATM    5  C6  UNL     1     -35.085  17.454  -4.332  1.00 20.00     0.056 C 
HETATM    6  C7  UNL     1     -35.382  15.375  -2.816  1.00 20.00    -0.014 C 
ENDROOT
BRANCH   5   7
HETATM    7  C1  UNL     1     -34.088  16.943  -5.358  1.00 20.00     0.131 C 
HETATM    8  O14 UNL     1     -32.886  16.805  -5.101  1.00 20.00    -0.298 OA
BRANCH   7   9
HETATM    9  C10 UNL     1     -34.648  16.602  -6.732  1.00 20.00     0.079 C 
BRANCH   9  10
HETATM   10  C13 UNL     1     -34.284  15.190  -7.186  1.00 20.00     0.007 C 
BRANCH  10  11
HETATM   11  C12 UNL     1     -35.504  14.451  -7.734  1.00 20.00    -0.004 C 
HETATM   12  C9  UNL     1     -36.801  15.112  -7.295  1.00 20.00     0.005 C 
ENDBRANCH  10  11
ENDBRANCH   9  10
ENDBRANCH   7   9
ENDBRANCH   5   7
BRANCH   6  13
HETATM   13  C11 UNL     1     -34.424  14.350  -3.427  1.00 20.00     0.000 C 
HETATM   14  C8  UNL     1     -35.155  13.313  -4.215  1.00 20.00     0.005 C 
ENDBRANCH   6  13
TORSDOF 5
ENDMDL
MODEL 2
REMARK VINA RESULT:      -4.7      1.543      5.058
REMARK  5 active torsions:
REMARK  status: ('A' for Active; 'I' for Inactive)
REMARK    1  A    between atoms: C1_1  and  C6_6 
REMARK    2  A    between atoms: C1_1  and  C10_10 
REMARK    3  A    between atoms: C7_7  and  C11_11 
REMARK    4  A    between atoms: C10_10  and  C13_13 
REMARK    5  A    between atoms: C12_12  and  C13_13 
ROOT
HETATM    1  C2  UNL     1     -34.783  13.569  -5.617  1.00 20.00     0.001 C 
HETATM    2  C3  UNL     1     -35.326  13.635  -4.192  1.00 20.00     0.012 C 
HETATM    3  C4  UNL     1     -35.448  14.603  -6.520  1.00 20.00     0.005 C 
HETATM    4  C5  UNL     1     -35.808  16.119  -4.519  1.00 20.00     0.016 C 
HETATM    5  C6  UNL     1     -35.265  15.034  -3.590  1.00 20.00     0.056 C 
HETATM    6  C7  UNL     1     -35.328  16.033  -5.979  1.00 20.00    -0.014 C 
ENDROOT
BRANCH   5   7
HETATM    7  C1  UNL     1     -33.853  15.383  -3.151  1.00 20.00     0.131 C 
HETATM    8  O14 UNL     1     -32.867  14.735  -3.520  1.00 20.00    -0.298 OA
BRANCH   7   9
HETATM    9  C10 UNL     1     -33.710  16.583  -2.227  1.00 20.00     0.079 C 
BRANCH   9  10
HETATM   10  C13 UNL     1     -34.646  16.518  -1.021  1.00 20.00     0.007 C 
BRANCH  10  11
HETATM   11  C12 UNL     1     -34.346  17.636  -0.024  1.00 20.00    -0.004 C 
HETATM   12  C9  UNL     1     -35.248  17.552   1.196  1.00 20.00     0.005 C 
ENDBRANCH  10  11
ENDBRANCH   9  10
ENDBRANCH   7   9
ENDBRANCH   5   7
BRANCH   6  13
HETATM   13  C11 UNL     1     -33.916  16.593  -6.167  1.00 20.00     0.000 C 
HETATM   14  C8  UNL     1     -33.834  18.029  -5.766  1.00 20.00     0.005 C 
ENDBRANCH   6  13
TORSDOF 5
ENDMDL
MODEL 3
REMARK VINA RESULT:      -4.5      1.768      4.284
REMARK  5 active torsions:
REMARK  status: ('A' for Active; 'I' for Inactive)
REMARK    1  A    between atoms: C1_1  and  C6_6 
REMARK    2  A    between atoms: C1_1  and  C10_10 
REMARK    3  A    between atoms: C7_7  and  C11_11 
REMARK    4  A    between atoms: C10_10  and  C13_13 
REMARK    5  A    between atoms: C12_12  and  C13_13 
ROOT
HETATM    1  C2  UNL     1     -34.567  16.985  -5.858  1.00 20.00     0.001 C 
HETATM    2  C3  UNL     1     -34.003  15.770  -6.591  1.00 20.00     0.012 C 
HETATM    3  C4  UNL     1     -36.045  17.194  -6.171  1.00 20.00     0.005 C 
HETATM    4  C5  UNL     1     -36.319  14.700  -6.544  1.00 20.00     0.016 C 
HETATM    5  C6  UNL     1     -34.815  14.500  -6.363  1.00 20.00     0.056 C 
HETATM    6  C7  UNL     1     -36.900  15.957  -5.870  1.00 20.00    -0.014 C 
ENDROOT
BRANCH   5   7
HETATM    7  C1  UNL     1     -34.531  13.903  -4.995  1.00 20.00     0.131 C 
HETATM    8  O14 UNL     1     -35.023  12.830  -4.627  1.00 20.00    -0.298 OA
BRANCH   7   9
HETATM    9  C10 UNL     1     -33.600  14.698  -4.091  1.00 20.00     0.079 C 
BRANCH   9  10
HETATM   10  C13 UNL     1     -34.207  14.985  -2.720  1.00 20.00     0.007 C 
BRANCH  10  11
HETATM   11  C12 UNL     1     -33.916  16.417  -2.272  1.00 20.00    -0.004 C 
HETATM   12  C9  UNL     1     -34.536  16.714  -0.916  1.00 20.00     0.005 C 
ENDBRANCH  10  11
ENDBRANCH   9  10
ENDBRANCH   7   9
ENDBRANCH   5   7
BRANCH   6  13
HETATM   13  C11 UNL     1     -37.116  15.770  -4.367  1.00 20.00     0.000 C 
HETATM   14  C8  UNL     1     -38.135  14.716  -4.083  1.00 20.00     0.005 C 
ENDBRANCH   6  13
TORSDOF 5
ENDMDL
MODEL 4
REMARK VINA RESULT:      -4.5      1.668      3.275
REMARK  5 active torsions:
REMARK  status: ('A' for Active; 'I' for Inactive)
REMARK    1  A    between atoms: C1_1  and  C6_6 
REMARK    2  A    between atoms: C1_1  and  C10_10 
REMARK    3  A    between atoms: C7_7  and  C11_11 
REMARK    4  A    between atoms: C10_10  and  C13_13 
REMARK    5  A    between atoms: C12_12  and  C13_13 
ROOT
HETATM    1  C2  UNL     1     -35.039  13.845  -5.335  1.00 20.00     0.001 C 
HETATM    2  C3  UNL     1     -34.377  14.797  -6.329  1.00 20.00     0.012 C 
HETATM    3  C4  UNL     1     -34.172  13.632  -4.099  1.00 20.00     0.005 C 
HETATM    4  C5  UNL     1     -33.185  15.949  -4.391  1.00 20.00     0.016 C 
HETATM    5  C6  UNL     1     -33.950  16.119  -5.702  1.00 20.00     0.056 C 
HETATM    6  C7  UNL     1     -33.796  14.944  -3.399  1.00 20.00    -0.014 C 
ENDROOT
BRANCH   5   7
HETATM    7  C1  UNL     1     -35.141  17.040  -5.495  1.00 20.00     0.131 C 
HETATM    8  O14 UNL     1     -35.081  18.045  -4.776  1.00 20.00    -0.298 OA
BRANCH   7   9
HETATM    9  C10 UNL     1     -36.422  16.664  -6.224  1.00 20.00     0.079 C 
BRANCH   9  10
HETATM   10  C13 UNL     1     -37.655  16.725  -5.326  1.00 20.00     0.007 C 
BRANCH  10  11
HETATM   11  C12 UNL     1     -38.394  15.387  -5.304  1.00 20.00    -0.004 C 
HETATM   12  C9  UNL     1     -38.404  14.778  -3.912  1.00 20.00     0.005 C 
ENDBRANCH  10  11
ENDBRANCH   9  10
ENDBRANCH   7   9
ENDBRANCH   5   7
BRANCH   6  13
HETATM   13  C11 UNL     1     -34.978  15.529  -2.622  1.00 20.00     0.000 C 
HETATM   14  C8  UNL     1     -34.522  16.413  -1.508  1.00 20.00     0.005 C 
ENDBRANCH   6  13
TORSDOF 5
ENDMDL
MODEL 5
REMARK VINA RESULT:      -4.5      1.295      3.928
REMARK  5 active torsions:
REMARK  status: ('A' for Active; 'I' for Inactive)
REMARK    1  A    between atoms: C1_1  and  C6_6 
REMARK    2  A    between atoms: C1_1  and  C10_10 
REMARK    3  A    between atoms: C7_7  and  C11_11 
REMARK    4  A    between atoms: C10_10  and  C13_13 
REMARK    5  A    between atoms: C12_12  and  C13_13 
ROOT
HETATM    1  C2  UNL     1     -37.046  16.003  -3.704  1.00 20.00     0.001 C 
HETATM    2  C3  UNL     1     -36.592  16.908  -4.847  1.00 20.00     0.012 C 
HETATM    3  C4  UNL     1     -36.981  14.530  -4.094  1.00 20.00     0.005 C 
HETATM    4  C5  UNL     1     -35.077  15.036  -5.690  1.00 20.00     0.016 C 
HETATM    5  C6  UNL     1     -35.224  16.530  -5.405  1.00 20.00     0.056 C 
HETATM    6  C7  UNL     1     -35.591  14.101  -4.580  1.00 20.00    -0.014 C 
ENDROOT
BRANCH   5   7
HETATM    7  C1  UNL     1     -34.107  16.997  -4.487  1.00 20.00     0.131 C 
HETATM    8  O14 UNL     1     -32.915  16.769  -4.728  1.00 20.00    -0.298 OA
BRANCH   7   9
HETATM    9  C10 UNL     1     -34.530  17.769  -3.246  1.00 20.00     0.079 C 
BRANCH   9  10
HETATM   10  C13 UNL     1     -33.760  17.349  -1.996  1.00 20.00     0.007 C 
BRANCH  10  11
HETATM   11  C12 UNL     1     -34.647  16.559  -1.036  1.00 20.00    -0.004 C 
HETATM   12  C9  UNL     1     -34.889  17.321   0.257  1.00 20.00     0.005 C 
ENDBRANCH  10  11
ENDBRANCH   9  10
ENDBRANCH   7   9
ENDBRANCH   5   7
BRANCH   6  13
HETATM   13  C11 UNL     1     -34.602  13.967  -3.420  1.00 20.00     0.000 C 
HETATM   14  C8  UNL     1     -33.278  13.454  -3.881  1.00 20.00     0.005 C 
ENDBRANCH   6  13
TORSDOF 5
ENDMDL
MODEL 6
REMARK VINA RESULT:      -4.4      1.657      4.671
REMARK  5 active torsions:
REMARK  status: ('A' for Active; 'I' for Inactive)
REMARK    1  A    between atoms: C1_1  and  C6_6 
REMARK    2  A    between atoms: C1_1  and  C10_10 
REMARK    3  A    between atoms: C7_7  and  C11_11 
REMARK    4  A    between atoms: C10_10  and  C13_13 
REMARK    5  A    between atoms: C12_12  and  C13_13 
ROOT
HETATM    1  C2  UNL     1     -36.804  15.335  -6.356  1.00 20.00     0.001 C 
HETATM    2  C3  UNL     1     -36.381  16.789  -6.164  1.00 20.00     0.012 C 
HETATM    3  C4  UNL     1     -35.639  14.468  -6.823  1.00 20.00     0.005 C 
HETATM    4  C5  UNL     1     -34.015  16.001  -5.622  1.00 20.00     0.016 C 
HETATM    5  C6  UNL     1     -35.161  16.946  -5.263  1.00 20.00     0.056 C 
HETATM    6  C7  UNL     1     -34.427  14.542  -5.887  1.00 20.00    -0.014 C 
ENDROOT
BRANCH   5   7
HETATM    7  C1  UNL     1     -35.533  16.780  -3.799  1.00 20.00     0.131 C 
HETATM    8  O14 UNL     1     -36.667  16.441  -3.439  1.00 20.00    -0.298 OA
BRANCH   7   9
HETATM    9  C10 UNL     1     -34.431  17.053  -2.786  1.00 20.00     0.079 C 
BRANCH   9  10
HETATM   10  C13 UNL     1     -34.599  16.252  -1.497  1.00 20.00     0.007 C 
BRANCH  10  11
HETATM   11  C12 UNL     1     -34.809  17.172  -0.295  1.00 20.00    -0.004 C 
HETATM   12  C9  UNL     1     -33.597  18.057  -0.052  1.00 20.00     0.005 C 
ENDBRANCH  10  11
ENDBRANCH   9  10
ENDBRANCH   7   9
ENDBRANCH   5   7
BRANCH   6  13
HETATM   13  C11 UNL     1     -34.659  13.753  -4.596  1.00 20.00     0.000 C 
HETATM   14  C8  UNL     1     -33.405  13.622  -3.797  1.00 20.00     0.005 C 
ENDBRANCH   6  13
TORSDOF 5
ENDMDL
MODEL 7
REMARK VINA RESULT:      -4.4      1.897      4.902
REMARK  5 active torsions:
REMARK  status: ('A' for Active; 'I' for Inactive)
REMARK    1  A    between atoms: C1_1  and  C6_6 
REMARK    2  A    between atoms: C1_1  and  C10_10 
REMARK    3  A    between atoms: C7_7  and  C11_11 
REMARK    4  A    between atoms: C10_10  and  C13_13 
REMARK    5  A    between atoms: C12_12  and  C13_13 
ROOT
HETATM    1  C2  UNL     1     -34.660  15.997  -5.884  1.00 20.00     0.001 C 
HETATM    2  C3  UNL     1     -33.298  16.103  -5.202  1.00 20.00     0.012 C 
HETATM    3  C4  UNL     1     -35.307  14.638  -5.640  1.00 20.00     0.005 C 
HETATM    4  C5  UNL     1     -34.092  14.458  -3.421  1.00 20.00     0.016 C 
HETATM    5  C6  UNL     1     -33.340  15.754  -3.719  1.00 20.00     0.056 C 
HETATM    6  C7  UNL     1     -35.438  14.298  -4.150  1.00 20.00    -0.014 C 
ENDROOT
BRANCH   5   7
HETATM    7  C1  UNL     1     -33.924  16.895  -2.901  1.00 20.00     0.131 C 
HETATM    8  O14 UNL     1     -34.268  17.966  -3.414  1.00 20.00    -0.298 OA
BRANCH   7   9
HETATM    9  C10 UNL     1     -34.067  16.650  -1.406  1.00 20.00     0.079 C 
BRANCH   9  10
HETATM   10  C13 UNL     1     -35.173  17.491  -0.772  1.00 20.00     0.007 C 
BRANCH  10  11
HETATM   11  C12 UNL     1     -35.102  17.442   0.754  1.00 20.00    -0.004 C 
HETATM   12  C9  UNL     1     -34.053  18.401   1.294  1.00 20.00     0.005 C 
ENDBRANCH  10  11
ENDBRANCH   9  10
ENDBRANCH   7   9
ENDBRANCH   5   7
BRANCH   6  13
HETATM   13  C11 UNL     1     -36.565  15.092  -3.485  1.00 20.00     0.000 C 
HETATM   14  C8  UNL     1     -37.902  14.717  -4.034  1.00 20.00     0.005 C 
ENDBRANCH   6  13
TORSDOF 5
ENDMDL
MODEL 8
REMARK VINA RESULT:      -4.4      2.169      4.223
REMARK  5 active torsions:
REMARK  status: ('A' for Active; 'I' for Inactive)
REMARK    1  A    between atoms: C1_1  and  C6_6 
REMARK    2  A    between atoms: C1_1  and  C10_10 
REMARK    3  A    between atoms: C7_7  and  C11_11 
REMARK    4  A    between atoms: C10_10  and  C13_13 
REMARK    5  A    between atoms: C12_12  and  C13_13 
ROOT
HETATM    1  C2  UNL     1     -34.173  13.386  -4.038  1.00 20.00     0.001 C 
HETATM    2  C3  UNL     1     -34.861  13.795  -5.338  1.00 20.00     0.012 C 
HETATM    3  C4  UNL     1     -33.202  14.459  -3.555  1.00 20.00     0.005 C 
HETATM    4  C5  UNL     1     -34.622  16.243  -4.664  1.00 20.00     0.016 C 
HETATM    5  C6  UNL     1     -35.524  15.165  -5.262  1.00 20.00     0.056 C 
HETATM    6  C7  UNL     1     -33.864  15.832  -3.389  1.00 20.00    -0.014 C 
ENDROOT
BRANCH   5   7
HETATM    7  C1  UNL     1     -36.836  15.100  -4.497  1.00 20.00     0.131 C 
HETATM    8  O14 UNL     1     -37.205  14.080  -3.904  1.00 20.00    -0.298 OA
BRANCH   7   9
HETATM    9  C10 UNL     1     -37.679  16.366  -4.495  1.00 20.00     0.079 C 
BRANCH   9  10
HETATM   10  C13 UNL     1     -38.296  16.665  -3.130  1.00 20.00     0.007 C 
BRANCH  10  11
HETATM   11  C12 UNL     1     -37.757  17.972  -2.550  1.00 20.00    -0.004 C 
HETATM   12  C9  UNL     1     -37.065  18.810  -3.613  1.00 20.00     0.005 C 
ENDBRANCH  10  11
ENDBRANCH   9  10
ENDBRANCH   7   9
ENDBRANCH   5   7
BRANCH   6  13
HETATM   13  C11 UNL     1     -34.744  15.889  -2.138  1.00 20.00     0.000 C 
HETATM   14  C8  UNL     1     -34.272  16.932  -1.179  1.00 20.00     0.005 C 
ENDBRANCH   6  13
TORSDOF 5
ENDMDL
MODEL 9
REMARK VINA RESULT:      -4.3      1.387      4.370
REMARK  5 active torsions:
REMARK  status: ('A' for Active; 'I' for Inactive)
REMARK    1  A    between atoms: C1_1  and  C6_6 
REMARK    2  A    between atoms: C1_1  and  C10_10 
REMARK    3  A    between atoms: C7_7  and  C11_11 
REMARK    4  A    between atoms: C10_10  and  C13_13 
REMARK    5  A    between atoms: C12_12  and  C13_13 
ROOT
HETATM    1  C2  UNL     1     -33.512  14.071  -3.739  1.00 20.00     0.001 C 
HETATM    2  C3  UNL     1     -34.457  14.733  -2.739  1.00 20.00     0.012 C 
HETATM    3  C4  UNL     1     -34.274  13.235  -4.763  1.00 20.00     0.005 C 
HETATM    4  C5  UNL     1     -36.279  14.770  -4.525  1.00 20.00     0.016 C 
HETATM    5  C6  UNL     1     -35.572  15.531  -3.404  1.00 20.00     0.056 C 
HETATM    6  C7  UNL     1     -35.348  14.037  -5.508  1.00 20.00    -0.014 C 
ENDROOT
BRANCH   5   7
HETATM    7  C1  UNL     1     -35.061  16.865  -3.923  1.00 20.00     0.131 C 
HETATM    8  O14 UNL     1     -35.670  17.519  -4.778  1.00 20.00    -0.298 OA
BRANCH   7   9
HETATM    9  C10 UNL     1     -33.752  17.364  -3.330  1.00 20.00     0.079 C 
BRANCH   9  10
HETATM   10  C13 UNL     1     -33.958  18.362  -2.193  1.00 20.00     0.007 C 
BRANCH  10  11
HETATM   11  C12 UNL     1     -33.551  17.764  -0.847  1.00 20.00    -0.004 C 
HETATM   12  C9  UNL     1     -34.752  17.216  -0.094  1.00 20.00     0.005 C 
ENDBRANCH  10  11
ENDBRANCH   9  10
ENDBRANCH   7   9
ENDBRANCH   5   7
BRANCH   6  13
HETATM   13  C11 UNL     1     -34.734  14.976  -6.548  1.00 20.00     0.000 C 
HETATM   14  C8  UNL     1     -35.295  14.734  -7.910  1.00 20.00     0.005 C 
ENDBRANCH   6  13
TORSDOF 5
ENDMDL
