MODEL 1
REMARK VINA RESULT:      -5.0      0.000      0.000
REMARK  3 active torsions:
REMARK  status: ('A' for Active; 'I' for Inactive)
REMARK    1  A    between atoms: C1_1  and  C9_9 
REMARK    2  A    between atoms: C10_10  and  C11_11 
REMARK    3  A    between atoms: C11_11  and  N12_12 
ROOT
HETATM    1  C5  UNL     1     -33.414  14.213  -3.824  1.00 20.00     0.039 C 
HETATM    2  C6  UNL     1     -35.904  13.831  -4.060  1.00 20.00     0.039 C 
HETATM    3  C7  UNL     1     -33.694  15.599  -3.256  1.00 20.00     0.235 C 
HETATM    4  C8  UNL     1     -36.159  15.220  -3.489  1.00 20.00     0.235 C 
HETATM    5  C9  UNL     1     -34.537  13.706  -4.732  1.00 20.00     0.050 C 
HETATM    6  N12 UNL     1     -35.032  15.596  -2.558  1.00 20.00    -0.071 N 
HETATM    7  H33 UNL     1     -34.992  14.880  -1.821  1.00 20.00     0.279 HD
ENDROOT
BRANCH   6   8
HETATM    8  C11 UNL     1     -35.298  16.904  -1.865  1.00 20.00     0.239 C 
BRANCH   8   9
HETATM    9  C10 UNL     1     -34.457  16.983  -0.608  1.00 20.00     0.011 C 
HETATM   10  C3  UNL     1     -35.151  17.546   0.659  1.00 20.00     0.006 C 
HETATM   11  C2  UNL     1     -33.807  18.218   1.007  1.00 20.00     0.001 C 
HETATM   12  C4  UNL     1     -33.481  18.182  -0.500  1.00 20.00     0.006 C 
ENDBRANCH   8   9
ENDBRANCH   6   8
BRANCH   5  13
HETATM   13  C1  UNL     1     -34.523  14.424  -6.052  1.00 20.00     0.235 C 
HETATM   14  O13 UNL     1     -35.282  14.155  -6.976  1.00 20.00    -0.306 OA
ENDBRANCH   5  13
TORSDOF 3
ENDMDL
MODEL 2
REMARK VINA RESULT:      -4.8      1.225      1.759
REMARK  3 active torsions:
REMARK  status: ('A' for Active; 'I' for Inactive)
REMARK    1  A    between atoms: C1_1  and  C9_9 
REMARK    2  A    between atoms: C10_10  and  C11_11 
REMARK    3  A    between atoms: C11_11  and  N12_12 
ROOT
HETATM    1  C5  UNL     1     -34.841  16.167  -5.396  1.00 20.00     0.039 C 
HETATM    2  C6  UNL     1     -33.354  14.898  -3.790  1.00 20.00     0.039 C 
HETATM    3  C7  UNL     1     -35.672  16.659  -4.217  1.00 20.00     0.235 C 
HETATM    4  C8  UNL     1     -34.200  15.403  -2.628  1.00 20.00     0.235 C 
HETATM    5  C9  UNL     1     -34.127  14.845  -5.108  1.00 20.00     0.050 C 
HETATM    6  N12 UNL     1     -34.802  16.739  -2.987  1.00 20.00    -0.071 N 
HETATM    7  H33 UNL     1     -34.024  17.378  -3.201  1.00 20.00     0.279 HD
ENDROOT
BRANCH   6   8
HETATM    8  C11 UNL     1     -35.540  17.346  -1.825  1.00 20.00     0.239 C 
BRANCH   8   9
HETATM    9  C10 UNL     1     -34.687  17.232  -0.578  1.00 20.00     0.011 C 
HETATM   10  C3  UNL     1     -35.336  17.695   0.752  1.00 20.00     0.006 C 
HETATM   11  C2  UNL     1     -33.949  18.237   1.153  1.00 20.00     0.001 C 
HETATM   12  C4  UNL     1     -33.635  18.347  -0.353  1.00 20.00     0.006 C 
ENDBRANCH   8   9
ENDBRANCH   6   8
BRANCH   5  13
HETATM   13  C1  UNL     1     -35.101  13.700  -5.112  1.00 20.00     0.235 C 
HETATM   14  O13 UNL     1     -34.860  12.607  -4.611  1.00 20.00    -0.306 OA
ENDBRANCH   5  13
TORSDOF 3
ENDMDL
MODEL 3
REMARK VINA RESULT:      -4.6     11.179     11.961
REMARK  3 active torsions:
REMARK  status: ('A' for Active; 'I' for Inactive)
REMARK    1  A    between atoms: C1_1  and  C9_9 
REMARK    2  A    between atoms: C10_10  and  C11_11 
REMARK    3  A    between atoms: C11_11  and  N12_12 
ROOT
HETATM    1  C5  UNL     1     -34.090   6.485   5.824  1.00 20.00     0.039 C 
HETATM    2  C6  UNL     1     -35.493   5.532   3.946  1.00 20.00     0.039 C 
HETATM    3  C7  UNL     1     -32.869   6.450   4.912  1.00 20.00     0.235 C 
HETATM    4  C8  UNL     1     -34.258   5.507   3.054  1.00 20.00     0.235 C 
HETATM    5  C9  UNL     1     -35.151   5.454   5.434  1.00 20.00     0.050 C 
HETATM    6  N12 UNL     1     -33.309   6.601   3.477  1.00 20.00    -0.071 N 
HETATM    7  H33 UNL     1     -33.817   7.493   3.403  1.00 20.00     0.279 HD
ENDROOT
BRANCH   6   8
HETATM    8  C11 UNL     1     -32.133   6.706   2.545  1.00 20.00     0.239 C 
BRANCH   8   9
HETATM    9  C10 UNL     1     -31.847   8.167   2.266  1.00 20.00     0.011 C 
HETATM   10  C3  UNL     1     -33.065   9.127   2.271  1.00 20.00     0.006 C 
HETATM   11  C2  UNL     1     -32.381   9.881   1.112  1.00 20.00     0.001 C 
HETATM   12  C4  UNL     1     -31.650   8.564   0.780  1.00 20.00     0.006 C 
ENDBRANCH   8   9
ENDBRANCH   6   8
BRANCH   5  13
HETATM   13  C1  UNL     1     -34.712   4.066   5.810  1.00 20.00     0.235 C 
HETATM   14  O13 UNL     1     -34.879   3.087   5.092  1.00 20.00    -0.306 OA
ENDBRANCH   5  13
TORSDOF 3
ENDMDL
MODEL 4
REMARK VINA RESULT:      -4.4     12.587     15.131
REMARK  3 active torsions:
REMARK  status: ('A' for Active; 'I' for Inactive)
REMARK    1  A    between atoms: C1_1  and  C9_9 
REMARK    2  A    between atoms: C10_10  and  C11_11 
REMARK    3  A    between atoms: C11_11  and  N12_12 
ROOT
HETATM    1  C5  UNL     1     -42.573   5.316   0.436  1.00 20.00     0.039 C 
HETATM    2  C6  UNL     1     -40.481   4.777  -0.882  1.00 20.00     0.039 C 
HETATM    3  C7  UNL     1     -43.407   4.606  -0.623  1.00 20.00     0.235 C 
HETATM    4  C8  UNL     1     -41.337   4.072  -1.927  1.00 20.00     0.235 C 
HETATM    5  C9  UNL     1     -41.250   5.852  -0.113  1.00 20.00     0.050 C 
HETATM    6  N12 UNL     1     -42.581   3.523  -1.272  1.00 20.00    -0.071 N 
HETATM    7  H33 UNL     1     -42.277   2.880  -0.528  1.00 20.00     0.279 HD
ENDROOT
BRANCH   6   8
HETATM    8  C11 UNL     1     -43.398   2.703  -2.233  1.00 20.00     0.239 C 
BRANCH   8   9
HETATM    9  C10 UNL     1     -42.469   1.985  -3.190  1.00 20.00     0.011 C 
HETATM   10  C3  UNL     1     -42.875   1.989  -4.686  1.00 20.00     0.006 C 
HETATM   11  C2  UNL     1     -42.322   0.551  -4.764  1.00 20.00     0.001 C 
HETATM   12  C4  UNL     1     -42.594   0.440  -3.250  1.00 20.00     0.006 C 
ENDBRANCH   8   9
ENDBRANCH   6   8
BRANCH   5  13
HETATM   13  C1  UNL     1     -41.479   7.064  -0.972  1.00 20.00     0.235 C 
HETATM   14  O13 UNL     1     -42.425   7.829  -0.823  1.00 20.00    -0.306 OA
ENDBRANCH   5  13
TORSDOF 3
ENDMDL
MODEL 5
REMARK VINA RESULT:      -4.3      1.869      2.430
REMARK  3 active torsions:
REMARK  status: ('A' for Active; 'I' for Inactive)
REMARK    1  A    between atoms: C1_1  and  C9_9 
REMARK    2  A    between atoms: C10_10  and  C11_11 
REMARK    3  A    between atoms: C11_11  and  N12_12 
ROOT
HETATM    1  C5  UNL     1     -36.308  16.164  -5.303  1.00 20.00     0.039 C 
HETATM    2  C6  UNL     1     -35.325  14.270  -3.943  1.00 20.00     0.039 C 
HETATM    3  C7  UNL     1     -35.727  17.161  -4.309  1.00 20.00     0.235 C 
HETATM    4  C8  UNL     1     -34.753  15.287  -2.964  1.00 20.00     0.235 C 
HETATM    5  C9  UNL     1     -36.558  14.787  -4.684  1.00 20.00     0.050 C 
HETATM    6  N12 UNL     1     -34.480  16.583  -3.687  1.00 20.00    -0.071 N 
HETATM    7  H33 UNL     1     -33.823  16.375  -4.451  1.00 20.00     0.279 HD
ENDROOT
BRANCH   6   8
HETATM    8  C11 UNL     1     -33.790  17.580  -2.796  1.00 20.00     0.239 C 
BRANCH   8   9
HETATM    9  C10 UNL     1     -34.014  17.194  -1.348  1.00 20.00     0.011 C 
HETATM   10  C3  UNL     1     -35.300  17.740  -0.675  1.00 20.00     0.006 C 
HETATM   11  C2  UNL     1     -34.469  17.895   0.616  1.00 20.00     0.001 C 
HETATM   12  C4  UNL     1     -33.221  17.996  -0.285  1.00 20.00     0.006 C 
ENDBRANCH   8   9
ENDBRANCH   6   8
BRANCH   5  13
HETATM   13  C1  UNL     1     -37.754  14.820  -3.773  1.00 20.00     0.235 C 
HETATM   14  O13 UNL     1     -38.742  14.110  -3.929  1.00 20.00    -0.306 OA
ENDBRANCH   5  13
TORSDOF 3
ENDMDL
MODEL 6
REMARK VINA RESULT:      -4.3     11.984     14.544
REMARK  3 active torsions:
REMARK  status: ('A' for Active; 'I' for Inactive)
REMARK    1  A    between atoms: C1_1  and  C9_9 
REMARK    2  A    between atoms: C10_10  and  C11_11 
REMARK    3  A    between atoms: C11_11  and  N12_12 
ROOT
HETATM    1  C5  UNL     1     -41.054   5.707  -0.925  1.00 20.00     0.039 C 
HETATM    2  C6  UNL     1     -42.054   7.120  -2.771  1.00 20.00     0.039 C 
HETATM    3  C7  UNL     1     -41.967   4.557  -1.328  1.00 20.00     0.235 C 
HETATM    4  C8  UNL     1     -42.957   5.955  -3.155  1.00 20.00     0.235 C 
HETATM    5  C9  UNL     1     -41.621   7.077  -1.305  1.00 20.00     0.050 C 
HETATM    6  N12 UNL     1     -42.278   4.654  -2.802  1.00 20.00    -0.071 N 
HETATM    7  H33 UNL     1     -41.383   4.628  -3.307  1.00 20.00     0.279 HD
ENDROOT
BRANCH   6   8
HETATM    8  C11 UNL     1     -43.070   3.468  -3.281  1.00 20.00     0.239 C 
BRANCH   8   9
HETATM    9  C10 UNL     1     -42.273   2.204  -3.033  1.00 20.00     0.011 C 
HETATM   10  C3  UNL     1     -41.187   1.851  -4.082  1.00 20.00     0.006 C 
HETATM   11  C2  UNL     1     -41.566   0.371  -3.867  1.00 20.00     0.001 C 
HETATM   12  C4  UNL     1     -42.956   0.866  -3.417  1.00 20.00     0.006 C 
ENDBRANCH   8   9
ENDBRANCH   6   8
BRANCH   5  13
HETATM   13  C1  UNL     1     -42.759   7.454  -0.399  1.00 20.00     0.235 C 
HETATM   14  O13 UNL     1     -43.350   8.526  -0.468  1.00 20.00    -0.306 OA
ENDBRANCH   5  13
TORSDOF 3
ENDMDL
MODEL 7
REMARK VINA RESULT:      -4.3      2.756      5.590
REMARK  3 active torsions:
REMARK  status: ('A' for Active; 'I' for Inactive)
REMARK    1  A    between atoms: C1_1  and  C9_9 
REMARK    2  A    between atoms: C10_10  and  C11_11 
REMARK    3  A    between atoms: C11_11  and  N12_12 
ROOT
HETATM    1  C5  UNL     1     -34.722  17.050  -0.166  1.00 20.00     0.039 C 
HETATM    2  C6  UNL     1     -34.363  19.226  -1.406  1.00 20.00     0.039 C 
HETATM    3  C7  UNL     1     -34.624  16.296  -1.486  1.00 20.00     0.235 C 
HETATM    4  C8  UNL     1     -34.268  18.449  -2.714  1.00 20.00     0.235 C 
HETATM    5  C9  UNL     1     -35.185  18.497  -0.342  1.00 20.00     0.050 C 
HETATM    6  N12 UNL     1     -33.740  17.063  -2.438  1.00 20.00    -0.071 N 
HETATM    7  H33 UNL     1     -32.821  17.169  -1.988  1.00 20.00     0.279 HD
ENDROOT
BRANCH   6   8
HETATM    8  C11 UNL     1     -33.501  16.297  -3.712  1.00 20.00     0.239 C 
BRANCH   8   9
HETATM    9  C10 UNL     1     -34.338  15.036  -3.699  1.00 20.00     0.011 C 
HETATM   10  C3  UNL     1     -33.581  13.698  -3.903  1.00 20.00     0.006 C 
HETATM   11  C2  UNL     1     -34.803  13.215  -4.712  1.00 20.00     0.001 C 
HETATM   12  C4  UNL     1     -35.106  14.699  -5.003  1.00 20.00     0.006 C 
ENDBRANCH   8   9
ENDBRANCH   6   8
BRANCH   5  13
HETATM   13  C1  UNL     1     -36.651  18.554  -0.667  1.00 20.00     0.235 C 
HETATM   14  O13 UNL     1     -37.531  18.609   0.186  1.00 20.00    -0.306 OA
ENDBRANCH   5  13
TORSDOF 3
ENDMDL
MODEL 8
REMARK VINA RESULT:      -4.3      1.327      2.252
REMARK  3 active torsions:
REMARK  status: ('A' for Active; 'I' for Inactive)
REMARK    1  A    between atoms: C1_1  and  C9_9 
REMARK    2  A    between atoms: C10_10  and  C11_11 
REMARK    3  A    between atoms: C11_11  and  N12_12 
ROOT
HETATM    1  C5  UNL     1     -35.391  17.180  -5.292  1.00 20.00     0.039 C 
HETATM    2  C6  UNL     1     -33.041  16.273  -5.044  1.00 20.00     0.039 C 
HETATM    3  C7  UNL     1     -35.722  16.666  -3.896  1.00 20.00     0.235 C 
HETATM    4  C8  UNL     1     -33.397  15.770  -3.651  1.00 20.00     0.235 C 
HETATM    5  C9  UNL     1     -34.260  16.395  -5.960  1.00 20.00     0.050 C 
HETATM    6  N12 UNL     1     -34.468  16.649  -3.056  1.00 20.00    -0.071 N 
HETATM    7  H33 UNL     1     -34.100  17.609  -3.034  1.00 20.00     0.279 HD
ENDROOT
BRANCH   6   8
HETATM    8  C11 UNL     1     -34.762  16.276  -1.628  1.00 20.00     0.239 C 
BRANCH   8   9
HETATM    9  C10 UNL     1     -34.747  17.525  -0.773  1.00 20.00     0.011 C 
HETATM   10  C3  UNL     1     -33.355  18.062  -0.352  1.00 20.00     0.006 C 
HETATM   11  C2  UNL     1     -33.992  18.441   1.001  1.00 20.00     0.001 C 
HETATM   12  C4  UNL     1     -35.035  17.335   0.739  1.00 20.00     0.006 C 
ENDBRANCH   8   9
ENDBRANCH   6   8
BRANCH   5  13
HETATM   13  C1  UNL     1     -34.737  15.039  -6.399  1.00 20.00     0.235 C 
HETATM   14  O13 UNL     1     -34.775  14.683  -7.571  1.00 20.00    -0.306 OA
ENDBRANCH   5  13
TORSDOF 3
ENDMDL
MODEL 9
REMARK VINA RESULT:      -4.2      2.686      5.053
REMARK  3 active torsions:
REMARK  status: ('A' for Active; 'I' for Inactive)
REMARK    1  A    between atoms: C1_1  and  C9_9 
REMARK    2  A    between atoms: C10_10  and  C11_11 
REMARK    3  A    between atoms: C11_11  and  N12_12 
ROOT
HETATM    1  C5  UNL     1     -34.447  15.864  -2.437  1.00 20.00     0.039 C 
HETATM    2  C6  UNL     1     -34.766  13.768  -3.818  1.00 20.00     0.039 C 
HETATM    3  C7  UNL     1     -35.836  16.334  -2.854  1.00 20.00     0.235 C 
HETATM    4  C8  UNL     1     -36.152  14.259  -4.220  1.00 20.00     0.235 C 
HETATM    5  C9  UNL     1     -33.816  14.907  -3.451  1.00 20.00     0.050 C 
HETATM    6  N12 UNL     1     -36.711  15.135  -3.127  1.00 20.00    -0.071 N 
HETATM    7  H33 UNL     1     -36.739  14.572  -2.267  1.00 20.00     0.279 HD
ENDROOT
BRANCH   6   8
HETATM    8  C11 UNL     1     -38.132  15.541  -3.414  1.00 20.00     0.239 C 
BRANCH   8   9
HETATM    9  C10 UNL     1     -38.563  14.944  -4.737  1.00 20.00     0.011 C 
HETATM   10  C3  UNL     1     -39.036  15.941  -5.827  1.00 20.00     0.006 C 
HETATM   11  C2  UNL     1     -40.083  14.884  -6.235  1.00 20.00     0.001 C 
HETATM   12  C4  UNL     1     -39.989  14.340  -4.794  1.00 20.00     0.006 C 
ENDBRANCH   8   9
ENDBRANCH   6   8
BRANCH   5  13
HETATM   13  C1  UNL     1     -33.370  15.649  -4.680  1.00 20.00     0.235 C 
HETATM   14  O13 UNL     1     -32.953  16.802  -4.659  1.00 20.00    -0.306 OA
ENDBRANCH   5  13
TORSDOF 3
ENDMDL
