MODEL 1
REMARK VINA RESULT:      -4.9      0.000      0.000
REMARK  3 active torsions:
REMARK  status: ('A' for Active; 'I' for Inactive)
REMARK    1  A    between atoms: C1_1  and  C3_3 
REMARK    2  A    between atoms: C1_1  and  C8_8 
REMARK    3  A    between atoms: C8_8  and  C9_9 
ROOT
HETATM    1  C1  UNL     1     -33.531   5.943   3.098  1.00 20.00     0.131 C 
HETATM    2  O10 UNL     1     -33.991   5.225   2.211  1.00 20.00    -0.298 OA
ENDROOT
BRANCH   1   3
HETATM    3  C3  UNL     1     -32.081   6.356   3.085  1.00 20.00     0.059 A 
HETATM    4  C2  UNL     1     -31.678   7.523   3.917  1.00 20.00     0.017 A 
HETATM    5  C4  UNL     1     -31.684   7.628   2.418  1.00 20.00    -0.007 A 
HETATM    6  C5  UNL     1     -32.650   8.538   1.740  1.00 20.00     0.011 C 
ENDBRANCH   1   3
BRANCH   1   7
HETATM    7  C8  UNL     1     -34.355   6.429   4.280  1.00 20.00     0.082 C 
BRANCH   7   8
HETATM    8  C9  UNL     1     -34.042   5.703   5.596  1.00 20.00    -0.016 C 
HETATM    9  C6  UNL     1     -35.071   4.609   5.890  1.00 20.00     0.010 C 
HETATM   10  C7  UNL     1     -34.010   6.705   6.752  1.00 20.00     0.010 C 
ENDBRANCH   7   8
ENDBRANCH   1   7
TORSDOF 3
ENDMDL
MODEL 2
REMARK VINA RESULT:      -4.8      0.748      4.047
REMARK  3 active torsions:
REMARK  status: ('A' for Active; 'I' for Inactive)
REMARK    1  A    between atoms: C1_1  and  C3_3 
REMARK    2  A    between atoms: C1_1  and  C8_8 
REMARK    3  A    between atoms: C8_8  and  C9_9 
ROOT
HETATM    1  C1  UNL     1     -33.908   5.771   3.489  1.00 20.00     0.131 C 
HETATM    2  O10 UNL     1     -34.577   5.111   2.694  1.00 20.00    -0.298 OA
ENDROOT
BRANCH   1   3
HETATM    3  C3  UNL     1     -34.524   6.315   4.752  1.00 20.00     0.059 A 
HETATM    4  C2  UNL     1     -33.713   6.274   6.001  1.00 20.00     0.017 A 
HETATM    5  C4  UNL     1     -34.912   5.380   5.846  1.00 20.00    -0.007 A 
HETATM    6  C5  UNL     1     -34.733   3.902   5.767  1.00 20.00     0.011 C 
ENDBRANCH   1   3
BRANCH   1   7
HETATM    7  C8  UNL     1     -32.449   6.121   3.249  1.00 20.00     0.082 C 
BRANCH   7   8
HETATM    8  C9  UNL     1     -32.170   7.631   3.213  1.00 20.00    -0.016 C 
HETATM    9  C6  UNL     1     -31.939   8.122   1.782  1.00 20.00     0.010 C 
HETATM   10  C7  UNL     1     -30.949   7.959   4.075  1.00 20.00     0.010 C 
ENDBRANCH   7   8
ENDBRANCH   1   7
TORSDOF 3
ENDMDL
MODEL 3
REMARK VINA RESULT:      -4.8      0.961      4.003
REMARK  3 active torsions:
REMARK  status: ('A' for Active; 'I' for Inactive)
REMARK    1  A    between atoms: C1_1  and  C3_3 
REMARK    2  A    between atoms: C1_1  and  C8_8 
REMARK    3  A    between atoms: C8_8  and  C9_9 
ROOT
HETATM    1  C1  UNL     1     -34.229   5.583   3.737  1.00 20.00     0.131 C 
HETATM    2  O10 UNL     1     -35.331   6.000   3.384  1.00 20.00    -0.298 OA
ENDROOT
BRANCH   1   3
HETATM    3  C3  UNL     1     -34.087   4.703   4.953  1.00 20.00     0.059 A 
HETATM    4  C2  UNL     1     -35.243   4.608   5.886  1.00 20.00     0.017 A 
HETATM    5  C4  UNL     1     -33.989   5.324   6.303  1.00 20.00    -0.007 A 
HETATM    6  C5  UNL     1     -34.016   6.796   6.537  1.00 20.00     0.011 C 
ENDBRANCH   1   3
BRANCH   1   7
HETATM    7  C8  UNL     1     -32.939   5.946   3.018  1.00 20.00     0.082 C 
BRANCH   7   8
HETATM    8  C9  UNL     1     -32.547   7.424   3.154  1.00 20.00    -0.016 C 
HETATM    9  C6  UNL     1     -32.182   8.032   1.798  1.00 20.00     0.010 C 
HETATM   10  C7  UNL     1     -31.367   7.566   4.117  1.00 20.00     0.010 C 
ENDBRANCH   7   8
ENDBRANCH   1   7
TORSDOF 3
ENDMDL
MODEL 4
REMARK VINA RESULT:      -4.3     11.172     11.929
REMARK  3 active torsions:
REMARK  status: ('A' for Active; 'I' for Inactive)
REMARK    1  A    between atoms: C1_1  and  C3_3 
REMARK    2  A    between atoms: C1_1  and  C8_8 
REMARK    3  A    between atoms: C8_8  and  C9_9 
ROOT
HETATM    1  C1  UNL     1     -33.609  15.573  -3.636  1.00 20.00     0.131 C 
HETATM    2  O10 UNL     1     -33.142  15.920  -4.720  1.00 20.00    -0.298 OA
ENDROOT
BRANCH   1   3
HETATM    3  C3  UNL     1     -34.251  14.220  -3.468  1.00 20.00     0.059 A 
HETATM    4  C2  UNL     1     -34.245  13.292  -4.633  1.00 20.00     0.017 A 
HETATM    5  C4  UNL     1     -35.530  13.919  -4.171  1.00 20.00    -0.007 A 
HETATM    6  C5  UNL     1     -36.239  14.896  -5.046  1.00 20.00     0.011 C 
ENDBRANCH   1   3
BRANCH   1   7
HETATM    7  C8  UNL     1     -33.617  16.475  -2.412  1.00 20.00     0.082 C 
BRANCH   7   8
HETATM    8  C9  UNL     1     -34.954  16.484  -1.656  1.00 20.00    -0.016 C 
HETATM    9  C6  UNL     1     -35.986  17.371  -2.356  1.00 20.00     0.010 C 
HETATM   10  C7  UNL     1     -34.741  16.973  -0.222  1.00 20.00     0.010 C 
ENDBRANCH   7   8
ENDBRANCH   1   7
TORSDOF 3
ENDMDL
MODEL 5
REMARK VINA RESULT:      -4.2     11.496     12.660
REMARK  3 active torsions:
REMARK  status: ('A' for Active; 'I' for Inactive)
REMARK    1  A    between atoms: C1_1  and  C3_3 
REMARK    2  A    between atoms: C1_1  and  C8_8 
REMARK    3  A    between atoms: C8_8  and  C9_9 
ROOT
HETATM    1  C1  UNL     1     -33.255  15.631  -3.820  1.00 20.00     0.131 C 
HETATM    2  O10 UNL     1     -32.382  14.794  -3.594  1.00 20.00    -0.298 OA
ENDROOT
BRANCH   1   3
HETATM    3  C3  UNL     1     -33.293  16.374  -5.131  1.00 20.00     0.059 A 
HETATM    4  C2  UNL     1     -34.581  16.995  -5.547  1.00 20.00     0.017 A 
HETATM    5  C4  UNL     1     -34.043  15.800  -6.282  1.00 20.00    -0.007 A 
HETATM    6  C5  UNL     1     -34.772  14.500  -6.224  1.00 20.00     0.011 C 
ENDBRANCH   1   3
BRANCH   1   7
HETATM    7  C8  UNL     1     -34.320  16.009  -2.804  1.00 20.00     0.082 C 
BRANCH   7   8
HETATM    8  C9  UNL     1     -33.803  16.897  -1.662  1.00 20.00    -0.016 C 
HETATM    9  C6  UNL     1     -34.728  16.837  -0.445  1.00 20.00     0.010 C 
HETATM   10  C7  UNL     1     -33.675  18.345  -2.142  1.00 20.00     0.010 C 
ENDBRANCH   7   8
ENDBRANCH   1   7
TORSDOF 3
ENDMDL
MODEL 6
REMARK VINA RESULT:      -4.2     11.177     12.059
REMARK  3 active torsions:
REMARK  status: ('A' for Active; 'I' for Inactive)
REMARK    1  A    between atoms: C1_1  and  C3_3 
REMARK    2  A    between atoms: C1_1  and  C8_8 
REMARK    3  A    between atoms: C8_8  and  C9_9 
ROOT
HETATM    1  C1  UNL     1     -35.444  16.462  -2.473  1.00 20.00     0.131 C 
HETATM    2  O10 UNL     1     -36.509  17.077  -2.504  1.00 20.00    -0.298 OA
ENDROOT
BRANCH   1   3
HETATM    3  C3  UNL     1     -34.623  16.400  -1.211  1.00 20.00     0.059 A 
HETATM    4  C2  UNL     1     -34.951  17.353  -0.115  1.00 20.00     0.017 A 
HETATM    5  C4  UNL     1     -33.675  17.505  -0.894  1.00 20.00    -0.007 A 
HETATM    6  C5  UNL     1     -33.475  18.695  -1.770  1.00 20.00     0.011 C 
ENDBRANCH   1   3
BRANCH   1   7
HETATM    7  C8  UNL     1     -34.858  15.763  -3.689  1.00 20.00     0.082 C 
BRANCH   7   8
HETATM    8  C9  UNL     1     -34.373  14.333  -3.410  1.00 20.00    -0.016 C 
HETATM    9  C6  UNL     1     -32.865  14.201  -3.636  1.00 20.00     0.010 C 
HETATM   10  C7  UNL     1     -35.117  13.343  -4.308  1.00 20.00     0.010 C 
ENDBRANCH   7   8
ENDBRANCH   1   7
TORSDOF 3
ENDMDL
MODEL 7
REMARK VINA RESULT:      -4.1     11.247     12.162
REMARK  3 active torsions:
REMARK  status: ('A' for Active; 'I' for Inactive)
REMARK    1  A    between atoms: C1_1  and  C3_3 
REMARK    2  A    between atoms: C1_1  and  C8_8 
REMARK    3  A    between atoms: C8_8  and  C9_9 
ROOT
HETATM    1  C1  UNL     1     -35.837  15.032  -3.485  1.00 20.00     0.131 C 
HETATM    2  O10 UNL     1     -36.897  15.642  -3.620  1.00 20.00    -0.298 OA
ENDROOT
BRANCH   1   3
HETATM    3  C3  UNL     1     -35.539  13.808  -4.313  1.00 20.00     0.059 A 
HETATM    4  C2  UNL     1     -34.118  13.383  -4.447  1.00 20.00     0.017 A 
HETATM    5  C4  UNL     1     -34.851  13.958  -5.627  1.00 20.00    -0.007 A 
HETATM    6  C5  UNL     1     -34.436  15.272  -6.194  1.00 20.00     0.011 C 
ENDBRANCH   1   3
BRANCH   1   7
HETATM    7  C8  UNL     1     -34.781  15.426  -2.465  1.00 20.00     0.082 C 
BRANCH   7   8
HETATM    8  C9  UNL     1     -34.678  16.940  -2.229  1.00 20.00    -0.016 C 
HETATM    9  C6  UNL     1     -33.828  17.616  -3.308  1.00 20.00     0.010 C 
HETATM   10  C7  UNL     1     -34.076  17.215  -0.850  1.00 20.00     0.010 C 
ENDBRANCH   7   8
ENDBRANCH   1   7
TORSDOF 3
ENDMDL
MODEL 8
REMARK VINA RESULT:      -4.1      1.670      2.586
REMARK  3 active torsions:
REMARK  status: ('A' for Active; 'I' for Inactive)
REMARK    1  A    between atoms: C1_1  and  C3_3 
REMARK    2  A    between atoms: C1_1  and  C8_8 
REMARK    3  A    between atoms: C8_8  and  C9_9 
ROOT
HETATM    1  C1  UNL     1     -32.023   7.315   2.920  1.00 20.00     0.131 C 
HETATM    2  O10 UNL     1     -31.284   7.936   3.684  1.00 20.00    -0.298 OA
ENDROOT
BRANCH   1   3
HETATM    3  C3  UNL     1     -32.230   7.775   1.500  1.00 20.00     0.059 A 
HETATM    4  C2  UNL     1     -31.228   8.705   0.912  1.00 20.00     0.017 A 
HETATM    5  C4  UNL     1     -32.614   9.189   1.232  1.00 20.00    -0.007 A 
HETATM    6  C5  UNL     1     -32.819  10.204   2.305  1.00 20.00     0.011 C 
ENDBRANCH   1   3
BRANCH   1   7
HETATM    7  C8  UNL     1     -32.807   6.084   3.348  1.00 20.00     0.082 C 
BRANCH   7   8
HETATM    8  C9  UNL     1     -34.096   6.405   4.119  1.00 20.00    -0.016 C 
HETATM    9  C6  UNL     1     -33.865   6.370   5.631  1.00 20.00     0.010 C 
HETATM   10  C7  UNL     1     -35.194   5.409   3.741  1.00 20.00     0.010 C 
ENDBRANCH   7   8
ENDBRANCH   1   7
TORSDOF 3
ENDMDL
MODEL 9
REMARK VINA RESULT:      -4.1     11.300     12.354
REMARK  3 active torsions:
REMARK  status: ('A' for Active; 'I' for Inactive)
REMARK    1  A    between atoms: C1_1  and  C3_3 
REMARK    2  A    between atoms: C1_1  and  C8_8 
REMARK    3  A    between atoms: C8_8  and  C9_9 
ROOT
HETATM    1  C1  UNL     1     -34.685  13.956  -4.584  1.00 20.00     0.131 C 
HETATM    2  O10 UNL     1     -35.195  12.910  -4.184  1.00 20.00    -0.298 OA
ENDROOT
BRANCH   1   3
HETATM    3  C3  UNL     1     -34.496  14.211  -6.057  1.00 20.00     0.059 A 
HETATM    4  C2  UNL     1     -34.442  15.624  -6.523  1.00 20.00     0.017 A 
HETATM    5  C4  UNL     1     -35.624  14.760  -6.861  1.00 20.00    -0.007 A 
HETATM    6  C5  UNL     1     -36.965  15.076  -6.289  1.00 20.00     0.011 C 
ENDBRANCH   1   3
BRANCH   1   7
HETATM    7  C8  UNL     1     -34.175  15.039  -3.646  1.00 20.00     0.082 C 
BRANCH   7   8
HETATM    8  C9  UNL     1     -35.223  15.532  -2.637  1.00 20.00    -0.016 C 
HETATM    9  C6  UNL     1     -36.247  16.454  -3.302  1.00 20.00     0.010 C 
HETATM   10  C7  UNL     1     -34.535  16.269  -1.486  1.00 20.00     0.010 C 
ENDBRANCH   7   8
ENDBRANCH   1   7
TORSDOF 3
ENDMDL
