MODEL 1
REMARK VINA RESULT:      -4.5      0.000      0.000
REMARK  4 active torsions:
REMARK  status: ('A' for Active; 'I' for Inactive)
REMARK    1  A    between atoms: C5_5  and  C7_7 
REMARK    2  A    between atoms: C6_6  and  C7_7 
REMARK    3  A    between atoms: C6_6  and  C8_8 
REMARK    4  A    between atoms: C8_8  and  N9_9 
ROOT
HETATM    1  C1  UNL     1     -32.220   8.011   2.172  1.00 20.00     0.158 C 
HETATM    2  N9  UNL     1     -32.156   6.990   2.748  1.00 20.00    -0.271 NA
HETATM    3  S10 UNL     1     -32.273   9.393   1.383  1.00 20.00    -0.055 SA
ENDROOT
BRANCH   2   4
HETATM    4  C8  UNL     1     -33.420   6.540   3.341  1.00 20.00     0.106 C 
HETATM    5  C4  UNL     1     -34.000   5.455   2.439  1.00 20.00     0.034 C 
BRANCH   4   6
HETATM    6  C6  UNL     1     -33.157   5.998   4.752  1.00 20.00     0.031 C 
BRANCH   6   7
HETATM    7  C7  UNL     1     -34.188   6.425   5.823  1.00 20.00    -0.017 C 
HETATM    8  C3  UNL     1     -33.553   7.299   6.911  1.00 20.00     0.010 C 
BRANCH   7   9
HETATM    9  C5  UNL     1     -34.852   5.201   6.491  1.00 20.00    -0.000 C 
HETATM   10  C2  UNL     1     -34.935   3.975   5.593  1.00 20.00     0.005 C 
ENDBRANCH   7   9
ENDBRANCH   6   7
ENDBRANCH   4   6
ENDBRANCH   2   4
TORSDOF 4
ENDMDL
MODEL 2
REMARK VINA RESULT:      -4.4      0.973      2.005
REMARK  4 active torsions:
REMARK  status: ('A' for Active; 'I' for Inactive)
REMARK    1  A    between atoms: C5_5  and  C7_7 
REMARK    2  A    between atoms: C6_6  and  C7_7 
REMARK    3  A    between atoms: C6_6  and  C8_8 
REMARK    4  A    between atoms: C8_8  and  N9_9 
ROOT
HETATM    1  C1  UNL     1     -32.162   8.399   2.005  1.00 20.00     0.158 C 
HETATM    2  N9  UNL     1     -32.125   7.736   2.972  1.00 20.00    -0.271 NA
HETATM    3  S10 UNL     1     -32.192   9.321   0.706  1.00 20.00    -0.055 SA
ENDROOT
BRANCH   2   4
HETATM    4  C8  UNL     1     -32.953   6.526   2.920  1.00 20.00     0.106 C 
HETATM    5  C4  UNL     1     -32.049   5.327   3.187  1.00 20.00     0.034 C 
BRANCH   4   6
HETATM    6  C6  UNL     1     -34.064   6.622   3.974  1.00 20.00     0.031 C 
BRANCH   6   7
HETATM    7  C7  UNL     1     -34.169   5.411   4.931  1.00 20.00    -0.017 C 
HETATM    8  C3  UNL     1     -35.370   4.520   4.594  1.00 20.00     0.010 C 
BRANCH   7   9
HETATM    9  C5  UNL     1     -34.280   5.860   6.404  1.00 20.00    -0.000 C 
HETATM   10  C2  UNL     1     -33.604   7.192   6.698  1.00 20.00     0.005 C 
ENDBRANCH   7   9
ENDBRANCH   6   7
ENDBRANCH   4   6
ENDBRANCH   2   4
TORSDOF 4
ENDMDL
MODEL 3
REMARK VINA RESULT:      -4.2     11.170     12.293
REMARK  4 active torsions:
REMARK  status: ('A' for Active; 'I' for Inactive)
REMARK    1  A    between atoms: C5_5  and  C7_7 
REMARK    2  A    between atoms: C6_6  and  C7_7 
REMARK    3  A    between atoms: C6_6  and  C8_8 
REMARK    4  A    between atoms: C8_8  and  N9_9 
ROOT
HETATM    1  C1  UNL     1     -35.063  13.786  -5.585  1.00 20.00     0.158 C 
HETATM    2  N9  UNL     1     -35.154  13.186  -4.581  1.00 20.00    -0.271 NA
HETATM    3  S10 UNL     1     -34.955  14.576  -6.964  1.00 20.00    -0.055 SA
ENDROOT
BRANCH   2   4
HETATM    4  C8  UNL     1     -34.482  13.803  -3.432  1.00 20.00     0.106 C 
HETATM    5  C4  UNL     1     -32.982  13.797  -3.708  1.00 20.00     0.034 C 
BRANCH   4   6
HETATM    6  C6  UNL     1     -35.001  15.235  -3.247  1.00 20.00     0.031 C 
BRANCH   6   7
HETATM    7  C7  UNL     1     -34.075  16.171  -2.435  1.00 20.00    -0.017 C 
HETATM    8  C3  UNL     1     -34.659  16.496  -1.056  1.00 20.00     0.010 C 
BRANCH   7   9
HETATM    9  C5  UNL     1     -33.804  17.493  -3.186  1.00 20.00    -0.000 C 
HETATM   10  C2  UNL     1     -33.616  17.324  -4.687  1.00 20.00     0.005 C 
ENDBRANCH   7   9
ENDBRANCH   6   7
ENDBRANCH   4   6
ENDBRANCH   2   4
TORSDOF 4
ENDMDL
MODEL 4
REMARK VINA RESULT:      -4.0      1.230      2.274
REMARK  4 active torsions:
REMARK  status: ('A' for Active; 'I' for Inactive)
REMARK    1  A    between atoms: C5_5  and  C7_7 
REMARK    2  A    between atoms: C6_6  and  C7_7 
REMARK    3  A    between atoms: C6_6  and  C8_8 
REMARK    4  A    between atoms: C8_8  and  N9_9 
ROOT
HETATM    1  C1  UNL     1     -32.227   8.272   1.799  1.00 20.00     0.158 C 
HETATM    2  N9  UNL     1     -32.086   7.130   2.032  1.00 20.00    -0.271 NA
HETATM    3  S10 UNL     1     -32.415   9.815   1.451  1.00 20.00    -0.055 SA
ENDROOT
BRANCH   2   4
HETATM    4  C8  UNL     1     -32.135   6.783   3.456  1.00 20.00     0.106 C 
HETATM    5  C4  UNL     1     -31.226   7.752   4.206  1.00 20.00     0.034 C 
BRANCH   4   6
HETATM    6  C6  UNL     1     -33.581   6.886   3.957  1.00 20.00     0.031 C 
BRANCH   6   7
HETATM    7  C7  UNL     1     -34.198   5.561   4.465  1.00 20.00    -0.017 C 
HETATM    8  C3  UNL     1     -35.563   5.285   3.824  1.00 20.00     0.010 C 
BRANCH   7   9
HETATM    9  C5  UNL     1     -34.360   5.562   6.000  1.00 20.00    -0.000 C 
HETATM   10  C2  UNL     1     -33.899   6.849   6.670  1.00 20.00     0.005 C 
ENDBRANCH   7   9
ENDBRANCH   6   7
ENDBRANCH   4   6
ENDBRANCH   2   4
TORSDOF 4
ENDMDL
MODEL 5
REMARK VINA RESULT:      -3.9     11.625     12.537
REMARK  4 active torsions:
REMARK  status: ('A' for Active; 'I' for Inactive)
REMARK    1  A    between atoms: C5_5  and  C7_7 
REMARK    2  A    between atoms: C6_6  and  C7_7 
REMARK    3  A    between atoms: C6_6  and  C8_8 
REMARK    4  A    between atoms: C8_8  and  N9_9 
ROOT
HETATM    1  C1  UNL     1     -34.085  17.861  -3.998  1.00 20.00     0.158 C 
HETATM    2  N9  UNL     1     -34.382  17.822  -2.863  1.00 20.00    -0.271 NA
HETATM    3  S10 UNL     1     -33.689  17.945  -5.538  1.00 20.00    -0.055 SA
ENDROOT
BRANCH   2   4
HETATM    4  C8  UNL     1     -34.209  16.512  -2.226  1.00 20.00     0.106 C 
HETATM    5  C4  UNL     1     -34.573  16.656  -0.752  1.00 20.00     0.034 C 
BRANCH   4   6
HETATM    6  C6  UNL     1     -35.116  15.485  -2.918  1.00 20.00     0.031 C 
BRANCH   6   7
HETATM    7  C7  UNL     1     -34.416  14.175  -3.350  1.00 20.00    -0.017 C 
HETATM    8  C3  UNL     1     -32.932  14.398  -3.662  1.00 20.00     0.010 C 
BRANCH   7   9
HETATM    9  C5  UNL     1     -35.097  13.549  -4.586  1.00 20.00    -0.000 C 
HETATM   10  C2  UNL     1     -34.749  14.236  -5.899  1.00 20.00     0.005 C 
ENDBRANCH   7   9
ENDBRANCH   6   7
ENDBRANCH   4   6
ENDBRANCH   2   4
TORSDOF 4
ENDMDL
MODEL 6
REMARK VINA RESULT:      -3.8     11.744     12.546
REMARK  4 active torsions:
REMARK  status: ('A' for Active; 'I' for Inactive)
REMARK    1  A    between atoms: C5_5  and  C7_7 
REMARK    2  A    between atoms: C6_6  and  C7_7 
REMARK    3  A    between atoms: C6_6  and  C8_8 
REMARK    4  A    between atoms: C8_8  and  N9_9 
ROOT
HETATM    1  C1  UNL     1     -38.654  15.245  -3.517  1.00 20.00     0.158 C 
HETATM    2  N9  UNL     1     -38.059  14.279  -3.816  1.00 20.00    -0.271 NA
HETATM    3  S10 UNL     1     -39.488  16.539  -3.106  1.00 20.00    -0.055 SA
ENDROOT
BRANCH   2   4
HETATM    4  C8  UNL     1     -36.674  14.515  -4.237  1.00 20.00     0.106 C 
HETATM    5  C4  UNL     1     -36.707  15.375  -5.497  1.00 20.00     0.034 C 
BRANCH   4   6
HETATM    6  C6  UNL     1     -35.911  15.222  -3.109  1.00 20.00     0.031 C 
BRANCH   6   7
HETATM    7  C7  UNL     1     -34.449  15.601  -3.441  1.00 20.00    -0.017 C 
HETATM    8  C3  UNL     1     -33.580  14.363  -3.686  1.00 20.00     0.010 C 
BRANCH   7   9
HETATM    9  C5  UNL     1     -33.812  16.443  -2.314  1.00 20.00    -0.000 C 
HETATM   10  C2  UNL     1     -34.651  16.516  -1.047  1.00 20.00     0.005 C 
ENDBRANCH   7   9
ENDBRANCH   6   7
ENDBRANCH   4   6
ENDBRANCH   2   4
TORSDOF 4
ENDMDL
MODEL 7
REMARK VINA RESULT:      -3.8     11.985     12.521
REMARK  4 active torsions:
REMARK  status: ('A' for Active; 'I' for Inactive)
REMARK    1  A    between atoms: C5_5  and  C7_7 
REMARK    2  A    between atoms: C6_6  and  C7_7 
REMARK    3  A    between atoms: C6_6  and  C8_8 
REMARK    4  A    between atoms: C8_8  and  N9_9 
ROOT
HETATM    1  C1  UNL     1     -33.677  17.044  -5.368  1.00 20.00     0.158 C 
HETATM    2  N9  UNL     1     -33.676  15.881  -5.525  1.00 20.00    -0.271 NA
HETATM    3  S10 UNL     1     -33.659  18.625  -5.181  1.00 20.00    -0.055 SA
ENDROOT
BRANCH   2   4
HETATM    4  C8  UNL     1     -34.439  15.124  -4.527  1.00 20.00     0.106 C 
HETATM    5  C4  UNL     1     -34.414  13.654  -4.933  1.00 20.00     0.034 C 
BRANCH   4   6
HETATM    6  C6  UNL     1     -33.807  15.324  -3.143  1.00 20.00     0.031 C 
BRANCH   6   7
HETATM    7  C7  UNL     1     -34.759  15.882  -2.059  1.00 20.00    -0.017 C 
HETATM    8  C3  UNL     1     -36.022  16.499  -2.671  1.00 20.00     0.010 C 
BRANCH   7   9
HETATM    9  C5  UNL     1     -34.060  16.944  -1.183  1.00 20.00    -0.000 C 
HETATM   10  C2  UNL     1     -34.809  17.278   0.100  1.00 20.00     0.005 C 
ENDBRANCH   7   9
ENDBRANCH   6   7
ENDBRANCH   4   6
ENDBRANCH   2   4
TORSDOF 4
ENDMDL
MODEL 8
REMARK VINA RESULT:      -3.8     11.501     12.229
REMARK  4 active torsions:
REMARK  status: ('A' for Active; 'I' for Inactive)
REMARK    1  A    between atoms: C5_5  and  C7_7 
REMARK    2  A    between atoms: C6_6  and  C7_7 
REMARK    3  A    between atoms: C6_6  and  C8_8 
REMARK    4  A    between atoms: C8_8  and  N9_9 
ROOT
HETATM    1  C1  UNL     1     -33.873  14.461  -3.924  1.00 20.00     0.158 C 
HETATM    2  N9  UNL     1     -33.111  15.220  -3.455  1.00 20.00    -0.271 NA
HETATM    3  S10 UNL     1     -34.882  13.409  -4.566  1.00 20.00    -0.055 SA
ENDROOT
BRANCH   2   4
HETATM    4  C8  UNL     1     -33.701  16.488  -3.011  1.00 20.00     0.106 C 
HETATM    5  C4  UNL     1     -34.412  17.117  -4.204  1.00 20.00     0.034 C 
BRANCH   4   6
HETATM    6  C6  UNL     1     -34.685  16.218  -1.865  1.00 20.00     0.031 C 
BRANCH   6   7
HETATM    7  C7  UNL     1     -34.378  16.964  -0.545  1.00 20.00    -0.017 C 
HETATM    8  C3  UNL     1     -35.598  17.734  -0.026  1.00 20.00     0.010 C 
BRANCH   7   9
HETATM    9  C5  UNL     1     -33.200  17.949  -0.711  1.00 20.00    -0.000 C 
HETATM   10  C2  UNL     1     -32.895  18.764   0.538  1.00 20.00     0.005 C 
ENDBRANCH   7   9
ENDBRANCH   6   7
ENDBRANCH   4   6
ENDBRANCH   2   4
TORSDOF 4
ENDMDL
MODEL 9
REMARK VINA RESULT:      -3.7     11.228     12.036
REMARK  4 active torsions:
REMARK  status: ('A' for Active; 'I' for Inactive)
REMARK    1  A    between atoms: C5_5  and  C7_7 
REMARK    2  A    between atoms: C6_6  and  C7_7 
REMARK    3  A    between atoms: C6_6  and  C8_8 
REMARK    4  A    between atoms: C8_8  and  N9_9 
ROOT
HETATM    1  C1  UNL     1     -35.300  14.217  -5.512  1.00 20.00     0.158 C 
HETATM    2  N9  UNL     1     -35.554  13.788  -4.450  1.00 20.00    -0.271 NA
HETATM    3  S10 UNL     1     -34.984  14.786  -6.966  1.00 20.00    -0.055 SA
ENDROOT
BRANCH   2   4
HETATM    4  C8  UNL     1     -34.572  14.107  -3.408  1.00 20.00     0.106 C 
HETATM    5  C4  UNL     1     -33.245  13.467  -3.802  1.00 20.00     0.034 C 
BRANCH   4   6
HETATM    6  C6  UNL     1     -34.433  15.630  -3.287  1.00 20.00     0.031 C 
BRANCH   6   7
HETATM    7  C7  UNL     1     -35.190  16.268  -2.098  1.00 20.00    -0.017 C 
HETATM    8  C3  UNL     1     -36.220  17.303  -2.565  1.00 20.00     0.010 C 
BRANCH   7   9
HETATM    9  C5  UNL     1     -34.220  16.943  -1.104  1.00 20.00    -0.000 C 
HETATM   10  C2  UNL     1     -34.845  17.272   0.244  1.00 20.00     0.005 C 
ENDBRANCH   7   9
ENDBRANCH   6   7
ENDBRANCH   4   6
ENDBRANCH   2   4
TORSDOF 4
ENDMDL
