MODEL 1
REMARK VINA RESULT:      -4.2      0.000      0.000
REMARK  1 active torsions:
REMARK  status: ('A' for Active; 'I' for Inactive)
REMARK    1  A    between atoms: C3_3  and  C4_4 
ROOT
HETATM    1  C1  UNL     1     -33.090   6.332   3.567  1.00 20.00     0.064 C 
HETATM    2  C4  UNL     1     -34.494   6.092   3.928  1.00 20.00     0.175 C 
HETATM    3  N5  UNL     1     -31.983   6.523   3.279  1.00 20.00    -0.197 NA
ENDROOT
BRANCH   2   4
HETATM    4  C3  UNL     1     -34.584   5.334   5.223  1.00 20.00     0.035 C 
HETATM    5  C2  UNL     1     -34.262   5.784   6.441  1.00 20.00     0.105 C 
HETATM    6 CL6  UNL     1     -33.713   7.367   6.799  1.00 20.00    -0.096 Cl
HETATM    7 CL7  UNL     1     -35.116   3.684   5.066  1.00 20.00    -0.087 Cl
ENDBRANCH   2   4
TORSDOF 1
ENDMDL
MODEL 2
REMARK VINA RESULT:      -3.9      1.808      2.159
REMARK  1 active torsions:
REMARK  status: ('A' for Active; 'I' for Inactive)
REMARK    1  A    between atoms: C3_3  and  C4_4 
ROOT
HETATM    1  C1  UNL     1     -32.170   7.699   2.562  1.00 20.00     0.064 C 
HETATM    2  C4  UNL     1     -32.126   6.704   3.642  1.00 20.00     0.175 C 
HETATM    3  N5  UNL     1     -32.201   8.485   1.709  1.00 20.00    -0.197 NA
ENDROOT
BRANCH   2   4
HETATM    4  C3  UNL     1     -33.486   6.105   3.862  1.00 20.00     0.035 C 
HETATM    5  C2  UNL     1     -34.186   6.096   5.003  1.00 20.00     0.105 C 
HETATM    6 CL6  UNL     1     -33.690   6.823   6.473  1.00 20.00    -0.096 Cl
HETATM    7 CL7  UNL     1     -34.162   5.300   2.474  1.00 20.00    -0.087 Cl
ENDBRANCH   2   4
TORSDOF 1
ENDMDL
MODEL 3
REMARK VINA RESULT:      -3.9      0.578      2.374
REMARK  1 active torsions:
REMARK  status: ('A' for Active; 'I' for Inactive)
REMARK    1  A    between atoms: C3_3  and  C4_4 
ROOT
HETATM    1  C1  UNL     1     -32.892   6.530   3.606  1.00 20.00     0.064 C 
HETATM    2  C4  UNL     1     -34.218   6.561   4.238  1.00 20.00     0.175 C 
HETATM    3  N5  UNL     1     -31.846   6.507   3.104  1.00 20.00    -0.197 NA
ENDROOT
BRANCH   2   4
HETATM    4  C3  UNL     1     -34.129   6.113   5.670  1.00 20.00     0.035 C 
HETATM    5  C2  UNL     1     -34.508   4.930   6.167  1.00 20.00     0.105 C 
HETATM    6 CL6  UNL     1     -35.144   3.630   5.250  1.00 20.00    -0.096 Cl
HETATM    7 CL7  UNL     1     -33.513   7.311   6.772  1.00 20.00    -0.087 Cl
ENDBRANCH   2   4
TORSDOF 1
ENDMDL
MODEL 4
REMARK VINA RESULT:      -3.9      2.653      3.283
REMARK  1 active torsions:
REMARK  status: ('A' for Active; 'I' for Inactive)
REMARK    1  A    between atoms: C3_3  and  C4_4 
ROOT
HETATM    1  C1  UNL     1     -34.585   5.175   5.933  1.00 20.00     0.064 C 
HETATM    2  C4  UNL     1     -33.824   6.323   5.422  1.00 20.00     0.175 C 
HETATM    3  N5  UNL     1     -35.186   4.270   6.341  1.00 20.00    -0.197 NA
ENDROOT
BRANCH   2   4
HETATM    4  C3  UNL     1     -33.690   6.242   3.927  1.00 20.00     0.035 C 
HETATM    5  C2  UNL     1     -32.716   6.770   3.178  1.00 20.00     0.105 C 
HETATM    6 CL6  UNL     1     -31.360   7.628   3.778  1.00 20.00    -0.096 Cl
HETATM    7 CL7  UNL     1     -34.991   5.411   3.122  1.00 20.00    -0.087 Cl
ENDBRANCH   2   4
TORSDOF 1
ENDMDL
MODEL 5
REMARK VINA RESULT:      -3.8     12.051     12.971
REMARK  1 active torsions:
REMARK  status: ('A' for Active; 'I' for Inactive)
REMARK    1  A    between atoms: C3_3  and  C4_4 
ROOT
HETATM    1  C1  UNL     1     -34.048  13.576  -4.107  1.00 20.00     0.064 C 
HETATM    2  C4  UNL     1     -33.054  14.527  -3.593  1.00 20.00     0.175 C 
HETATM    3  N5  UNL     1     -34.831  12.821  -4.511  1.00 20.00    -0.197 NA
ENDROOT
BRANCH   2   4
HETATM    4  C3  UNL     1     -33.520  15.941  -3.802  1.00 20.00     0.035 C 
HETATM    5  C2  UNL     1     -34.162  16.714  -2.920  1.00 20.00     0.105 C 
HETATM    6 CL6  UNL     1     -34.556  16.266  -1.314  1.00 20.00    -0.096 Cl
HETATM    7 CL7  UNL     1     -33.218  16.580  -5.393  1.00 20.00    -0.087 Cl
ENDBRANCH   2   4
TORSDOF 1
ENDMDL
MODEL 6
REMARK VINA RESULT:      -3.8      2.679      3.353
REMARK  1 active torsions:
REMARK  status: ('A' for Active; 'I' for Inactive)
REMARK    1  A    between atoms: C3_3  and  C4_4 
ROOT
HETATM    1  C1  UNL     1     -35.016   4.511   4.651  1.00 20.00     0.064 C 
HETATM    2  C4  UNL     1     -34.661   5.707   3.874  1.00 20.00     0.175 C 
HETATM    3  N5  UNL     1     -35.299   3.566   5.261  1.00 20.00    -0.197 NA
ENDROOT
BRANCH   2   4
HETATM    4  C3  UNL     1     -33.624   6.518   4.599  1.00 20.00     0.035 C 
HETATM    5  C2  UNL     1     -32.554   7.118   4.065  1.00 20.00     0.105 C 
HETATM    6 CL6  UNL     1     -32.155   7.130   2.399  1.00 20.00    -0.096 Cl
HETATM    7 CL7  UNL     1     -33.849   6.615   6.323  1.00 20.00    -0.087 Cl
ENDBRANCH   2   4
TORSDOF 1
ENDMDL
MODEL 7
REMARK VINA RESULT:      -3.7      2.605      2.923
REMARK  1 active torsions:
REMARK  status: ('A' for Active; 'I' for Inactive)
REMARK    1  A    between atoms: C3_3  and  C4_4 
ROOT
HETATM    1  C1  UNL     1     -35.028   4.514   4.610  1.00 20.00     0.064 C 
HETATM    2  C4  UNL     1     -34.792   5.680   3.747  1.00 20.00     0.175 C 
HETATM    3  N5  UNL     1     -35.217   3.593   5.289  1.00 20.00    -0.197 NA
ENDROOT
BRANCH   2   4
HETATM    4  C3  UNL     1     -33.492   6.344   4.103  1.00 20.00     0.035 C 
HETATM    5  C2  UNL     1     -33.149   6.856   5.290  1.00 20.00     0.105 C 
HETATM    6 CL6  UNL     1     -34.120   6.821   6.701  1.00 20.00    -0.096 Cl
HETATM    7 CL7  UNL     1     -32.363   6.489   2.785  1.00 20.00    -0.087 Cl
ENDBRANCH   2   4
TORSDOF 1
ENDMDL
MODEL 8
REMARK VINA RESULT:      -3.6     12.235     13.193
REMARK  1 active torsions:
REMARK  status: ('A' for Active; 'I' for Inactive)
REMARK    1  A    between atoms: C3_3  and  C4_4 
ROOT
HETATM    1  C1  UNL     1     -34.136  13.600  -4.076  1.00 20.00     0.064 C 
HETATM    2  C4  UNL     1     -33.187  14.599  -3.566  1.00 20.00     0.175 C 
HETATM    3  N5  UNL     1     -34.883  12.808  -4.479  1.00 20.00    -0.197 NA
ENDROOT
BRANCH   2   4
HETATM    4  C3  UNL     1     -33.890  15.895  -3.279  1.00 20.00     0.035 C 
HETATM    5  C2  UNL     1     -34.025  16.937  -4.107  1.00 20.00     0.105 C 
HETATM    6 CL6  UNL     1     -33.454  16.999  -5.721  1.00 20.00    -0.096 Cl
HETATM    7 CL7  UNL     1     -34.536  16.033  -1.668  1.00 20.00    -0.087 Cl
ENDBRANCH   2   4
TORSDOF 1
ENDMDL
MODEL 9
REMARK VINA RESULT:      -3.5     12.169     12.861
REMARK  1 active torsions:
REMARK  status: ('A' for Active; 'I' for Inactive)
REMARK    1  A    between atoms: C3_3  and  C4_4 
ROOT
HETATM    1  C1  UNL     1     -37.244  14.966  -3.809  1.00 20.00     0.064 C 
HETATM    2  C4  UNL     1     -36.060  15.829  -3.919  1.00 20.00     0.175 C 
HETATM    3  N5  UNL     1     -38.181  14.286  -3.725  1.00 20.00    -0.197 NA
ENDROOT
BRANCH   2   4
HETATM    4  C3  UNL     1     -34.920  15.263  -3.122  1.00 20.00     0.035 C 
HETATM    5  C2  UNL     1     -34.193  14.179  -3.416  1.00 20.00     0.105 C 
HETATM    6 CL6  UNL     1     -34.383  13.211  -4.817  1.00 20.00    -0.096 Cl
HETATM    7 CL7  UNL     1     -34.575  16.108  -1.639  1.00 20.00    -0.087 Cl
ENDBRANCH   2   4
TORSDOF 1
ENDMDL
