MODEL 1
REMARK VINA RESULT:      -4.2      0.000      0.000
REMARK  2 active torsions:
REMARK  status: ('A' for Active; 'I' for Inactive)
REMARK    1  A    between atoms: C2_2  and  C9_9 
REMARK    2  A    between atoms: C9_9  and  N11_11 
ROOT
HETATM    1  C1  UNL     1     -34.569  17.105  -0.432  1.00 20.00    -0.109 C 
HETATM    2  C2  UNL     1     -34.025  16.817  -1.464  1.00 20.00    -0.077 C 
HETATM    3  C7  UNL     1     -35.233  17.457   0.822  1.00 20.00     0.112 C 
ENDROOT
BRANCH   2   4
HETATM    4  C9  UNL     1     -33.355  16.462  -2.718  1.00 20.00     0.365 C 
BRANCH   4   5
HETATM    5  N11 UNL     1     -34.301  15.882  -3.669  1.00 20.00     0.103 N 
HETATM    6  C4  UNL     1     -33.754  15.912  -5.031  1.00 20.00     0.303 C 
HETATM    7  C3  UNL     1     -34.742  15.306  -6.028  1.00 20.00     0.300 C 
HETATM    8  N10 UNL     1     -35.138  13.945  -5.658  1.00 20.00     0.091 N 
HETATM    9  C6  UNL     1     -35.641  13.874  -4.277  1.00 20.00     0.244 C 
HETATM   10  H27 UNL     1     -35.878  13.631  -6.297  1.00 20.00     0.316 HD
HETATM   11  C5  UNL     1     -34.644  14.505  -3.289  1.00 20.00     0.308 C 
HETATM   12  C8  UNL     1     -37.042  14.483  -4.162  1.00 20.00     0.044 C 
ENDBRANCH   4   5
ENDBRANCH   2   4
TORSDOF 2
ENDMDL
MODEL 2
REMARK VINA RESULT:      -4.1      1.147      1.806
REMARK  2 active torsions:
REMARK  status: ('A' for Active; 'I' for Inactive)
REMARK    1  A    between atoms: C2_2  and  C9_9 
REMARK    2  A    between atoms: C9_9  and  N11_11 
ROOT
HETATM    1  C1  UNL     1     -34.833  17.226   0.185  1.00 20.00    -0.109 C 
HETATM    2  C2  UNL     1     -34.354  16.963  -0.885  1.00 20.00    -0.077 C 
HETATM    3  C7  UNL     1     -35.417  17.544   1.487  1.00 20.00     0.112 C 
ENDROOT
BRANCH   2   4
HETATM    4  C9  UNL     1     -33.765  16.649  -2.189  1.00 20.00     0.365 C 
BRANCH   4   5
HETATM    5  N11 UNL     1     -34.610  15.717  -2.933  1.00 20.00     0.103 N 
HETATM    6  C4  UNL     1     -36.003  16.180  -2.954  1.00 20.00     0.303 C 
HETATM    7  C3  UNL     1     -36.889  15.205  -3.730  1.00 20.00     0.300 C 
HETATM    8  N10 UNL     1     -36.399  14.974  -5.091  1.00 20.00     0.091 N 
HETATM    9  C6  UNL     1     -34.987  14.560  -5.105  1.00 20.00     0.244 C 
HETATM   10  H27 UNL     1     -36.965  14.236  -5.525  1.00 20.00     0.316 HD
HETATM   11  C5  UNL     1     -34.112  15.541  -4.304  1.00 20.00     0.308 C 
HETATM   12  C8  UNL     1     -34.825  13.112  -4.631  1.00 20.00     0.044 C 
ENDBRANCH   4   5
ENDBRANCH   2   4
TORSDOF 2
ENDMDL
MODEL 3
REMARK VINA RESULT:      -4.1      1.193      1.627
REMARK  2 active torsions:
REMARK  status: ('A' for Active; 'I' for Inactive)
REMARK    1  A    between atoms: C2_2  and  C9_9 
REMARK    2  A    between atoms: C9_9  and  N11_11 
ROOT
HETATM    1  C1  UNL     1     -34.414  17.323  -1.038  1.00 20.00    -0.109 C 
HETATM    2  C2  UNL     1     -34.088  17.316  -2.195  1.00 20.00    -0.077 C 
HETATM    3  C7  UNL     1     -34.811  17.331   0.369  1.00 20.00     0.112 C 
ENDROOT
BRANCH   2   4
HETATM    4  C9  UNL     1     -33.692  17.314  -3.606  1.00 20.00     0.365 C 
BRANCH   4   5
HETATM    5  N11 UNL     1     -34.038  16.046  -4.243  1.00 20.00     0.103 N 
HETATM    6  C4  UNL     1     -33.468  14.916  -3.498  1.00 20.00     0.303 C 
HETATM    7  C3  UNL     1     -33.827  13.587  -4.165  1.00 20.00     0.300 C 
HETATM    8  N10 UNL     1     -35.274  13.423  -4.329  1.00 20.00     0.091 N 
HETATM    9  C6  UNL     1     -35.882  14.567  -5.026  1.00 20.00     0.244 C 
HETATM   10  H27 UNL     1     -35.450  12.571  -4.874  1.00 20.00     0.316 HD
HETATM   11  C5  UNL     1     -35.496  15.897  -4.354  1.00 20.00     0.308 C 
HETATM   12  C8  UNL     1     -35.551  14.550  -6.521  1.00 20.00     0.044 C 
ENDBRANCH   4   5
ENDBRANCH   2   4
TORSDOF 2
ENDMDL
MODEL 4
REMARK VINA RESULT:      -4.0      1.522      2.029
REMARK  2 active torsions:
REMARK  status: ('A' for Active; 'I' for Inactive)
REMARK    1  A    between atoms: C2_2  and  C9_9 
REMARK    2  A    between atoms: C9_9  and  N11_11 
ROOT
HETATM    1  C1  UNL     1     -34.482  16.268  -1.589  1.00 20.00    -0.109 C 
HETATM    2  C2  UNL     1     -34.212  15.599  -2.550  1.00 20.00    -0.077 C 
HETATM    3  C7  UNL     1     -34.810  17.084  -0.421  1.00 20.00     0.112 C 
ENDROOT
BRANCH   2   4
HETATM    4  C9  UNL     1     -33.877  14.779  -3.717  1.00 20.00     0.365 C 
BRANCH   4   5
HETATM    5  N11 UNL     1     -34.564  15.265  -4.911  1.00 20.00     0.103 N 
HETATM    6  C4  UNL     1     -33.721  16.217  -5.647  1.00 20.00     0.303 C 
HETATM    7  C3  UNL     1     -34.439  16.728  -6.896  1.00 20.00     0.300 C 
HETATM    8  N10 UNL     1     -34.875  15.636  -7.771  1.00 20.00     0.091 N 
HETATM    9  C6  UNL     1     -35.679  14.639  -7.048  1.00 20.00     0.244 C 
HETATM   10  H27 UNL     1     -35.440  16.030  -8.532  1.00 20.00     0.316 HD
HETATM   11  C5  UNL     1     -34.950  14.148  -5.784  1.00 20.00     0.308 C 
HETATM   12  C8  UNL     1     -37.084  15.168  -6.744  1.00 20.00     0.044 C 
ENDBRANCH   4   5
ENDBRANCH   2   4
TORSDOF 2
ENDMDL
MODEL 5
REMARK VINA RESULT:      -4.0      1.729      2.304
REMARK  2 active torsions:
REMARK  status: ('A' for Active; 'I' for Inactive)
REMARK    1  A    between atoms: C2_2  and  C9_9 
REMARK    2  A    between atoms: C9_9  and  N11_11 
ROOT
HETATM    1  C1  UNL     1     -33.066  18.336  -0.347  1.00 20.00    -0.109 C 
HETATM    2  C2  UNL     1     -34.006  17.905  -0.959  1.00 20.00    -0.077 C 
HETATM    3  C7  UNL     1     -31.921  18.860   0.397  1.00 20.00     0.112 C 
ENDROOT
BRANCH   2   4
HETATM    4  C9  UNL     1     -35.156  17.382  -1.700  1.00 20.00     0.365 C 
BRANCH   4   5
HETATM    5  N11 UNL     1     -34.735  16.781  -2.963  1.00 20.00     0.103 N 
HETATM    6  C4  UNL     1     -33.897  17.712  -3.730  1.00 20.00     0.303 C 
HETATM    7  C3  UNL     1     -33.456  17.085  -5.053  1.00 20.00     0.300 C 
HETATM    8  N10 UNL     1     -32.766  15.807  -4.857  1.00 20.00     0.091 N 
HETATM    9  C6  UNL     1     -33.561  14.871  -4.047  1.00 20.00     0.244 C 
HETATM   10  H27 UNL     1     -32.591  15.384  -5.776  1.00 20.00     0.316 HD
HETATM   11  C5  UNL     1     -34.012  15.523  -2.728  1.00 20.00     0.308 C 
HETATM   12  C8  UNL     1     -34.734  14.297  -4.846  1.00 20.00     0.044 C 
ENDBRANCH   4   5
ENDBRANCH   2   4
TORSDOF 2
ENDMDL
MODEL 6
REMARK VINA RESULT:      -4.0     11.452     12.322
REMARK  2 active torsions:
REMARK  status: ('A' for Active; 'I' for Inactive)
REMARK    1  A    between atoms: C2_2  and  C9_9 
REMARK    2  A    between atoms: C9_9  and  N11_11 
ROOT
HETATM    1  C1  UNL     1     -32.241   8.539   1.852  1.00 20.00    -0.109 C 
HETATM    2  C2  UNL     1     -32.177   7.510   2.470  1.00 20.00    -0.077 C 
HETATM    3  C7  UNL     1     -32.321   9.790   1.101  1.00 20.00     0.112 C 
ENDROOT
BRANCH   2   4
HETATM    4  C9  UNL     1     -32.090   6.256   3.222  1.00 20.00     0.365 C 
BRANCH   4   5
HETATM    5  N11 UNL     1     -33.325   6.003   3.960  1.00 20.00     0.103 N 
HETATM    6  C4  UNL     1     -34.427   5.687   3.041  1.00 20.00     0.303 C 
HETATM    7  C3  UNL     1     -35.721   5.424   3.812  1.00 20.00     0.300 C 
HETATM    8  N10 UNL     1     -35.563   4.368   4.816  1.00 20.00     0.091 N 
HETATM    9  C6  UNL     1     -34.432   4.632   5.719  1.00 20.00     0.244 C 
HETATM   10  H27 UNL     1     -36.425   4.310   5.371  1.00 20.00     0.316 HD
HETATM   11  C5  UNL     1     -33.142   4.913   4.928  1.00 20.00     0.308 C 
HETATM   12  C8  UNL     1     -34.762   5.749   6.715  1.00 20.00     0.044 C 
ENDBRANCH   4   5
ENDBRANCH   2   4
TORSDOF 2
ENDMDL
MODEL 7
REMARK VINA RESULT:      -4.0      1.587      2.607
REMARK  2 active torsions:
REMARK  status: ('A' for Active; 'I' for Inactive)
REMARK    1  A    between atoms: C2_2  and  C9_9 
REMARK    2  A    between atoms: C9_9  and  N11_11 
ROOT
HETATM    1  C1  UNL     1     -34.667  16.375  -1.420  1.00 20.00    -0.109 C 
HETATM    2  C2  UNL     1     -34.747  15.608  -2.342  1.00 20.00    -0.077 C 
HETATM    3  C7  UNL     1     -34.569  17.310  -0.300  1.00 20.00     0.112 C 
ENDROOT
BRANCH   2   4
HETATM    4  C9  UNL     1     -34.845  14.667  -3.461  1.00 20.00     0.365 C 
BRANCH   4   5
HETATM    5  N11 UNL     1     -34.587  15.339  -4.732  1.00 20.00     0.103 N 
HETATM    6  C4  UNL     1     -34.613  14.379  -5.843  1.00 20.00     0.303 C 
HETATM    7  C3  UNL     1     -34.342  15.079  -7.175  1.00 20.00     0.300 C 
HETATM    8  N10 UNL     1     -35.274  16.183  -7.420  1.00 20.00     0.091 N 
HETATM    9  C6  UNL     1     -35.309  17.134  -6.299  1.00 20.00     0.244 C 
HETATM   10  H27 UNL     1     -34.980  16.680  -8.269  1.00 20.00     0.316 HD
HETATM   11  C5  UNL     1     -35.564  16.411  -4.964  1.00 20.00     0.308 C 
HETATM   12  C8  UNL     1     -34.046  18.000  -6.262  1.00 20.00     0.044 C 
ENDBRANCH   4   5
ENDBRANCH   2   4
TORSDOF 2
ENDMDL
MODEL 8
REMARK VINA RESULT:      -4.0     12.648     14.962
REMARK  2 active torsions:
REMARK  status: ('A' for Active; 'I' for Inactive)
REMARK    1  A    between atoms: C2_2  and  C9_9 
REMARK    2  A    between atoms: C9_9  and  N11_11 
ROOT
HETATM    1  C1  UNL     1     -42.131   1.357  -3.710  1.00 20.00    -0.109 C 
HETATM    2  C2  UNL     1     -42.609   2.449  -3.556  1.00 20.00    -0.077 C 
HETATM    3  C7  UNL     1     -41.551   0.028  -3.896  1.00 20.00     0.112 C 
ENDROOT
BRANCH   2   4
HETATM    4  C9  UNL     1     -43.186   3.783  -3.372  1.00 20.00     0.365 C 
BRANCH   4   5
HETATM    5  N11 UNL     1     -42.786   4.352  -2.087  1.00 20.00     0.103 N 
HETATM    6  C4  UNL     1     -43.416   3.625  -0.977  1.00 20.00     0.303 C 
HETATM    7  C3  UNL     1     -43.000   4.220   0.369  1.00 20.00     0.300 C 
HETATM    8  N10 UNL     1     -41.544   4.257   0.532  1.00 20.00     0.091 N 
HETATM    9  C6  UNL     1     -40.881   4.934  -0.593  1.00 20.00     0.244 C 
HETATM   10  H27 UNL     1     -41.323   4.760   1.399  1.00 20.00     0.316 HD
HETATM   11  C5  UNL     1     -41.325   4.336  -1.941  1.00 20.00     0.308 C 
HETATM   12  C8  UNL     1     -41.085   6.451  -0.532  1.00 20.00     0.044 C 
ENDBRANCH   4   5
ENDBRANCH   2   4
TORSDOF 2
ENDMDL
MODEL 9
REMARK VINA RESULT:      -4.0      2.051      4.702
REMARK  2 active torsions:
REMARK  status: ('A' for Active; 'I' for Inactive)
REMARK    1  A    between atoms: C2_2  and  C9_9 
REMARK    2  A    between atoms: C9_9  and  N11_11 
ROOT
HETATM    1  C1  UNL     1     -34.656  15.268  -6.801  1.00 20.00    -0.109 C 
HETATM    2  C2  UNL     1     -34.028  15.969  -6.054  1.00 20.00    -0.077 C 
HETATM    3  C7  UNL     1     -35.420  14.414  -7.709  1.00 20.00     0.112 C 
ENDROOT
BRANCH   2   4
HETATM    4  C9  UNL     1     -33.258  16.828  -5.150  1.00 20.00     0.365 C 
BRANCH   4   5
HETATM    5  N11 UNL     1     -34.007  17.100  -3.926  1.00 20.00     0.103 N 
HETATM    6  C4  UNL     1     -35.395  17.467  -4.234  1.00 20.00     0.303 C 
HETATM    7  C3  UNL     1     -36.180  17.754  -2.954  1.00 20.00     0.300 C 
HETATM    8  N10 UNL     1     -36.137  16.631  -2.014  1.00 20.00     0.091 N 
HETATM    9  C6  UNL     1     -34.759  16.206  -1.727  1.00 20.00     0.244 C 
HETATM   10  H27 UNL     1     -36.586  16.918  -1.137  1.00 20.00     0.316 HD
HETATM   11  C5  UNL     1     -33.977  15.939  -3.026  1.00 20.00     0.308 C 
HETATM   12  C8  UNL     1     -34.046  17.205  -0.810  1.00 20.00     0.044 C 
ENDBRANCH   4   5
ENDBRANCH   2   4
TORSDOF 2
ENDMDL
