MODEL 1
REMARK VINA RESULT:      -5.4      0.000      0.000
REMARK  3 active torsions:
REMARK  status: ('A' for Active; 'I' for Inactive)
REMARK    1  A    between atoms: C3_3  and  C5_5 
REMARK    2  A    between atoms: C3_3  and  C9_9 
REMARK    3  A    between atoms: C8_8  and  C9_9 
ROOT
HETATM    1  C1  UNL     1     -33.678   7.150   6.739  1.00 20.00     0.012 C 
HETATM    2  C2  UNL     1     -34.235   6.127   6.452  1.00 20.00    -0.117 C 
HETATM    3  C8  UNL     1     -34.918   4.872   6.103  1.00 20.00     0.100 C 
ENDROOT
BRANCH   3   4
HETATM    4  C9  UNL     1     -34.530   4.379   4.711  1.00 20.00     0.090 C 
BRANCH   4   5
HETATM    5  C3  UNL     1     -34.801   5.386   3.604  1.00 20.00     0.132 C 
HETATM    6  O10 UNL     1     -35.914   5.863   3.390  1.00 20.00    -0.298 OA
BRANCH   5   7
HETATM    7  C5  UNL     1     -33.610   5.797   2.778  1.00 20.00     0.059 A 
HETATM    8  C4  UNL     1     -32.254   5.558   3.339  1.00 20.00     0.017 A 
HETATM    9  C6  UNL     1     -32.797   6.959   3.258  1.00 20.00    -0.007 A 
HETATM   10  C7  UNL     1     -32.248   7.920   2.262  1.00 20.00     0.011 C 
ENDBRANCH   5   7
ENDBRANCH   4   5
ENDBRANCH   3   4
TORSDOF 3
ENDMDL
MODEL 2
REMARK VINA RESULT:      -5.2      0.755      3.772
REMARK  3 active torsions:
REMARK  status: ('A' for Active; 'I' for Inactive)
REMARK    1  A    between atoms: C3_3  and  C5_5 
REMARK    2  A    between atoms: C3_3  and  C9_9 
REMARK    3  A    between atoms: C8_8  and  C9_9 
ROOT
HETATM    1  C1  UNL     1     -32.126   8.889   1.565  1.00 20.00     0.012 C 
HETATM    2  C2  UNL     1     -32.169   7.895   2.236  1.00 20.00    -0.117 C 
HETATM    3  C8  UNL     1     -32.218   6.677   3.058  1.00 20.00     0.100 C 
ENDROOT
BRANCH   3   4
HETATM    4  C9  UNL     1     -33.414   5.797   2.704  1.00 20.00     0.090 C 
BRANCH   4   5
HETATM    5  C3  UNL     1     -34.384   5.584   3.858  1.00 20.00     0.132 C 
HETATM    6  O10 UNL     1     -35.583   5.367   3.694  1.00 20.00    -0.298 OA
BRANCH   5   7
HETATM    7  C5  UNL     1     -33.788   5.633   5.241  1.00 20.00     0.059 A 
HETATM    8  C4  UNL     1     -34.643   5.222   6.385  1.00 20.00     0.017 A 
HETATM    9  C6  UNL     1     -34.305   6.674   6.184  1.00 20.00    -0.007 A 
HETATM   10  C7  UNL     1     -33.352   7.356   7.104  1.00 20.00     0.011 C 
ENDBRANCH   5   7
ENDBRANCH   4   5
ENDBRANCH   3   4
TORSDOF 3
ENDMDL
MODEL 3
REMARK VINA RESULT:      -5.0      1.243      4.323
REMARK  3 active torsions:
REMARK  status: ('A' for Active; 'I' for Inactive)
REMARK    1  A    between atoms: C3_3  and  C5_5 
REMARK    2  A    between atoms: C3_3  and  C9_9 
REMARK    3  A    between atoms: C8_8  and  C9_9 
ROOT
HETATM    1  C1  UNL     1     -32.536   9.863   1.475  1.00 20.00     0.012 C 
HETATM    2  C2  UNL     1     -32.206   8.763   1.822  1.00 20.00    -0.117 C 
HETATM    3  C8  UNL     1     -31.801   7.414   2.243  1.00 20.00     0.100 C 
ENDROOT
BRANCH   3   4
HETATM    4  C9  UNL     1     -32.419   7.025   3.584  1.00 20.00     0.090 C 
BRANCH   4   5
HETATM    5  C3  UNL     1     -33.596   6.068   3.463  1.00 20.00     0.132 C 
HETATM    6  O10 UNL     1     -33.808   5.390   2.460  1.00 20.00    -0.298 OA
BRANCH   5   7
HETATM    7  C5  UNL     1     -34.499   5.975   4.666  1.00 20.00     0.059 A 
HETATM    8  C4  UNL     1     -33.955   6.403   5.982  1.00 20.00     0.017 A 
HETATM    9  C6  UNL     1     -34.176   4.941   5.699  1.00 20.00    -0.007 A 
HETATM   10  C7  UNL     1     -35.290   4.209   6.364  1.00 20.00     0.011 C 
ENDBRANCH   5   7
ENDBRANCH   4   5
ENDBRANCH   3   4
TORSDOF 3
ENDMDL
MODEL 4
REMARK VINA RESULT:      -4.8      1.201      2.080
REMARK  3 active torsions:
REMARK  status: ('A' for Active; 'I' for Inactive)
REMARK    1  A    between atoms: C3_3  and  C5_5 
REMARK    2  A    between atoms: C3_3  and  C9_9 
REMARK    3  A    between atoms: C8_8  and  C9_9 
ROOT
HETATM    1  C1  UNL     1     -35.172   3.942   6.006  1.00 20.00     0.012 C 
HETATM    2  C2  UNL     1     -34.613   4.998   5.901  1.00 20.00    -0.117 C 
HETATM    3  C8  UNL     1     -33.927   6.293   5.777  1.00 20.00     0.100 C 
ENDROOT
BRANCH   3   4
HETATM    4  C9  UNL     1     -34.174   6.941   4.417  1.00 20.00     0.090 C 
BRANCH   4   5
HETATM    5  C3  UNL     1     -33.599   6.156   3.248  1.00 20.00     0.132 C 
HETATM    6  O10 UNL     1     -34.123   5.137   2.802  1.00 20.00    -0.298 OA
BRANCH   5   7
HETATM    7  C5  UNL     1     -32.338   6.710   2.636  1.00 20.00     0.059 A 
HETATM    8  C4  UNL     1     -31.518   7.644   3.451  1.00 20.00     0.017 A 
HETATM    9  C6  UNL     1     -32.316   8.166   2.287  1.00 20.00    -0.007 A 
HETATM   10  C7  UNL     1     -31.627   8.602   1.041  1.00 20.00     0.011 C 
ENDBRANCH   5   7
ENDBRANCH   4   5
ENDBRANCH   3   4
TORSDOF 3
ENDMDL
MODEL 5
REMARK VINA RESULT:      -4.7      1.768      4.620
REMARK  3 active torsions:
REMARK  status: ('A' for Active; 'I' for Inactive)
REMARK    1  A    between atoms: C3_3  and  C5_5 
REMARK    2  A    between atoms: C3_3  and  C9_9 
REMARK    3  A    between atoms: C8_8  and  C9_9 
ROOT
HETATM    1  C1  UNL     1     -32.397   9.417   0.344  1.00 20.00     0.012 C 
HETATM    2  C2  UNL     1     -32.091   8.782   1.316  1.00 20.00    -0.117 C 
HETATM    3  C8  UNL     1     -31.713   8.006   2.506  1.00 20.00     0.100 C 
ENDROOT
BRANCH   3   4
HETATM    4  C9  UNL     1     -32.499   6.702   2.611  1.00 20.00     0.090 C 
BRANCH   4   5
HETATM    5  C3  UNL     1     -33.060   6.433   3.999  1.00 20.00     0.132 C 
HETATM    6  O10 UNL     1     -32.801   7.136   4.974  1.00 20.00    -0.298 OA
BRANCH   5   7
HETATM    7  C5  UNL     1     -33.985   5.249   4.122  1.00 20.00     0.059 A 
HETATM    8  C4  UNL     1     -35.435   5.469   3.880  1.00 20.00     0.017 A 
HETATM    9  C6  UNL     1     -34.934   5.226   5.279  1.00 20.00    -0.007 A 
HETATM   10  C7  UNL     1     -35.213   3.932   5.960  1.00 20.00     0.011 C 
ENDBRANCH   5   7
ENDBRANCH   4   5
ENDBRANCH   3   4
TORSDOF 3
ENDMDL
MODEL 6
REMARK VINA RESULT:      -4.6      1.740      2.327
REMARK  3 active torsions:
REMARK  status: ('A' for Active; 'I' for Inactive)
REMARK    1  A    between atoms: C3_3  and  C5_5 
REMARK    2  A    between atoms: C3_3  and  C9_9 
REMARK    3  A    between atoms: C8_8  and  C9_9 
ROOT
HETATM    1  C1  UNL     1     -34.874   3.907   6.203  1.00 20.00     0.012 C 
HETATM    2  C2  UNL     1     -35.172   4.492   5.198  1.00 20.00    -0.117 C 
HETATM    3  C8  UNL     1     -35.541   5.206   3.967  1.00 20.00     0.100 C 
ENDROOT
BRANCH   3   4
HETATM    4  C9  UNL     1     -34.331   5.467   3.074  1.00 20.00     0.090 C 
BRANCH   4   5
HETATM    5  C3  UNL     1     -33.309   6.413   3.685  1.00 20.00     0.132 C 
HETATM    6  O10 UNL     1     -33.343   6.766   4.863  1.00 20.00    -0.298 OA
BRANCH   5   7
HETATM    7  C5  UNL     1     -32.216   6.892   2.765  1.00 20.00     0.059 A 
HETATM    8  C4  UNL     1     -31.215   7.848   3.307  1.00 20.00     0.017 A 
HETATM    9  C6  UNL     1     -32.254   8.323   2.327  1.00 20.00    -0.007 A 
HETATM   10  C7  UNL     1     -31.865   8.664   0.930  1.00 20.00     0.011 C 
ENDBRANCH   5   7
ENDBRANCH   4   5
ENDBRANCH   3   4
TORSDOF 3
ENDMDL
MODEL 7
REMARK VINA RESULT:      -4.5     11.407     12.761
REMARK  3 active torsions:
REMARK  status: ('A' for Active; 'I' for Inactive)
REMARK    1  A    between atoms: C3_3  and  C5_5 
REMARK    2  A    between atoms: C3_3  and  C9_9 
REMARK    3  A    between atoms: C8_8  and  C9_9 
ROOT
HETATM    1  C1  UNL     1     -34.678  16.587  -0.848  1.00 20.00     0.012 C 
HETATM    2  C2  UNL     1     -34.344  16.214  -1.938  1.00 20.00    -0.117 C 
HETATM    3  C8  UNL     1     -33.936  15.760  -3.276  1.00 20.00     0.100 C 
ENDROOT
BRANCH   3   4
HETATM    4  C9  UNL     1     -33.953  14.238  -3.392  1.00 20.00     0.090 C 
BRANCH   4   5
HETATM    5  C3  UNL     1     -34.644  13.725  -4.646  1.00 20.00     0.132 C 
HETATM    6  O10 UNL     1     -34.771  12.528  -4.900  1.00 20.00    -0.298 OA
BRANCH   5   7
HETATM    7  C5  UNL     1     -35.197  14.776  -5.574  1.00 20.00     0.059 A 
HETATM    8  C4  UNL     1     -35.529  14.373  -6.966  1.00 20.00     0.017 A 
HETATM    9  C6  UNL     1     -34.325  15.236  -6.700  1.00 20.00    -0.007 A 
HETATM   10  C7  UNL     1     -34.337  16.676  -7.082  1.00 20.00     0.011 C 
ENDBRANCH   5   7
ENDBRANCH   4   5
ENDBRANCH   3   4
TORSDOF 3
ENDMDL
MODEL 8
REMARK VINA RESULT:      -4.4     11.609     12.828
REMARK  3 active torsions:
REMARK  status: ('A' for Active; 'I' for Inactive)
REMARK    1  A    between atoms: C3_3  and  C5_5 
REMARK    2  A    between atoms: C3_3  and  C9_9 
REMARK    3  A    between atoms: C8_8  and  C9_9 
ROOT
HETATM    1  C1  UNL     1     -35.176  14.611  -6.967  1.00 20.00     0.012 C 
HETATM    2  C2  UNL     1     -35.020  13.990  -5.952  1.00 20.00    -0.117 C 
HETATM    3  C8  UNL     1     -34.832  13.229  -4.708  1.00 20.00     0.100 C 
ENDROOT
BRANCH   3   4
HETATM    4  C9  UNL     1     -33.547  13.626  -3.985  1.00 20.00     0.090 C 
BRANCH   4   5
HETATM    5  C3  UNL     1     -33.485  15.097  -3.605  1.00 20.00     0.132 C 
HETATM    6  O10 UNL     1     -32.672  15.881  -4.090  1.00 20.00    -0.298 OA
BRANCH   5   7
HETATM    7  C5  UNL     1     -34.504  15.564  -2.597  1.00 20.00     0.059 A 
HETATM    8  C4  UNL     1     -35.305  16.773  -2.924  1.00 20.00     0.017 A 
HETATM    9  C6  UNL     1     -34.229  16.846  -1.874  1.00 20.00    -0.007 A 
HETATM   10  C7  UNL     1     -34.593  16.957  -0.434  1.00 20.00     0.011 C 
ENDBRANCH   5   7
ENDBRANCH   4   5
ENDBRANCH   3   4
TORSDOF 3
ENDMDL
MODEL 9
REMARK VINA RESULT:      -4.3     11.713     12.681
REMARK  3 active torsions:
REMARK  status: ('A' for Active; 'I' for Inactive)
REMARK    1  A    between atoms: C3_3  and  C5_5 
REMARK    2  A    between atoms: C3_3  and  C9_9 
REMARK    3  A    between atoms: C8_8  and  C9_9 
ROOT
HETATM    1  C1  UNL     1     -34.412  16.965  -0.631  1.00 20.00     0.012 C 
HETATM    2  C2  UNL     1     -34.806  16.309  -1.556  1.00 20.00    -0.117 C 
HETATM    3  C8  UNL     1     -35.291  15.505  -2.687  1.00 20.00     0.100 C 
ENDROOT
BRANCH   3   4
HETATM    4  C9  UNL     1     -34.144  14.874  -3.473  1.00 20.00     0.090 C 
BRANCH   4   5
HETATM    5  C3  UNL     1     -34.593  13.831  -4.485  1.00 20.00     0.132 C 
HETATM    6  O10 UNL     1     -35.030  12.728  -4.162  1.00 20.00    -0.298 OA
BRANCH   5   7
HETATM    7  C5  UNL     1     -34.494  14.229  -5.935  1.00 20.00     0.059 A 
HETATM    8  C4  UNL     1     -34.296  15.668  -6.251  1.00 20.00     0.017 A 
HETATM    9  C6  UNL     1     -35.626  15.017  -6.518  1.00 20.00    -0.007 A 
HETATM   10  C7  UNL     1     -36.056  14.738  -7.917  1.00 20.00     0.011 C 
ENDBRANCH   5   7
ENDBRANCH   4   5
ENDBRANCH   3   4
TORSDOF 3
ENDMDL
