MODEL 1
REMARK VINA RESULT:      -4.1      0.000      0.000
REMARK  2 active torsions:
REMARK  status: ('A' for Active; 'I' for Inactive)
REMARK    1  A    between atoms: C1_1  and  C3_3 
REMARK    2  A    between atoms: C1_1  and  C9_9 
ROOT
HETATM    1  C1  UNL     1     -34.494  14.098  -5.303  1.00 20.00     0.139 C 
HETATM    2  O10 UNL     1     -34.922  12.942  -5.263  1.00 20.00    -0.297 OA
ENDROOT
BRANCH   1   3
HETATM    3  C3  UNL     1     -34.610  14.894  -6.582  1.00 20.00     0.060 A 
HETATM    4  C2  UNL     1     -35.477  14.353  -7.663  1.00 20.00     0.017 A 
HETATM    5  C4  UNL     1     -35.890  15.583  -6.904  1.00 20.00    -0.007 A 
HETATM    6  C5  UNL     1     -37.090  15.547  -6.020  1.00 20.00     0.011 C 
ENDBRANCH   1   3
BRANCH   1   7
HETATM    7  C9  UNL     1     -33.861  14.775  -4.073  1.00 20.00     0.010 C 
HETATM    8  C6  UNL     1     -32.835  13.819  -3.452  1.00 20.00     0.022 C 
HETATM    9  C7  UNL     1     -34.934  15.143  -3.040  1.00 20.00     0.022 C 
HETATM   10  C8  UNL     1     -33.143  16.064  -4.511  1.00 20.00     0.022 C 
ENDBRANCH   1   7
TORSDOF 2
ENDMDL
MODEL 2
REMARK VINA RESULT:      -3.9      2.352      4.237
REMARK  2 active torsions:
REMARK  status: ('A' for Active; 'I' for Inactive)
REMARK    1  A    between atoms: C1_1  and  C3_3 
REMARK    2  A    between atoms: C1_1  and  C9_9 
ROOT
HETATM    1  C1  UNL     1     -33.990  16.154  -3.475  1.00 20.00     0.139 C 
HETATM    2  O10 UNL     1     -33.597  17.158  -4.073  1.00 20.00    -0.297 OA
ENDROOT
BRANCH   1   3
HETATM    3  C3  UNL     1     -34.054  16.161  -1.966  1.00 20.00     0.060 A 
HETATM    4  C2  UNL     1     -33.667  17.411  -1.258  1.00 20.00     0.017 A 
HETATM    5  C4  UNL     1     -35.102  16.965  -1.280  1.00 20.00    -0.007 A 
HETATM    6  C5  UNL     1     -36.124  17.776  -2.003  1.00 20.00     0.011 C 
ENDBRANCH   1   3
BRANCH   1   7
HETATM    7  C9  UNL     1     -34.446  14.886  -4.222  1.00 20.00     0.010 C 
HETATM    8  C6  UNL     1     -34.334  15.133  -5.732  1.00 20.00     0.022 C 
HETATM    9  C7  UNL     1     -35.889  14.524  -3.850  1.00 20.00     0.022 C 
HETATM   10  C8  UNL     1     -33.532  13.710  -3.837  1.00 20.00     0.022 C 
ENDBRANCH   1   7
TORSDOF 2
ENDMDL
MODEL 3
REMARK VINA RESULT:      -3.9      1.837      2.460
REMARK  2 active torsions:
REMARK  status: ('A' for Active; 'I' for Inactive)
REMARK    1  A    between atoms: C1_1  and  C3_3 
REMARK    2  A    between atoms: C1_1  and  C9_9 
ROOT
HETATM    1  C1  UNL     1     -34.119  16.234  -4.510  1.00 20.00     0.139 C 
HETATM    2  O10 UNL     1     -32.912  16.476  -4.574  1.00 20.00    -0.297 OA
ENDROOT
BRANCH   1   3
HETATM    3  C3  UNL     1     -35.052  16.801  -5.554  1.00 20.00     0.060 A 
HETATM    4  C2  UNL     1     -34.449  17.398  -6.776  1.00 20.00     0.017 A 
HETATM    5  C4  UNL     1     -35.204  16.101  -6.859  1.00 20.00    -0.007 A 
HETATM    6  C5  UNL     1     -34.488  14.841  -7.206  1.00 20.00     0.011 C 
ENDBRANCH   1   3
BRANCH   1   7
HETATM    7  C9  UNL     1     -34.713  15.344  -3.401  1.00 20.00     0.010 C 
HETATM    8  C6  UNL     1     -34.089  13.946  -3.498  1.00 20.00     0.022 C 
HETATM    9  C7  UNL     1     -36.239  15.253  -3.535  1.00 20.00     0.022 C 
HETATM   10  C8  UNL     1     -34.379  15.948  -2.026  1.00 20.00     0.022 C 
ENDBRANCH   1   7
TORSDOF 2
ENDMDL
MODEL 4
REMARK VINA RESULT:      -3.9      2.104      4.032
REMARK  2 active torsions:
REMARK  status: ('A' for Active; 'I' for Inactive)
REMARK    1  A    between atoms: C1_1  and  C3_3 
REMARK    2  A    between atoms: C1_1  and  C9_9 
ROOT
HETATM    1  C1  UNL     1     -34.232  15.280  -3.312  1.00 20.00     0.139 C 
HETATM    2  O10 UNL     1     -33.000  15.329  -3.349  1.00 20.00    -0.297 OA
ENDROOT
BRANCH   1   3
HETATM    3  C3  UNL     1     -34.968  15.892  -2.143  1.00 20.00     0.060 A 
HETATM    4  C2  UNL     1     -34.202  16.771  -1.220  1.00 20.00     0.017 A 
HETATM    5  C4  UNL     1     -35.242  17.355  -2.134  1.00 20.00    -0.007 A 
HETATM    6  C5  UNL     1     -34.837  18.276  -3.234  1.00 20.00     0.011 C 
ENDBRANCH   1   3
BRANCH   1   7
HETATM    7  C9  UNL     1     -35.056  14.630  -4.439  1.00 20.00     0.010 C 
HETATM    8  C6  UNL     1     -34.494  13.231  -4.722  1.00 20.00     0.022 C 
HETATM    9  C7  UNL     1     -35.010  15.486  -5.711  1.00 20.00     0.022 C 
HETATM   10  C8  UNL     1     -36.522  14.499  -3.990  1.00 20.00     0.022 C 
ENDBRANCH   1   7
TORSDOF 2
ENDMDL
MODEL 5
REMARK VINA RESULT:      -3.9      1.965      3.382
REMARK  2 active torsions:
REMARK  status: ('A' for Active; 'I' for Inactive)
REMARK    1  A    between atoms: C1_1  and  C3_3 
REMARK    2  A    between atoms: C1_1  and  C9_9 
ROOT
HETATM    1  C1  UNL     1     -35.532  15.464  -3.077  1.00 20.00     0.139 C 
HETATM    2  O10 UNL     1     -36.729  15.239  -3.269  1.00 20.00    -0.297 OA
ENDROOT
BRANCH   1   3
HETATM    3  C3  UNL     1     -34.504  14.442  -3.502  1.00 20.00     0.060 A 
HETATM    4  C2  UNL     1     -34.978  13.240  -4.238  1.00 20.00     0.017 A 
HETATM    5  C4  UNL     1     -34.171  14.292  -4.944  1.00 20.00    -0.007 A 
HETATM    6  C5  UNL     1     -34.793  15.111  -6.023  1.00 20.00     0.011 C 
ENDBRANCH   1   3
BRANCH   1   7
HETATM    7  C9  UNL     1     -35.042  16.775  -2.434  1.00 20.00     0.010 C 
HETATM    8  C6  UNL     1     -36.185  17.797  -2.456  1.00 20.00     0.022 C 
HETATM    9  C7  UNL     1     -33.823  17.327  -3.184  1.00 20.00     0.022 C 
HETATM   10  C8  UNL     1     -34.637  16.507  -0.973  1.00 20.00     0.022 C 
ENDBRANCH   1   7
TORSDOF 2
ENDMDL
MODEL 6
REMARK VINA RESULT:      -3.8      2.196      4.088
REMARK  2 active torsions:
REMARK  status: ('A' for Active; 'I' for Inactive)
REMARK    1  A    between atoms: C1_1  and  C3_3 
REMARK    2  A    between atoms: C1_1  and  C9_9 
ROOT
HETATM    1  C1  UNL     1     -34.855  16.160  -3.943  1.00 20.00     0.139 C 
HETATM    2  O10 UNL     1     -35.919  16.776  -4.039  1.00 20.00    -0.297 OA
ENDROOT
BRANCH   1   3
HETATM    3  C3  UNL     1     -33.667  16.819  -3.281  1.00 20.00     0.060 A 
HETATM    4  C2  UNL     1     -33.854  18.180  -2.711  1.00 20.00     0.017 A 
HETATM    5  C4  UNL     1     -33.656  16.998  -1.804  1.00 20.00    -0.007 A 
HETATM    6  C5  UNL     1     -34.762  16.549  -0.911  1.00 20.00     0.011 C 
ENDBRANCH   1   3
BRANCH   1   7
HETATM    7  C9  UNL     1     -34.699  14.717  -4.458  1.00 20.00     0.010 C 
HETATM    8  C6  UNL     1     -35.980  13.934  -4.139  1.00 20.00     0.022 C 
HETATM    9  C7  UNL     1     -33.487  14.035  -3.811  1.00 20.00     0.022 C 
HETATM   10  C8  UNL     1     -34.491  14.738  -5.983  1.00 20.00     0.022 C 
ENDBRANCH   1   7
TORSDOF 2
ENDMDL
MODEL 7
REMARK VINA RESULT:      -3.8      1.553      1.817
REMARK  2 active torsions:
REMARK  status: ('A' for Active; 'I' for Inactive)
REMARK    1  A    between atoms: C1_1  and  C3_3 
REMARK    2  A    between atoms: C1_1  and  C9_9 
ROOT
HETATM    1  C1  UNL     1     -35.095  15.441  -4.663  1.00 20.00     0.139 C 
HETATM    2  O10 UNL     1     -36.297  15.710  -4.609  1.00 20.00    -0.297 OA
ENDROOT
BRANCH   1   3
HETATM    3  C3  UNL     1     -34.563  14.624  -5.817  1.00 20.00     0.060 A 
HETATM    4  C2  UNL     1     -35.479  14.350  -6.957  1.00 20.00     0.017 A 
HETATM    5  C4  UNL     1     -34.314  15.283  -7.128  1.00 20.00    -0.007 A 
HETATM    6  C5  UNL     1     -34.550  16.733  -7.380  1.00 20.00     0.011 C 
ENDBRANCH   1   3
BRANCH   1   7
HETATM    7  C9  UNL     1     -34.101  15.934  -3.594  1.00 20.00     0.010 C 
HETATM    8  C6  UNL     1     -32.839  15.063  -3.650  1.00 20.00     0.022 C 
HETATM    9  C7  UNL     1     -34.728  15.870  -2.196  1.00 20.00     0.022 C 
HETATM   10  C8  UNL     1     -33.715  17.394  -3.890  1.00 20.00     0.022 C 
ENDBRANCH   1   7
TORSDOF 2
ENDMDL
MODEL 8
REMARK VINA RESULT:      -3.8      1.960      2.849
REMARK  2 active torsions:
REMARK  status: ('A' for Active; 'I' for Inactive)
REMARK    1  A    between atoms: C1_1  and  C3_3 
REMARK    2  A    between atoms: C1_1  and  C9_9 
ROOT
HETATM    1  C1  UNL     1     -34.004  16.336  -4.684  1.00 20.00     0.139 C 
HETATM    2  O10 UNL     1     -32.790  16.315  -4.900  1.00 20.00    -0.297 OA
ENDROOT
BRANCH   1   3
HETATM    3  C3  UNL     1     -34.953  15.746  -5.700  1.00 20.00     0.060 A 
HETATM    4  C2  UNL     1     -34.373  14.956  -6.820  1.00 20.00     0.017 A 
HETATM    5  C4  UNL     1     -35.164  14.273  -5.739  1.00 20.00    -0.007 A 
HETATM    6  C5  UNL     1     -34.491  13.320  -4.812  1.00 20.00     0.011 C 
ENDBRANCH   1   3
BRANCH   1   7
HETATM    7  C9  UNL     1     -34.591  16.928  -3.389  1.00 20.00     0.010 C 
HETATM    8  C6  UNL     1     -33.865  18.241  -3.070  1.00 20.00     0.022 C 
HETATM    9  C7  UNL     1     -34.441  15.943  -2.223  1.00 20.00     0.022 C 
HETATM   10  C8  UNL     1     -36.088  17.220  -3.593  1.00 20.00     0.022 C 
ENDBRANCH   1   7
TORSDOF 2
ENDMDL
MODEL 9
REMARK VINA RESULT:      -3.8      1.538      2.308
REMARK  2 active torsions:
REMARK  status: ('A' for Active; 'I' for Inactive)
REMARK    1  A    between atoms: C1_1  and  C3_3 
REMARK    2  A    between atoms: C1_1  and  C9_9 
ROOT
HETATM    1  C1  UNL     1     -35.083  15.422  -4.711  1.00 20.00     0.139 C 
HETATM    2  O10 UNL     1     -36.285  15.688  -4.644  1.00 20.00    -0.297 OA
ENDROOT
BRANCH   1   3
HETATM    3  C3  UNL     1     -34.561  14.619  -5.879  1.00 20.00     0.060 A 
HETATM    4  C2  UNL     1     -35.485  14.357  -7.014  1.00 20.00     0.017 A 
HETATM    5  C4  UNL     1     -34.321  15.292  -7.184  1.00 20.00    -0.007 A 
HETATM    6  C5  UNL     1     -34.559  16.745  -7.418  1.00 20.00     0.011 C 
ENDBRANCH   1   3
BRANCH   1   7
HETATM    7  C9  UNL     1     -34.081  15.907  -3.647  1.00 20.00     0.010 C 
HETATM    8  C6  UNL     1     -33.713  17.367  -3.939  1.00 20.00     0.022 C 
HETATM    9  C7  UNL     1     -32.820  15.032  -3.648  1.00 20.00     0.022 C 
HETATM   10  C8  UNL     1     -34.732  15.823  -2.255  1.00 20.00     0.022 C 
ENDBRANCH   1   7
TORSDOF 2
ENDMDL
