MODEL 1
REMARK VINA RESULT:      -4.9      0.000      0.000
REMARK  2 active torsions:
REMARK  status: ('A' for Active; 'I' for Inactive)
REMARK    1  A    between atoms: C3_3  and  C5_5 
REMARK    2  A    between atoms: C5_5  and  C7_7 
ROOT
HETATM    1  C1  UNL     1     -34.535  16.349  -1.216  1.00 20.00     0.029 A 
HETATM    2  C2  UNL     1     -33.750  18.027  -2.620  1.00 20.00     0.065 A 
HETATM    3  C3  UNL     1     -33.978  16.675  -2.487  1.00 20.00     0.018 A 
HETATM    4  C4  UNL     1     -34.710  17.465  -0.427  1.00 20.00    -0.021 A 
HETATM    5  C9  UNL     1     -35.257  17.545   0.945  1.00 20.00     0.056 C 
HETATM    6  S12 UNL     1     -34.206  18.897  -1.218  1.00 20.00    -0.106 SA
ENDROOT
BRANCH   3   7
HETATM    7  C5  UNL     1     -33.671  15.715  -3.550  1.00 20.00     0.164 C 
HETATM    8  O11 UNL     1     -32.985  15.964  -4.535  1.00 20.00    -0.292 OA
BRANCH   7   9
HETATM    9  C7  UNL     1     -34.223  14.363  -3.411  1.00 20.00     0.065 A 
HETATM   10  C6  UNL     1     -34.252  13.448  -4.609  1.00 20.00     0.018 A 
HETATM   11  C8  UNL     1     -35.538  13.991  -4.053  1.00 20.00    -0.006 A 
HETATM   12  C10 UNL     1     -36.339  14.967  -4.844  1.00 20.00     0.011 C 
ENDBRANCH   7   9
ENDBRANCH   3   7
TORSDOF 2
ENDMDL
MODEL 2
REMARK VINA RESULT:      -4.7      1.846      2.074
REMARK  2 active torsions:
REMARK  status: ('A' for Active; 'I' for Inactive)
REMARK    1  A    between atoms: C3_3  and  C5_5 
REMARK    2  A    between atoms: C5_5  and  C7_7 
ROOT
HETATM    1  C1  UNL     1     -34.654  16.206  -1.672  1.00 20.00     0.029 A 
HETATM    2  C2  UNL     1     -34.955  17.079  -3.805  1.00 20.00     0.065 A 
HETATM    3  C3  UNL     1     -35.193  16.005  -2.976  1.00 20.00     0.018 A 
HETATM    4  C4  UNL     1     -34.025  17.426  -1.554  1.00 20.00    -0.021 A 
HETATM    5  C9  UNL     1     -33.348  18.002  -0.373  1.00 20.00     0.056 C 
HETATM    6  S12 UNL     1     -34.085  18.322  -3.012  1.00 20.00    -0.106 SA
ENDROOT
BRANCH   3   7
HETATM    7  C5  UNL     1     -35.918  14.812  -3.419  1.00 20.00     0.164 C 
HETATM    8  O11 UNL     1     -37.139  14.733  -3.510  1.00 20.00    -0.292 OA
BRANCH   7   9
HETATM    9  C7  UNL     1     -35.117  13.639  -3.784  1.00 20.00     0.065 A 
HETATM   10  C6  UNL     1     -33.668  13.819  -4.159  1.00 20.00     0.018 A 
HETATM   11  C8  UNL     1     -34.665  13.419  -5.208  1.00 20.00    -0.006 A 
HETATM   12  C10 UNL     1     -35.012  14.364  -6.306  1.00 20.00     0.011 C 
ENDBRANCH   7   9
ENDBRANCH   3   7
TORSDOF 2
ENDMDL
MODEL 3
REMARK VINA RESULT:      -4.6      2.646      5.074
REMARK  2 active torsions:
REMARK  status: ('A' for Active; 'I' for Inactive)
REMARK    1  A    between atoms: C3_3  and  C5_5 
REMARK    2  A    between atoms: C5_5  and  C7_7 
ROOT
HETATM    1  C1  UNL     1     -34.976  16.042  -4.897  1.00 20.00     0.029 A 
HETATM    2  C2  UNL     1     -34.841  14.269  -3.401  1.00 20.00     0.065 A 
HETATM    3  C3  UNL     1     -35.102  15.613  -3.544  1.00 20.00     0.018 A 
HETATM    4  C4  UNL     1     -34.623  15.008  -5.737  1.00 20.00    -0.021 A 
HETATM    5  C9  UNL     1     -34.399  15.045  -7.198  1.00 20.00     0.056 C 
HETATM    6  S12 UNL     1     -34.446  13.529  -4.894  1.00 20.00    -0.106 SA
ENDROOT
BRANCH   3   7
HETATM    7  C5  UNL     1     -35.463  16.471  -2.412  1.00 20.00     0.164 C 
HETATM    8  O11 UNL     1     -36.438  17.214  -2.384  1.00 20.00    -0.292 OA
BRANCH   7   9
HETATM    9  C7  UNL     1     -34.592  16.423  -1.232  1.00 20.00     0.065 A 
HETATM   10  C6  UNL     1     -34.837  17.378  -0.092  1.00 20.00     0.018 A 
HETATM   11  C8  UNL     1     -33.610  17.534  -0.946  1.00 20.00    -0.006 A 
HETATM   12  C10 UNL     1     -33.469  18.718  -1.839  1.00 20.00     0.011 C 
ENDBRANCH   7   9
ENDBRANCH   3   7
TORSDOF 2
ENDMDL
MODEL 4
REMARK VINA RESULT:      -4.5      2.086      2.670
REMARK  2 active torsions:
REMARK  status: ('A' for Active; 'I' for Inactive)
REMARK    1  A    between atoms: C3_3  and  C5_5 
REMARK    2  A    between atoms: C5_5  and  C7_7 
ROOT
HETATM    1  C1  UNL     1     -34.167  15.618  -2.723  1.00 20.00     0.029 A 
HETATM    2  C2  UNL     1     -36.314  16.059  -3.498  1.00 20.00     0.065 A 
HETATM    3  C3  UNL     1     -35.223  15.223  -3.595  1.00 20.00     0.018 A 
HETATM    4  C4  UNL     1     -34.492  16.741  -1.993  1.00 20.00    -0.021 A 
HETATM    5  C9  UNL     1     -33.673  17.453  -0.988  1.00 20.00     0.056 C 
HETATM    6  S12 UNL     1     -36.063  17.313  -2.359  1.00 20.00    -0.106 SA
ENDROOT
BRANCH   3   7
HETATM    7  C5  UNL     1     -35.190  14.073  -4.502  1.00 20.00     0.164 C 
HETATM    8  O11 UNL     1     -35.752  13.004  -4.292  1.00 20.00    -0.292 OA
BRANCH   7   9
HETATM    9  C7  UNL     1     -34.432  14.227  -5.749  1.00 20.00     0.065 A 
HETATM   10  C6  UNL     1     -34.191  15.607  -6.304  1.00 20.00     0.018 A 
HETATM   11  C8  UNL     1     -35.114  14.665  -7.023  1.00 20.00    -0.006 A 
HETATM   12  C10 UNL     1     -36.575  14.953  -7.083  1.00 20.00     0.011 C 
ENDBRANCH   7   9
ENDBRANCH   3   7
TORSDOF 2
ENDMDL
MODEL 5
REMARK VINA RESULT:      -4.4      3.014      4.811
REMARK  2 active torsions:
REMARK  status: ('A' for Active; 'I' for Inactive)
REMARK    1  A    between atoms: C3_3  and  C5_5 
REMARK    2  A    between atoms: C5_5  and  C7_7 
ROOT
HETATM    1  C1  UNL     1     -33.856  16.788  -5.748  1.00 20.00     0.029 A 
HETATM    2  C2  UNL     1     -34.590  14.605  -6.059  1.00 20.00     0.065 A 
HETATM    3  C3  UNL     1     -33.973  15.480  -5.193  1.00 20.00     0.018 A 
HETATM    4  C4  UNL     1     -34.388  16.861  -7.017  1.00 20.00    -0.021 A 
HETATM    5  C9  UNL     1     -34.461  18.032  -7.918  1.00 20.00     0.056 C 
HETATM    6  S12 UNL     1     -35.025  15.359  -7.534  1.00 20.00    -0.106 SA
ENDROOT
BRANCH   3   7
HETATM    7  C5  UNL     1     -33.505  15.077  -3.865  1.00 20.00     0.164 C 
HETATM    8  O11 UNL     1     -32.341  14.803  -3.591  1.00 20.00    -0.292 OA
BRANCH   7   9
HETATM    9  C7  UNL     1     -34.506  15.005  -2.796  1.00 20.00     0.065 A 
HETATM   10  C6  UNL     1     -35.703  15.921  -2.839  1.00 20.00     0.018 A 
HETATM   11  C8  UNL     1     -34.648  16.120  -1.788  1.00 20.00    -0.006 A 
HETATM   12  C10 UNL     1     -33.784  17.334  -1.820  1.00 20.00     0.011 C 
ENDBRANCH   7   9
ENDBRANCH   3   7
TORSDOF 2
ENDMDL
MODEL 6
REMARK VINA RESULT:      -4.3      2.763      4.495
REMARK  2 active torsions:
REMARK  status: ('A' for Active; 'I' for Inactive)
REMARK    1  A    between atoms: C3_3  and  C5_5 
REMARK    2  A    between atoms: C5_5  and  C7_7 
ROOT
HETATM    1  C1  UNL     1     -37.483  14.628  -3.841  1.00 20.00     0.029 A 
HETATM    2  C2  UNL     1     -36.662  15.122  -5.958  1.00 20.00     0.065 A 
HETATM    3  C3  UNL     1     -36.368  14.578  -4.727  1.00 20.00     0.018 A 
HETATM    4  C4  UNL     1     -38.586  15.209  -4.428  1.00 20.00    -0.021 A 
HETATM    5  C9  UNL     1     -39.924  15.442  -3.844  1.00 20.00     0.056 C 
HETATM    6  S12 UNL     1     -38.275  15.691  -6.041  1.00 20.00    -0.106 SA
ENDROOT
BRANCH   3   7
HETATM    7  C5  UNL     1     -35.052  14.022  -4.405  1.00 20.00     0.164 C 
HETATM    8  O11 UNL     1     -34.846  12.855  -4.092  1.00 20.00    -0.292 OA
BRANCH   7   9
HETATM    9  C7  UNL     1     -33.906  14.936  -4.471  1.00 20.00     0.065 A 
HETATM   10  C6  UNL     1     -32.708  14.687  -3.591  1.00 20.00     0.018 A 
HETATM   11  C8  UNL     1     -33.592  15.873  -3.329  1.00 20.00    -0.006 A 
HETATM   12  C10 UNL     1     -34.424  15.926  -2.094  1.00 20.00     0.011 C 
ENDBRANCH   7   9
ENDBRANCH   3   7
TORSDOF 2
ENDMDL
MODEL 7
REMARK VINA RESULT:      -4.2     10.719     11.415
REMARK  2 active torsions:
REMARK  status: ('A' for Active; 'I' for Inactive)
REMARK    1  A    between atoms: C3_3  and  C5_5 
REMARK    2  A    between atoms: C5_5  and  C7_7 
ROOT
HETATM    1  C1  UNL     1     -33.337   6.463   5.033  1.00 20.00     0.029 A 
HETATM    2  C2  UNL     1     -33.985   5.844   2.888  1.00 20.00     0.065 A 
HETATM    3  C3  UNL     1     -33.105   6.597   3.633  1.00 20.00     0.018 A 
HETATM    4  C4  UNL     1     -34.386   5.611   5.304  1.00 20.00    -0.021 A 
HETATM    5  C9  UNL     1     -34.931   5.213   6.619  1.00 20.00     0.056 C 
HETATM    6  S12 UNL     1     -35.085   4.979   3.875  1.00 20.00    -0.106 SA
ENDROOT
BRANCH   3   7
HETATM    7  C5  UNL     1     -32.065   7.429   3.021  1.00 20.00     0.164 C 
HETATM    8  O11 UNL     1     -31.069   7.841   3.606  1.00 20.00    -0.292 OA
BRANCH   7   9
HETATM    9  C7  UNL     1     -32.237   7.781   1.607  1.00 20.00     0.065 A 
HETATM   10  C6  UNL     1     -31.219   8.668   0.936  1.00 20.00     0.018 A 
HETATM   11  C8  UNL     1     -32.605   9.186   1.195  1.00 20.00    -0.006 A 
HETATM   12  C10 UNL     1     -32.820  10.274   2.190  1.00 20.00     0.011 C 
ENDBRANCH   7   9
ENDBRANCH   3   7
TORSDOF 2
ENDMDL
MODEL 8
REMARK VINA RESULT:      -4.2      2.687      4.900
REMARK  2 active torsions:
REMARK  status: ('A' for Active; 'I' for Inactive)
REMARK    1  A    between atoms: C3_3  and  C5_5 
REMARK    2  A    between atoms: C5_5  and  C7_7 
ROOT
HETATM    1  C1  UNL     1     -36.686  15.169  -6.040  1.00 20.00     0.029 A 
HETATM    2  C2  UNL     1     -37.426  14.630  -3.904  1.00 20.00     0.065 A 
HETATM    3  C3  UNL     1     -36.360  14.599  -4.775  1.00 20.00     0.018 A 
HETATM    4  C4  UNL     1     -37.989  15.615  -6.086  1.00 20.00    -0.021 A 
HETATM    5  C9  UNL     1     -38.700  16.262  -7.210  1.00 20.00     0.056 C 
HETATM    6  S12 UNL     1     -38.813  15.345  -4.610  1.00 20.00    -0.106 SA
ENDROOT
BRANCH   3   7
HETATM    7  C5  UNL     1     -35.059  14.035  -4.408  1.00 20.00     0.164 C 
HETATM    8  O11 UNL     1     -34.877  12.874  -4.059  1.00 20.00    -0.292 OA
BRANCH   7   9
HETATM    9  C7  UNL     1     -33.899  14.931  -4.473  1.00 20.00     0.065 A 
HETATM   10  C6  UNL     1     -32.707  14.665  -3.589  1.00 20.00     0.018 A 
HETATM   11  C8  UNL     1     -33.574  15.864  -3.331  1.00 20.00    -0.006 A 
HETATM   12  C10 UNL     1     -34.407  15.931  -2.098  1.00 20.00     0.011 C 
ENDBRANCH   7   9
ENDBRANCH   3   7
TORSDOF 2
ENDMDL
MODEL 9
REMARK VINA RESULT:      -4.2      2.481      4.997
REMARK  2 active torsions:
REMARK  status: ('A' for Active; 'I' for Inactive)
REMARK    1  A    between atoms: C3_3  and  C5_5 
REMARK    2  A    between atoms: C5_5  and  C7_7 
ROOT
HETATM    1  C1  UNL     1     -34.321  15.466  -2.586  1.00 20.00     0.029 A 
HETATM    2  C2  UNL     1     -36.497  16.024  -3.180  1.00 20.00     0.065 A 
HETATM    3  C3  UNL     1     -35.436  16.322  -2.354  1.00 20.00     0.018 A 
HETATM    4  C4  UNL     1     -34.572  14.547  -3.581  1.00 20.00    -0.021 A 
HETATM    5  C9  UNL     1     -33.676  13.497  -4.111  1.00 20.00     0.056 C 
HETATM    6  S12 UNL     1     -36.147  14.718  -4.230  1.00 20.00    -0.106 SA
ENDROOT
BRANCH   3   7
HETATM    7  C5  UNL     1     -35.487  17.400  -1.363  1.00 20.00     0.164 C 
HETATM    8  O11 UNL     1     -36.239  18.367  -1.424  1.00 20.00    -0.292 OA
BRANCH   7   9
HETATM    9  C7  UNL     1     -34.574  17.301  -0.219  1.00 20.00     0.065 A 
HETATM   10  C6  UNL     1     -34.510  18.431   0.777  1.00 20.00     0.018 A 
HETATM   11  C8  UNL     1     -33.342  18.170  -0.131  1.00 20.00    -0.006 A 
HETATM   12  C10 UNL     1     -32.988  19.155  -1.192  1.00 20.00     0.011 C 
ENDBRANCH   7   9
ENDBRANCH   3   7
TORSDOF 2
ENDMDL
