MODEL 1
REMARK VINA RESULT:      -4.4      0.000      0.000
REMARK  2 active torsions:
REMARK  status: ('A' for Active; 'I' for Inactive)
REMARK    1  A    between atoms: C2_2  and  C9_9 
REMARK    2  A    between atoms: C9_9  and  N11_11 
ROOT
HETATM    1  C3  UNL     1     -34.062  13.533  -4.505  1.00 20.00     0.300 C 
HETATM    2  C4  UNL     1     -33.521  14.513  -3.463  1.00 20.00     0.303 C 
HETATM    3  C5  UNL     1     -35.750  15.351  -3.090  1.00 20.00     0.308 C 
HETATM    4  C6  UNL     1     -36.318  14.366  -4.127  1.00 20.00     0.244 C 
HETATM    5  C7  UNL     1     -36.562  15.027  -5.487  1.00 20.00     0.044 C 
HETATM    6  N10 UNL     1     -35.462  13.177  -4.255  1.00 20.00     0.091 N 
HETATM    7  N11 UNL     1     -34.359  15.717  -3.393  1.00 20.00     0.100 N 
HETATM    8  H29 UNL     1     -35.801  12.606  -5.039  1.00 20.00     0.316 HD
ENDROOT
BRANCH   7   9
HETATM    9  C9  UNL     1     -33.840  16.653  -2.398  1.00 20.00     0.241 C 
HETATM   10  C8  UNL     1     -33.881  18.082  -2.927  1.00 20.00     0.047 C 
BRANCH   9  11
HETATM   11  C2  UNL     1     -34.661  16.507  -1.150  1.00 20.00    -0.002 C 
HETATM   12  C1  UNL     1     -34.548  17.309  -0.085  1.00 20.00     0.009 C 
ENDBRANCH   9  11
ENDBRANCH   7   9
TORSDOF 2
ENDMDL
MODEL 2
REMARK VINA RESULT:      -4.3      1.364      1.935
REMARK  2 active torsions:
REMARK  status: ('A' for Active; 'I' for Inactive)
REMARK    1  A    between atoms: C2_2  and  C9_9 
REMARK    2  A    between atoms: C9_9  and  N11_11 
ROOT
HETATM    1  C3  UNL     1     -34.837  16.068  -5.679  1.00 20.00     0.300 C 
HETATM    2  C4  UNL     1     -34.316  16.881  -4.493  1.00 20.00     0.303 C 
HETATM    3  C5  UNL     1     -33.454  14.867  -3.488  1.00 20.00     0.308 C 
HETATM    4  C6  UNL     1     -33.962  14.030  -4.676  1.00 20.00     0.244 C 
HETATM    5  C7  UNL     1     -35.285  13.323  -4.370  1.00 20.00     0.044 C 
HETATM    6  N10 UNL     1     -34.059  14.845  -5.897  1.00 20.00     0.091 N 
HETATM    7  N11 UNL     1     -34.281  16.063  -3.274  1.00 20.00     0.100 N 
HETATM    8  H29 UNL     1     -34.515  14.291  -6.631  1.00 20.00     0.316 HD
ENDROOT
BRANCH   7   9
HETATM    9  C9  UNL     1     -33.784  16.842  -2.142  1.00 20.00     0.241 C 
HETATM   10  C8  UNL     1     -33.752  18.328  -2.479  1.00 20.00     0.047 C 
BRANCH   9  11
HETATM   11  C2  UNL     1     -34.673  16.566  -0.964  1.00 20.00    -0.002 C 
HETATM   12  C1  UNL     1     -34.710  17.327   0.136  1.00 20.00     0.009 C 
ENDBRANCH   9  11
ENDBRANCH   7   9
TORSDOF 2
ENDMDL
MODEL 3
REMARK VINA RESULT:      -4.1      1.493      4.391
REMARK  2 active torsions:
REMARK  status: ('A' for Active; 'I' for Inactive)
REMARK    1  A    between atoms: C2_2  and  C9_9 
REMARK    2  A    between atoms: C9_9  and  N11_11 
ROOT
HETATM    1  C3  UNL     1     -33.761  17.932  -3.616  1.00 20.00     0.300 C 
HETATM    2  C4  UNL     1     -33.768  16.746  -4.583  1.00 20.00     0.303 C 
HETATM    3  C5  UNL     1     -35.417  15.640  -3.218  1.00 20.00     0.308 C 
HETATM    4  C6  UNL     1     -35.435  16.825  -2.237  1.00 20.00     0.244 C 
HETATM    5  C7  UNL     1     -34.585  16.564  -0.990  1.00 20.00     0.044 C 
HETATM    6  N10 UNL     1     -35.035  18.073  -2.905  1.00 20.00     0.091 N 
HETATM    7  N11 UNL     1     -34.114  15.503  -3.882  1.00 20.00     0.100 N 
HETATM    8  H29 UNL     1     -34.938  18.812  -2.198  1.00 20.00     0.316 HD
ENDROOT
BRANCH   7   9
HETATM    9  C9  UNL     1     -34.118  14.371  -4.807  1.00 20.00     0.241 C 
HETATM   10  C8  UNL     1     -35.106  13.304  -4.350  1.00 20.00     0.047 C 
BRANCH   9  11
HETATM   11  C2  UNL     1     -34.463  14.889  -6.173  1.00 20.00    -0.002 C 
HETATM   12  C1  UNL     1     -35.398  14.347  -6.962  1.00 20.00     0.009 C 
ENDBRANCH   9  11
ENDBRANCH   7   9
TORSDOF 2
ENDMDL
MODEL 4
REMARK VINA RESULT:      -4.1      1.132      2.080
REMARK  2 active torsions:
REMARK  status: ('A' for Active; 'I' for Inactive)
REMARK    1  A    between atoms: C2_2  and  C9_9 
REMARK    2  A    between atoms: C9_9  and  N11_11 
ROOT
HETATM    1  C3  UNL     1     -36.292  15.028  -3.614  1.00 20.00     0.300 C 
HETATM    2  C4  UNL     1     -35.769  16.119  -2.678  1.00 20.00     0.303 C 
HETATM    3  C5  UNL     1     -33.569  15.887  -3.635  1.00 20.00     0.308 C 
HETATM    4  C6  UNL     1     -34.076  14.794  -4.593  1.00 20.00     0.244 C 
HETATM    5  C7  UNL     1     -33.741  13.384  -4.100  1.00 20.00     0.044 C 
HETATM    6  N10 UNL     1     -35.516  14.944  -4.854  1.00 20.00     0.091 N 
HETATM    7  N11 UNL     1     -34.344  15.917  -2.387  1.00 20.00     0.100 N 
HETATM    8  H29 UNL     1     -35.842  14.131  -5.392  1.00 20.00     0.316 HD
ENDROOT
BRANCH   7   9
HETATM    9  C9  UNL     1     -33.845  16.959  -1.492  1.00 20.00     0.241 C 
HETATM   10  C8  UNL     1     -33.786  18.304  -2.206  1.00 20.00     0.047 C 
BRANCH   9  11
HETATM   11  C2  UNL     1     -34.748  17.014  -0.294  1.00 20.00    -0.002 C 
HETATM   12  C1  UNL     1     -34.578  17.857   0.731  1.00 20.00     0.009 C 
ENDBRANCH   9  11
ENDBRANCH   7   9
TORSDOF 2
ENDMDL
MODEL 5
REMARK VINA RESULT:      -4.1      2.071      2.927
REMARK  2 active torsions:
REMARK  status: ('A' for Active; 'I' for Inactive)
REMARK    1  A    between atoms: C2_2  and  C9_9 
REMARK    2  A    between atoms: C9_9  and  N11_11 
ROOT
HETATM    1  C3  UNL     1     -34.407  16.744  -6.659  1.00 20.00     0.300 C 
HETATM    2  C4  UNL     1     -33.914  16.240  -5.302  1.00 20.00     0.303 C 
HETATM    3  C5  UNL     1     -34.949  14.104  -5.717  1.00 20.00     0.308 C 
HETATM    4  C6  UNL     1     -35.448  14.586  -7.090  1.00 20.00     0.244 C 
HETATM    5  C7  UNL     1     -36.917  15.017  -7.060  1.00 20.00     0.044 C 
HETATM    6  N10 UNL     1     -34.588  15.655  -7.622  1.00 20.00     0.091 N 
HETATM    7  N11 UNL     1     -34.818  15.215  -4.765  1.00 20.00     0.100 N 
HETATM    8  H29 UNL     1     -35.019  16.035  -8.473  1.00 20.00     0.316 HD
ENDROOT
BRANCH   7   9
HETATM    9  C9  UNL     1     -34.346  14.735  -3.468  1.00 20.00     0.241 C 
HETATM   10  C8  UNL     1     -33.172  13.778  -3.640  1.00 20.00     0.047 C 
BRANCH   9  11
HETATM   11  C2  UNL     1     -33.964  15.929  -2.642  1.00 20.00    -0.002 C 
HETATM   12  C1  UNL     1     -34.636  16.330  -1.557  1.00 20.00     0.009 C 
ENDBRANCH   9  11
ENDBRANCH   7   9
TORSDOF 2
ENDMDL
MODEL 6
REMARK VINA RESULT:      -4.1      1.751      4.094
REMARK  2 active torsions:
REMARK  status: ('A' for Active; 'I' for Inactive)
REMARK    1  A    between atoms: C2_2  and  C9_9 
REMARK    2  A    between atoms: C9_9  and  N11_11 
ROOT
HETATM    1  C3  UNL     1     -33.669  13.576  -4.010  1.00 20.00     0.300 C 
HETATM    2  C4  UNL     1     -34.492  13.846  -5.271  1.00 20.00     0.303 C 
HETATM    3  C5  UNL     1     -34.024  16.202  -5.074  1.00 20.00     0.308 C 
HETATM    4  C6  UNL     1     -33.184  15.953  -3.809  1.00 20.00     0.244 C 
HETATM    5  C7  UNL     1     -33.960  16.251  -2.523  1.00 20.00     0.044 C 
HETATM    6  N10 UNL     1     -32.632  14.589  -3.798  1.00 20.00     0.091 N 
HETATM    7  N11 UNL     1     -35.079  15.191  -5.233  1.00 20.00     0.100 N 
HETATM    8  H29 UNL     1     -32.185  14.419  -2.889  1.00 20.00     0.316 HD
ENDROOT
BRANCH   7   9
HETATM    9  C9  UNL     1     -35.866  15.447  -6.438  1.00 20.00     0.241 C 
HETATM   10  C8  UNL     1     -35.507  14.456  -7.539  1.00 20.00     0.047 C 
BRANCH   9  11
HETATM   11  C2  UNL     1     -37.318  15.357  -6.071  1.00 20.00    -0.002 C 
HETATM   12  C1  UNL     1     -37.781  15.479  -4.822  1.00 20.00     0.009 C 
ENDBRANCH   9  11
ENDBRANCH   7   9
TORSDOF 2
ENDMDL
MODEL 7
REMARK VINA RESULT:      -4.0      2.393      4.125
REMARK  2 active torsions:
REMARK  status: ('A' for Active; 'I' for Inactive)
REMARK    1  A    between atoms: C2_2  and  C9_9 
REMARK    2  A    between atoms: C9_9  and  N11_11 
ROOT
HETATM    1  C3  UNL     1     -35.078  13.317  -4.320  1.00 20.00     0.300 C 
HETATM    2  C4  UNL     1     -34.843  13.983  -5.677  1.00 20.00     0.303 C 
HETATM    3  C5  UNL     1     -33.454  15.646  -4.622  1.00 20.00     0.308 C 
HETATM    4  C6  UNL     1     -33.669  14.988  -3.248  1.00 20.00     0.244 C 
HETATM    5  C7  UNL     1     -34.736  15.706  -2.416  1.00 20.00     0.044 C 
HETATM    6  N10 UNL     1     -33.973  13.555  -3.388  1.00 20.00     0.091 N 
HETATM    7  N11 UNL     1     -34.597  15.422  -5.517  1.00 20.00     0.100 N 
HETATM    8  H29 UNL     1     -34.232  13.179  -2.467  1.00 20.00     0.316 HD
ENDROOT
BRANCH   7   9
HETATM    9  C9  UNL     1     -34.373  16.057  -6.815  1.00 20.00     0.241 C 
HETATM   10  C8  UNL     1     -35.179  15.359  -7.904  1.00 20.00     0.047 C 
BRANCH   9  11
HETATM   11  C2  UNL     1     -34.752  17.504  -6.695  1.00 20.00    -0.002 C 
HETATM   12  C1  UNL     1     -34.291  18.465  -7.504  1.00 20.00     0.009 C 
ENDBRANCH   9  11
ENDBRANCH   7   9
TORSDOF 2
ENDMDL
MODEL 8
REMARK VINA RESULT:      -4.0      1.869      4.339
REMARK  2 active torsions:
REMARK  status: ('A' for Active; 'I' for Inactive)
REMARK    1  A    between atoms: C2_2  and  C9_9 
REMARK    2  A    between atoms: C9_9  and  N11_11 
ROOT
HETATM    1  C3  UNL     1     -36.353  18.235  -1.923  1.00 20.00     0.300 C 
HETATM    2  C4  UNL     1     -36.147  17.292  -3.110  1.00 20.00     0.303 C 
HETATM    3  C5  UNL     1     -34.552  16.021  -1.826  1.00 20.00     0.308 C 
HETATM    4  C6  UNL     1     -34.751  16.951  -0.615  1.00 20.00     0.244 C 
HETATM    5  C7  UNL     1     -33.641  17.999  -0.496  1.00 20.00     0.044 C 
HETATM    6  N10 UNL     1     -36.081  17.579  -0.641  1.00 20.00     0.091 N 
HETATM    7  N11 UNL     1     -34.794  16.722  -3.095  1.00 20.00     0.100 N 
HETATM    8  H29 UNL     1     -36.131  18.282   0.106  1.00 20.00     0.316 HD
ENDROOT
BRANCH   7   9
HETATM    9  C9  UNL     1     -34.598  15.822  -4.230  1.00 20.00     0.241 C 
HETATM   10  C8  UNL     1     -33.420  16.277  -5.083  1.00 20.00     0.047 C 
BRANCH   9  11
HETATM   11  C2  UNL     1     -34.385  14.437  -3.694  1.00 20.00    -0.002 C 
HETATM   12  C1  UNL     1     -34.871  13.331  -4.270  1.00 20.00     0.009 C 
ENDBRANCH   9  11
ENDBRANCH   7   9
TORSDOF 2
ENDMDL
MODEL 9
REMARK VINA RESULT:      -3.9      1.438      4.144
REMARK  2 active torsions:
REMARK  status: ('A' for Active; 'I' for Inactive)
REMARK    1  A    between atoms: C2_2  and  C9_9 
REMARK    2  A    between atoms: C9_9  and  N11_11 
ROOT
HETATM    1  C3  UNL     1     -33.487  13.794  -3.757  1.00 20.00     0.300 C 
HETATM    2  C4  UNL     1     -34.866  13.678  -4.409  1.00 20.00     0.303 C 
HETATM    3  C5  UNL     1     -35.070  16.079  -4.408  1.00 20.00     0.308 C 
HETATM    4  C6  UNL     1     -33.681  16.220  -3.761  1.00 20.00     0.244 C 
HETATM    5  C7  UNL     1     -33.761  16.459  -2.251  1.00 20.00     0.044 C 
HETATM    6  N10 UNL     1     -32.829  15.063  -4.076  1.00 20.00     0.091 N 
HETATM    7  N11 UNL     1     -35.718  14.814  -4.035  1.00 20.00     0.100 N 
HETATM    8  H29 UNL     1     -31.962  15.131  -3.530  1.00 20.00     0.316 HD
ENDROOT
BRANCH   7   9
HETATM    9  C9  UNL     1     -37.035  14.701  -4.657  1.00 20.00     0.241 C 
HETATM   10  C8  UNL     1     -38.135  15.055  -3.663  1.00 20.00     0.047 C 
BRANCH   9  11
HETATM   11  C2  UNL     1     -37.063  15.608  -5.853  1.00 20.00    -0.002 C 
HETATM   12  C1  UNL     1     -37.574  15.262  -7.040  1.00 20.00     0.009 C 
ENDBRANCH   9  11
ENDBRANCH   7   9
TORSDOF 2
ENDMDL
