MODEL 1
REMARK VINA RESULT:      -4.3      0.000      0.000
REMARK  3 active torsions:
REMARK  status: ('A' for Active; 'I' for Inactive)
REMARK    1  A    between atoms: C4_4  and  C6_6 
REMARK    2  A    between atoms: C4_4  and  O7_7 
REMARK    3  A    between atoms: C5_5  and  C6_6 
ROOT
HETATM    1  C6  UNL     1     -33.594   5.592   4.109  1.00 20.00     0.109 C 
HETATM    2 CL8  UNL     1     -34.495   5.299   2.582  1.00 20.00    -0.122 Cl
ENDROOT
BRANCH   1   3
HETATM    3  C4  UNL     1     -32.738   6.851   3.953  1.00 20.00     0.187 C 
BRANCH   3   4
HETATM    4  O7  UNL     1     -32.125   6.854   2.668  1.00 20.00    -0.394 OA
HETATM    5  C3  UNL     1     -32.081   8.162   2.117  1.00 20.00     0.201 C 
ENDBRANCH   3   4
ENDBRANCH   1   3
BRANCH   1   6
HETATM    6  C5  UNL     1     -34.541   5.659   5.331  1.00 20.00    -0.002 C 
HETATM    7  C1  UNL     1     -34.024   6.536   6.477  1.00 20.00     0.011 C 
HETATM    8  C2  UNL     1     -34.888   4.263   5.860  1.00 20.00     0.011 C 
ENDBRANCH   1   6
TORSDOF 3
ENDMDL
MODEL 2
REMARK VINA RESULT:      -4.1      1.810      2.063
REMARK  3 active torsions:
REMARK  status: ('A' for Active; 'I' for Inactive)
REMARK    1  A    between atoms: C4_4  and  C6_6 
REMARK    2  A    between atoms: C4_4  and  O7_7 
REMARK    3  A    between atoms: C5_5  and  C6_6 
ROOT
HETATM    1  C6  UNL     1     -33.777   6.562   4.783  1.00 20.00     0.109 C 
HETATM    2 CL8  UNL     1     -33.465   6.905   6.519  1.00 20.00    -0.122 Cl
ENDROOT
BRANCH   1   3
HETATM    3  C4  UNL     1     -32.451   6.584   4.020  1.00 20.00     0.187 C 
BRANCH   3   4
HETATM    4  O7  UNL     1     -32.695   6.867   2.646  1.00 20.00    -0.394 OA
HETATM    5  C3  UNL     1     -32.070   8.078   2.247  1.00 20.00     0.201 C 
ENDBRANCH   3   4
ENDBRANCH   1   3
BRANCH   1   6
HETATM    6  C5  UNL     1     -34.557   5.239   4.590  1.00 20.00    -0.002 C 
HETATM    7  C1  UNL     1     -35.816   5.374   3.728  1.00 20.00     0.011 C 
HETATM    8  C2  UNL     1     -34.912   4.587   5.931  1.00 20.00     0.011 C 
ENDBRANCH   1   6
TORSDOF 3
ENDMDL
MODEL 3
REMARK VINA RESULT:      -3.5     11.676     12.429
REMARK  3 active torsions:
REMARK  status: ('A' for Active; 'I' for Inactive)
REMARK    1  A    between atoms: C4_4  and  C6_6 
REMARK    2  A    between atoms: C4_4  and  O7_7 
REMARK    3  A    between atoms: C5_5  and  C6_6 
ROOT
HETATM    1  C6  UNL     1     -33.841  15.661  -3.807  1.00 20.00     0.109 C 
HETATM    2 CL8  UNL     1     -33.248  16.479  -5.294  1.00 20.00    -0.122 Cl
ENDROOT
BRANCH   1   3
HETATM    3  C4  UNL     1     -33.114  14.325  -3.646  1.00 20.00     0.187 C 
BRANCH   3   4
HETATM    4  O7  UNL     1     -34.066  13.287  -3.437  1.00 20.00    -0.394 OA
HETATM    5  C3  UNL     1     -35.158  13.395  -4.338  1.00 20.00     0.201 C 
ENDBRANCH   3   4
ENDBRANCH   1   3
BRANCH   1   6
HETATM    6  C5  UNL     1     -33.709  16.569  -2.561  1.00 20.00    -0.002 C 
HETATM    7  C1  UNL     1     -34.714  16.255  -1.448  1.00 20.00     0.011 C 
HETATM    8  C2  UNL     1     -33.787  18.055  -2.928  1.00 20.00     0.011 C 
ENDBRANCH   1   6
TORSDOF 3
ENDMDL
MODEL 4
REMARK VINA RESULT:      -3.5     11.873     12.433
REMARK  3 active torsions:
REMARK  status: ('A' for Active; 'I' for Inactive)
REMARK    1  A    between atoms: C4_4  and  C6_6 
REMARK    2  A    between atoms: C4_4  and  O7_7 
REMARK    3  A    between atoms: C5_5  and  C6_6 
ROOT
HETATM    1  C6  UNL     1     -34.491  15.478  -3.454  1.00 20.00     0.109 C 
HETATM    2 CL8  UNL     1     -34.653  16.028  -1.750  1.00 20.00    -0.122 Cl
ENDROOT
BRANCH   1   3
HETATM    3  C4  UNL     1     -33.007  15.307  -3.787  1.00 20.00     0.187 C 
BRANCH   3   4
HETATM    4  O7  UNL     1     -32.631  16.248  -4.787  1.00 20.00    -0.394 OA
HETATM    5  C3  UNL     1     -33.691  17.149  -5.076  1.00 20.00     0.201 C 
ENDBRANCH   3   4
ENDBRANCH   1   3
BRANCH   1   6
HETATM    6  C5  UNL     1     -35.317  14.198  -3.725  1.00 20.00    -0.002 C 
HETATM    7  C1  UNL     1     -34.731  13.294  -4.815  1.00 20.00     0.011 C 
HETATM    8  C2  UNL     1     -36.779  14.522  -4.048  1.00 20.00     0.011 C 
ENDBRANCH   1   6
TORSDOF 3
ENDMDL
MODEL 5
REMARK VINA RESULT:      -3.4     11.676     12.261
REMARK  3 active torsions:
REMARK  status: ('A' for Active; 'I' for Inactive)
REMARK    1  A    between atoms: C4_4  and  C6_6 
REMARK    2  A    between atoms: C4_4  and  O7_7 
REMARK    3  A    between atoms: C5_5  and  C6_6 
ROOT
HETATM    1  C6  UNL     1     -35.417  14.885  -3.917  1.00 20.00     0.109 C 
HETATM    2 CL8  UNL     1     -35.391  13.185  -4.501  1.00 20.00    -0.122 Cl
ENDROOT
BRANCH   1   3
HETATM    3  C4  UNL     1     -36.816  15.213  -3.390  1.00 20.00     0.187 C 
BRANCH   3   4
HETATM    4  O7  UNL     1     -37.717  14.172  -3.751  1.00 20.00    -0.394 OA
HETATM    5  C3  UNL     1     -38.966  14.693  -4.185  1.00 20.00     0.201 C 
ENDBRANCH   3   4
ENDBRANCH   1   3
BRANCH   1   6
HETATM    6  C5  UNL     1     -34.307  15.151  -2.872  1.00 20.00    -0.002 C 
HETATM    7  C1  UNL     1     -34.646  16.253  -1.864  1.00 20.00     0.011 C 
HETATM    8  C2  UNL     1     -32.959  15.451  -3.538  1.00 20.00     0.011 C 
ENDBRANCH   1   6
TORSDOF 3
ENDMDL
MODEL 6
REMARK VINA RESULT:      -3.4     11.956     12.742
REMARK  3 active torsions:
REMARK  status: ('A' for Active; 'I' for Inactive)
REMARK    1  A    between atoms: C4_4  and  C6_6 
REMARK    2  A    between atoms: C4_4  and  O7_7 
REMARK    3  A    between atoms: C5_5  and  C6_6 
ROOT
HETATM    1  C6  UNL     1     -33.489  15.330  -3.515  1.00 20.00     0.109 C 
HETATM    2 CL8  UNL     1     -33.195  13.567  -3.709  1.00 20.00    -0.122 Cl
ENDROOT
BRANCH   1   3
HETATM    3  C4  UNL     1     -33.821  15.937  -4.880  1.00 20.00     0.187 C 
BRANCH   3   4
HETATM    4  O7  UNL     1     -32.935  17.018  -5.150  1.00 20.00    -0.394 OA
HETATM    5  C3  UNL     1     -33.615  18.264  -5.132  1.00 20.00     0.201 C 
ENDBRANCH   3   4
ENDBRANCH   1   3
BRANCH   1   6
HETATM    6  C5  UNL     1     -34.575  15.618  -2.452  1.00 20.00    -0.002 C 
HETATM    7  C1  UNL     1     -35.958  15.922  -3.036  1.00 20.00     0.011 C 
HETATM    8  C2  UNL     1     -34.154  16.742  -1.498  1.00 20.00     0.011 C 
ENDBRANCH   1   6
TORSDOF 3
ENDMDL
MODEL 7
REMARK VINA RESULT:      -3.4     11.776     12.399
REMARK  3 active torsions:
REMARK  status: ('A' for Active; 'I' for Inactive)
REMARK    1  A    between atoms: C4_4  and  C6_6 
REMARK    2  A    between atoms: C4_4  and  O7_7 
REMARK    3  A    between atoms: C5_5  and  C6_6 
ROOT
HETATM    1  C6  UNL     1     -35.380  14.920  -3.020  1.00 20.00     0.109 C 
HETATM    2 CL8  UNL     1     -34.773  16.084  -1.791  1.00 20.00    -0.122 Cl
ENDROOT
BRANCH   1   3
HETATM    3  C4  UNL     1     -36.735  15.402  -3.543  1.00 20.00     0.187 C 
BRANCH   3   4
HETATM    4  O7  UNL     1     -37.625  14.296  -3.650  1.00 20.00    -0.394 OA
HETATM    5  C3  UNL     1     -38.891  14.696  -4.154  1.00 20.00     0.201 C 
ENDBRANCH   3   4
ENDBRANCH   1   3
BRANCH   1   6
HETATM    6  C5  UNL     1     -34.349  14.689  -4.150  1.00 20.00    -0.002 C 
HETATM    7  C1  UNL     1     -34.389  13.283  -4.756  1.00 20.00     0.011 C 
HETATM    8  C2  UNL     1     -32.923  15.019  -3.696  1.00 20.00     0.011 C 
ENDBRANCH   1   6
TORSDOF 3
ENDMDL
MODEL 8
REMARK VINA RESULT:      -3.3     11.982     13.042
REMARK  3 active torsions:
REMARK  status: ('A' for Active; 'I' for Inactive)
REMARK    1  A    between atoms: C4_4  and  C6_6 
REMARK    2  A    between atoms: C4_4  and  O7_7 
REMARK    3  A    between atoms: C5_5  and  C6_6 
ROOT
HETATM    1  C6  UNL     1     -34.864  13.882  -4.802  1.00 20.00     0.109 C 
HETATM    2 CL8  UNL     1     -33.400  13.538  -3.816  1.00 20.00    -0.122 Cl
ENDROOT
BRANCH   1   3
HETATM    3  C4  UNL     1     -35.870  14.661  -3.951  1.00 20.00     0.187 C 
BRANCH   3   4
HETATM    4  O7  UNL     1     -37.088  13.929  -3.864  1.00 20.00    -0.394 OA
HETATM    5  C3  UNL     1     -38.216  14.773  -4.043  1.00 20.00     0.201 C 
ENDBRANCH   3   4
ENDBRANCH   1   3
BRANCH   1   6
HETATM    6  C5  UNL     1     -34.509  14.606  -6.123  1.00 20.00    -0.002 C 
HETATM    7  C1  UNL     1     -34.116  16.076  -5.946  1.00 20.00     0.011 C 
HETATM    8  C2  UNL     1     -35.636  14.489  -7.156  1.00 20.00     0.011 C 
ENDBRANCH   1   6
TORSDOF 3
ENDMDL
MODEL 9
REMARK VINA RESULT:      -3.3      1.652      3.861
REMARK  3 active torsions:
REMARK  status: ('A' for Active; 'I' for Inactive)
REMARK    1  A    between atoms: C4_4  and  C6_6 
REMARK    2  A    between atoms: C4_4  and  O7_7 
REMARK    3  A    between atoms: C5_5  and  C6_6 
ROOT
HETATM    1  C6  UNL     1     -33.554   6.623   3.457  1.00 20.00     0.109 C 
HETATM    2 CL8  UNL     1     -34.084   5.230   2.452  1.00 20.00    -0.122 Cl
ENDROOT
BRANCH   1   3
HETATM    3  C4  UNL     1     -33.686   6.254   4.936  1.00 20.00     0.187 C 
BRANCH   3   4
HETATM    4  O7  UNL     1     -34.875   5.496   5.134  1.00 20.00    -0.394 OA
HETATM    5  C3  UNL     1     -34.644   4.376   5.976  1.00 20.00     0.201 C 
ENDBRANCH   3   4
ENDBRANCH   1   3
BRANCH   1   6
HETATM    6  C5  UNL     1     -32.128   7.093   3.083  1.00 20.00    -0.002 C 
HETATM    7  C1  UNL     1     -31.328   7.665   4.257  1.00 20.00     0.011 C 
HETATM    8  C2  UNL     1     -32.146   8.099   1.926  1.00 20.00     0.011 C 
ENDBRANCH   1   6
TORSDOF 3
ENDMDL
