MODEL 1
REMARK VINA RESULT:      -4.2      0.000      0.000
REMARK  2 active torsions:
REMARK  status: ('A' for Active; 'I' for Inactive)
REMARK    1  A    between atoms: C2_2  and  C9_9 
REMARK    2  A    between atoms: C9_9  and  N11_11 
ROOT
HETATM    1  C3  UNL     1     -33.675  13.798  -4.016  1.00 20.00     0.300 C 
HETATM    2  C4  UNL     1     -33.123  15.134  -3.515  1.00 20.00     0.302 C 
HETATM    3  C5  UNL     1     -35.032  16.275  -4.442  1.00 20.00     0.307 C 
HETATM    4  C6  UNL     1     -35.603  14.943  -4.963  1.00 20.00     0.244 C 
HETATM    5  C8  UNL     1     -36.694  14.378  -4.048  1.00 20.00     0.044 C 
HETATM    6  N10 UNL     1     -34.533  13.960  -5.193  1.00 20.00     0.091 N 
HETATM    7  N11 UNL     1     -34.211  16.079  -3.240  1.00 20.00     0.096 N 
HETATM    8  H29 UNL     1     -33.964  14.251  -5.992  1.00 20.00     0.316 HD
ENDROOT
BRANCH   7   9
HETATM    9  C9  UNL     1     -33.682  17.355  -2.760  1.00 20.00     0.305 C 
BRANCH   9  10
HETATM   10  C2  UNL     1     -33.826  17.437  -1.268  1.00 20.00    -0.065 C 
HETATM   11  C1  UNL     1     -34.722  16.686  -0.608  1.00 20.00     0.015 C 
HETATM   12  C7  UNL     1     -32.951  18.424  -0.549  1.00 20.00     0.044 C 
ENDBRANCH   9  10
ENDBRANCH   7   9
TORSDOF 2
ENDMDL
MODEL 2
REMARK VINA RESULT:      -4.1      1.658      2.277
REMARK  2 active torsions:
REMARK  status: ('A' for Active; 'I' for Inactive)
REMARK    1  A    between atoms: C2_2  and  C9_9 
REMARK    2  A    between atoms: C9_9  and  N11_11 
ROOT
HETATM    1  C3  UNL     1     -34.796  14.155  -5.825  1.00 20.00     0.300 C 
HETATM    2  C4  UNL     1     -34.249  14.383  -4.415  1.00 20.00     0.302 C 
HETATM    3  C5  UNL     1     -33.467  16.566  -5.069  1.00 20.00     0.307 C 
HETATM    4  C6  UNL     1     -34.003  16.356  -6.497  1.00 20.00     0.244 C 
HETATM    5  C8  UNL     1     -35.353  17.042  -6.722  1.00 20.00     0.044 C 
HETATM    6  N10 UNL     1     -34.065  14.925  -6.834  1.00 20.00     0.091 N 
HETATM    7  N11 UNL     1     -34.249  15.812  -4.080  1.00 20.00     0.096 N 
HETATM    8  H29 UNL     1     -33.117  14.551  -6.927  1.00 20.00     0.316 HD
ENDROOT
BRANCH   7   9
HETATM    9  C9  UNL     1     -33.726  16.029  -2.731  1.00 20.00     0.305 C 
BRANCH   9  10
HETATM   10  C2  UNL     1     -34.789  16.644  -1.867  1.00 20.00    -0.065 C 
HETATM   11  C1  UNL     1     -34.621  16.784  -0.542  1.00 20.00     0.015 C 
HETATM   12  C7  UNL     1     -36.065  17.060  -2.543  1.00 20.00     0.044 C 
ENDBRANCH   9  10
ENDBRANCH   7   9
TORSDOF 2
ENDMDL
MODEL 3
REMARK VINA RESULT:      -4.0      1.273      2.195
REMARK  2 active torsions:
REMARK  status: ('A' for Active; 'I' for Inactive)
REMARK    1  A    between atoms: C2_2  and  C9_9 
REMARK    2  A    between atoms: C9_9  and  N11_11 
ROOT
HETATM    1  C3  UNL     1     -33.281  16.564  -5.074  1.00 20.00     0.300 C 
HETATM    2  C4  UNL     1     -34.144  17.348  -4.083  1.00 20.00     0.302 C 
HETATM    3  C5  UNL     1     -35.045  15.283  -3.228  1.00 20.00     0.307 C 
HETATM    4  C6  UNL     1     -34.192  14.473  -4.222  1.00 20.00     0.244 C 
HETATM    5  C8  UNL     1     -32.925  13.903  -3.575  1.00 20.00     0.044 C 
HETATM    6  N10 UNL     1     -33.872  15.268  -5.418  1.00 20.00     0.091 N 
HETATM    7  N11 UNL     1     -34.403  16.556  -2.875  1.00 20.00     0.096 N 
HETATM    8  H29 UNL     1     -34.721  15.417  -5.969  1.00 20.00     0.316 HD
ENDROOT
BRANCH   7   9
HETATM    9  C9  UNL     1     -35.227  17.307  -1.928  1.00 20.00     0.305 C 
BRANCH   9  10
HETATM   10  C2  UNL     1     -34.447  17.572  -0.673  1.00 20.00    -0.065 C 
HETATM   11  C1  UNL     1     -33.165  17.970  -0.715  1.00 20.00     0.015 C 
HETATM   12  C7  UNL     1     -35.150  17.334   0.633  1.00 20.00     0.044 C 
ENDBRANCH   9  10
ENDBRANCH   7   9
TORSDOF 2
ENDMDL
MODEL 4
REMARK VINA RESULT:      -4.0      1.683      2.281
REMARK  2 active torsions:
REMARK  status: ('A' for Active; 'I' for Inactive)
REMARK    1  A    between atoms: C2_2  and  C9_9 
REMARK    2  A    between atoms: C9_9  and  N11_11 
ROOT
HETATM    1  C3  UNL     1     -34.978  14.193  -5.943  1.00 20.00     0.300 C 
HETATM    2  C4  UNL     1     -34.538  14.291  -4.481  1.00 20.00     0.302 C 
HETATM    3  C5  UNL     1     -33.423  16.374  -4.952  1.00 20.00     0.307 C 
HETATM    4  C6  UNL     1     -33.848  16.294  -6.430  1.00 20.00     0.244 C 
HETATM    5  C8  UNL     1     -35.072  17.163  -6.734  1.00 20.00     0.044 C 
HETATM    6  N10 UNL     1     -34.064  14.898  -6.845  1.00 20.00     0.091 N 
HETATM    7  N11 UNL     1     -34.383  15.692  -4.074  1.00 20.00     0.096 N 
HETATM    8  H29 UNL     1     -33.168  14.406  -6.875  1.00 20.00     0.316 HD
ENDROOT
BRANCH   7   9
HETATM    9  C9  UNL     1     -33.963  15.783  -2.677  1.00 20.00     0.305 C 
BRANCH   9  10
HETATM   10  C2  UNL     1     -34.949  16.610  -1.902  1.00 20.00    -0.065 C 
HETATM   11  C1  UNL     1     -36.029  17.148  -2.491  1.00 20.00     0.015 C 
HETATM   12  C7  UNL     1     -34.653  16.843  -0.447  1.00 20.00     0.044 C 
ENDBRANCH   9  10
ENDBRANCH   7   9
TORSDOF 2
ENDMDL
MODEL 5
REMARK VINA RESULT:      -4.0      1.329      2.142
REMARK  2 active torsions:
REMARK  status: ('A' for Active; 'I' for Inactive)
REMARK    1  A    between atoms: C2_2  and  C9_9 
REMARK    2  A    between atoms: C9_9  and  N11_11 
ROOT
HETATM    1  C3  UNL     1     -33.352  16.677  -4.974  1.00 20.00     0.300 C 
HETATM    2  C4  UNL     1     -34.297  17.340  -3.970  1.00 20.00     0.302 C 
HETATM    3  C5  UNL     1     -34.852  15.179  -3.061  1.00 20.00     0.307 C 
HETATM    4  C6  UNL     1     -33.913  14.489  -4.066  1.00 20.00     0.244 C 
HETATM    5  C8  UNL     1     -32.558  14.128  -3.449  1.00 20.00     0.044 C 
HETATM    6  N10 UNL     1     -33.749  15.301  -5.283  1.00 20.00     0.091 N 
HETATM    7  N11 UNL     1     -34.401  16.541  -2.744  1.00 20.00     0.096 N 
HETATM    8  H29 UNL     1     -34.624  15.310  -5.811  1.00 20.00     0.316 HD
ENDROOT
BRANCH   7   9
HETATM    9  C9  UNL     1     -35.304  17.176  -1.785  1.00 20.00     0.305 C 
BRANCH   9  10
HETATM   10  C2  UNL     1     -34.562  17.487  -0.517  1.00 20.00    -0.065 C 
HETATM   11  C1  UNL     1     -35.144  17.358   0.686  1.00 20.00     0.015 C 
HETATM   12  C7  UNL     1     -33.152  17.989  -0.654  1.00 20.00     0.044 C 
ENDBRANCH   9  10
ENDBRANCH   7   9
TORSDOF 2
ENDMDL
MODEL 6
REMARK VINA RESULT:      -3.8      2.191      4.216
REMARK  2 active torsions:
REMARK  status: ('A' for Active; 'I' for Inactive)
REMARK    1  A    between atoms: C2_2  and  C9_9 
REMARK    2  A    between atoms: C9_9  and  N11_11 
ROOT
HETATM    1  C3  UNL     1     -34.090  13.411  -4.713  1.00 20.00     0.300 C 
HETATM    2  C4  UNL     1     -35.507  13.568  -4.159  1.00 20.00     0.302 C 
HETATM    3  C5  UNL     1     -34.881  15.658  -3.138  1.00 20.00     0.307 C 
HETATM    4  C6  UNL     1     -33.446  15.518  -3.679  1.00 20.00     0.244 C 
HETATM    5  C8  UNL     1     -33.214  16.349  -4.944  1.00 20.00     0.044 C 
HETATM    6  N10 UNL     1     -33.095  14.105  -3.892  1.00 20.00     0.091 N 
HETATM    7  N11 UNL     1     -35.855  14.985  -4.007  1.00 20.00     0.096 N 
HETATM    8  H29 UNL     1     -33.007  13.632  -2.990  1.00 20.00     0.316 HD
ENDROOT
BRANCH   7   9
HETATM    9  C9  UNL     1     -37.210  15.133  -3.479  1.00 20.00     0.305 C 
BRANCH   9  10
HETATM   10  C2  UNL     1     -38.194  15.194  -4.611  1.00 20.00    -0.065 C 
HETATM   11  C1  UNL     1     -39.396  14.601  -4.529  1.00 20.00     0.015 C 
HETATM   12  C7  UNL     1     -37.761  15.915  -5.856  1.00 20.00     0.044 C 
ENDBRANCH   9  10
ENDBRANCH   7   9
TORSDOF 2
ENDMDL
MODEL 7
REMARK VINA RESULT:      -3.8      1.957      3.169
REMARK  2 active torsions:
REMARK  status: ('A' for Active; 'I' for Inactive)
REMARK    1  A    between atoms: C2_2  and  C9_9 
REMARK    2  A    between atoms: C9_9  and  N11_11 
ROOT
HETATM    1  C3  UNL     1     -36.993  16.366  -6.492  1.00 20.00     0.300 C 
HETATM    2  C4  UNL     1     -37.010  16.163  -4.975  1.00 20.00     0.302 C 
HETATM    3  C5  UNL     1     -35.584  14.236  -5.215  1.00 20.00     0.307 C 
HETATM    4  C6  UNL     1     -35.558  14.416  -6.744  1.00 20.00     0.244 C 
HETATM    5  C8  UNL     1     -34.283  15.114  -7.228  1.00 20.00     0.044 C 
HETATM    6  N10 UNL     1     -36.764  15.114  -7.216  1.00 20.00     0.091 N 
HETATM    7  N11 UNL     1     -35.773  15.516  -4.521  1.00 20.00     0.096 N 
HETATM    8  H29 UNL     1     -37.579  14.504  -7.108  1.00 20.00     0.316 HD
ENDROOT
BRANCH   7   9
HETATM    9  C9  UNL     1     -35.791  15.323  -3.071  1.00 20.00     0.305 C 
BRANCH   9  10
HETATM   10  C2  UNL     1     -34.550  15.910  -2.465  1.00 20.00    -0.065 C 
HETATM   11  C1  UNL     1     -33.370  15.871  -3.105  1.00 20.00     0.015 C 
HETATM   12  C7  UNL     1     -34.676  16.510  -1.093  1.00 20.00     0.044 C 
ENDBRANCH   9  10
ENDBRANCH   7   9
TORSDOF 2
ENDMDL
MODEL 8
REMARK VINA RESULT:      -3.8      1.678      2.720
REMARK  2 active torsions:
REMARK  status: ('A' for Active; 'I' for Inactive)
REMARK    1  A    between atoms: C2_2  and  C9_9 
REMARK    2  A    between atoms: C9_9  and  N11_11 
ROOT
HETATM    1  C3  UNL     1     -36.961  15.927  -5.767  1.00 20.00     0.300 C 
HETATM    2  C4  UNL     1     -36.562  15.646  -4.317  1.00 20.00     0.302 C 
HETATM    3  C5  UNL     1     -34.770  14.228  -5.081  1.00 20.00     0.307 C 
HETATM    4  C6  UNL     1     -35.157  14.490  -6.548  1.00 20.00     0.244 C 
HETATM    5  C8  UNL     1     -34.270  15.551  -7.207  1.00 20.00     0.044 C 
HETATM    6  N10 UNL     1     -36.583  14.834  -6.667  1.00 20.00     0.091 N 
HETATM    7  N11 UNL     1     -35.126  15.361  -4.216  1.00 20.00     0.096 N 
HETATM    8  H29 UNL     1     -37.154  14.011  -6.460  1.00 20.00     0.316 HD
ENDROOT
BRANCH   7   9
HETATM    9  C9  UNL     1     -34.746  15.094  -2.829  1.00 20.00     0.305 C 
BRANCH   9  10
HETATM   10  C2  UNL     1     -34.382  16.380  -2.145  1.00 20.00    -0.065 C 
HETATM   11  C1  UNL     1     -34.665  16.589  -0.849  1.00 20.00     0.015 C 
HETATM   12  C7  UNL     1     -33.723  17.439  -2.983  1.00 20.00     0.044 C 
ENDBRANCH   9  10
ENDBRANCH   7   9
TORSDOF 2
ENDMDL
MODEL 9
REMARK VINA RESULT:      -3.8      1.386      4.474
REMARK  2 active torsions:
REMARK  status: ('A' for Active; 'I' for Inactive)
REMARK    1  A    between atoms: C2_2  and  C9_9 
REMARK    2  A    between atoms: C9_9  and  N11_11 
ROOT
HETATM    1  C3  UNL     1     -34.455  18.992  -2.822  1.00 20.00     0.300 C 
HETATM    2  C4  UNL     1     -34.498  18.010  -3.994  1.00 20.00     0.302 C 
HETATM    3  C5  UNL     1     -33.703  16.250  -2.553  1.00 20.00     0.307 C 
HETATM    4  C6  UNL     1     -33.645  17.222  -1.360  1.00 20.00     0.244 C 
HETATM    5  C8  UNL     1     -34.862  17.092  -0.440  1.00 20.00     0.044 C 
HETATM    6  N10 UNL     1     -33.462  18.610  -1.815  1.00 20.00     0.091 N 
HETATM    7  N11 UNL     1     -34.736  16.641  -3.521  1.00 20.00     0.096 N 
HETATM    8  H29 UNL     1     -32.523  18.724  -2.203  1.00 20.00     0.316 HD
ENDROOT
BRANCH   7   9
HETATM    9  C9  UNL     1     -34.777  15.704  -4.643  1.00 20.00     0.305 C 
BRANCH   9  10
HETATM   10  C2  UNL     1     -35.584  14.495  -4.266  1.00 20.00    -0.065 C 
HETATM   11  C1  UNL     1     -35.076  13.256  -4.361  1.00 20.00     0.015 C 
HETATM   12  C7  UNL     1     -36.998  14.729  -3.815  1.00 20.00     0.044 C 
ENDBRANCH   9  10
ENDBRANCH   7   9
TORSDOF 2
ENDMDL
