MODEL 1
REMARK VINA RESULT:      -4.2      0.000      0.000
REMARK  2 active torsions:
REMARK  status: ('A' for Active; 'I' for Inactive)
REMARK    1  A    between atoms: C2_2  and  C8_8 
REMARK    2  A    between atoms: C3_3  and  C5_5 
ROOT
HETATM    1  C1  UNL     1     -34.767  13.614  -5.489  1.00 20.00     0.080 A 
HETATM    2  C2  UNL     1     -34.518  14.860  -6.024  1.00 20.00     0.055 A 
HETATM    3  C3  UNL     1     -34.099  15.316  -3.920  1.00 20.00     0.080 A 
HETATM    4  N9  UNL     1     -34.135  15.838  -5.126  1.00 20.00    -0.248 NA
HETATM    5  S10 UNL     1     -34.513  13.655  -3.793  1.00 20.00    -0.084 SA
ENDROOT
BRANCH   3   6
HETATM    6  C5  UNL     1     -33.713  16.133  -2.710  1.00 20.00     0.049 A 
HETATM    7  C4  UNL     1     -33.855  17.641  -2.732  1.00 20.00     0.016 A 
HETATM    8  C6  UNL     1     -34.784  16.819  -1.887  1.00 20.00    -0.007 A 
HETATM    9  C7  UNL     1     -34.677  16.856  -0.402  1.00 20.00     0.011 C 
ENDBRANCH   3   6
BRANCH   2  10
HETATM   10  C8  UNL     1     -34.626  15.224  -7.451  1.00 20.00     0.174 C 
HETATM   11 CL11 UNL     1     -34.536  16.990  -7.674  1.00 20.00    -0.124 Cl
ENDBRANCH   2  10
TORSDOF 2
ENDMDL
MODEL 2
REMARK VINA RESULT:      -4.0      2.411      2.784
REMARK  2 active torsions:
REMARK  status: ('A' for Active; 'I' for Inactive)
REMARK    1  A    between atoms: C2_2  and  C8_8 
REMARK    2  A    between atoms: C3_3  and  C5_5 
ROOT
HETATM    1  C1  UNL     1     -33.811  16.824  -5.727  1.00 20.00     0.080 A 
HETATM    2  C2  UNL     1     -34.356  15.721  -5.105  1.00 20.00     0.055 A 
HETATM    3  C3  UNL     1     -34.379  17.103  -3.403  1.00 20.00     0.080 A 
HETATM    4  N9  UNL     1     -34.682  15.879  -3.772  1.00 20.00    -0.248 NA
HETATM    5  S10 UNL     1     -33.700  18.119  -4.608  1.00 20.00    -0.084 SA
ENDROOT
BRANCH   3   6
HETATM    6  C5  UNL     1     -34.618  17.592  -1.994  1.00 20.00     0.049 A 
HETATM    7  C4  UNL     1     -34.660  16.610  -0.843  1.00 20.00     0.016 A 
HETATM    8  C6  UNL     1     -33.496  17.547  -0.977  1.00 20.00    -0.007 A 
HETATM    9  C7  UNL     1     -33.319  18.664  -0.009  1.00 20.00     0.011 C 
ENDBRANCH   3   6
BRANCH   2  10
HETATM   10  C8  UNL     1     -34.612  14.412  -5.738  1.00 20.00     0.174 C 
HETATM   11 CL11 UNL     1     -34.929  13.155  -4.514  1.00 20.00    -0.124 Cl
ENDBRANCH   2  10
TORSDOF 2
ENDMDL
MODEL 3
REMARK VINA RESULT:      -4.0      2.800      5.106
REMARK  2 active torsions:
REMARK  status: ('A' for Active; 'I' for Inactive)
REMARK    1  A    between atoms: C2_2  and  C8_8 
REMARK    2  A    between atoms: C3_3  and  C5_5 
ROOT
HETATM    1  C1  UNL     1     -33.922  17.880  -2.952  1.00 20.00     0.080 A 
HETATM    2  C2  UNL     1     -34.309  16.726  -2.304  1.00 20.00     0.055 A 
HETATM    3  C3  UNL     1     -34.141  15.921  -4.337  1.00 20.00     0.080 A 
HETATM    4  N9  UNL     1     -34.435  15.601  -3.097  1.00 20.00    -0.248 NA
HETATM    5  S10 UNL     1     -33.703  17.556  -4.622  1.00 20.00    -0.084 SA
ENDROOT
BRANCH   3   6
HETATM    6  C5  UNL     1     -34.184  14.904  -5.453  1.00 20.00     0.049 A 
HETATM    7  C4  UNL     1     -34.935  13.603  -5.269  1.00 20.00     0.016 A 
HETATM    8  C6  UNL     1     -35.479  14.650  -6.195  1.00 20.00    -0.007 A 
HETATM    9  C7  UNL     1     -35.465  14.428  -7.668  1.00 20.00     0.011 C 
ENDBRANCH   3   6
BRANCH   2  10
HETATM   10  C8  UNL     1     -34.593  16.601  -0.861  1.00 20.00     0.174 C 
HETATM   11 CL11 UNL     1     -33.845  17.932   0.060  1.00 20.00    -0.124 Cl
ENDBRANCH   2  10
TORSDOF 2
ENDMDL
MODEL 4
REMARK VINA RESULT:      -4.0      3.266      5.217
REMARK  2 active torsions:
REMARK  status: ('A' for Active; 'I' for Inactive)
REMARK    1  A    between atoms: C2_2  and  C8_8 
REMARK    2  A    between atoms: C3_3  and  C5_5 
ROOT
HETATM    1  C1  UNL     1     -35.730  17.929  -1.212  1.00 20.00     0.080 A 
HETATM    2  C2  UNL     1     -34.439  17.645  -0.819  1.00 20.00     0.055 A 
HETATM    3  C3  UNL     1     -34.489  16.464  -2.666  1.00 20.00     0.080 A 
HETATM    4  N9  UNL     1     -33.725  16.805  -1.652  1.00 20.00    -0.248 NA
HETATM    5  S10 UNL     1     -36.075  17.118  -2.683  1.00 20.00    -0.084 SA
ENDROOT
BRANCH   3   6
HETATM    6  C5  UNL     1     -33.996  15.546  -3.760  1.00 20.00     0.049 A 
HETATM    7  C4  UNL     1     -32.781  14.672  -3.532  1.00 20.00     0.016 A 
HETATM    8  C6  UNL     1     -34.141  14.046  -3.612  1.00 20.00    -0.007 A 
HETATM    9  C7  UNL     1     -34.514  13.212  -4.788  1.00 20.00     0.011 C 
ENDBRANCH   3   6
BRANCH   2  10
HETATM   10  C8  UNL     1     -33.774  18.158   0.396  1.00 20.00     0.174 C 
HETATM   11 CL11 UNL     1     -32.168  18.832   0.014  1.00 20.00    -0.124 Cl
ENDBRANCH   2  10
TORSDOF 2
ENDMDL
MODEL 5
REMARK VINA RESULT:      -4.0      2.427      2.825
REMARK  2 active torsions:
REMARK  status: ('A' for Active; 'I' for Inactive)
REMARK    1  A    between atoms: C2_2  and  C8_8 
REMARK    2  A    between atoms: C3_3  and  C5_5 
ROOT
HETATM    1  C1  UNL     1     -34.152  16.973  -5.048  1.00 20.00     0.080 A 
HETATM    2  C2  UNL     1     -34.270  15.695  -4.544  1.00 20.00     0.055 A 
HETATM    3  C3  UNL     1     -33.952  16.765  -2.657  1.00 20.00     0.080 A 
HETATM    4  N9  UNL     1     -34.155  15.574  -3.173  1.00 20.00    -0.248 NA
HETATM    5  S10 UNL     1     -33.888  18.077  -3.762  1.00 20.00    -0.084 SA
ENDROOT
BRANCH   3   6
HETATM    6  C5  UNL     1     -33.784  16.971  -1.170  1.00 20.00     0.049 A 
HETATM    7  C4  UNL     1     -33.334  18.312  -0.632  1.00 20.00     0.016 A 
HETATM    8  C6  UNL     1     -34.749  17.862  -0.416  1.00 20.00    -0.007 A 
HETATM    9  C7  UNL     1     -35.213  17.478   0.946  1.00 20.00     0.011 C 
ENDBRANCH   3   6
BRANCH   2  10
HETATM   10  C8  UNL     1     -34.505  14.473  -5.338  1.00 20.00     0.174 C 
HETATM   11 CL11 UNL     1     -35.103  13.143  -4.312  1.00 20.00    -0.124 Cl
ENDBRANCH   2  10
TORSDOF 2
ENDMDL
MODEL 6
REMARK VINA RESULT:      -3.9      2.008      2.076
REMARK  2 active torsions:
REMARK  status: ('A' for Active; 'I' for Inactive)
REMARK    1  A    between atoms: C2_2  and  C8_8 
REMARK    2  A    between atoms: C3_3  and  C5_5 
ROOT
HETATM    1  C1  UNL     1     -37.798  15.323  -5.300  1.00 20.00     0.080 A 
HETATM    2  C2  UNL     1     -36.545  15.139  -5.846  1.00 20.00     0.055 A 
HETATM    3  C3  UNL     1     -35.959  15.363  -3.745  1.00 20.00     0.080 A 
HETATM    4  N9  UNL     1     -35.490  15.161  -4.956  1.00 20.00    -0.248 NA
HETATM    5  S10 UNL     1     -37.661  15.533  -3.604  1.00 20.00    -0.084 SA
ENDROOT
BRANCH   3   6
HETATM    6  C5  UNL     1     -35.050  15.440  -2.541  1.00 20.00     0.049 A 
HETATM    7  C4  UNL     1     -33.686  16.086  -2.656  1.00 20.00     0.016 A 
HETATM    8  C6  UNL     1     -34.773  16.777  -1.887  1.00 20.00    -0.007 A 
HETATM    9  C7  UNL     1     -34.691  16.881  -0.403  1.00 20.00     0.011 C 
ENDBRANCH   3   6
BRANCH   2  10
HETATM   10  C8  UNL     1     -36.251  14.923  -7.277  1.00 20.00     0.174 C 
HETATM   11 CL11 UNL     1     -34.494  14.929  -7.581  1.00 20.00    -0.124 Cl
ENDBRANCH   2  10
TORSDOF 2
ENDMDL
MODEL 7
REMARK VINA RESULT:      -3.9      3.161      5.188
REMARK  2 active torsions:
REMARK  status: ('A' for Active; 'I' for Inactive)
REMARK    1  A    between atoms: C2_2  and  C8_8 
REMARK    2  A    between atoms: C3_3  and  C5_5 
ROOT
HETATM    1  C1  UNL     1     -33.782  18.800  -2.686  1.00 20.00     0.080 A 
HETATM    2  C2  UNL     1     -33.735  17.840  -1.697  1.00 20.00     0.055 A 
HETATM    3  C3  UNL     1     -33.713  16.515  -3.445  1.00 20.00     0.080 A 
HETATM    4  N9  UNL     1     -33.695  16.529  -2.131  1.00 20.00    -0.248 NA
HETATM    5  S10 UNL     1     -33.776  18.043  -4.224  1.00 20.00    -0.084 SA
ENDROOT
BRANCH   3   6
HETATM    6  C5  UNL     1     -33.679  15.224  -4.229  1.00 20.00     0.049 A 
HETATM    7  C4  UNL     1     -34.212  13.947  -3.616  1.00 20.00     0.016 A 
HETATM    8  C6  UNL     1     -34.969  14.609  -4.729  1.00 20.00    -0.007 A 
HETATM    9  C7  UNL     1     -35.023  13.978  -6.077  1.00 20.00     0.011 C 
ENDBRANCH   3   6
BRANCH   2  10
HETATM   10  C8  UNL     1     -33.722  18.098  -0.244  1.00 20.00     0.174 C 
HETATM   11 CL11 UNL     1     -35.060  17.246   0.573  1.00 20.00    -0.124 Cl
ENDBRANCH   2  10
TORSDOF 2
ENDMDL
MODEL 8
REMARK VINA RESULT:      -3.8      5.537      7.815
REMARK  2 active torsions:
REMARK  status: ('A' for Active; 'I' for Inactive)
REMARK    1  A    between atoms: C2_2  and  C8_8 
REMARK    2  A    between atoms: C3_3  and  C5_5 
ROOT
HETATM    1  C1  UNL     1     -34.802  18.197   3.767  1.00 20.00     0.080 A 
HETATM    2  C2  UNL     1     -33.543  18.557   3.333  1.00 20.00     0.055 A 
HETATM    3  C3  UNL     1     -34.473  18.188   1.381  1.00 20.00     0.080 A 
HETATM    4  N9  UNL     1     -33.353  18.553   1.964  1.00 20.00    -0.248 NA
HETATM    5  S10 UNL     1     -35.796  17.837   2.417  1.00 20.00    -0.084 SA
ENDROOT
BRANCH   3   6
HETATM    6  C5  UNL     1     -34.591  18.085  -0.122  1.00 20.00     0.049 A 
HETATM    7  C4  UNL     1     -33.355  17.877  -0.971  1.00 20.00     0.016 A 
HETATM    8  C6  UNL     1     -34.343  16.760  -0.811  1.00 20.00    -0.007 A 
HETATM    9  C7  UNL     1     -35.196  16.344  -1.959  1.00 20.00     0.011 C 
ENDBRANCH   3   6
BRANCH   2  10
HETATM   10  C8  UNL     1     -32.409  18.939   4.197  1.00 20.00     0.174 C 
HETATM   11 CL11 UNL     1     -30.879  18.956   3.281  1.00 20.00    -0.124 Cl
ENDBRANCH   2  10
TORSDOF 2
ENDMDL
MODEL 9
REMARK VINA RESULT:      -3.8     12.564     14.209
REMARK  2 active torsions:
REMARK  status: ('A' for Active; 'I' for Inactive)
REMARK    1  A    between atoms: C2_2  and  C8_8 
REMARK    2  A    between atoms: C3_3  and  C5_5 
ROOT
HETATM    1  C1  UNL     1     -41.144   6.174  -1.335  1.00 20.00     0.080 A 
HETATM    2  C2  UNL     1     -42.162   6.444  -2.226  1.00 20.00     0.055 A 
HETATM    3  C3  UNL     1     -42.187   4.255  -2.351  1.00 20.00     0.080 A 
HETATM    4  N9  UNL     1     -42.762   5.344  -2.809  1.00 20.00    -0.248 NA
HETATM    5  S10 UNL     1     -40.920   4.478  -1.215  1.00 20.00    -0.084 SA
ENDROOT
BRANCH   3   6
HETATM    6  C5  UNL     1     -42.620   2.879  -2.799  1.00 20.00     0.049 A 
HETATM    7  C4  UNL     1     -43.261   2.686  -4.157  1.00 20.00     0.016 A 
HETATM    8  C6  UNL     1     -41.871   2.176  -3.913  1.00 20.00    -0.007 A 
HETATM    9  C7  UNL     1     -41.614   0.711  -3.832  1.00 20.00     0.011 C 
ENDBRANCH   3   6
BRANCH   2  10
HETATM   10  C8  UNL     1     -42.651   7.787  -2.595  1.00 20.00     0.174 C 
HETATM   11 CL11 UNL     1     -42.315   8.146  -4.309  1.00 20.00    -0.124 Cl
ENDBRANCH   2  10
TORSDOF 2
ENDMDL
