MODEL 1
REMARK VINA RESULT:      -5.0      0.000      0.000
REMARK  2 active torsions:
REMARK  status: ('A' for Active; 'I' for Inactive)
REMARK    1  A    between atoms: C1_1  and  C3_3 
REMARK    2  A    between atoms: C1_1  and  C7_7 
ROOT
HETATM    1  C2  UNL     1     -33.764   6.381   6.183  1.00 20.00     0.017 A 
HETATM    2  C3  UNL     1     -34.511   6.360   4.873  1.00 20.00     0.059 A 
HETATM    3  C4  UNL     1     -34.845   5.363   5.957  1.00 20.00    -0.007 A 
HETATM    4  C5  UNL     1     -34.495   3.919   5.841  1.00 20.00     0.011 C 
ENDROOT
BRANCH   2   5
HETATM    5  C1  UNL     1     -33.813   5.943   3.652  1.00 20.00     0.131 C 
HETATM    6  O8  UNL     1     -34.386   5.280   2.789  1.00 20.00    -0.298 OA
BRANCH   5   7
HETATM    7  C7  UNL     1     -32.364   6.376   3.531  1.00 20.00     0.074 C 
HETATM    8  C6  UNL     1     -32.187   7.577   2.619  1.00 20.00     0.013 C 
ENDBRANCH   5   7
ENDBRANCH   2   5
TORSDOF 2
ENDMDL
MODEL 2
REMARK VINA RESULT:      -4.5      1.476      1.794
REMARK  2 active torsions:
REMARK  status: ('A' for Active; 'I' for Inactive)
REMARK    1  A    between atoms: C1_1  and  C3_3 
REMARK    2  A    between atoms: C1_1  and  C7_7 
ROOT
HETATM    1  C2  UNL     1     -35.852   5.586   3.951  1.00 20.00     0.017 A 
HETATM    2  C3  UNL     1     -34.414   5.371   3.551  1.00 20.00     0.059 A 
HETATM    3  C4  UNL     1     -35.117   4.369   4.436  1.00 20.00    -0.007 A 
HETATM    4  C5  UNL     1     -34.791   4.223   5.883  1.00 20.00     0.011 C 
ENDROOT
BRANCH   2   5
HETATM    5  C1  UNL     1     -33.377   6.257   4.090  1.00 20.00     0.131 C 
HETATM    6  O8  UNL     1     -33.524   6.822   5.173  1.00 20.00    -0.298 OA
BRANCH   5   7
HETATM    7  C7  UNL     1     -32.133   6.425   3.237  1.00 20.00     0.074 C 
HETATM    8  C6  UNL     1     -32.116   7.740   2.480  1.00 20.00     0.013 C 
ENDBRANCH   5   7
ENDBRANCH   2   5
TORSDOF 2
ENDMDL
MODEL 3
REMARK VINA RESULT:      -4.4      1.390      3.236
REMARK  2 active torsions:
REMARK  status: ('A' for Active; 'I' for Inactive)
REMARK    1  A    between atoms: C1_1  and  C3_3 
REMARK    2  A    between atoms: C1_1  and  C7_7 
ROOT
HETATM    1  C2  UNL     1     -34.723   5.431   2.544  1.00 20.00     0.017 A 
HETATM    2  C3  UNL     1     -34.865   5.814   3.996  1.00 20.00     0.059 A 
HETATM    3  C4  UNL     1     -33.641   6.230   3.214  1.00 20.00    -0.007 A 
HETATM    4  C5  UNL     1     -32.303   5.618   3.452  1.00 20.00     0.011 C 
ENDROOT
BRANCH   2   5
HETATM    5  C1  UNL     1     -34.784   4.772   5.026  1.00 20.00     0.131 C 
HETATM    6  O8  UNL     1     -34.947   3.587   4.744  1.00 20.00    -0.298 OA
BRANCH   5   7
HETATM    7  C7  UNL     1     -34.491   5.250   6.436  1.00 20.00     0.074 C 
HETATM    8  C6  UNL     1     -34.002   6.687   6.477  1.00 20.00     0.013 C 
ENDBRANCH   5   7
ENDBRANCH   2   5
TORSDOF 2
ENDMDL
MODEL 4
REMARK VINA RESULT:      -4.1      1.635      3.682
REMARK  2 active torsions:
REMARK  status: ('A' for Active; 'I' for Inactive)
REMARK    1  A    between atoms: C1_1  and  C3_3 
REMARK    2  A    between atoms: C1_1  and  C7_7 
ROOT
HETATM    1  C2  UNL     1     -34.239   5.389   3.000  1.00 20.00     0.017 A 
HETATM    2  C3  UNL     1     -34.422   6.392   4.110  1.00 20.00     0.059 A 
HETATM    3  C4  UNL     1     -33.372   6.615   3.047  1.00 20.00    -0.007 A 
HETATM    4  C5  UNL     1     -31.915   6.485   3.332  1.00 20.00     0.011 C 
ENDROOT
BRANCH   2   5
HETATM    5  C1  UNL     1     -34.043   6.027   5.480  1.00 20.00     0.131 C 
HETATM    6  O8  UNL     1     -33.748   6.888   6.307  1.00 20.00    -0.298 OA
BRANCH   5   7
HETATM    7  C7  UNL     1     -34.042   4.544   5.799  1.00 20.00     0.074 C 
HETATM    8  C6  UNL     1     -35.442   3.978   5.960  1.00 20.00     0.013 C 
ENDBRANCH   5   7
ENDBRANCH   2   5
TORSDOF 2
ENDMDL
MODEL 5
REMARK VINA RESULT:      -4.0      0.769      3.721
REMARK  2 active torsions:
REMARK  status: ('A' for Active; 'I' for Inactive)
REMARK    1  A    between atoms: C1_1  and  C3_3 
REMARK    2  A    between atoms: C1_1  and  C7_7 
ROOT
HETATM    1  C2  UNL     1     -31.493   7.484   3.929  1.00 20.00     0.017 A 
HETATM    2  C3  UNL     1     -32.146   6.317   3.234  1.00 20.00     0.059 A 
HETATM    3  C4  UNL     1     -31.796   7.566   2.460  1.00 20.00    -0.007 A 
HETATM    4  C5  UNL     1     -32.837   8.510   1.966  1.00 20.00     0.011 C 
ENDROOT
BRANCH   2   5
HETATM    5  C1  UNL     1     -33.542   5.985   3.540  1.00 20.00     0.131 C 
HETATM    6  O8  UNL     1     -34.259   5.429   2.711  1.00 20.00    -0.298 OA
BRANCH   5   7
HETATM    7  C7  UNL     1     -34.029   6.368   4.926  1.00 20.00     0.074 C 
HETATM    8  C6  UNL     1     -34.561   5.180   5.708  1.00 20.00     0.013 C 
ENDBRANCH   5   7
ENDBRANCH   2   5
TORSDOF 2
ENDMDL
MODEL 6
REMARK VINA RESULT:      -3.9      1.854      2.716
REMARK  2 active torsions:
REMARK  status: ('A' for Active; 'I' for Inactive)
REMARK    1  A    between atoms: C1_1  and  C3_3 
REMARK    2  A    between atoms: C1_1  and  C7_7 
ROOT
HETATM    1  C2  UNL     1     -34.187   5.797   2.994  1.00 20.00     0.017 A 
HETATM    2  C3  UNL     1     -32.708   5.956   3.240  1.00 20.00     0.059 A 
HETATM    3  C4  UNL     1     -33.630   5.565   4.371  1.00 20.00    -0.007 A 
HETATM    4  C5  UNL     1     -33.968   6.504   5.478  1.00 20.00     0.011 C 
ENDROOT
BRANCH   2   5
HETATM    5  C1  UNL     1     -32.108   7.294   3.183  1.00 20.00     0.131 C 
HETATM    6  O8  UNL     1     -31.184   7.607   3.931  1.00 20.00    -0.298 OA
BRANCH   5   7
HETATM    7  C7  UNL     1     -32.696   8.245   2.157  1.00 20.00     0.074 C 
HETATM    8  C6  UNL     1     -31.705   8.615   1.067  1.00 20.00     0.013 C 
ENDBRANCH   5   7
ENDBRANCH   2   5
TORSDOF 2
ENDMDL
MODEL 7
REMARK VINA RESULT:      -3.9     11.921     12.739
REMARK  2 active torsions:
REMARK  status: ('A' for Active; 'I' for Inactive)
REMARK    1  A    between atoms: C1_1  and  C3_3 
REMARK    2  A    between atoms: C1_1  and  C7_7 
ROOT
HETATM    1  C2  UNL     1     -35.422  15.948  -3.625  1.00 20.00     0.017 A 
HETATM    2  C3  UNL     1     -35.405  14.440  -3.642  1.00 20.00     0.059 A 
HETATM    3  C4  UNL     1     -34.279  15.207  -2.990  1.00 20.00    -0.007 A 
HETATM    4  C5  UNL     1     -32.918  15.282  -3.593  1.00 20.00     0.011 C 
ENDROOT
BRANCH   2   5
HETATM    5  C1  UNL     1     -35.202  13.737  -4.914  1.00 20.00     0.131 C 
HETATM    6  O8  UNL     1     -34.730  12.602  -4.943  1.00 20.00    -0.298 OA
BRANCH   5   7
HETATM    7  C7  UNL     1     -35.608  14.492  -6.166  1.00 20.00     0.074 C 
HETATM    8  C6  UNL     1     -34.417  14.896  -7.017  1.00 20.00     0.013 C 
ENDBRANCH   5   7
ENDBRANCH   2   5
TORSDOF 2
ENDMDL
MODEL 8
REMARK VINA RESULT:      -3.9     11.924     12.744
REMARK  2 active torsions:
REMARK  status: ('A' for Active; 'I' for Inactive)
REMARK    1  A    between atoms: C1_1  and  C3_3 
REMARK    2  A    between atoms: C1_1  and  C7_7 
ROOT
HETATM    1  C2  UNL     1     -34.480  13.172  -4.758  1.00 20.00     0.017 A 
HETATM    2  C3  UNL     1     -34.658  14.362  -3.849  1.00 20.00     0.059 A 
HETATM    3  C4  UNL     1     -35.122  14.425  -5.285  1.00 20.00    -0.007 A 
HETATM    4  C5  UNL     1     -34.418  15.247  -6.310  1.00 20.00     0.011 C 
ENDROOT
BRANCH   2   5
HETATM    5  C1  UNL     1     -33.477  15.111  -3.404  1.00 20.00     0.131 C 
HETATM    6  O8  UNL     1     -32.342  14.678  -3.593  1.00 20.00    -0.298 OA
BRANCH   5   7
HETATM    7  C7  UNL     1     -33.749  16.432  -2.707  1.00 20.00     0.074 C 
HETATM    8  C6  UNL     1     -34.675  16.284  -1.513  1.00 20.00     0.013 C 
ENDBRANCH   5   7
ENDBRANCH   2   5
TORSDOF 2
ENDMDL
MODEL 9
REMARK VINA RESULT:      -3.9     11.692     12.506
REMARK  2 active torsions:
REMARK  status: ('A' for Active; 'I' for Inactive)
REMARK    1  A    between atoms: C1_1  and  C3_3 
REMARK    2  A    between atoms: C1_1  and  C7_7 
ROOT
HETATM    1  C2  UNL     1     -33.371  13.750  -3.893  1.00 20.00     0.017 A 
HETATM    2  C3  UNL     1     -34.825  13.961  -3.552  1.00 20.00     0.059 A 
HETATM    3  C4  UNL     1     -34.404  13.730  -4.984  1.00 20.00    -0.007 A 
HETATM    4  C5  UNL     1     -34.432  14.818  -6.003  1.00 20.00     0.011 C 
ENDROOT
BRANCH   2   5
HETATM    5  C1  UNL     1     -35.273  15.283  -3.101  1.00 20.00     0.131 C 
HETATM    6  O8  UNL     1     -36.436  15.648  -3.263  1.00 20.00    -0.298 OA
BRANCH   5   7
HETATM    7  C7  UNL     1     -34.223  16.152  -2.433  1.00 20.00     0.074 C 
HETATM    8  C6  UNL     1     -34.602  16.543  -1.016  1.00 20.00     0.013 C 
ENDBRANCH   5   7
ENDBRANCH   2   5
TORSDOF 2
ENDMDL
