MODEL 1
REMARK VINA RESULT:      -4.0      0.000      0.000
REMARK  1 active torsions:
REMARK  status: ('A' for Active; 'I' for Inactive)
REMARK    1  A    between atoms: C3_3  and  C8_8 
ROOT
HETATM    1  C1  UNL     1     -33.697  17.113  -3.261  1.00 20.00     0.285 C 
HETATM    2  C2  UNL     1     -34.310  16.071  -2.326  1.00 20.00     0.073 C 
HETATM    3  C3  UNL     1     -35.170  16.141  -4.820  1.00 20.00     0.289 C 
HETATM    4  C4  UNL     1     -34.661  16.638  -0.962  1.00 20.00     0.023 C 
HETATM    5  N9  UNL     1     -33.784  16.570  -4.618  1.00 20.00     0.099 N 
HETATM    6  S10 UNL     1     -35.785  15.512  -3.225  1.00 20.00    -0.127 SA
HETATM    7  H27 UNL     1     -33.526  17.277  -5.305  1.00 20.00     0.317 HD
ENDROOT
BRANCH   3   8
HETATM    8  C8  UNL     1     -35.240  15.066  -5.893  1.00 20.00    -0.011 C 
HETATM    9  C5  UNL     1     -34.916  13.690  -5.281  1.00 20.00     0.017 C 
HETATM   10  C6  UNL     1     -34.224  15.368  -7.010  1.00 20.00     0.017 C 
HETATM   11  C7  UNL     1     -36.655  15.023  -6.502  1.00 20.00     0.017 C 
ENDBRANCH   3   8
TORSDOF 1
ENDMDL
MODEL 2
REMARK VINA RESULT:      -4.0      0.019      1.375
REMARK  1 active torsions:
REMARK  status: ('A' for Active; 'I' for Inactive)
REMARK    1  A    between atoms: C3_3  and  C8_8 
ROOT
HETATM    1  C1  UNL     1     -33.703  17.129  -3.260  1.00 20.00     0.285 C 
HETATM    2  C2  UNL     1     -34.312  16.080  -2.330  1.00 20.00     0.073 C 
HETATM    3  C3  UNL     1     -35.170  16.157  -4.824  1.00 20.00     0.289 C 
HETATM    4  C4  UNL     1     -34.666  16.641  -0.964  1.00 20.00     0.023 C 
HETATM    5  N9  UNL     1     -33.786  16.590  -4.620  1.00 20.00     0.099 N 
HETATM    6  S10 UNL     1     -35.784  15.519  -3.232  1.00 20.00    -0.127 SA
HETATM    7  H27 UNL     1     -33.530  17.301  -5.304  1.00 20.00     0.317 HD
ENDROOT
BRANCH   3   8
HETATM    8  C8  UNL     1     -35.235  15.085  -5.901  1.00 20.00    -0.011 C 
HETATM    9  C5  UNL     1     -34.222  15.398  -7.018  1.00 20.00     0.017 C 
HETATM   10  C6  UNL     1     -36.649  15.036  -6.510  1.00 20.00     0.017 C 
HETATM   11  C7  UNL     1     -34.903  13.709  -5.295  1.00 20.00     0.017 C 
ENDBRANCH   3   8
TORSDOF 1
ENDMDL
MODEL 3
REMARK VINA RESULT:      -3.9      2.129      4.429
REMARK  1 active torsions:
REMARK  status: ('A' for Active; 'I' for Inactive)
REMARK    1  A    between atoms: C3_3  and  C8_8 
ROOT
HETATM    1  C1  UNL     1     -36.241  14.662  -3.770  1.00 20.00     0.285 C 
HETATM    2  C2  UNL     1     -34.810  14.142  -3.638  1.00 20.00     0.073 C 
HETATM    3  C3  UNL     1     -35.244  16.693  -3.121  1.00 20.00     0.289 C 
HETATM    4  C4  UNL     1     -34.401  13.246  -4.794  1.00 20.00     0.023 C 
HETATM    5  N9  UNL     1     -36.368  15.795  -2.851  1.00 20.00     0.099 N 
HETATM    6  S10 UNL     1     -33.815  15.659  -3.574  1.00 20.00    -0.127 SA
HETATM    7  H27 UNL     1     -37.254  16.278  -2.996  1.00 20.00     0.317 HD
ENDROOT
BRANCH   3   8
HETATM    8  C8  UNL     1     -34.937  17.540  -1.896  1.00 20.00    -0.011 C 
HETATM    9  C5  UNL     1     -34.627  16.631  -0.692  1.00 20.00     0.017 C 
HETATM   10  C6  UNL     1     -36.147  18.429  -1.553  1.00 20.00     0.017 C 
HETATM   11  C7  UNL     1     -33.717  18.440  -2.171  1.00 20.00     0.017 C 
ENDBRANCH   3   8
TORSDOF 1
ENDMDL
MODEL 4
REMARK VINA RESULT:      -3.9      1.398      1.841
REMARK  1 active torsions:
REMARK  status: ('A' for Active; 'I' for Inactive)
REMARK    1  A    between atoms: C3_3  and  C8_8 
ROOT
HETATM    1  C1  UNL     1     -33.248  15.483  -3.473  1.00 20.00     0.285 C 
HETATM    2  C2  UNL     1     -34.625  15.787  -2.884  1.00 20.00     0.073 C 
HETATM    3  C3  UNL     1     -34.151  16.560  -5.362  1.00 20.00     0.289 C 
HETATM    4  C4  UNL     1     -34.553  16.327  -1.467  1.00 20.00     0.023 C 
HETATM    5  N9  UNL     1     -33.423  15.369  -4.923  1.00 20.00     0.099 N 
HETATM    6  S10 UNL     1     -35.319  17.006  -4.037  1.00 20.00    -0.127 SA
HETATM    7  H27 UNL     1     -32.518  15.311  -5.390  1.00 20.00     0.317 HD
ENDROOT
BRANCH   3   8
HETATM    8  C8  UNL     1     -34.887  16.282  -6.663  1.00 20.00    -0.011 C 
HETATM    9  C5  UNL     1     -36.406  16.245  -6.413  1.00 20.00     0.017 C 
HETATM   10  C6  UNL     1     -34.443  14.924  -7.239  1.00 20.00     0.017 C 
HETATM   11  C7  UNL     1     -34.575  17.386  -7.691  1.00 20.00     0.017 C 
ENDBRANCH   3   8
TORSDOF 1
ENDMDL
MODEL 5
REMARK VINA RESULT:      -3.8      1.794      4.140
REMARK  1 active torsions:
REMARK  status: ('A' for Active; 'I' for Inactive)
REMARK    1  A    between atoms: C3_3  and  C8_8 
ROOT
HETATM    1  C1  UNL     1     -35.031  14.856  -7.646  1.00 20.00     0.285 C 
HETATM    2  C2  UNL     1     -36.296  15.508  -7.090  1.00 20.00     0.073 C 
HETATM    3  C3  UNL     1     -34.654  14.351  -5.378  1.00 20.00     0.289 C 
HETATM    4  C4  UNL     1     -37.533  15.185  -7.909  1.00 20.00     0.023 C 
HETATM    5  N9  UNL     1     -34.026  14.901  -6.581  1.00 20.00     0.099 N 
HETATM    6  S10 UNL     1     -36.409  14.840  -5.405  1.00 20.00    -0.127 SA
HETATM    7  H27 UNL     1     -33.206  14.352  -6.838  1.00 20.00     0.317 HD
ENDROOT
BRANCH   3   8
HETATM    8  C8  UNL     1     -33.961  14.878  -4.131  1.00 20.00    -0.011 C 
HETATM    9  C5  UNL     1     -35.006  15.216  -3.051  1.00 20.00     0.017 C 
HETATM   10  C6  UNL     1     -33.165  16.152  -4.470  1.00 20.00     0.017 C 
HETATM   11  C7  UNL     1     -32.994  13.816  -3.577  1.00 20.00     0.017 C 
ENDBRANCH   3   8
TORSDOF 1
ENDMDL
MODEL 6
REMARK VINA RESULT:      -3.8      1.922      2.754
REMARK  1 active torsions:
REMARK  status: ('A' for Active; 'I' for Inactive)
REMARK    1  A    between atoms: C3_3  and  C8_8 
ROOT
HETATM    1  C1  UNL     1     -34.508  16.885  -1.070  1.00 20.00     0.285 C 
HETATM    2  C2  UNL     1     -34.318  17.997  -2.100  1.00 20.00     0.073 C 
HETATM    3  C3  UNL     1     -34.419  15.511  -2.980  1.00 20.00     0.289 C 
HETATM    4  C4  UNL     1     -33.296  19.033  -1.666  1.00 20.00     0.023 C 
HETATM    5  N9  UNL     1     -35.179  15.779  -1.757  1.00 20.00     0.099 N 
HETATM    6  S10 UNL     1     -33.786  17.107  -3.590  1.00 20.00    -0.127 SA
HETATM    7  H27 UNL     1     -35.204  14.950  -1.164  1.00 20.00     0.317 HD
ENDROOT
BRANCH   3   8
HETATM    8  C8  UNL     1     -35.307  14.845  -4.019  1.00 20.00    -0.011 C 
HETATM    9  C5  UNL     1     -35.138  15.542  -5.382  1.00 20.00     0.017 C 
HETATM   10  C6  UNL     1     -36.783  14.939  -3.589  1.00 20.00     0.017 C 
HETATM   11  C7  UNL     1     -34.922  13.360  -4.165  1.00 20.00     0.017 C 
ENDBRANCH   3   8
TORSDOF 1
ENDMDL
MODEL 7
REMARK VINA RESULT:      -3.7      1.432      4.337
REMARK  1 active torsions:
REMARK  status: ('A' for Active; 'I' for Inactive)
REMARK    1  A    between atoms: C3_3  and  C8_8 
ROOT
HETATM    1  C1  UNL     1     -33.351  14.855  -3.951  1.00 20.00     0.285 C 
HETATM    2  C2  UNL     1     -34.652  15.066  -4.724  1.00 20.00     0.073 C 
HETATM    3  C3  UNL     1     -34.568  15.878  -2.215  1.00 20.00     0.289 C 
HETATM    4  C4  UNL     1     -35.057  13.849  -5.537  1.00 20.00     0.023 C 
HETATM    5  N9  UNL     1     -33.290  15.902  -2.928  1.00 20.00     0.099 N 
HETATM    6  S10 UNL     1     -35.860  15.443  -3.423  1.00 20.00    -0.127 SA
HETATM    7  H27 UNL     1     -32.519  15.730  -2.284  1.00 20.00     0.317 HD
ENDROOT
BRANCH   3   8
HETATM    8  C8  UNL     1     -34.848  17.232  -1.583  1.00 20.00    -0.011 C 
HETATM    9  C5  UNL     1     -34.805  17.117  -0.048  1.00 20.00     0.017 C 
HETATM   10  C6  UNL     1     -36.241  17.734  -2.007  1.00 20.00     0.017 C 
HETATM   11  C7  UNL     1     -33.788  18.254  -2.038  1.00 20.00     0.017 C 
ENDBRANCH   3   8
TORSDOF 1
ENDMDL
MODEL 8
REMARK VINA RESULT:      -3.7      2.149      3.594
REMARK  1 active torsions:
REMARK  status: ('A' for Active; 'I' for Inactive)
REMARK    1  A    between atoms: C3_3  and  C8_8 
ROOT
HETATM    1  C1  UNL     1     -33.651  18.121  -5.498  1.00 20.00     0.285 C 
HETATM    2  C2  UNL     1     -34.657  17.618  -6.532  1.00 20.00     0.073 C 
HETATM    3  C3  UNL     1     -33.617  15.853  -4.869  1.00 20.00     0.289 C 
HETATM    4  C4  UNL     1     -34.413  18.190  -7.918  1.00 20.00     0.023 C 
HETATM    5  N9  UNL     1     -33.734  17.217  -4.349  1.00 20.00     0.099 N 
HETATM    6  S10 UNL     1     -34.434  15.817  -6.497  1.00 20.00    -0.127 SA
HETATM    7  H27 UNL     1     -32.986  17.411  -3.685  1.00 20.00     0.317 HD
ENDROOT
BRANCH   3   8
HETATM    8  C8  UNL     1     -34.266  14.865  -3.912  1.00 20.00    -0.011 C 
HETATM    9  C5  UNL     1     -34.603  15.564  -2.582  1.00 20.00     0.017 C 
HETATM   10  C6  UNL     1     -33.304  13.695  -3.632  1.00 20.00     0.017 C 
HETATM   11  C7  UNL     1     -35.563  14.309  -4.529  1.00 20.00     0.017 C 
ENDBRANCH   3   8
TORSDOF 1
ENDMDL
MODEL 9
REMARK VINA RESULT:      -3.7     12.494     13.908
REMARK  1 active torsions:
REMARK  status: ('A' for Active; 'I' for Inactive)
REMARK    1  A    between atoms: C3_3  and  C8_8 
ROOT
HETATM    1  C1  UNL     1     -43.241   3.969  -3.318  1.00 20.00     0.285 C 
HETATM    2  C2  UNL     1     -42.371   2.961  -2.567  1.00 20.00     0.073 C 
HETATM    3  C3  UNL     1     -41.991   5.525  -2.068  1.00 20.00     0.289 C 
HETATM    4  C4  UNL     1     -41.832   1.863  -3.468  1.00 20.00     0.023 C 
HETATM    5  N9  UNL     1     -43.352   5.153  -2.463  1.00 20.00     0.099 N 
HETATM    6  S10 UNL     1     -41.038   3.984  -1.879  1.00 20.00    -0.127 SA
HETATM    7  H27 UNL     1     -43.798   5.919  -2.967  1.00 20.00     0.317 HD
ENDROOT
BRANCH   3   8
HETATM    8  C8  UNL     1     -42.015   6.312  -0.768  1.00 20.00    -0.011 C 
HETATM    9  C5  UNL     1     -43.157   5.808   0.134  1.00 20.00     0.017 C 
HETATM   10  C6  UNL     1     -42.235   7.808  -1.062  1.00 20.00     0.017 C 
HETATM   11  C7  UNL     1     -40.677   6.141  -0.024  1.00 20.00     0.017 C 
ENDBRANCH   3   8
TORSDOF 1
ENDMDL
