MODEL 1
REMARK VINA RESULT:      -5.5      0.000      0.000
REMARK  3 active torsions:
REMARK  status: ('A' for Active; 'I' for Inactive)
REMARK    1  A    between atoms: C3_3  and  C5_5 
REMARK    2  A    between atoms: C3_3  and  C9_9 
REMARK    3  A    between atoms: C8_8  and  C9_9 
ROOT
HETATM    1  C1  UNL     1     -32.046   8.314   1.732  1.00 20.00     0.012 C 
HETATM    2  C2  UNL     1     -32.319   7.517   2.588  1.00 20.00    -0.117 C 
HETATM    3  C8  UNL     1     -32.649   6.541   3.638  1.00 20.00     0.100 C 
ENDROOT
BRANCH   3   4
HETATM    4  C9  UNL     1     -33.544   5.422   3.114  1.00 20.00     0.090 C 
BRANCH   4   5
HETATM    5  C3  UNL     1     -34.963   5.461   3.664  1.00 20.00     0.132 C 
HETATM    6  O10 UNL     1     -35.842   6.183   3.198  1.00 20.00    -0.298 OA
BRANCH   5   7
HETATM    7  C5  UNL     1     -35.250   4.536   4.820  1.00 20.00     0.059 A 
HETATM    8  C4  UNL     1     -34.095   3.905   5.515  1.00 20.00     0.017 A 
HETATM    9  C6  UNL     1     -34.909   4.962   6.206  1.00 20.00    -0.007 A 
HETATM   10  C7  UNL     1     -34.296   6.280   6.534  1.00 20.00     0.011 C 
ENDBRANCH   5   7
ENDBRANCH   4   5
ENDBRANCH   3   4
TORSDOF 3
ENDMDL
MODEL 2
REMARK VINA RESULT:      -5.4      0.910      1.630
REMARK  3 active torsions:
REMARK  status: ('A' for Active; 'I' for Inactive)
REMARK    1  A    between atoms: C3_3  and  C5_5 
REMARK    2  A    between atoms: C3_3  and  C9_9 
REMARK    3  A    between atoms: C8_8  and  C9_9 
ROOT
HETATM    1  C1  UNL     1     -32.169   9.136   1.077  1.00 20.00     0.012 C 
HETATM    2  C2  UNL     1     -32.073   8.331   1.964  1.00 20.00    -0.117 C 
HETATM    3  C8  UNL     1     -31.953   7.347   3.051  1.00 20.00     0.100 C 
ENDROOT
BRANCH   3   4
HETATM    4  C9  UNL     1     -32.846   6.131   2.819  1.00 20.00     0.090 C 
BRANCH   4   5
HETATM    5  C3  UNL     1     -33.935   5.959   3.868  1.00 20.00     0.132 C 
HETATM    6  O10 UNL     1     -35.122   5.818   3.584  1.00 20.00    -0.298 OA
BRANCH   5   7
HETATM    7  C5  UNL     1     -33.475   5.950   5.304  1.00 20.00     0.059 A 
HETATM    8  C4  UNL     1     -34.403   6.480   6.340  1.00 20.00     0.017 A 
HETATM    9  C6  UNL     1     -34.103   5.010   6.273  1.00 20.00    -0.007 A 
HETATM   10  C7  UNL     1     -35.179   4.045   5.904  1.00 20.00     0.011 C 
ENDBRANCH   5   7
ENDBRANCH   4   5
ENDBRANCH   3   4
TORSDOF 3
ENDMDL
MODEL 3
REMARK VINA RESULT:      -5.2      1.583      2.145
REMARK  3 active torsions:
REMARK  status: ('A' for Active; 'I' for Inactive)
REMARK    1  A    between atoms: C3_3  and  C5_5 
REMARK    2  A    between atoms: C3_3  and  C9_9 
REMARK    3  A    between atoms: C8_8  and  C9_9 
ROOT
HETATM    1  C1  UNL     1     -32.187   8.891   1.037  1.00 20.00     0.012 C 
HETATM    2  C2  UNL     1     -31.881   8.338   2.058  1.00 20.00    -0.117 C 
HETATM    3  C8  UNL     1     -31.504   7.661   3.309  1.00 20.00     0.100 C 
ENDROOT
BRANCH   3   4
HETATM    4  C9  UNL     1     -32.311   6.385   3.532  1.00 20.00     0.090 C 
BRANCH   4   5
HETATM    5  C3  UNL     1     -33.382   6.515   4.604  1.00 20.00     0.132 C 
HETATM    6  O10 UNL     1     -33.139   6.877   5.754  1.00 20.00    -0.298 OA
BRANCH   5   7
HETATM    7  C5  UNL     1     -34.791   6.192   4.175  1.00 20.00     0.059 A 
HETATM    8  C4  UNL     1     -34.992   5.059   3.230  1.00 20.00     0.017 A 
HETATM    9  C6  UNL     1     -35.440   4.941   4.659  1.00 20.00    -0.007 A 
HETATM   10  C7  UNL     1     -34.773   3.969   5.572  1.00 20.00     0.011 C 
ENDBRANCH   5   7
ENDBRANCH   4   5
ENDBRANCH   3   4
TORSDOF 3
ENDMDL
MODEL 4
REMARK VINA RESULT:      -4.9     11.374     12.795
REMARK  3 active torsions:
REMARK  status: ('A' for Active; 'I' for Inactive)
REMARK    1  A    between atoms: C3_3  and  C5_5 
REMARK    2  A    between atoms: C3_3  and  C9_9 
REMARK    3  A    between atoms: C8_8  and  C9_9 
ROOT
HETATM    1  C1  UNL     1     -34.648  16.500  -1.407  1.00 20.00     0.012 C 
HETATM    2  C2  UNL     1     -34.039  16.039  -2.333  1.00 20.00    -0.117 C 
HETATM    3  C8  UNL     1     -33.294  15.478  -3.470  1.00 20.00     0.100 C 
ENDROOT
BRANCH   3   4
HETATM    4  C9  UNL     1     -33.501  13.971  -3.599  1.00 20.00     0.090 C 
BRANCH   4   5
HETATM    5  C3  UNL     1     -34.317  13.565  -4.817  1.00 20.00     0.132 C 
HETATM    6  O10 UNL     1     -34.821  12.451  -4.943  1.00 20.00    -0.298 OA
BRANCH   5   7
HETATM    7  C5  UNL     1     -34.500  14.624  -5.874  1.00 20.00     0.059 A 
HETATM    8  C4  UNL     1     -35.435  14.338  -6.997  1.00 20.00     0.017 A 
HETATM    9  C6  UNL     1     -35.789  15.365  -5.959  1.00 20.00    -0.007 A 
HETATM   10  C7  UNL     1     -36.936  15.129  -5.036  1.00 20.00     0.011 C 
ENDBRANCH   5   7
ENDBRANCH   4   5
ENDBRANCH   3   4
TORSDOF 3
ENDMDL
MODEL 5
REMARK VINA RESULT:      -4.8     11.559     12.763
REMARK  3 active torsions:
REMARK  status: ('A' for Active; 'I' for Inactive)
REMARK    1  A    between atoms: C3_3  and  C5_5 
REMARK    2  A    between atoms: C3_3  and  C9_9 
REMARK    3  A    between atoms: C8_8  and  C9_9 
ROOT
HETATM    1  C1  UNL     1     -34.784  17.037  -0.249  1.00 20.00     0.012 C 
HETATM    2  C2  UNL     1     -34.412  16.565  -1.289  1.00 20.00    -0.117 C 
HETATM    3  C8  UNL     1     -33.956  15.989  -2.564  1.00 20.00     0.100 C 
ENDROOT
BRANCH   3   4
HETATM    4  C9  UNL     1     -34.874  14.868  -3.044  1.00 20.00     0.090 C 
BRANCH   4   5
HETATM    5  C3  UNL     1     -34.211  13.906  -4.019  1.00 20.00     0.132 C 
HETATM    6  O10 UNL     1     -33.178  13.293  -3.756  1.00 20.00    -0.298 OA
BRANCH   5   7
HETATM    7  C5  UNL     1     -34.908  13.721  -5.343  1.00 20.00     0.059 A 
HETATM    8  C4  UNL     1     -36.015  14.654  -5.688  1.00 20.00     0.017 A 
HETATM    9  C6  UNL     1     -34.709  14.723  -6.426  1.00 20.00    -0.007 A 
HETATM   10  C7  UNL     1     -33.836  15.923  -6.286  1.00 20.00     0.011 C 
ENDBRANCH   5   7
ENDBRANCH   4   5
ENDBRANCH   3   4
TORSDOF 3
ENDMDL
MODEL 6
REMARK VINA RESULT:      -4.6     11.950     13.281
REMARK  3 active torsions:
REMARK  status: ('A' for Active; 'I' for Inactive)
REMARK    1  A    between atoms: C3_3  and  C5_5 
REMARK    2  A    between atoms: C3_3  and  C9_9 
REMARK    3  A    between atoms: C8_8  and  C9_9 
ROOT
HETATM    1  C1  UNL     1     -34.867  17.221   0.149  1.00 20.00     0.012 C 
HETATM    2  C2  UNL     1     -34.632  16.652  -0.882  1.00 20.00    -0.117 C 
HETATM    3  C8  UNL     1     -34.343  15.954  -2.144  1.00 20.00     0.100 C 
ENDROOT
BRANCH   3   4
HETATM    4  C9  UNL     1     -34.521  16.867  -3.354  1.00 20.00     0.090 C 
BRANCH   4   5
HETATM    5  C3  UNL     1     -33.936  16.302  -4.641  1.00 20.00     0.132 C 
HETATM    6  O10 UNL     1     -32.731  16.297  -4.883  1.00 20.00    -0.298 OA
BRANCH   5   7
HETATM    7  C5  UNL     1     -34.926  15.717  -5.617  1.00 20.00     0.059 A 
HETATM    8  C4  UNL     1     -34.396  14.928  -6.762  1.00 20.00     0.017 A 
HETATM    9  C6  UNL     1     -35.142  14.244  -5.652  1.00 20.00    -0.007 A 
HETATM   10  C7  UNL     1     -34.433  13.287  -4.756  1.00 20.00     0.011 C 
ENDBRANCH   5   7
ENDBRANCH   4   5
ENDBRANCH   3   4
TORSDOF 3
ENDMDL
MODEL 7
REMARK VINA RESULT:      -4.5     11.745     13.055
REMARK  3 active torsions:
REMARK  status: ('A' for Active; 'I' for Inactive)
REMARK    1  A    between atoms: C3_3  and  C5_5 
REMARK    2  A    between atoms: C3_3  and  C9_9 
REMARK    3  A    between atoms: C8_8  and  C9_9 
ROOT
HETATM    1  C1  UNL     1     -36.179  17.510  -6.408  1.00 20.00     0.012 C 
HETATM    2  C2  UNL     1     -36.144  16.310  -6.370  1.00 20.00    -0.117 C 
HETATM    3  C8  UNL     1     -36.104  14.840  -6.322  1.00 20.00     0.100 C 
ENDROOT
BRANCH   3   4
HETATM    4  C9  UNL     1     -34.686  14.316  -6.107  1.00 20.00     0.090 C 
BRANCH   4   5
HETATM    5  C3  UNL     1     -34.468  13.678  -4.742  1.00 20.00     0.132 C 
HETATM    6  O10 UNL     1     -35.037  12.649  -4.385  1.00 20.00    -0.298 OA
BRANCH   5   7
HETATM    7  C5  UNL     1     -33.482  14.372  -3.838  1.00 20.00     0.059 A 
HETATM    8  C4  UNL     1     -33.182  15.807  -4.099  1.00 20.00     0.017 A 
HETATM    9  C6  UNL     1     -33.962  15.407  -2.879  1.00 20.00    -0.007 A 
HETATM   10  C7  UNL     1     -35.394  15.803  -2.747  1.00 20.00     0.011 C 
ENDBRANCH   5   7
ENDBRANCH   4   5
ENDBRANCH   3   4
TORSDOF 3
ENDMDL
MODEL 8
REMARK VINA RESULT:      -4.5     11.649     12.962
REMARK  3 active torsions:
REMARK  status: ('A' for Active; 'I' for Inactive)
REMARK    1  A    between atoms: C3_3  and  C5_5 
REMARK    2  A    between atoms: C3_3  and  C9_9 
REMARK    3  A    between atoms: C8_8  and  C9_9 
ROOT
HETATM    1  C1  UNL     1     -34.141  16.763  -1.420  1.00 20.00     0.012 C 
HETATM    2  C2  UNL     1     -33.948  17.065  -2.566  1.00 20.00    -0.117 C 
HETATM    3  C8  UNL     1     -33.715  17.436  -3.970  1.00 20.00     0.100 C 
ENDROOT
BRANCH   3   4
HETATM    4  C9  UNL     1     -33.163  16.268  -4.784  1.00 20.00     0.090 C 
BRANCH   4   5
HETATM    5  C3  UNL     1     -34.227  15.500  -5.555  1.00 20.00     0.132 C 
HETATM    6  O10 UNL     1     -34.906  16.008  -6.445  1.00 20.00    -0.298 OA
BRANCH   5   7
HETATM    7  C5  UNL     1     -34.397  14.049  -5.182  1.00 20.00     0.059 A 
HETATM    8  C4  UNL     1     -34.134  13.654  -3.771  1.00 20.00     0.017 A 
HETATM    9  C6  UNL     1     -35.535  13.641  -4.313  1.00 20.00    -0.007 A 
HETATM   10  C7  UNL     1     -36.549  14.596  -3.782  1.00 20.00     0.011 C 
ENDBRANCH   5   7
ENDBRANCH   4   5
ENDBRANCH   3   4
TORSDOF 3
ENDMDL
MODEL 9
REMARK VINA RESULT:      -4.5     11.549     12.958
REMARK  3 active torsions:
REMARK  status: ('A' for Active; 'I' for Inactive)
REMARK    1  A    between atoms: C3_3  and  C5_5 
REMARK    2  A    between atoms: C3_3  and  C9_9 
REMARK    3  A    between atoms: C8_8  and  C9_9 
ROOT
HETATM    1  C1  UNL     1     -33.433  17.447  -5.289  1.00 20.00     0.012 C 
HETATM    2  C2  UNL     1     -33.288  16.416  -4.691  1.00 20.00    -0.117 C 
HETATM    3  C8  UNL     1     -33.108  15.152  -3.962  1.00 20.00     0.100 C 
ENDROOT
BRANCH   3   4
HETATM    4  C9  UNL     1     -34.348  14.777  -3.155  1.00 20.00     0.090 C 
BRANCH   4   5
HETATM    5  C3  UNL     1     -35.329  13.893  -3.912  1.00 20.00     0.132 C 
HETATM    6  O10 UNL     1     -35.034  12.779  -4.339  1.00 20.00    -0.298 OA
BRANCH   5   7
HETATM    7  C5  UNL     1     -36.717  14.453  -4.098  1.00 20.00     0.059 A 
HETATM    8  C4  UNL     1     -36.871  15.932  -4.174  1.00 20.00     0.017 A 
HETATM    9  C6  UNL     1     -37.089  15.084  -5.395  1.00 20.00    -0.007 A 
HETATM   10  C7  UNL     1     -36.158  15.191  -6.554  1.00 20.00     0.011 C 
ENDBRANCH   5   7
ENDBRANCH   4   5
ENDBRANCH   3   4
TORSDOF 3
ENDMDL
