MODEL 1
REMARK VINA RESULT:      -5.3      0.000      0.000
REMARK  2 active torsions:
REMARK  status: ('A' for Active; 'I' for Inactive)
REMARK    1  A    between atoms: C3_3  and  C5_5 
REMARK    2  A    between atoms: C3_3  and  C8_8 
ROOT
HETATM    1  C1  UNL     1     -32.238   7.137   3.050  1.00 20.00     0.012 C 
HETATM    2  C2  UNL     1     -32.980   6.194   3.064  1.00 20.00    -0.110 C 
HETATM    3  C8  UNL     1     -33.883   5.037   3.075  1.00 20.00     0.171 C 
ENDROOT
BRANCH   3   4
HETATM    4  C3  UNL     1     -35.178   5.319   3.809  1.00 20.00     0.142 C 
HETATM    5  O9  UNL     1     -36.050   6.069   3.374  1.00 20.00    -0.297 OA
BRANCH   4   6
HETATM    6  C5  UNL     1     -35.350   4.635   5.097  1.00 20.00     0.060 A 
HETATM    7  C4  UNL     1     -34.153   4.011   5.768  1.00 20.00     0.017 A 
HETATM    8  C6  UNL     1     -34.795   5.228   6.370  1.00 20.00    -0.007 A 
HETATM    9  C7  UNL     1     -34.062   6.526   6.388  1.00 20.00     0.011 C 
ENDBRANCH   4   6
ENDBRANCH   3   4
TORSDOF 2
ENDMDL
MODEL 2
REMARK VINA RESULT:      -4.9      1.652      2.471
REMARK  2 active torsions:
REMARK  status: ('A' for Active; 'I' for Inactive)
REMARK    1  A    between atoms: C3_3  and  C5_5 
REMARK    2  A    between atoms: C3_3  and  C8_8 
ROOT
HETATM    1  C1  UNL     1     -32.157   8.525   1.800  1.00 20.00     0.012 C 
HETATM    2  C2  UNL     1     -32.174   7.603   2.570  1.00 20.00    -0.110 C 
HETATM    3  C8  UNL     1     -32.190   6.474   3.507  1.00 20.00     0.171 C 
ENDROOT
BRANCH   3   4
HETATM    4  C3  UNL     1     -33.289   6.594   4.543  1.00 20.00     0.142 C 
HETATM    5  O9  UNL     1     -33.086   6.954   5.701  1.00 20.00    -0.297 OA
BRANCH   4   6
HETATM    6  C5  UNL     1     -34.643   6.253   4.088  1.00 20.00     0.060 A 
HETATM    7  C4  UNL     1     -34.842   5.058   3.190  1.00 20.00     0.017 A 
HETATM    8  C6  UNL     1     -35.347   5.021   4.605  1.00 20.00    -0.007 A 
HETATM    9  C7  UNL     1     -34.718   4.104   5.597  1.00 20.00     0.011 C 
ENDBRANCH   4   6
ENDBRANCH   3   4
TORSDOF 2
ENDMDL
MODEL 3
REMARK VINA RESULT:      -4.7      1.174      2.025
REMARK  2 active torsions:
REMARK  status: ('A' for Active; 'I' for Inactive)
REMARK    1  A    between atoms: C3_3  and  C5_5 
REMARK    2  A    between atoms: C3_3  and  C8_8 
ROOT
HETATM    1  C1  UNL     1     -32.072   8.498   1.807  1.00 20.00     0.012 C 
HETATM    2  C2  UNL     1     -32.190   7.517   2.491  1.00 20.00    -0.110 C 
HETATM    3  C8  UNL     1     -32.330   6.316   3.322  1.00 20.00     0.171 C 
ENDROOT
BRANCH   3   4
HETATM    4  C3  UNL     1     -33.589   6.335   4.164  1.00 20.00     0.142 C 
HETATM    5  O9  UNL     1     -34.680   6.711   3.737  1.00 20.00    -0.297 OA
BRANCH   4   6
HETATM    6  C5  UNL     1     -33.444   5.871   5.549  1.00 20.00     0.060 A 
HETATM    7  C4  UNL     1     -34.596   6.035   6.508  1.00 20.00     0.017 A 
HETATM    8  C6  UNL     1     -34.201   4.661   6.045  1.00 20.00    -0.007 A 
HETATM    9  C7  UNL     1     -35.115   3.881   5.164  1.00 20.00     0.011 C 
ENDBRANCH   4   6
ENDBRANCH   3   4
TORSDOF 2
ENDMDL
MODEL 4
REMARK VINA RESULT:      -4.3     11.939     12.882
REMARK  2 active torsions:
REMARK  status: ('A' for Active; 'I' for Inactive)
REMARK    1  A    between atoms: C3_3  and  C5_5 
REMARK    2  A    between atoms: C3_3  and  C8_8 
ROOT
HETATM    1  C1  UNL     1     -34.610  16.639  -0.687  1.00 20.00     0.012 C 
HETATM    2  C2  UNL     1     -34.419  16.459  -1.859  1.00 20.00    -0.110 C 
HETATM    3  C8  UNL     1     -34.190  16.244  -3.292  1.00 20.00     0.171 C 
ENDROOT
BRANCH   3   4
HETATM    4  C3  UNL     1     -33.493  14.930  -3.579  1.00 20.00     0.142 C 
HETATM    5  O9  UNL     1     -32.269  14.804  -3.582  1.00 20.00    -0.297 OA
BRANCH   4   6
HETATM    6  C5  UNL     1     -34.367  13.785  -3.860  1.00 20.00     0.060 A 
HETATM    7  C4  UNL     1     -35.830  14.022  -4.137  1.00 20.00     0.017 A 
HETATM    8  C6  UNL     1     -34.927  13.558  -5.245  1.00 20.00    -0.007 A 
HETATM    9  C7  UNL     1     -34.617  14.466  -6.385  1.00 20.00     0.011 C 
ENDBRANCH   4   6
ENDBRANCH   3   4
TORSDOF 2
ENDMDL
MODEL 5
REMARK VINA RESULT:      -4.2      1.578      3.267
REMARK  2 active torsions:
REMARK  status: ('A' for Active; 'I' for Inactive)
REMARK    1  A    between atoms: C3_3  and  C5_5 
REMARK    2  A    between atoms: C3_3  and  C8_8 
ROOT
HETATM    1  C1  UNL     1     -33.267   7.412   6.755  1.00 20.00     0.012 C 
HETATM    2  C2  UNL     1     -34.063   6.520   6.643  1.00 20.00    -0.110 C 
HETATM    3  C8  UNL     1     -35.040   5.433   6.512  1.00 20.00     0.171 C 
ENDROOT
BRANCH   3   4
HETATM    4  C3  UNL     1     -34.601   4.374   5.522  1.00 20.00     0.142 C 
HETATM    5  O9  UNL     1     -33.829   3.460   5.810  1.00 20.00    -0.297 OA
BRANCH   4   6
HETATM    6  C5  UNL     1     -35.155   4.489   4.167  1.00 20.00     0.060 A 
HETATM    7  C4  UNL     1     -35.706   5.814   3.705  1.00 20.00     0.017 A 
HETATM    8  C6  UNL     1     -34.437   5.283   3.101  1.00 20.00    -0.007 A 
HETATM    9  C7  UNL     1     -33.142   5.972   3.361  1.00 20.00     0.011 C 
ENDBRANCH   4   6
ENDBRANCH   3   4
TORSDOF 2
ENDMDL
MODEL 6
REMARK VINA RESULT:      -4.2     12.146     13.089
REMARK  2 active torsions:
REMARK  status: ('A' for Active; 'I' for Inactive)
REMARK    1  A    between atoms: C3_3  and  C5_5 
REMARK    2  A    between atoms: C3_3  and  C8_8 
ROOT
HETATM    1  C1  UNL     1     -37.102  15.416  -6.314  1.00 20.00     0.012 C 
HETATM    2  C2  UNL     1     -36.018  14.912  -6.204  1.00 20.00    -0.110 C 
HETATM    3  C8  UNL     1     -34.692  14.296  -6.078  1.00 20.00     0.171 C 
ENDROOT
BRANCH   3   4
HETATM    4  C3  UNL     1     -34.468  13.671  -4.716  1.00 20.00     0.142 C 
HETATM    5  O9  UNL     1     -35.066  12.668  -4.329  1.00 20.00    -0.297 OA
BRANCH   4   6
HETATM    6  C5  UNL     1     -33.479  14.334  -3.858  1.00 20.00     0.060 A 
HETATM    7  C4  UNL     1     -33.147  15.786  -4.098  1.00 20.00     0.017 A 
HETATM    8  C6  UNL     1     -33.900  15.387  -2.860  1.00 20.00    -0.007 A 
HETATM    9  C7  UNL     1     -35.323  15.795  -2.689  1.00 20.00     0.011 C 
ENDBRANCH   4   6
ENDBRANCH   3   4
TORSDOF 2
ENDMDL
MODEL 7
REMARK VINA RESULT:      -4.2     11.941     13.320
REMARK  2 active torsions:
REMARK  status: ('A' for Active; 'I' for Inactive)
REMARK    1  A    between atoms: C3_3  and  C5_5 
REMARK    2  A    between atoms: C3_3  and  C8_8 
ROOT
HETATM    1  C1  UNL     1     -34.725  16.079  -2.281  1.00 20.00     0.012 C 
HETATM    2  C2  UNL     1     -34.194  15.201  -2.904  1.00 20.00    -0.110 C 
HETATM    3  C8  UNL     1     -33.539  14.130  -3.663  1.00 20.00     0.171 C 
ENDROOT
BRANCH   3   4
HETATM    4  C3  UNL     1     -34.359  13.675  -4.853  1.00 20.00     0.142 C 
HETATM    5  O9  UNL     1     -34.890  12.567  -4.920  1.00 20.00    -0.297 OA
BRANCH   4   6
HETATM    6  C5  UNL     1     -34.495  14.641  -5.948  1.00 20.00     0.060 A 
HETATM    7  C4  UNL     1     -35.379  14.307  -7.124  1.00 20.00     0.017 A 
HETATM    8  C6  UNL     1     -35.789  15.390  -6.166  1.00 20.00    -0.007 A 
HETATM    9  C7  UNL     1     -36.976  15.196  -5.286  1.00 20.00     0.011 C 
ENDBRANCH   4   6
ENDBRANCH   3   4
TORSDOF 2
ENDMDL
MODEL 8
REMARK VINA RESULT:      -4.2     11.912     12.775
REMARK  2 active torsions:
REMARK  status: ('A' for Active; 'I' for Inactive)
REMARK    1  A    between atoms: C3_3  and  C5_5 
REMARK    2  A    between atoms: C3_3  and  C8_8 
ROOT
HETATM    1  C1  UNL     1     -34.820  17.252   0.128  1.00 20.00     0.012 C 
HETATM    2  C2  UNL     1     -34.438  16.825  -0.928  1.00 20.00    -0.110 C 
HETATM    3  C8  UNL     1     -33.965  16.310  -2.218  1.00 20.00     0.171 C 
ENDROOT
BRANCH   3   4
HETATM    4  C3  UNL     1     -34.976  15.399  -2.885  1.00 20.00     0.142 C 
HETATM    5  O9  UNL     1     -36.175  15.662  -2.956  1.00 20.00    -0.297 OA
BRANCH   4   6
HETATM    6  C5  UNL     1     -34.443  14.158  -3.460  1.00 20.00     0.060 A 
HETATM    7  C4  UNL     1     -35.325  13.316  -4.347  1.00 20.00     0.017 A 
HETATM    8  C6  UNL     1     -34.154  14.050  -4.938  1.00 20.00    -0.007 A 
HETATM    9  C7  UNL     1     -34.382  15.184  -5.877  1.00 20.00     0.011 C 
ENDBRANCH   4   6
ENDBRANCH   3   4
TORSDOF 2
ENDMDL
MODEL 9
REMARK VINA RESULT:      -4.1     11.955     13.099
REMARK  2 active torsions:
REMARK  status: ('A' for Active; 'I' for Inactive)
REMARK    1  A    between atoms: C3_3  and  C5_5 
REMARK    2  A    between atoms: C3_3  and  C8_8 
ROOT
HETATM    1  C1  UNL     1     -34.746  16.623  -0.825  1.00 20.00     0.012 C 
HETATM    2  C2  UNL     1     -34.312  16.178  -1.852  1.00 20.00    -0.110 C 
HETATM    3  C8  UNL     1     -33.779  15.641  -3.109  1.00 20.00     0.171 C 
ENDROOT
BRANCH   3   4
HETATM    4  C3  UNL     1     -34.502  14.388  -3.559  1.00 20.00     0.142 C 
HETATM    5  O9  UNL     1     -34.061  13.254  -3.375  1.00 20.00    -0.297 OA
BRANCH   4   6
HETATM    6  C5  UNL     1     -35.785  14.594  -4.240  1.00 20.00     0.060 A 
HETATM    7  C4  UNL     1     -36.078  15.928  -4.879  1.00 20.00     0.017 A 
HETATM    8  C6  UNL     1     -35.853  14.720  -5.744  1.00 20.00    -0.007 A 
HETATM    9  C7  UNL     1     -34.639  14.634  -6.603  1.00 20.00     0.011 C 
ENDBRANCH   4   6
ENDBRANCH   3   4
TORSDOF 2
ENDMDL
