MODEL 1
REMARK VINA RESULT:      -4.1      0.000      0.000
REMARK  2 active torsions:
REMARK  status: ('A' for Active; 'I' for Inactive)
REMARK    1  A    between atoms: C2_2  and  C8_8 
REMARK    2  A    between atoms: C3_3  and  C5_5 
ROOT
HETATM    1  C1  UNL     1     -33.673  18.066  -3.467  1.00 20.00     0.080 A 
HETATM    2  C2  UNL     1     -33.890  17.465  -2.244  1.00 20.00     0.055 A 
HETATM    3  C3  UNL     1     -33.959  15.674  -3.506  1.00 20.00     0.080 A 
HETATM    4  N9  UNL     1     -34.055  16.094  -2.265  1.00 20.00    -0.248 NA
HETATM    5  S10 UNL     1     -33.671  16.873  -4.700  1.00 20.00    -0.084 SA
ENDROOT
BRANCH   3   6
HETATM    6  C5  UNL     1     -34.097  14.185  -3.871  1.00 20.00     0.049 A 
HETATM    7  C4  UNL     1     -34.497  13.823  -5.284  1.00 20.00     0.016 A 
HETATM    8  C6  UNL     1     -35.460  13.585  -4.159  1.00 20.00    -0.007 A 
HETATM    9  C7  UNL     1     -36.719  14.379  -4.072  1.00 20.00     0.011 C 
ENDBRANCH   3   6
BRANCH   2  10
HETATM   10  C8  UNL     1     -33.960  18.161  -0.943  1.00 20.00     0.174 C 
HETATM   11 CL11 UNL     1     -34.855  17.192   0.257  1.00 20.00    -0.124 Cl
ENDBRANCH   2  10
TORSDOF 2
ENDMDL
MODEL 2
REMARK VINA RESULT:      -4.1      2.427      3.144
REMARK  2 active torsions:
REMARK  status: ('A' for Active; 'I' for Inactive)
REMARK    1  A    between atoms: C2_2  and  C8_8 
REMARK    2  A    between atoms: C3_3  and  C5_5 
ROOT
HETATM    1  C1  UNL     1     -34.298  14.152  -3.420  1.00 20.00     0.080 A 
HETATM    2  C2  UNL     1     -34.045  15.482  -3.684  1.00 20.00     0.055 A 
HETATM    3  C3  UNL     1     -34.429  14.806  -5.735  1.00 20.00     0.080 A 
HETATM    4  N9  UNL     1     -34.119  15.859  -5.011  1.00 20.00    -0.248 NA
HETATM    5  S10 UNL     1     -34.647  13.331  -4.885  1.00 20.00    -0.084 SA
ENDROOT
BRANCH   3   6
HETATM    6  C5  UNL     1     -34.590  14.892  -7.263  1.00 20.00     0.049 A 
HETATM    7  C4  UNL     1     -34.974  16.222  -7.874  1.00 20.00     0.016 A 
HETATM    8  C6  UNL     1     -35.959  15.090  -7.884  1.00 20.00    -0.007 A 
HETATM    9  C7  UNL     1     -37.204  15.176  -7.068  1.00 20.00     0.011 C 
ENDBRANCH   3   6
BRANCH   2  10
HETATM   10  C8  UNL     1     -33.707  16.511  -2.681  1.00 20.00     0.174 C 
HETATM   11 CL11 UNL     1     -34.680  16.309  -1.200  1.00 20.00    -0.124 Cl
ENDBRANCH   2  10
TORSDOF 2
ENDMDL
MODEL 3
REMARK VINA RESULT:      -4.1      1.569      1.967
REMARK  2 active torsions:
REMARK  status: ('A' for Active; 'I' for Inactive)
REMARK    1  A    between atoms: C2_2  and  C8_8 
REMARK    2  A    between atoms: C3_3  and  C5_5 
ROOT
HETATM    1  C1  UNL     1     -36.140  17.336  -2.452  1.00 20.00     0.080 A 
HETATM    2  C2  UNL     1     -34.986  16.733  -1.995  1.00 20.00     0.055 A 
HETATM    3  C3  UNL     1     -35.601  15.209  -3.446  1.00 20.00     0.080 A 
HETATM    4  N9  UNL     1     -34.676  15.513  -2.563  1.00 20.00    -0.248 NA
HETATM    5  S10 UNL     1     -36.873  16.345  -3.644  1.00 20.00    -0.084 SA
ENDROOT
BRANCH   3   6
HETATM    6  C5  UNL     1     -35.547  13.904  -4.260  1.00 20.00     0.049 A 
HETATM    7  C4  UNL     1     -34.198  13.266  -4.510  1.00 20.00     0.016 A 
HETATM    8  C6  UNL     1     -34.946  13.888  -5.652  1.00 20.00    -0.007 A 
HETATM    9  C7  UNL     1     -34.417  15.117  -6.310  1.00 20.00     0.011 C 
ENDBRANCH   3   6
BRANCH   2  10
HETATM   10  C8  UNL     1     -34.078  17.278  -0.966  1.00 20.00     0.174 C 
HETATM   11 CL11 UNL     1     -34.891  17.388   0.617  1.00 20.00    -0.124 Cl
ENDBRANCH   2  10
TORSDOF 2
ENDMDL
MODEL 4
REMARK VINA RESULT:      -4.0     13.219     14.956
REMARK  2 active torsions:
REMARK  status: ('A' for Active; 'I' for Inactive)
REMARK    1  A    between atoms: C2_2  and  C8_8 
REMARK    2  A    between atoms: C3_3  and  C5_5 
ROOT
HETATM    1  C1  UNL     1     -43.186   2.474  -2.525  1.00 20.00     0.080 A 
HETATM    2  C2  UNL     1     -41.917   2.462  -3.066  1.00 20.00     0.055 A 
HETATM    3  C3  UNL     1     -41.655   4.115  -1.649  1.00 20.00     0.080 A 
HETATM    4  N9  UNL     1     -41.038   3.402  -2.565  1.00 20.00    -0.248 NA
HETATM    5  S10 UNL     1     -43.293   3.708  -1.339  1.00 20.00    -0.084 SA
ENDROOT
BRANCH   3   6
HETATM    6  C5  UNL     1     -40.946   5.253  -0.894  1.00 20.00     0.049 A 
HETATM    7  C4  UNL     1     -41.787   6.207  -0.074  1.00 20.00     0.016 A 
HETATM    8  C6  UNL     1     -41.125   6.695  -1.328  1.00 20.00    -0.007 A 
HETATM    9  C7  UNL     1     -41.953   7.079  -2.508  1.00 20.00     0.011 C 
ENDBRANCH   3   6
BRANCH   2  10
HETATM   10  C8  UNL     1     -41.436   1.542  -4.116  1.00 20.00     0.174 C 
HETATM   11 CL11 UNL     1     -41.861  -0.148  -3.734  1.00 20.00    -0.124 Cl
ENDBRANCH   2  10
TORSDOF 2
ENDMDL
MODEL 5
REMARK VINA RESULT:      -4.0      3.717      4.401
REMARK  2 active torsions:
REMARK  status: ('A' for Active; 'I' for Inactive)
REMARK    1  A    between atoms: C2_2  and  C8_8 
REMARK    2  A    between atoms: C3_3  and  C5_5 
ROOT
HETATM    1  C1  UNL     1     -37.747  16.573  -3.295  1.00 20.00     0.080 A 
HETATM    2  C2  UNL     1     -38.457  15.434  -3.617  1.00 20.00     0.055 A 
HETATM    3  C3  UNL     1     -36.431  14.612  -3.770  1.00 20.00     0.080 A 
HETATM    4  N9  UNL     1     -37.704  14.309  -3.889  1.00 20.00    -0.248 NA
HETATM    5  S10 UNL     1     -36.067  16.230  -3.331  1.00 20.00    -0.084 SA
ENDROOT
BRANCH   3   6
HETATM    6  C5  UNL     1     -35.324  13.569  -4.010  1.00 20.00     0.049 A 
HETATM    7  C4  UNL     1     -33.895  14.051  -4.136  1.00 20.00     0.016 A 
HETATM    8  C6  UNL     1     -34.601  13.504  -5.341  1.00 20.00    -0.007 A 
HETATM    9  C7  UNL     1     -34.939  14.405  -6.481  1.00 20.00     0.011 C 
ENDBRANCH   3   6
BRANCH   2  10
HETATM   10  C8  UNL     1     -39.928  15.328  -3.690  1.00 20.00     0.174 C 
HETATM   11 CL11 UNL     1     -40.425  14.089  -4.873  1.00 20.00    -0.124 Cl
ENDBRANCH   2  10
TORSDOF 2
ENDMDL
MODEL 6
REMARK VINA RESULT:      -4.0      2.769      4.778
REMARK  2 active torsions:
REMARK  status: ('A' for Active; 'I' for Inactive)
REMARK    1  A    between atoms: C2_2  and  C8_8 
REMARK    2  A    between atoms: C3_3  and  C5_5 
ROOT
HETATM    1  C1  UNL     1     -36.346  15.917  -4.484  1.00 20.00     0.080 A 
HETATM    2  C2  UNL     1     -35.231  15.112  -4.373  1.00 20.00     0.055 A 
HETATM    3  C3  UNL     1     -35.125  16.094  -2.415  1.00 20.00     0.080 A 
HETATM    4  N9  UNL     1     -34.530  15.212  -3.187  1.00 20.00    -0.248 NA
HETATM    5  S10 UNL     1     -36.533  16.840  -3.051  1.00 20.00    -0.084 SA
ENDROOT
BRANCH   3   6
HETATM    6  C5  UNL     1     -34.588  16.438  -1.015  1.00 20.00     0.049 A 
HETATM    7  C4  UNL     1     -35.195  17.612  -0.278  1.00 20.00     0.016 A 
HETATM    8  C6  UNL     1     -33.786  17.705  -0.786  1.00 20.00    -0.007 A 
HETATM    9  C7  UNL     1     -33.451  18.650  -1.889  1.00 20.00     0.011 C 
ENDBRANCH   3   6
BRANCH   2  10
HETATM   10  C8  UNL     1     -34.740  14.173  -5.401  1.00 20.00     0.174 C 
HETATM   11 CL11 UNL     1     -34.330  15.029  -6.911  1.00 20.00    -0.124 Cl
ENDBRANCH   2  10
TORSDOF 2
ENDMDL
MODEL 7
REMARK VINA RESULT:      -3.9      2.379      4.149
REMARK  2 active torsions:
REMARK  status: ('A' for Active; 'I' for Inactive)
REMARK    1  A    between atoms: C2_2  and  C8_8 
REMARK    2  A    between atoms: C3_3  and  C5_5 
ROOT
HETATM    1  C1  UNL     1     -33.918  16.868  -5.661  1.00 20.00     0.080 A 
HETATM    2  C2  UNL     1     -34.196  15.692  -4.996  1.00 20.00     0.055 A 
HETATM    3  C3  UNL     1     -33.919  16.997  -3.256  1.00 20.00     0.080 A 
HETATM    4  N9  UNL     1     -34.197  15.764  -3.616  1.00 20.00    -0.248 NA
HETATM    5  S10 UNL     1     -33.646  18.122  -4.523  1.00 20.00    -0.084 SA
ENDROOT
BRANCH   3   6
HETATM    6  C5  UNL     1     -33.843  17.411  -1.775  1.00 20.00     0.049 A 
HETATM    7  C4  UNL     1     -34.618  16.601  -0.760  1.00 20.00     0.016 A 
HETATM    8  C6  UNL     1     -35.053  18.001  -1.077  1.00 20.00    -0.007 A 
HETATM    9  C7  UNL     1     -36.346  18.240  -1.780  1.00 20.00     0.011 C 
ENDBRANCH   3   6
BRANCH   2  10
HETATM   10  C8  UNL     1     -34.486  14.391  -5.630  1.00 20.00     0.174 C 
HETATM   11 CL11 UNL     1     -35.051  13.201  -4.427  1.00 20.00    -0.124 Cl
ENDBRANCH   2  10
TORSDOF 2
ENDMDL
MODEL 8
REMARK VINA RESULT:      -3.8      2.479      4.746
REMARK  2 active torsions:
REMARK  status: ('A' for Active; 'I' for Inactive)
REMARK    1  A    between atoms: C2_2  and  C8_8 
REMARK    2  A    between atoms: C3_3  and  C5_5 
ROOT
HETATM    1  C1  UNL     1     -35.772  15.475  -3.454  1.00 20.00     0.080 A 
HETATM    2  C2  UNL     1     -34.455  15.179  -3.167  1.00 20.00     0.055 A 
HETATM    3  C3  UNL     1     -34.572  17.139  -2.192  1.00 20.00     0.080 A 
HETATM    4  N9  UNL     1     -33.766  16.132  -2.444  1.00 20.00    -0.248 NA
HETATM    5  S10 UNL     1     -36.173  17.006  -2.794  1.00 20.00    -0.084 SA
ENDROOT
BRANCH   3   6
HETATM    6  C5  UNL     1     -34.105  18.372  -1.397  1.00 20.00     0.049 A 
HETATM    7  C4  UNL     1     -32.983  18.202  -0.396  1.00 20.00     0.016 A 
HETATM    8  C6  UNL     1     -34.375  18.478   0.091  1.00 20.00    -0.007 A 
HETATM    9  C7  UNL     1     -35.123  17.431   0.846  1.00 20.00     0.011 C 
ENDBRANCH   3   6
BRANCH   2  10
HETATM   10  C8  UNL     1     -33.742  13.949  -3.566  1.00 20.00     0.174 C 
HETATM   11 CL11 UNL     1     -34.610  13.096  -4.870  1.00 20.00    -0.124 Cl
ENDBRANCH   2  10
TORSDOF 2
ENDMDL
MODEL 9
REMARK VINA RESULT:      -3.8      3.232      4.535
REMARK  2 active torsions:
REMARK  status: ('A' for Active; 'I' for Inactive)
REMARK    1  A    between atoms: C2_2  and  C8_8 
REMARK    2  A    between atoms: C3_3  and  C5_5 
ROOT
HETATM    1  C1  UNL     1     -33.120  16.308  -5.016  1.00 20.00     0.080 A 
HETATM    2  C2  UNL     1     -33.849  17.471  -4.880  1.00 20.00     0.055 A 
HETATM    3  C3  UNL     1     -34.219  16.616  -2.895  1.00 20.00     0.080 A 
HETATM    4  N9  UNL     1     -34.480  17.650  -3.664  1.00 20.00    -0.248 NA
HETATM    5  S10 UNL     1     -33.222  15.393  -3.569  1.00 20.00    -0.084 SA
ENDROOT
BRANCH   3   6
HETATM    6  C5  UNL     1     -34.779  16.509  -1.465  1.00 20.00     0.049 A 
HETATM    7  C4  UNL     1     -35.528  17.692  -0.893  1.00 20.00     0.016 A 
HETATM    8  C6  UNL     1     -34.182  17.332  -0.340  1.00 20.00    -0.007 A 
HETATM    9  C7  UNL     1     -33.021  18.245  -0.544  1.00 20.00     0.011 C 
ENDBRANCH   3   6
BRANCH   2  10
HETATM   10  C8  UNL     1     -34.003  18.518  -5.910  1.00 20.00     0.174 C 
HETATM   11 CL11 UNL     1     -34.373  17.803  -7.502  1.00 20.00    -0.124 Cl
ENDBRANCH   2  10
TORSDOF 2
ENDMDL
