MODEL 1
REMARK VINA RESULT:      -5.1      0.000      0.000
REMARK  3 active torsions:
REMARK  status: ('A' for Active; 'I' for Inactive)
REMARK    1  A    between atoms: C1_1  and  C3_3 
REMARK    2  A    between atoms: C1_1  and  C8_8 
REMARK    3  A    between atoms: C8_8  and  C9_9 
ROOT
HETATM    1  C1  UNL     1     -34.243   5.556   3.414  1.00 20.00     0.131 C 
HETATM    2  O10 UNL     1     -33.927   4.865   2.447  1.00 20.00    -0.298 OA
ENDROOT
BRANCH   1   3
HETATM    3  C3  UNL     1     -35.258   5.070   4.415  1.00 20.00     0.059 A 
HETATM    4  C2  UNL     1     -34.875   3.946   5.313  1.00 20.00     0.017 A 
HETATM    5  C4  UNL     1     -35.047   5.331   5.868  1.00 20.00    -0.007 A 
HETATM    6  C5  UNL     1     -33.869   6.070   6.405  1.00 20.00     0.011 C 
ENDBRANCH   1   3
BRANCH   1   7
HETATM    7  C8  UNL     1     -33.681   6.949   3.655  1.00 20.00     0.082 C 
BRANCH   7   8
HETATM    8  C9  UNL     1     -32.285   7.167   3.051  1.00 20.00    -0.016 C 
HETATM    9  C6  UNL     1     -31.270   7.576   4.123  1.00 20.00     0.010 C 
HETATM   10  C7  UNL     1     -32.346   8.240   1.963  1.00 20.00     0.010 C 
ENDBRANCH   7   8
ENDBRANCH   1   7
TORSDOF 3
ENDMDL
MODEL 2
REMARK VINA RESULT:      -4.9     11.371     12.318
REMARK  3 active torsions:
REMARK  status: ('A' for Active; 'I' for Inactive)
REMARK    1  A    between atoms: C1_1  and  C3_3 
REMARK    2  A    between atoms: C1_1  and  C8_8 
REMARK    3  A    between atoms: C8_8  and  C9_9 
ROOT
HETATM    1  C1  UNL     1     -33.682  14.875  -3.408  1.00 20.00     0.131 C 
HETATM    2  O10 UNL     1     -32.476  15.070  -3.550  1.00 20.00    -0.298 OA
ENDROOT
BRANCH   1   3
HETATM    3  C3  UNL     1     -34.335  13.631  -3.952  1.00 20.00     0.059 A 
HETATM    4  C2  UNL     1     -35.787  13.685  -4.274  1.00 20.00     0.017 A 
HETATM    5  C4  UNL     1     -34.772  13.589  -5.376  1.00 20.00    -0.007 A 
HETATM    6  C5  UNL     1     -34.590  14.726  -6.324  1.00 20.00     0.011 C 
ENDBRANCH   1   3
BRANCH   1   7
HETATM    7  C8  UNL     1     -34.606  15.872  -2.726  1.00 20.00     0.082 C 
BRANCH   7   8
HETATM    8  C9  UNL     1     -33.894  16.795  -1.725  1.00 20.00    -0.016 C 
HETATM    9  C6  UNL     1     -34.667  16.894  -0.407  1.00 20.00     0.010 C 
HETATM   10  C7  UNL     1     -33.722  18.190  -2.329  1.00 20.00     0.010 C 
ENDBRANCH   7   8
ENDBRANCH   1   7
TORSDOF 3
ENDMDL
MODEL 3
REMARK VINA RESULT:      -4.9      1.264      2.083
REMARK  3 active torsions:
REMARK  status: ('A' for Active; 'I' for Inactive)
REMARK    1  A    between atoms: C1_1  and  C3_3 
REMARK    2  A    between atoms: C1_1  and  C8_8 
REMARK    3  A    between atoms: C8_8  and  C9_9 
ROOT
HETATM    1  C1  UNL     1     -32.574   6.499   3.252  1.00 20.00     0.131 C 
HETATM    2  O10 UNL     1     -31.911   5.464   3.221  1.00 20.00    -0.298 OA
ENDROOT
BRANCH   1   3
HETATM    3  C3  UNL     1     -34.064   6.458   3.474  1.00 20.00     0.059 A 
HETATM    4  C2  UNL     1     -34.667   5.184   3.953  1.00 20.00     0.017 A 
HETATM    5  C4  UNL     1     -34.602   6.378   4.862  1.00 20.00    -0.007 A 
HETATM    6  C5  UNL     1     -33.737   6.345   6.076  1.00 20.00     0.011 C 
ENDBRANCH   1   3
BRANCH   1   7
HETATM    7  C8  UNL     1     -31.969   7.877   3.030  1.00 20.00     0.082 C 
BRANCH   7   8
HETATM    8  C9  UNL     1     -32.476   8.581   1.762  1.00 20.00    -0.016 C 
HETATM    9  C6  UNL     1     -31.473   8.454   0.613  1.00 20.00     0.010 C 
HETATM   10  C7  UNL     1     -32.743  10.058   2.054  1.00 20.00     0.010 C 
ENDBRANCH   7   8
ENDBRANCH   1   7
TORSDOF 3
ENDMDL
MODEL 4
REMARK VINA RESULT:      -4.9     11.473     12.621
REMARK  3 active torsions:
REMARK  status: ('A' for Active; 'I' for Inactive)
REMARK    1  A    between atoms: C1_1  and  C3_3 
REMARK    2  A    between atoms: C1_1  and  C8_8 
REMARK    3  A    between atoms: C8_8  and  C9_9 
ROOT
HETATM    1  C1  UNL     1     -34.419  14.051  -3.946  1.00 20.00     0.131 C 
HETATM    2  O10 UNL     1     -33.337  13.522  -3.697  1.00 20.00    -0.298 OA
ENDROOT
BRANCH   1   3
HETATM    3  C3  UNL     1     -35.162  13.734  -5.218  1.00 20.00     0.059 A 
HETATM    4  C2  UNL     1     -36.195  14.699  -5.685  1.00 20.00     0.017 A 
HETATM    5  C4  UNL     1     -34.907  14.545  -6.442  1.00 20.00    -0.007 A 
HETATM    6  C5  UNL     1     -33.932  15.672  -6.493  1.00 20.00     0.011 C 
ENDBRANCH   1   3
BRANCH   1   7
HETATM    7  C8  UNL     1     -35.065  15.082  -3.032  1.00 20.00     0.082 C 
BRANCH   7   8
HETATM    8  C9  UNL     1     -34.063  16.040  -2.370  1.00 20.00    -0.016 C 
HETATM    9  C6  UNL     1     -34.580  16.543  -1.020  1.00 20.00     0.010 C 
HETATM   10  C7  UNL     1     -33.786  17.228  -3.293  1.00 20.00     0.010 C 
ENDBRANCH   7   8
ENDBRANCH   1   7
TORSDOF 3
ENDMDL
MODEL 5
REMARK VINA RESULT:      -4.9     11.526     12.355
REMARK  3 active torsions:
REMARK  status: ('A' for Active; 'I' for Inactive)
REMARK    1  A    between atoms: C1_1  and  C3_3 
REMARK    2  A    between atoms: C1_1  and  C8_8 
REMARK    3  A    between atoms: C8_8  and  C9_9 
ROOT
HETATM    1  C1  UNL     1     -36.071  14.762  -3.484  1.00 20.00     0.131 C 
HETATM    2  O10 UNL     1     -37.158  14.255  -3.754  1.00 20.00    -0.298 OA
ENDROOT
BRANCH   1   3
HETATM    3  C3  UNL     1     -34.783  14.055  -3.817  1.00 20.00     0.059 A 
HETATM    4  C2  UNL     1     -34.806  13.024  -4.890  1.00 20.00     0.017 A 
HETATM    5  C4  UNL     1     -34.103  14.332  -5.114  1.00 20.00    -0.007 A 
HETATM    6  C5  UNL     1     -34.625  15.295  -6.126  1.00 20.00     0.011 C 
ENDBRANCH   1   3
BRANCH   1   7
HETATM    7  C8  UNL     1     -35.935  16.098  -2.768  1.00 20.00     0.082 C 
BRANCH   7   8
HETATM    8  C9  UNL     1     -34.557  16.320  -2.127  1.00 20.00    -0.016 C 
HETATM    9  C6  UNL     1     -34.682  16.700  -0.649  1.00 20.00     0.010 C 
HETATM   10  C7  UNL     1     -33.801  17.417  -2.879  1.00 20.00     0.010 C 
ENDBRANCH   7   8
ENDBRANCH   1   7
TORSDOF 3
ENDMDL
MODEL 6
REMARK VINA RESULT:      -4.8     11.537     12.965
REMARK  3 active torsions:
REMARK  status: ('A' for Active; 'I' for Inactive)
REMARK    1  A    between atoms: C1_1  and  C3_3 
REMARK    2  A    between atoms: C1_1  and  C8_8 
REMARK    3  A    between atoms: C8_8  and  C9_9 
ROOT
HETATM    1  C1  UNL     1     -34.411  13.723  -4.877  1.00 20.00     0.131 C 
HETATM    2  O10 UNL     1     -35.047  12.691  -4.676  1.00 20.00    -0.298 OA
ENDROOT
BRANCH   1   3
HETATM    3  C3  UNL     1     -33.529  14.312  -3.807  1.00 20.00     0.059 A 
HETATM    4  C2  UNL     1     -33.173  15.754  -3.906  1.00 20.00     0.017 A 
HETATM    5  C4  UNL     1     -34.103  15.278  -2.827  1.00 20.00    -0.007 A 
HETATM    6  C5  UNL     1     -35.532  15.703  -2.833  1.00 20.00     0.011 C 
ENDBRANCH   1   3
BRANCH   1   7
HETATM    7  C8  UNL     1     -34.491  14.503  -6.181  1.00 20.00     0.082 C 
BRANCH   7   8
HETATM    8  C9  UNL     1     -35.884  15.081  -6.474  1.00 20.00    -0.016 C 
HETATM    9  C6  UNL     1     -36.378  14.672  -7.865  1.00 20.00     0.010 C 
HETATM   10  C7  UNL     1     -35.853  16.606  -6.365  1.00 20.00     0.010 C 
ENDBRANCH   7   8
ENDBRANCH   1   7
TORSDOF 3
ENDMDL
MODEL 7
REMARK VINA RESULT:      -4.8     11.569     12.439
REMARK  3 active torsions:
REMARK  status: ('A' for Active; 'I' for Inactive)
REMARK    1  A    between atoms: C1_1  and  C3_3 
REMARK    2  A    between atoms: C1_1  and  C8_8 
REMARK    3  A    between atoms: C8_8  and  C9_9 
ROOT
HETATM    1  C1  UNL     1     -35.397  15.820  -2.754  1.00 20.00     0.131 C 
HETATM    2  O10 UNL     1     -36.393  15.432  -3.360  1.00 20.00    -0.298 OA
ENDROOT
BRANCH   1   3
HETATM    3  C3  UNL     1     -34.112  15.034  -2.790  1.00 20.00     0.059 A 
HETATM    4  C2  UNL     1     -33.911  14.072  -3.908  1.00 20.00     0.017 A 
HETATM    5  C4  UNL     1     -33.095  15.330  -3.839  1.00 20.00    -0.007 A 
HETATM    6  C5  UNL     1     -33.268  16.390  -4.874  1.00 20.00     0.011 C 
ENDBRANCH   1   3
BRANCH   1   7
HETATM    7  C8  UNL     1     -35.387  17.077  -1.897  1.00 20.00     0.082 C 
BRANCH   7   8
HETATM    8  C9  UNL     1     -34.425  17.005  -0.701  1.00 20.00    -0.016 C 
HETATM    9  C6  UNL     1     -35.141  17.330   0.613  1.00 20.00     0.010 C 
HETATM   10  C7  UNL     1     -33.260  17.974  -0.906  1.00 20.00     0.010 C 
ENDBRANCH   7   8
ENDBRANCH   1   7
TORSDOF 3
ENDMDL
MODEL 8
REMARK VINA RESULT:      -4.7      1.782      2.446
REMARK  3 active torsions:
REMARK  status: ('A' for Active; 'I' for Inactive)
REMARK    1  A    between atoms: C1_1  and  C3_3 
REMARK    2  A    between atoms: C1_1  and  C8_8 
REMARK    3  A    between atoms: C8_8  and  C9_9 
ROOT
HETATM    1  C1  UNL     1     -33.662   6.431   5.690  1.00 20.00     0.131 C 
HETATM    2  O10 UNL     1     -33.403   7.130   6.668  1.00 20.00    -0.298 OA
ENDROOT
BRANCH   1   3
HETATM    3  C3  UNL     1     -33.962   4.962   5.846  1.00 20.00     0.059 A 
HETATM    4  C2  UNL     1     -35.263   4.574   6.456  1.00 20.00     0.017 A 
HETATM    5  C4  UNL     1     -35.011   4.330   4.996  1.00 20.00    -0.007 A 
HETATM    6  C5  UNL     1     -35.796   5.074   3.969  1.00 20.00     0.011 C 
ENDBRANCH   1   3
BRANCH   1   7
HETATM    7  C8  UNL     1     -33.660   6.966   4.266  1.00 20.00     0.082 C 
BRANCH   7   8
HETATM    8  C9  UNL     1     -32.303   6.834   3.556  1.00 20.00    -0.016 C 
HETATM    9  C6  UNL     1     -32.083   7.972   2.557  1.00 20.00     0.010 C 
HETATM   10  C7  UNL     1     -32.219   5.489   2.833  1.00 20.00     0.010 C 
ENDBRANCH   7   8
ENDBRANCH   1   7
TORSDOF 3
ENDMDL
MODEL 9
REMARK VINA RESULT:      -4.6     11.943     13.416
REMARK  3 active torsions:
REMARK  status: ('A' for Active; 'I' for Inactive)
REMARK    1  A    between atoms: C1_1  and  C3_3 
REMARK    2  A    between atoms: C1_1  and  C8_8 
REMARK    3  A    between atoms: C8_8  and  C9_9 
ROOT
HETATM    1  C1  UNL     1     -35.981  14.684  -5.142  1.00 20.00     0.131 C 
HETATM    2  O10 UNL     1     -37.091  15.175  -5.341  1.00 20.00    -0.298 OA
ENDROOT
BRANCH   1   3
HETATM    3  C3  UNL     1     -35.146  14.166  -6.284  1.00 20.00     0.059 A 
HETATM    4  C2  UNL     1     -35.606  14.446  -7.672  1.00 20.00     0.017 A 
HETATM    5  C4  UNL     1     -34.379  15.123  -7.131  1.00 20.00    -0.007 A 
HETATM    6  C5  UNL     1     -34.378  16.597  -6.908  1.00 20.00     0.011 C 
ENDBRANCH   1   3
BRANCH   1   7
HETATM    7  C8  UNL     1     -35.386  14.520  -3.751  1.00 20.00     0.082 C 
BRANCH   7   8
HETATM    8  C9  UNL     1     -34.399  15.631  -3.364  1.00 20.00    -0.016 C 
HETATM    9  C6  UNL     1     -32.948  15.180  -3.554  1.00 20.00     0.010 C 
HETATM   10  C7  UNL     1     -34.623  16.048  -1.910  1.00 20.00     0.010 C 
ENDBRANCH   7   8
ENDBRANCH   1   7
TORSDOF 3
ENDMDL
