MODEL 1
REMARK VINA RESULT:      -4.9      0.000      0.000
REMARK  3 active torsions:
REMARK  status: ('A' for Active; 'I' for Inactive)
REMARK    1  A    between atoms: C1_1  and  C3_3 
REMARK    2  A    between atoms: C1_1  and  C7_7 
REMARK    3  A    between atoms: C7_7  and  C8_8 
ROOT
HETATM    1  C1  UNL     1     -35.160   5.365   3.870  1.00 20.00     0.131 C 
HETATM    2  O9  UNL     1     -36.126   5.915   3.345  1.00 20.00    -0.298 OA
ENDROOT
BRANCH   1   3
HETATM    3  C3  UNL     1     -35.295   4.652   5.190  1.00 20.00     0.059 A 
HETATM    4  C2  UNL     1     -34.066   4.082   5.809  1.00 20.00     0.017 A 
HETATM    5  C4  UNL     1     -34.740   5.275   6.425  1.00 20.00    -0.007 A 
HETATM    6  C5  UNL     1     -34.050   6.596   6.440  1.00 20.00     0.011 C 
ENDBRANCH   1   3
BRANCH   1   7
HETATM    7  C7  UNL     1     -33.775   5.357   3.246  1.00 20.00     0.078 C 
BRANCH   7   8
HETATM    8  C8  UNL     1     -33.270   6.761   2.927  1.00 20.00     0.003 C 
HETATM    9  C6  UNL     1     -31.861   6.979   3.454  1.00 20.00     0.005 C 
ENDBRANCH   7   8
ENDBRANCH   1   7
TORSDOF 3
ENDMDL
MODEL 2
REMARK VINA RESULT:      -4.5      1.132      1.937
REMARK  3 active torsions:
REMARK  status: ('A' for Active; 'I' for Inactive)
REMARK    1  A    between atoms: C1_1  and  C3_3 
REMARK    2  A    between atoms: C1_1  and  C7_7 
REMARK    3  A    between atoms: C7_7  and  C8_8 
ROOT
HETATM    1  C1  UNL     1     -33.735   6.095   3.956  1.00 20.00     0.131 C 
HETATM    2  O9  UNL     1     -34.900   6.103   3.564  1.00 20.00    -0.298 OA
ENDROOT
BRANCH   1   3
HETATM    3  C3  UNL     1     -33.409   6.018   5.425  1.00 20.00     0.059 A 
HETATM    4  C2  UNL     1     -34.447   6.462   6.397  1.00 20.00     0.017 A 
HETATM    5  C4  UNL     1     -34.093   5.007   6.280  1.00 20.00    -0.007 A 
HETATM    6  C5  UNL     1     -35.096   4.035   5.760  1.00 20.00     0.011 C 
ENDBRANCH   1   3
BRANCH   1   7
HETATM    7  C7  UNL     1     -32.547   6.161   3.012  1.00 20.00     0.078 C 
BRANCH   7   8
HETATM    8  C8  UNL     1     -31.803   7.490   3.100  1.00 20.00     0.003 C 
HETATM    9  C6  UNL     1     -32.093   8.371   1.896  1.00 20.00     0.005 C 
ENDBRANCH   7   8
ENDBRANCH   1   7
TORSDOF 3
ENDMDL
MODEL 3
REMARK VINA RESULT:      -4.4      1.724      2.479
REMARK  3 active torsions:
REMARK  status: ('A' for Active; 'I' for Inactive)
REMARK    1  A    between atoms: C1_1  and  C3_3 
REMARK    2  A    between atoms: C1_1  and  C7_7 
REMARK    3  A    between atoms: C7_7  and  C8_8 
ROOT
HETATM    1  C1  UNL     1     -33.331   6.542   4.563  1.00 20.00     0.131 C 
HETATM    2  O9  UNL     1     -33.089   6.939   5.701  1.00 20.00    -0.298 OA
ENDROOT
BRANCH   1   3
HETATM    3  C3  UNL     1     -34.736   6.191   4.145  1.00 20.00     0.059 A 
HETATM    4  C2  UNL     1     -34.932   5.002   3.271  1.00 20.00     0.017 A 
HETATM    5  C4  UNL     1     -35.389   4.973   4.702  1.00 20.00    -0.007 A 
HETATM    6  C5  UNL     1     -34.728   4.060   5.678  1.00 20.00     0.011 C 
ENDBRANCH   1   3
BRANCH   1   7
HETATM    7  C7  UNL     1     -32.258   6.374   3.502  1.00 20.00     0.078 C 
BRANCH   7   8
HETATM    8  C8  UNL     1     -31.553   7.686   3.170  1.00 20.00     0.003 C 
HETATM    9  C6  UNL     1     -32.098   8.303   1.892  1.00 20.00     0.005 C 
ENDBRANCH   7   8
ENDBRANCH   1   7
TORSDOF 3
ENDMDL
MODEL 4
REMARK VINA RESULT:      -4.1     12.130     13.128
REMARK  3 active torsions:
REMARK  status: ('A' for Active; 'I' for Inactive)
REMARK    1  A    between atoms: C1_1  and  C3_3 
REMARK    2  A    between atoms: C1_1  and  C7_7 
REMARK    3  A    between atoms: C7_7  and  C8_8 
ROOT
HETATM    1  C1  UNL     1     -34.464  13.679  -4.736  1.00 20.00     0.131 C 
HETATM    2  O9  UNL     1     -35.059  12.667  -4.372  1.00 20.00    -0.298 OA
ENDROOT
BRANCH   1   3
HETATM    3  C3  UNL     1     -33.454  14.349  -3.841  1.00 20.00     0.059 A 
HETATM    4  C2  UNL     1     -33.143  15.785  -4.086  1.00 20.00     0.017 A 
HETATM    5  C4  UNL     1     -33.903  15.374  -2.858  1.00 20.00    -0.007 A 
HETATM    6  C5  UNL     1     -35.327  15.783  -2.690  1.00 20.00     0.011 C 
ENDBRANCH   1   3
BRANCH   1   7
HETATM    7  C7  UNL     1     -34.692  14.329  -6.090  1.00 20.00     0.078 C 
BRANCH   7   8
HETATM    8  C8  UNL     1     -36.110  14.868  -6.249  1.00 20.00     0.003 C 
HETATM    9  C6  UNL     1     -36.127  16.386  -6.301  1.00 20.00     0.005 C 
ENDBRANCH   7   8
ENDBRANCH   1   7
TORSDOF 3
ENDMDL
MODEL 5
REMARK VINA RESULT:      -4.1     11.811     13.301
REMARK  3 active torsions:
REMARK  status: ('A' for Active; 'I' for Inactive)
REMARK    1  A    between atoms: C1_1  and  C3_3 
REMARK    2  A    between atoms: C1_1  and  C7_7 
REMARK    3  A    between atoms: C7_7  and  C8_8 
ROOT
HETATM    1  C1  UNL     1     -34.355  13.582  -4.841  1.00 20.00     0.131 C 
HETATM    2  O9  UNL     1     -34.890  12.481  -4.954  1.00 20.00    -0.298 OA
ENDROOT
BRANCH   1   3
HETATM    3  C3  UNL     1     -34.514  14.635  -5.907  1.00 20.00     0.059 A 
HETATM    4  C2  UNL     1     -35.448  14.358  -7.034  1.00 20.00     0.017 A 
HETATM    5  C4  UNL     1     -35.790  15.398  -6.005  1.00 20.00    -0.007 A 
HETATM    6  C5  UNL     1     -36.946  15.188  -5.088  1.00 20.00     0.011 C 
ENDBRANCH   1   3
BRANCH   1   7
HETATM    7  C7  UNL     1     -33.506  13.968  -3.643  1.00 20.00     0.078 C 
BRANCH   7   8
HETATM    8  C8  UNL     1     -33.117  15.443  -3.652  1.00 20.00     0.003 C 
HETATM    9  C6  UNL     1     -33.840  16.216  -2.561  1.00 20.00     0.005 C 
ENDBRANCH   7   8
ENDBRANCH   1   7
TORSDOF 3
ENDMDL
MODEL 6
REMARK VINA RESULT:      -4.1     11.967     12.891
REMARK  3 active torsions:
REMARK  status: ('A' for Active; 'I' for Inactive)
REMARK    1  A    between atoms: C1_1  and  C3_3 
REMARK    2  A    between atoms: C1_1  and  C7_7 
REMARK    3  A    between atoms: C7_7  and  C8_8 
ROOT
HETATM    1  C1  UNL     1     -33.539  14.923  -3.527  1.00 20.00     0.131 C 
HETATM    2  O9  UNL     1     -32.314  14.833  -3.577  1.00 20.00    -0.298 OA
ENDROOT
BRANCH   1   3
HETATM    3  C3  UNL     1     -34.419  13.757  -3.896  1.00 20.00     0.059 A 
HETATM    4  C2  UNL     1     -35.855  14.026  -4.187  1.00 20.00     0.017 A 
HETATM    5  C4  UNL     1     -34.921  13.624  -5.293  1.00 20.00    -0.007 A 
HETATM    6  C5  UNL     1     -34.593  14.590  -6.379  1.00 20.00     0.011 C 
ENDBRANCH   1   3
BRANCH   1   7
HETATM    7  C7  UNL     1     -34.257  16.191  -3.099  1.00 20.00     0.078 C 
BRANCH   7   8
HETATM    8  C8  UNL     1     -34.540  16.225  -1.600  1.00 20.00     0.003 C 
HETATM    9  C6  UNL     1     -33.840  17.394  -0.928  1.00 20.00     0.005 C 
ENDBRANCH   7   8
ENDBRANCH   1   7
TORSDOF 3
ENDMDL
MODEL 7
REMARK VINA RESULT:      -4.0     12.084     13.086
REMARK  3 active torsions:
REMARK  status: ('A' for Active; 'I' for Inactive)
REMARK    1  A    between atoms: C1_1  and  C3_3 
REMARK    2  A    between atoms: C1_1  and  C7_7 
REMARK    3  A    between atoms: C7_7  and  C8_8 
ROOT
HETATM    1  C1  UNL     1     -34.241  14.307  -3.915  1.00 20.00     0.131 C 
HETATM    2  O9  UNL     1     -34.121  13.186  -3.425  1.00 20.00    -0.298 OA
ENDROOT
BRANCH   1   3
HETATM    3  C3  UNL     1     -33.268  15.409  -3.583  1.00 20.00     0.059 A 
HETATM    4  C2  UNL     1     -33.667  16.812  -3.885  1.00 20.00     0.017 A 
HETATM    5  C4  UNL     1     -33.565  16.343  -2.462  1.00 20.00    -0.007 A 
HETATM    6  C5  UNL     1     -34.791  16.250  -1.618  1.00 20.00     0.011 C 
ENDBRANCH   1   3
BRANCH   1   7
HETATM    7  C7  UNL     1     -35.359  14.671  -4.877  1.00 20.00     0.078 C 
BRANCH   7   8
HETATM    8  C8  UNL     1     -35.128  14.113  -6.278  1.00 20.00     0.003 C 
HETATM    9  C6  UNL     1     -34.393  15.109  -7.160  1.00 20.00     0.005 C 
ENDBRANCH   7   8
ENDBRANCH   1   7
TORSDOF 3
ENDMDL
MODEL 8
REMARK VINA RESULT:      -4.0     11.994     13.207
REMARK  3 active torsions:
REMARK  status: ('A' for Active; 'I' for Inactive)
REMARK    1  A    between atoms: C1_1  and  C3_3 
REMARK    2  A    between atoms: C1_1  and  C7_7 
REMARK    3  A    between atoms: C7_7  and  C8_8 
ROOT
HETATM    1  C1  UNL     1     -34.269  13.930  -4.052  1.00 20.00     0.131 C 
HETATM    2  O9  UNL     1     -33.237  13.330  -3.756  1.00 20.00    -0.298 OA
ENDROOT
BRANCH   1   3
HETATM    3  C3  UNL     1     -34.890  13.780  -5.416  1.00 20.00     0.059 A 
HETATM    4  C2  UNL     1     -35.994  14.708  -5.790  1.00 20.00     0.017 A 
HETATM    5  C4  UNL     1     -34.651  14.821  -6.454  1.00 20.00    -0.007 A 
HETATM    6  C5  UNL     1     -33.807  16.028  -6.228  1.00 20.00     0.011 C 
ENDBRANCH   1   3
BRANCH   1   7
HETATM    7  C7  UNL     1     -34.990  14.855  -3.087  1.00 20.00     0.078 C 
BRANCH   7   8
HETATM    8  C8  UNL     1     -34.075  15.935  -2.517  1.00 20.00     0.003 C 
HETATM    9  C6  UNL     1     -34.606  16.477  -1.201  1.00 20.00     0.005 C 
ENDBRANCH   7   8
ENDBRANCH   1   7
TORSDOF 3
ENDMDL
MODEL 9
REMARK VINA RESULT:      -3.9     11.970     12.808
REMARK  3 active torsions:
REMARK  status: ('A' for Active; 'I' for Inactive)
REMARK    1  A    between atoms: C1_1  and  C3_3 
REMARK    2  A    between atoms: C1_1  and  C7_7 
REMARK    3  A    between atoms: C7_7  and  C8_8 
ROOT
HETATM    1  C1  UNL     1     -35.927  15.102  -3.235  1.00 20.00     0.131 C 
HETATM    2  O9  UNL     1     -37.070  14.696  -3.433  1.00 20.00    -0.298 OA
ENDROOT
BRANCH   1   3
HETATM    3  C3  UNL     1     -34.730  14.269  -3.614  1.00 20.00     0.059 A 
HETATM    4  C2  UNL     1     -34.922  13.178  -4.610  1.00 20.00     0.017 A 
HETATM    5  C4  UNL     1     -34.137  14.407  -4.974  1.00 20.00    -0.007 A 
HETATM    6  C5  UNL     1     -34.659  15.346  -6.007  1.00 20.00     0.011 C 
ENDBRANCH   1   3
BRANCH   1   7
HETATM    7  C7  UNL     1     -35.629  16.450  -2.603  1.00 20.00     0.078 C 
BRANCH   7   8
HETATM    8  C8  UNL     1     -34.408  16.410  -1.687  1.00 20.00     0.003 C 
HETATM    9  C6  UNL     1     -34.727  16.970  -0.311  1.00 20.00     0.005 C 
ENDBRANCH   7   8
ENDBRANCH   1   7
TORSDOF 3
ENDMDL
