MODEL 1
REMARK VINA RESULT:      -4.8      0.000      0.000
REMARK  3 active torsions:
REMARK  status: ('A' for Active; 'I' for Inactive)
REMARK    1  A    between atoms: C6_6  and  C10_10 
REMARK    2  A    between atoms: C7_7  and  C11_11 
REMARK    3  A    between atoms: C11_11  and  N12_12 
ROOT
HETATM    1  C1  UNL     1     -33.518  13.657  -3.799  1.00 20.00     0.014 C 
HETATM    2  C2  UNL     1     -34.069  14.671  -3.469  1.00 20.00    -0.081 C 
HETATM    3  C11 UNL     1     -34.748  15.912  -3.068  1.00 20.00     0.301 C 
ENDROOT
BRANCH   3   4
HETATM    4  C7  UNL     1     -33.939  16.671  -2.029  1.00 20.00     0.031 C 
HETATM    5  C4  UNL     1     -33.685  18.126  -2.417  1.00 20.00     0.008 C 
HETATM    6  C3  UNL     1     -33.385  18.786  -1.081  1.00 20.00     0.005 C 
HETATM    7  C6  UNL     1     -34.438  18.180  -0.157  1.00 20.00    -0.014 C 
HETATM    8  C5  UNL     1     -34.623  16.738  -0.655  1.00 20.00     0.012 C 
BRANCH   7   9
HETATM    9  C10 UNL     1     -34.058  18.263   1.313  1.00 20.00     0.000 C 
HETATM   10  C8  UNL     1     -32.712  18.887   1.507  1.00 20.00     0.005 C 
ENDBRANCH   7   9
ENDBRANCH   3   4
BRANCH   3  11
HETATM   11  N12 UNL     1     -36.065  15.609  -2.565  1.00 20.00     0.095 N 
HETATM   12  C9  UNL     1     -36.925  15.060  -3.611  1.00 20.00     0.308 C 
HETATM   13  H31 UNL     1     -36.503  16.459  -2.197  1.00 20.00     0.317 HD
ENDBRANCH   3  11
TORSDOF 3
ENDMDL
MODEL 2
REMARK VINA RESULT:      -4.5      1.269      2.046
REMARK  3 active torsions:
REMARK  status: ('A' for Active; 'I' for Inactive)
REMARK    1  A    between atoms: C6_6  and  C10_10 
REMARK    2  A    between atoms: C7_7  and  C11_11 
REMARK    3  A    between atoms: C11_11  and  N12_12 
ROOT
HETATM    1  C1  UNL     1     -37.202  15.464  -3.574  1.00 20.00     0.014 C 
HETATM    2  C2  UNL     1     -36.048  15.199  -3.380  1.00 20.00    -0.081 C 
HETATM    3  C11 UNL     1     -34.634  14.871  -3.143  1.00 20.00     0.301 C 
ENDROOT
BRANCH   3   4
HETATM    4  C7  UNL     1     -33.898  16.035  -2.501  1.00 20.00     0.031 C 
HETATM    5  C4  UNL     1     -33.941  17.306  -3.346  1.00 20.00     0.008 C 
HETATM    6  C3  UNL     1     -33.665  18.401  -2.327  1.00 20.00     0.005 C 
HETATM    7  C6  UNL     1     -34.518  17.979  -1.134  1.00 20.00    -0.014 C 
HETATM    8  C5  UNL     1     -34.477  16.442  -1.137  1.00 20.00     0.012 C 
BRANCH   7   9
HETATM    9  C10 UNL     1     -34.049  18.589   0.177  1.00 20.00     0.000 C 
HETATM   10  C8  UNL     1     -32.563  18.763   0.212  1.00 20.00     0.005 C 
ENDBRANCH   7   9
ENDBRANCH   3   4
BRANCH   3  11
HETATM   11  N12 UNL     1     -34.004  14.493  -4.384  1.00 20.00     0.095 N 
HETATM   12  C9  UNL     1     -34.522  13.220  -4.882  1.00 20.00     0.308 C 
HETATM   13  H31 UNL     1     -32.992  14.403  -4.250  1.00 20.00     0.317 HD
ENDBRANCH   3  11
TORSDOF 3
ENDMDL
MODEL 3
REMARK VINA RESULT:      -4.5      1.948      5.536
REMARK  3 active torsions:
REMARK  status: ('A' for Active; 'I' for Inactive)
REMARK    1  A    between atoms: C6_6  and  C10_10 
REMARK    2  A    between atoms: C7_7  and  C11_11 
REMARK    3  A    between atoms: C11_11  and  N12_12 
ROOT
HETATM    1  C1  UNL     1     -33.745  18.866  -3.307  1.00 20.00     0.014 C 
HETATM    2  C2  UNL     1     -33.746  17.715  -2.968  1.00 20.00    -0.081 C 
HETATM    3  C11 UNL     1     -33.747  16.306  -2.549  1.00 20.00     0.301 C 
ENDROOT
BRANCH   3   4
HETATM    4  C7  UNL     1     -33.750  15.374  -3.749  1.00 20.00     0.031 C 
HETATM    5  C4  UNL     1     -34.120  13.938  -3.388  1.00 20.00     0.008 C 
HETATM    6  C3  UNL     1     -34.585  13.363  -4.717  1.00 20.00     0.005 C 
HETATM    7  C6  UNL     1     -35.440  14.488  -5.295  1.00 20.00    -0.014 C 
HETATM    8  C5  UNL     1     -34.755  15.785  -4.836  1.00 20.00     0.012 C 
BRANCH   7   9
HETATM    9  C10 UNL     1     -35.601  14.396  -6.804  1.00 20.00     0.000 C 
HETATM   10  C8  UNL     1     -34.473  15.060  -7.529  1.00 20.00     0.005 C 
ENDBRANCH   7   9
ENDBRANCH   3   4
BRANCH   3  11
HETATM   11  N12 UNL     1     -34.885  16.048  -1.702  1.00 20.00     0.095 N 
HETATM   12  C9  UNL     1     -34.805  16.801  -0.452  1.00 20.00     0.308 C 
HETATM   13  H31 UNL     1     -34.936  15.049  -1.478  1.00 20.00     0.317 HD
ENDBRANCH   3  11
TORSDOF 3
ENDMDL
MODEL 4
REMARK VINA RESULT:      -4.5      2.005      2.633
REMARK  3 active torsions:
REMARK  status: ('A' for Active; 'I' for Inactive)
REMARK    1  A    between atoms: C6_6  and  C10_10 
REMARK    2  A    between atoms: C7_7  and  C11_11 
REMARK    3  A    between atoms: C11_11  and  N12_12 
ROOT
HETATM    1  C1  UNL     1     -34.919  13.177  -4.310  1.00 20.00     0.014 C 
HETATM    2  C2  UNL     1     -34.538  14.276  -4.606  1.00 20.00    -0.081 C 
HETATM    3  C11 UNL     1     -34.069  15.621  -4.971  1.00 20.00     0.301 C 
ENDROOT
BRANCH   3   4
HETATM    4  C7  UNL     1     -34.386  16.630  -3.880  1.00 20.00     0.031 C 
HETATM    5  C4  UNL     1     -35.885  16.816  -3.658  1.00 20.00     0.008 C 
HETATM    6  C3  UNL     1     -35.951  17.385  -2.250  1.00 20.00     0.005 C 
HETATM    7  C6  UNL     1     -34.939  16.532  -1.490  1.00 20.00    -0.014 C 
HETATM    8  C5  UNL     1     -33.824  16.236  -2.505  1.00 20.00     0.012 C 
BRANCH   7   9
HETATM    9  C10 UNL     1     -34.433  17.201  -0.222  1.00 20.00     0.000 C 
HETATM   10  C8  UNL     1     -33.276  18.110  -0.492  1.00 20.00     0.005 C 
ENDBRANCH   7   9
ENDBRANCH   3   4
BRANCH   3  11
HETATM   11  N12 UNL     1     -34.660  16.022  -6.224  1.00 20.00     0.095 N 
HETATM   12  C9  UNL     1     -34.358  15.068  -7.289  1.00 20.00     0.308 C 
HETATM   13  H31 UNL     1     -34.304  16.942  -6.500  1.00 20.00     0.317 HD
ENDBRANCH   3  11
TORSDOF 3
ENDMDL
MODEL 5
REMARK VINA RESULT:      -4.5      1.581      4.909
REMARK  3 active torsions:
REMARK  status: ('A' for Active; 'I' for Inactive)
REMARK    1  A    between atoms: C6_6  and  C10_10 
REMARK    2  A    between atoms: C7_7  and  C11_11 
REMARK    3  A    between atoms: C11_11  and  N12_12 
ROOT
HETATM    1  C1  UNL     1     -32.889  18.494  -0.365  1.00 20.00     0.014 C 
HETATM    2  C2  UNL     1     -33.753  17.725  -0.685  1.00 20.00    -0.081 C 
HETATM    3  C11 UNL     1     -34.813  16.782  -1.074  1.00 20.00     0.301 C 
ENDROOT
BRANCH   3   4
HETATM    4  C7  UNL     1     -34.623  16.298  -2.502  1.00 20.00     0.031 C 
HETATM    5  C4  UNL     1     -33.161  16.031  -2.851  1.00 20.00     0.008 C 
HETATM    6  C3  UNL     1     -33.263  15.084  -4.037  1.00 20.00     0.005 C 
HETATM    7  C6  UNL     1     -34.368  14.121  -3.610  1.00 20.00    -0.014 C 
HETATM    8  C5  UNL     1     -35.352  14.978  -2.797  1.00 20.00     0.012 C 
BRANCH   7   9
HETATM    9  C10 UNL     1     -35.020  13.407  -4.783  1.00 20.00     0.000 C 
HETATM   10  C8  UNL     1     -34.969  14.227  -6.034  1.00 20.00     0.005 C 
ENDBRANCH   7   9
ENDBRANCH   3   4
BRANCH   3  11
HETATM   11  N12 UNL     1     -36.104  17.405  -0.915  1.00 20.00     0.095 N 
HETATM   12  C9  UNL     1     -36.270  18.535  -1.827  1.00 20.00     0.308 C 
HETATM   13  H31 UNL     1     -36.213  17.744   0.046  1.00 20.00     0.317 HD
ENDBRANCH   3  11
TORSDOF 3
ENDMDL
MODEL 6
REMARK VINA RESULT:      -4.4      1.653      4.832
REMARK  3 active torsions:
REMARK  status: ('A' for Active; 'I' for Inactive)
REMARK    1  A    between atoms: C6_6  and  C10_10 
REMARK    2  A    between atoms: C7_7  and  C11_11 
REMARK    3  A    between atoms: C11_11  and  N12_12 
ROOT
HETATM    1  C1  UNL     1     -32.958  19.084  -0.993  1.00 20.00     0.014 C 
HETATM    2  C2  UNL     1     -33.666  18.150  -0.733  1.00 20.00    -0.081 C 
HETATM    3  C11 UNL     1     -34.532  17.006  -0.411  1.00 20.00     0.301 C 
ENDROOT
BRANCH   3   4
HETATM    4  C7  UNL     1     -35.022  16.314  -1.673  1.00 20.00     0.031 C 
HETATM    5  C4  UNL     1     -35.874  17.221  -2.558  1.00 20.00     0.008 C 
HETATM    6  C3  UNL     1     -35.775  16.555  -3.921  1.00 20.00     0.005 C 
HETATM    7  C6  UNL     1     -34.295  16.190  -4.015  1.00 20.00    -0.014 C 
HETATM    8  C5  UNL     1     -33.881  15.827  -2.580  1.00 20.00     0.012 C 
BRANCH   7   9
HETATM    9  C10 UNL     1     -34.020  15.081  -5.018  1.00 20.00     0.000 C 
HETATM   10  C8  UNL     1     -34.096  13.726  -4.389  1.00 20.00     0.005 C 
ENDBRANCH   7   9
ENDBRANCH   3   4
BRANCH   3  11
HETATM   11  N12 UNL     1     -35.645  17.446   0.393  1.00 20.00     0.095 N 
HETATM   12  C9  UNL     1     -35.233  17.742   1.763  1.00 20.00     0.308 C 
HETATM   13  H31 UNL     1     -36.367  16.719   0.419  1.00 20.00     0.317 HD
ENDBRANCH   3  11
TORSDOF 3
ENDMDL
MODEL 7
REMARK VINA RESULT:      -4.3      1.869      5.061
REMARK  3 active torsions:
REMARK  status: ('A' for Active; 'I' for Inactive)
REMARK    1  A    between atoms: C6_6  and  C10_10 
REMARK    2  A    between atoms: C7_7  and  C11_11 
REMARK    3  A    between atoms: C11_11  and  N12_12 
ROOT
HETATM    1  C1  UNL     1     -37.785  18.063  -2.254  1.00 20.00     0.014 C 
HETATM    2  C2  UNL     1     -36.640  17.747  -2.079  1.00 20.00    -0.081 C 
HETATM    3  C11 UNL     1     -35.238  17.363  -1.861  1.00 20.00     0.301 C 
ENDROOT
BRANCH   3   4
HETATM    4  C7  UNL     1     -34.701  16.552  -3.029  1.00 20.00     0.031 C 
HETATM    5  C4  UNL     1     -33.257  16.099  -2.828  1.00 20.00     0.008 C 
HETATM    6  C3  UNL     1     -33.137  14.917  -3.777  1.00 20.00     0.005 C 
HETATM    7  C6  UNL     1     -34.448  14.167  -3.555  1.00 20.00    -0.014 C 
HETATM    8  C5  UNL     1     -35.493  15.260  -3.287  1.00 20.00     0.012 C 
BRANCH   7   9
HETATM    9  C10 UNL     1     -34.814  13.257  -4.716  1.00 20.00     0.000 C 
HETATM   10  C8  UNL     1     -35.017  14.024  -5.985  1.00 20.00     0.005 C 
ENDBRANCH   7   9
ENDBRANCH   3   4
BRANCH   3  11
HETATM   11  N12 UNL     1     -35.118  16.623  -0.630  1.00 20.00     0.095 N 
HETATM   12  C9  UNL     1     -34.968  17.514   0.519  1.00 20.00     0.308 C 
HETATM   13  H31 UNL     1     -34.302  16.005  -0.671  1.00 20.00     0.317 HD
ENDBRANCH   3  11
TORSDOF 3
ENDMDL
MODEL 8
REMARK VINA RESULT:      -4.3      1.815      3.571
REMARK  3 active torsions:
REMARK  status: ('A' for Active; 'I' for Inactive)
REMARK    1  A    between atoms: C6_6  and  C10_10 
REMARK    2  A    between atoms: C7_7  and  C11_11 
REMARK    3  A    between atoms: C11_11  and  N12_12 
ROOT
HETATM    1  C1  UNL     1     -38.918  14.951  -3.641  1.00 20.00     0.014 C 
HETATM    2  C2  UNL     1     -37.832  14.802  -4.129  1.00 20.00    -0.081 C 
HETATM    3  C11 UNL     1     -36.502  14.618  -4.730  1.00 20.00     0.301 C 
ENDROOT
BRANCH   3   4
HETATM    4  C7  UNL     1     -35.404  14.733  -3.685  1.00 20.00     0.031 C 
HETATM    5  C4  UNL     1     -34.002  14.669  -4.284  1.00 20.00     0.008 C 
HETATM    6  C3  UNL     1     -33.146  15.331  -3.216  1.00 20.00     0.005 C 
HETATM    7  C6  UNL     1     -33.989  16.535  -2.801  1.00 20.00    -0.014 C 
HETATM    8  C5  UNL     1     -35.446  16.056  -2.904  1.00 20.00     0.012 C 
BRANCH   7   9
HETATM    9  C10 UNL     1     -33.627  17.066  -1.423  1.00 20.00     0.000 C 
HETATM   10  C8  UNL     1     -34.739  16.875  -0.441  1.00 20.00     0.005 C 
ENDBRANCH   7   9
ENDBRANCH   3   4
BRANCH   3  11
HETATM   11  N12 UNL     1     -36.304  15.581  -5.785  1.00 20.00     0.095 N 
HETATM   12  C9  UNL     1     -36.889  15.125  -7.044  1.00 20.00     0.308 C 
HETATM   13  H31 UNL     1     -35.302  15.740  -5.930  1.00 20.00     0.317 HD
ENDBRANCH   3  11
TORSDOF 3
ENDMDL
MODEL 9
REMARK VINA RESULT:      -4.2      1.831      5.134
REMARK  3 active torsions:
REMARK  status: ('A' for Active; 'I' for Inactive)
REMARK    1  A    between atoms: C6_6  and  C10_10 
REMARK    2  A    between atoms: C7_7  and  C11_11 
REMARK    3  A    between atoms: C11_11  and  N12_12 
ROOT
HETATM    1  C1  UNL     1     -35.269  17.719   2.468  1.00 20.00     0.014 C 
HETATM    2  C2  UNL     1     -34.677  18.182   1.532  1.00 20.00    -0.081 C 
HETATM    3  C11 UNL     1     -33.950  18.752   0.388  1.00 20.00     0.301 C 
ENDROOT
BRANCH   3   4
HETATM    4  C7  UNL     1     -34.467  18.192  -0.927  1.00 20.00     0.031 C 
HETATM    5  C4  UNL     1     -33.585  18.558  -2.119  1.00 20.00     0.008 C 
HETATM    6  C3  UNL     1     -33.945  17.497  -3.146  1.00 20.00     0.005 C 
HETATM    7  C6  UNL     1     -33.999  16.219  -2.312  1.00 20.00    -0.014 C 
HETATM    8  C5  UNL     1     -34.546  16.657  -0.945  1.00 20.00     0.012 C 
BRANCH   7   9
HETATM    9  C10 UNL     1     -34.821  15.119  -2.964  1.00 20.00     0.000 C 
HETATM   10  C8  UNL     1     -33.960  14.118  -3.667  1.00 20.00     0.005 C 
ENDBRANCH   7   9
ENDBRANCH   3   4
BRANCH   3  11
HETATM   11  N12 UNL     1     -32.538  18.498   0.530  1.00 20.00     0.095 N 
HETATM   12  C9  UNL     1     -31.965  19.260   1.638  1.00 20.00     0.308 C 
HETATM   13  H31 UNL     1     -32.047  18.757  -0.332  1.00 20.00     0.317 HD
ENDBRANCH   3  11
TORSDOF 3
ENDMDL
