MODEL 1
REMARK VINA RESULT:      -5.0      0.000      0.000
REMARK  2 active torsions:
REMARK  status: ('A' for Active; 'I' for Inactive)
REMARK    1  A    between atoms: C3_3  and  C7_7 
REMARK    2  A    between atoms: C8_8  and  C10_10 
ROOT
HETATM    1  C1  UNL     1     -34.994  14.907  -7.269  1.00 20.00     0.021 C 
HETATM    2  C2  UNL     1     -34.730  14.416  -6.206  1.00 20.00    -0.039 C 
HETATM    3  C3  UNL     1     -34.411  13.825  -4.929  1.00 20.00     0.205 C 
HETATM    4  O11 UNL     1     -34.818  12.703  -4.659  1.00 20.00    -0.283 OA
ENDROOT
BRANCH   3   5
HETATM    5  C7  UNL     1     -33.570  14.668  -3.988  1.00 20.00     0.069 C 
HETATM    6  C4  UNL     1     -33.211  15.985  -4.675  1.00 20.00     0.013 C 
HETATM    7  C5  UNL     1     -33.754  17.087  -3.769  1.00 20.00     0.005 C 
HETATM    8  C8  UNL     1     -34.939  16.433  -3.067  1.00 20.00    -0.014 C 
HETATM    9  C6  UNL     1     -34.412  15.029  -2.767  1.00 20.00     0.017 C 
BRANCH   8  10
HETATM   10  C10 UNL     1     -35.385  17.183  -1.824  1.00 20.00     0.000 C 
HETATM   11  C9  UNL     1     -34.598  16.785  -0.616  1.00 20.00     0.005 C 
ENDBRANCH   8  10
ENDBRANCH   3   5
TORSDOF 2
ENDMDL
MODEL 2
REMARK VINA RESULT:      -4.8      1.307      1.622
REMARK  2 active torsions:
REMARK  status: ('A' for Active; 'I' for Inactive)
REMARK    1  A    between atoms: C3_3  and  C7_7 
REMARK    2  A    between atoms: C8_8  and  C10_10 
ROOT
HETATM    1  C1  UNL     1     -37.337  14.696  -3.958  1.00 20.00     0.021 C 
HETATM    2  C2  UNL     1     -36.252  14.256  -4.217  1.00 20.00    -0.039 C 
HETATM    3  C3  UNL     1     -34.946  13.726  -4.530  1.00 20.00     0.205 C 
HETATM    4  O11 UNL     1     -34.826  12.549  -4.844  1.00 20.00    -0.283 OA
ENDROOT
BRANCH   3   5
HETATM    5  C7  UNL     1     -33.785  14.700  -4.442  1.00 20.00     0.069 C 
HETATM    6  C4  UNL     1     -34.170  16.006  -5.134  1.00 20.00     0.013 C 
HETATM    7  C5  UNL     1     -34.024  17.096  -4.075  1.00 20.00     0.005 C 
HETATM    8  C8  UNL     1     -34.274  16.365  -2.761  1.00 20.00    -0.014 C 
HETATM    9  C6  UNL     1     -33.541  15.040  -2.974  1.00 20.00     0.017 C 
BRANCH   8  10
HETATM   10  C10 UNL     1     -33.782  17.133  -1.547  1.00 20.00     0.000 C 
HETATM   11  C9  UNL     1     -34.688  16.960  -0.368  1.00 20.00     0.005 C 
ENDBRANCH   8  10
ENDBRANCH   3   5
TORSDOF 2
ENDMDL
MODEL 3
REMARK VINA RESULT:      -4.8      1.458      4.661
REMARK  2 active torsions:
REMARK  status: ('A' for Active; 'I' for Inactive)
REMARK    1  A    between atoms: C3_3  and  C7_7 
REMARK    2  A    between atoms: C8_8  and  C10_10 
ROOT
HETATM    1  C1  UNL     1     -34.420  17.133  -0.352  1.00 20.00     0.021 C 
HETATM    2  C2  UNL     1     -34.746  16.572  -1.361  1.00 20.00    -0.039 C 
HETATM    3  C3  UNL     1     -35.139  15.899  -2.576  1.00 20.00     0.205 C 
HETATM    4  O11 UNL     1     -36.305  15.945  -2.948  1.00 20.00    -0.283 OA
ENDROOT
BRANCH   3   5
HETATM    5  C7  UNL     1     -34.043  15.161  -3.322  1.00 20.00     0.069 C 
HETATM    6  C4  UNL     1     -34.423  13.686  -3.447  1.00 20.00     0.013 C 
HETATM    7  C5  UNL     1     -34.435  13.386  -4.943  1.00 20.00     0.005 C 
HETATM    8  C8  UNL     1     -34.777  14.727  -5.582  1.00 20.00    -0.014 C 
HETATM    9  C6  UNL     1     -33.960  15.711  -4.744  1.00 20.00     0.017 C 
BRANCH   8  10
HETATM   10  C10 UNL     1     -34.444  14.785  -7.063  1.00 20.00     0.000 C 
HETATM   11  C9  UNL     1     -35.665  14.644  -7.918  1.00 20.00     0.005 C 
ENDBRANCH   8  10
ENDBRANCH   3   5
TORSDOF 2
ENDMDL
MODEL 4
REMARK VINA RESULT:      -4.6      2.543      4.717
REMARK  2 active torsions:
REMARK  status: ('A' for Active; 'I' for Inactive)
REMARK    1  A    between atoms: C3_3  and  C7_7 
REMARK    2  A    between atoms: C8_8  and  C10_10 
ROOT
HETATM    1  C1  UNL     1     -34.812  17.369   0.401  1.00 20.00     0.021 C 
HETATM    2  C2  UNL     1     -34.426  17.698  -0.686  1.00 20.00    -0.039 C 
HETATM    3  C3  UNL     1     -33.961  18.094  -1.994  1.00 20.00     0.205 C 
HETATM    4  O11 UNL     1     -33.131  18.988  -2.100  1.00 20.00    -0.283 OA
ENDROOT
BRANCH   3   5
HETATM    5  C7  UNL     1     -34.555  17.347  -3.174  1.00 20.00     0.069 C 
HETATM    6  C4  UNL     1     -33.643  17.517  -4.388  1.00 20.00     0.013 C 
HETATM    7  C5  UNL     1     -33.251  16.105  -4.815  1.00 20.00     0.005 C 
HETATM    8  C8  UNL     1     -33.318  15.301  -3.521  1.00 20.00    -0.014 C 
HETATM    9  C6  UNL     1     -34.576  15.856  -2.851  1.00 20.00     0.017 C 
BRANCH   8  10
HETATM   10  C10 UNL     1     -33.376  13.801  -3.752  1.00 20.00     0.000 C 
HETATM   11  C9  UNL     1     -34.723  13.358  -4.228  1.00 20.00     0.005 C 
ENDBRANCH   8  10
ENDBRANCH   3   5
TORSDOF 2
ENDMDL
MODEL 5
REMARK VINA RESULT:      -4.6     11.359     12.509
REMARK  2 active torsions:
REMARK  status: ('A' for Active; 'I' for Inactive)
REMARK    1  A    between atoms: C3_3  and  C7_7 
REMARK    2  A    between atoms: C8_8  and  C10_10 
ROOT
HETATM    1  C1  UNL     1     -31.908   8.851   1.427  1.00 20.00     0.021 C 
HETATM    2  C2  UNL     1     -32.175   7.942   2.162  1.00 20.00    -0.039 C 
HETATM    3  C3  UNL     1     -32.496   6.847   3.048  1.00 20.00     0.205 C 
HETATM    4  O11 UNL     1     -31.707   5.921   3.182  1.00 20.00    -0.283 OA
ENDROOT
BRANCH   3   5
HETATM    5  C7  UNL     1     -33.830   6.932   3.766  1.00 20.00     0.069 C 
HETATM    6  C4  UNL     1     -34.912   6.295   2.896  1.00 20.00     0.013 C 
HETATM    7  C5  UNL     1     -35.521   5.178   3.739  1.00 20.00     0.005 C 
HETATM    8  C8  UNL     1     -34.384   4.759   4.664  1.00 20.00    -0.014 C 
HETATM    9  C6  UNL     1     -33.753   6.099   5.043  1.00 20.00     0.017 C 
BRANCH   8  10
HETATM   10  C10 UNL     1     -34.856   3.959   5.867  1.00 20.00     0.000 C 
HETATM   11  C9  UNL     1     -35.381   4.840   6.956  1.00 20.00     0.005 C 
ENDBRANCH   8  10
ENDBRANCH   3   5
TORSDOF 2
ENDMDL
MODEL 6
REMARK VINA RESULT:      -4.5      1.816      2.485
REMARK  2 active torsions:
REMARK  status: ('A' for Active; 'I' for Inactive)
REMARK    1  A    between atoms: C3_3  and  C7_7 
REMARK    2  A    between atoms: C8_8  and  C10_10 
ROOT
HETATM    1  C1  UNL     1     -35.167  13.295  -4.251  1.00 20.00     0.021 C 
HETATM    2  C2  UNL     1     -34.317  14.095  -3.972  1.00 20.00    -0.039 C 
HETATM    3  C3  UNL     1     -33.294  15.057  -3.637  1.00 20.00     0.205 C 
HETATM    4  O11 UNL     1     -32.123  14.706  -3.582  1.00 20.00    -0.283 OA
ENDROOT
BRANCH   3   5
HETATM    5  C7  UNL     1     -33.765  16.475  -3.371  1.00 20.00     0.069 C 
HETATM    6  C4  UNL     1     -35.285  16.536  -3.510  1.00 20.00     0.013 C 
HETATM    7  C5  UNL     1     -35.805  17.045  -2.168  1.00 20.00     0.005 C 
HETATM    8  C8  UNL     1     -34.752  16.581  -1.169  1.00 20.00    -0.014 C 
HETATM    9  C6  UNL     1     -33.445  16.834  -1.922  1.00 20.00     0.017 C 
BRANCH   8  10
HETATM   10  C10 UNL     1     -34.826  17.312   0.161  1.00 20.00     0.000 C 
HETATM   11  C9  UNL     1     -36.091  18.101   0.297  1.00 20.00     0.005 C 
ENDBRANCH   8  10
ENDBRANCH   3   5
TORSDOF 2
ENDMDL
MODEL 7
REMARK VINA RESULT:      -4.5      2.124      2.444
REMARK  2 active torsions:
REMARK  status: ('A' for Active; 'I' for Inactive)
REMARK    1  A    between atoms: C3_3  and  C7_7 
REMARK    2  A    between atoms: C8_8  and  C10_10 
ROOT
HETATM    1  C1  UNL     1     -38.817  14.856  -3.859  1.00 20.00     0.021 C 
HETATM    2  C2  UNL     1     -37.700  14.759  -4.285  1.00 20.00    -0.039 C 
HETATM    3  C3  UNL     1     -36.355  14.643  -4.798  1.00 20.00     0.205 C 
HETATM    4  O11 UNL     1     -36.132  14.874  -5.979  1.00 20.00    -0.283 OA
ENDROOT
BRANCH   3   5
HETATM    5  C7  UNL     1     -35.288  14.229  -3.801  1.00 20.00     0.069 C 
HETATM    6  C4  UNL     1     -33.912  14.366  -4.451  1.00 20.00     0.013 C 
HETATM    7  C5  UNL     1     -33.127  15.328  -3.563  1.00 20.00     0.005 C 
HETATM    8  C8  UNL     1     -34.204  16.206  -2.936  1.00 20.00    -0.014 C 
HETATM    9  C6  UNL     1     -35.312  15.201  -2.624  1.00 20.00     0.017 C 
BRANCH   8  10
HETATM   10  C10 UNL     1     -33.719  16.961  -1.710  1.00 20.00     0.000 C 
HETATM   11  C9  UNL     1     -34.670  16.836  -0.562  1.00 20.00     0.005 C 
ENDBRANCH   8  10
ENDBRANCH   3   5
TORSDOF 2
ENDMDL
MODEL 8
REMARK VINA RESULT:      -4.5      1.728      4.626
REMARK  2 active torsions:
REMARK  status: ('A' for Active; 'I' for Inactive)
REMARK    1  A    between atoms: C3_3  and  C7_7 
REMARK    2  A    between atoms: C8_8  and  C10_10 
ROOT
HETATM    1  C1  UNL     1     -34.764  16.872  -0.676  1.00 20.00     0.021 C 
HETATM    2  C2  UNL     1     -34.464  16.294  -1.683  1.00 20.00    -0.039 C 
HETATM    3  C3  UNL     1     -34.102  15.597  -2.894  1.00 20.00     0.205 C 
HETATM    4  O11 UNL     1     -33.022  15.822  -3.426  1.00 20.00    -0.283 OA
ENDROOT
BRANCH   3   5
HETATM    5  C7  UNL     1     -35.119  14.609  -3.433  1.00 20.00     0.069 C 
HETATM    6  C4  UNL     1     -36.460  15.318  -3.621  1.00 20.00     0.013 C 
HETATM    7  C5  UNL     1     -36.816  15.148  -5.096  1.00 20.00     0.005 C 
HETATM    8  C8  UNL     1     -35.462  15.028  -5.787  1.00 20.00    -0.014 C 
HETATM    9  C6  UNL     1     -34.672  14.149  -4.818  1.00 20.00     0.017 C 
BRANCH   8  10
HETATM   10  C10 UNL     1     -35.555  14.443  -7.186  1.00 20.00     0.000 C 
HETATM   11  C9  UNL     1     -36.781  14.908  -7.908  1.00 20.00     0.005 C 
ENDBRANCH   8  10
ENDBRANCH   3   5
TORSDOF 2
ENDMDL
MODEL 9
REMARK VINA RESULT:      -4.4      1.056      1.088
REMARK  2 active torsions:
REMARK  status: ('A' for Active; 'I' for Inactive)
REMARK    1  A    between atoms: C3_3  and  C7_7 
REMARK    2  A    between atoms: C8_8  and  C10_10 
ROOT
HETATM    1  C1  UNL     1     -34.368  15.260  -6.896  1.00 20.00     0.021 C 
HETATM    2  C2  UNL     1     -34.457  14.557  -5.928  1.00 20.00    -0.039 C 
HETATM    3  C3  UNL     1     -34.563  13.710  -4.763  1.00 20.00     0.205 C 
HETATM    4  O11 UNL     1     -34.825  12.522  -4.897  1.00 20.00    -0.283 OA
ENDROOT
BRANCH   3   5
HETATM    5  C7  UNL     1     -34.336  14.380  -3.421  1.00 20.00     0.069 C 
HETATM    6  C4  UNL     1     -33.175  15.366  -3.540  1.00 20.00     0.013 C 
HETATM    7  C5  UNL     1     -33.740  16.725  -3.136  1.00 20.00     0.005 C 
HETATM    8  C8  UNL     1     -35.218  16.628  -3.498  1.00 20.00    -0.014 C 
HETATM    9  C6  UNL     1     -35.572  15.204  -3.068  1.00 20.00     0.017 C 
BRANCH   8  10
HETATM   10  C10 UNL     1     -36.071  17.686  -2.820  1.00 20.00     0.000 C 
HETATM   11  C9  UNL     1     -35.260  18.572  -1.928  1.00 20.00     0.005 C 
ENDBRANCH   8  10
ENDBRANCH   3   5
TORSDOF 2
ENDMDL
