MODEL 1
REMARK VINA RESULT:      -5.0      0.000      0.000
REMARK  2 active torsions:
REMARK  status: ('A' for Active; 'I' for Inactive)
REMARK    1  A    between atoms: C2_2  and  C3_3 
REMARK    2  A    between atoms: C3_3  and  C8_8 
ROOT
HETATM    1  C4  UNL     1     -34.472   5.963   6.382  1.00 20.00     0.027 C 
HETATM    2  C5  UNL     1     -33.333   6.391   5.464  1.00 20.00     0.017 C 
HETATM    3  C6  UNL     1     -35.162   4.717   5.840  1.00 20.00     0.167 C 
HETATM    4  C7  UNL     1     -34.547   5.215   3.607  1.00 20.00     0.180 C 
HETATM    5  C8  UNL     1     -33.816   6.489   4.018  1.00 20.00     0.083 C 
HETATM    6  O10 UNL     1     -35.620   4.934   4.505  1.00 20.00    -0.390 OA
ENDROOT
BRANCH   5   7
HETATM    7  C3  UNL     1     -32.654   6.739   3.111  1.00 20.00     0.154 C 
HETATM    8  O9  UNL     1     -31.933   5.819   2.733  1.00 20.00    -0.293 OA
BRANCH   7   9
HETATM    9  C2  UNL     1     -32.439   8.144   2.672  1.00 20.00     0.040 C 
HETATM   10  C1  UNL     1     -31.919   8.412   1.471  1.00 20.00     0.015 C 
ENDBRANCH   7   9
ENDBRANCH   5   7
TORSDOF 2
ENDMDL
MODEL 2
REMARK VINA RESULT:      -4.4     11.104     12.054
REMARK  2 active torsions:
REMARK  status: ('A' for Active; 'I' for Inactive)
REMARK    1  A    between atoms: C2_2  and  C3_3 
REMARK    2  A    between atoms: C3_3  and  C8_8 
ROOT
HETATM    1  C4  UNL     1     -33.744  13.480  -3.985  1.00 20.00     0.027 C 
HETATM    2  C5  UNL     1     -33.259  14.860  -3.553  1.00 20.00     0.017 C 
HETATM    3  C6  UNL     1     -35.119  13.571  -4.636  1.00 20.00     0.167 C 
HETATM    4  C7  UNL     1     -35.674  15.540  -3.442  1.00 20.00     0.180 C 
HETATM    5  C8  UNL     1     -34.329  15.568  -2.724  1.00 20.00     0.083 C 
HETATM    6  O10 UNL     1     -36.052  14.199  -3.757  1.00 20.00    -0.390 OA
ENDROOT
BRANCH   5   7
HETATM    7  C3  UNL     1     -33.910  16.979  -2.457  1.00 20.00     0.154 C 
HETATM    8  O9  UNL     1     -33.685  17.761  -3.378  1.00 20.00    -0.293 OA
BRANCH   7   9
HETATM    9  C2  UNL     1     -33.813  17.389  -1.030  1.00 20.00     0.040 C 
HETATM   10  C1  UNL     1     -34.778  17.075  -0.162  1.00 20.00     0.015 C 
ENDBRANCH   7   9
ENDBRANCH   5   7
TORSDOF 2
ENDMDL
MODEL 3
REMARK VINA RESULT:      -4.4     10.995     12.436
REMARK  2 active torsions:
REMARK  status: ('A' for Active; 'I' for Inactive)
REMARK    1  A    between atoms: C2_2  and  C3_3 
REMARK    2  A    between atoms: C3_3  and  C8_8 
ROOT
HETATM    1  C4  UNL     1     -34.425  14.754  -6.119  1.00 20.00     0.027 C 
HETATM    2  C5  UNL     1     -34.498  15.903  -5.119  1.00 20.00     0.017 C 
HETATM    3  C6  UNL     1     -34.826  13.440  -5.460  1.00 20.00     0.167 C 
HETATM    4  C7  UNL     1     -34.170  14.191  -3.312  1.00 20.00     0.180 C 
HETATM    5  C8  UNL     1     -33.735  15.553  -3.843  1.00 20.00     0.083 C 
HETATM    6  O10 UNL     1     -34.017  13.184  -4.312  1.00 20.00    -0.390 OA
ENDROOT
BRANCH   5   7
HETATM    7  C3  UNL     1     -33.960  16.611  -2.811  1.00 20.00     0.154 C 
HETATM    8  O9  UNL     1     -33.582  17.766  -2.991  1.00 20.00    -0.293 OA
BRANCH   7   9
HETATM    9  C2  UNL     1     -34.688  16.200  -1.580  1.00 20.00     0.040 C 
HETATM   10  C1  UNL     1     -34.623  16.938  -0.469  1.00 20.00     0.015 C 
ENDBRANCH   7   9
ENDBRANCH   5   7
TORSDOF 2
ENDMDL
MODEL 4
REMARK VINA RESULT:      -4.3     11.501     12.214
REMARK  2 active torsions:
REMARK  status: ('A' for Active; 'I' for Inactive)
REMARK    1  A    between atoms: C2_2  and  C3_3 
REMARK    2  A    between atoms: C3_3  and  C8_8 
ROOT
HETATM    1  C4  UNL     1     -33.573  16.300  -2.515  1.00 20.00     0.027 C 
HETATM    2  C5  UNL     1     -33.577  15.122  -3.484  1.00 20.00     0.017 C 
HETATM    3  C6  UNL     1     -34.846  16.315  -1.679  1.00 20.00     0.167 C 
HETATM    4  C7  UNL     1     -36.084  15.173  -3.345  1.00 20.00     0.180 C 
HETATM    5  C8  UNL     1     -34.881  15.086  -4.279  1.00 20.00     0.083 C 
HETATM    6  O10 UNL     1     -36.001  16.334  -2.518  1.00 20.00    -0.390 OA
ENDROOT
BRANCH   5   7
HETATM    7  C3  UNL     1     -34.943  13.834  -5.093  1.00 20.00     0.154 C 
HETATM    8  O9  UNL     1     -34.943  12.727  -4.559  1.00 20.00    -0.293 OA
BRANCH   7   9
HETATM    9  C2  UNL     1     -35.035  14.000  -6.568  1.00 20.00     0.040 C 
HETATM   10  C1  UNL     1     -34.456  15.038  -7.177  1.00 20.00     0.015 C 
ENDBRANCH   7   9
ENDBRANCH   5   7
TORSDOF 2
ENDMDL
MODEL 5
REMARK VINA RESULT:      -4.2     11.067     12.331
REMARK  2 active torsions:
REMARK  status: ('A' for Active; 'I' for Inactive)
REMARK    1  A    between atoms: C2_2  and  C3_3 
REMARK    2  A    between atoms: C3_3  and  C8_8 
ROOT
HETATM    1  C4  UNL     1     -33.631  15.651  -3.073  1.00 20.00     0.027 C 
HETATM    2  C5  UNL     1     -35.047  15.875  -3.591  1.00 20.00     0.017 C 
HETATM    3  C6  UNL     1     -32.989  14.452  -3.761  1.00 20.00     0.167 C 
HETATM    4  C7  UNL     1     -35.085  13.436  -4.189  1.00 20.00     0.180 C 
HETATM    5  C8  UNL     1     -35.852  14.578  -3.530  1.00 20.00     0.083 C 
HETATM    6  O10 UNL     1     -33.794  13.286  -3.597  1.00 20.00    -0.390 OA
ENDROOT
BRANCH   5   7
HETATM    7  C3  UNL     1     -37.175  14.771  -4.199  1.00 20.00     0.154 C 
HETATM    8  O9  UNL     1     -38.176  14.170  -3.816  1.00 20.00    -0.293 OA
BRANCH   7   9
HETATM    9  C2  UNL     1     -37.220  15.743  -5.324  1.00 20.00     0.040 C 
HETATM   10  C1  UNL     1     -37.277  15.322  -6.590  1.00 20.00     0.015 C 
ENDBRANCH   7   9
ENDBRANCH   5   7
TORSDOF 2
ENDMDL
MODEL 6
REMARK VINA RESULT:      -4.2     11.239     12.550
REMARK  2 active torsions:
REMARK  status: ('A' for Active; 'I' for Inactive)
REMARK    1  A    between atoms: C2_2  and  C3_3 
REMARK    2  A    between atoms: C3_3  and  C8_8 
ROOT
HETATM    1  C4  UNL     1     -33.799  17.771  -0.541  1.00 20.00     0.027 C 
HETATM    2  C5  UNL     1     -34.524  16.544  -1.082  1.00 20.00     0.017 C 
HETATM    3  C6  UNL     1     -33.917  18.939  -1.513  1.00 20.00     0.167 C 
HETATM    4  C7  UNL     1     -34.181  17.502  -3.378  1.00 20.00     0.180 C 
HETATM    5  C8  UNL     1     -34.083  16.248  -2.514  1.00 20.00     0.083 C 
HETATM    6  O10 UNL     1     -33.430  18.572  -2.804  1.00 20.00    -0.390 OA
ENDROOT
BRANCH   5   7
HETATM    7  C3  UNL     1     -34.925  15.154  -3.088  1.00 20.00     0.154 C 
HETATM    8  O9  UNL     1     -36.146  15.267  -3.169  1.00 20.00    -0.293 OA
BRANCH   7   9
HETATM    9  C2  UNL     1     -34.209  13.946  -3.579  1.00 20.00     0.040 C 
HETATM   10  C1  UNL     1     -34.698  13.227  -4.592  1.00 20.00     0.015 C 
ENDBRANCH   7   9
ENDBRANCH   5   7
TORSDOF 2
ENDMDL
MODEL 7
REMARK VINA RESULT:      -4.2     11.286     12.188
REMARK  2 active torsions:
REMARK  status: ('A' for Active; 'I' for Inactive)
REMARK    1  A    between atoms: C2_2  and  C3_3 
REMARK    2  A    between atoms: C3_3  and  C8_8 
ROOT
HETATM    1  C4  UNL     1     -35.239  16.252  -1.976  1.00 20.00     0.027 C 
HETATM    2  C5  UNL     1     -35.689  15.338  -3.110  1.00 20.00     0.017 C 
HETATM    3  C6  UNL     1     -33.954  16.980  -2.348  1.00 20.00     0.167 C 
HETATM    4  C7  UNL     1     -33.290  15.270  -3.846  1.00 20.00     0.180 C 
HETATM    5  C8  UNL     1     -34.539  14.442  -3.566  1.00 20.00     0.083 C 
HETATM    6  O10 UNL     1     -32.932  16.050  -2.705  1.00 20.00    -0.390 OA
ENDROOT
BRANCH   5   7
HETATM    7  C3  UNL     1     -34.944  13.680  -4.787  1.00 20.00     0.154 C 
HETATM    8  O9  UNL     1     -34.803  12.461  -4.852  1.00 20.00    -0.293 OA
BRANCH   7   9
HETATM    9  C2  UNL     1     -35.550  14.466  -5.895  1.00 20.00     0.040 C 
HETATM   10  C1  UNL     1     -34.898  14.634  -7.049  1.00 20.00     0.015 C 
ENDBRANCH   7   9
ENDBRANCH   5   7
TORSDOF 2
ENDMDL
MODEL 8
REMARK VINA RESULT:      -4.1      1.363      1.949
REMARK  2 active torsions:
REMARK  status: ('A' for Active; 'I' for Inactive)
REMARK    1  A    between atoms: C2_2  and  C3_3 
REMARK    2  A    between atoms: C3_3  and  C8_8 
ROOT
HETATM    1  C4  UNL     1     -34.800   4.823   3.551  1.00 20.00     0.027 C 
HETATM    2  C5  UNL     1     -33.853   5.857   2.952  1.00 20.00     0.017 C 
HETATM    3  C6  UNL     1     -35.303   5.280   4.915  1.00 20.00     0.167 C 
HETATM    4  C7  UNL     1     -33.381   6.608   5.301  1.00 20.00     0.180 C 
HETATM    5  C8  UNL     1     -32.766   6.234   3.957  1.00 20.00     0.083 C 
HETATM    6  O10 UNL     1     -34.210   5.554   5.790  1.00 20.00    -0.390 OA
ENDROOT
BRANCH   5   7
HETATM    7  C3  UNL     1     -31.953   7.369   3.421  1.00 20.00     0.154 C 
HETATM    8  O9  UNL     1     -31.082   7.905   4.102  1.00 20.00    -0.293 OA
BRANCH   7   9
HETATM    9  C2  UNL     1     -32.232   7.789   2.022  1.00 20.00     0.040 C 
HETATM   10  C1  UNL     1     -32.240   9.082   1.685  1.00 20.00     0.015 C 
ENDBRANCH   7   9
ENDBRANCH   5   7
TORSDOF 2
ENDMDL
MODEL 9
REMARK VINA RESULT:      -4.1      9.349     10.831
REMARK  2 active torsions:
REMARK  status: ('A' for Active; 'I' for Inactive)
REMARK    1  A    between atoms: C2_2  and  C3_3 
REMARK    2  A    between atoms: C3_3  and  C8_8 
ROOT
HETATM    1  C4  UNL     1     -40.672   5.999  -0.097  1.00 20.00     0.027 C 
HETATM    2  C5  UNL     1     -41.496   4.741  -0.344  1.00 20.00     0.017 C 
HETATM    3  C6  UNL     1     -41.224   7.172  -0.898  1.00 20.00     0.167 C 
HETATM    4  C7  UNL     1     -42.153   5.749  -2.548  1.00 20.00     0.180 C 
HETATM    5  C8  UNL     1     -41.658   4.491  -1.843  1.00 20.00     0.083 C 
HETATM    6  O10 UNL     1     -41.283   6.852  -2.287  1.00 20.00    -0.390 OA
ENDROOT
BRANCH   5   7
HETATM    7  C3  UNL     1     -42.609   3.359  -2.067  1.00 20.00     0.154 C 
HETATM    8  O9  UNL     1     -43.417   3.026  -1.203  1.00 20.00    -0.293 OA
BRANCH   7   9
HETATM    9  C2  UNL     1     -42.546   2.686  -3.392  1.00 20.00     0.040 C 
HETATM   10  C1  UNL     1     -41.546   1.853  -3.688  1.00 20.00     0.015 C 
ENDBRANCH   7   9
ENDBRANCH   5   7
TORSDOF 2
ENDMDL
