MODEL 1
REMARK VINA RESULT:      -4.5      0.000      0.000
REMARK  5 active torsions:
REMARK  status: ('A' for Active; 'I' for Inactive)
REMARK    1  A    between atoms: C3_3  and  C5_5 
REMARK    2  A    between atoms: C5_5  and  C6_6 
REMARK    3  A    between atoms: C6_6  and  N9_9 
REMARK    4  A    between atoms: C7_7  and  C8_8 
REMARK    5  A    between atoms: C7_7  and  N9_9 
ROOT
HETATM    1  C6  UNL     1     -33.909   6.811   3.765  1.00 20.00     0.272 C 
ENDROOT
BRANCH   1   2
HETATM    2  C5  UNL     1     -34.659   5.493   3.610  1.00 20.00     0.034 C 
BRANCH   2   3
HETATM    3  C3  UNL     1     -35.320   5.039   4.904  1.00 20.00    -0.013 A 
HETATM    4  C1  UNL     1     -34.720   3.920   5.710  1.00 20.00     0.005 A 
HETATM    5  C2  UNL     1     -34.672   5.330   6.228  1.00 20.00     0.005 A 
ENDBRANCH   2   3
ENDBRANCH   1   2
BRANCH   1   6
HETATM    6  N9  UNL     1     -32.484   6.633   3.768  1.00 20.00     0.085 N 
HETATM    7  C4  UNL     1     -32.082   5.497   2.924  1.00 20.00     0.309 C 
BRANCH   6   8
HETATM    8  C7  UNL     1     -31.790   7.850   3.314  1.00 20.00     0.286 C 
BRANCH   8   9
HETATM    9  C8  UNL     1     -32.055   8.160   1.850  1.00 20.00     0.144 C 
HETATM   10 CL10 UNL     1     -32.535   9.860   1.623  1.00 20.00    -0.129 Cl
ENDBRANCH   8   9
ENDBRANCH   6   8
ENDBRANCH   1   6
TORSDOF 5
ENDMDL
MODEL 2
REMARK VINA RESULT:      -4.2      2.671      5.122
REMARK  5 active torsions:
REMARK  status: ('A' for Active; 'I' for Inactive)
REMARK    1  A    between atoms: C3_3  and  C5_5 
REMARK    2  A    between atoms: C5_5  and  C6_6 
REMARK    3  A    between atoms: C6_6  and  N9_9 
REMARK    4  A    between atoms: C7_7  and  C8_8 
REMARK    5  A    between atoms: C7_7  and  N9_9 
ROOT
HETATM    1  C6  UNL     1     -32.449   6.242   3.421  1.00 20.00     0.272 C 
ENDROOT
BRANCH   1   2
HETATM    2  C5  UNL     1     -31.791   7.555   3.014  1.00 20.00     0.034 C 
BRANCH   2   3
HETATM    3  C3  UNL     1     -32.499   8.232   1.850  1.00 20.00    -0.013 A 
HETATM    4  C1  UNL     1     -32.427   9.725   1.682  1.00 20.00     0.005 A 
HETATM    5  C2  UNL     1     -31.703   8.824   0.721  1.00 20.00     0.005 A 
ENDBRANCH   2   3
ENDBRANCH   1   2
BRANCH   1   6
HETATM    6  N9  UNL     1     -33.786   6.428   3.910  1.00 20.00     0.085 N 
HETATM    7  C4  UNL     1     -34.721   5.473   3.298  1.00 20.00     0.309 C 
BRANCH   6   8
HETATM    8  C7  UNL     1     -33.843   6.299   5.376  1.00 20.00     0.286 C 
BRANCH   8   9
HETATM    9  C8  UNL     1     -34.927   5.338   5.835  1.00 20.00     0.144 C 
HETATM   10 CL10 UNL     1     -34.270   3.710   6.129  1.00 20.00    -0.129 Cl
ENDBRANCH   8   9
ENDBRANCH   6   8
ENDBRANCH   1   6
TORSDOF 5
ENDMDL
MODEL 3
REMARK VINA RESULT:      -4.0      2.640      5.103
REMARK  5 active torsions:
REMARK  status: ('A' for Active; 'I' for Inactive)
REMARK    1  A    between atoms: C3_3  and  C5_5 
REMARK    2  A    between atoms: C5_5  and  C6_6 
REMARK    3  A    between atoms: C6_6  and  N9_9 
REMARK    4  A    between atoms: C7_7  and  C8_8 
REMARK    5  A    between atoms: C7_7  and  N9_9 
ROOT
HETATM    1  C6  UNL     1     -32.201   6.135   3.126  1.00 20.00     0.272 C 
ENDROOT
BRANCH   1   2
HETATM    2  C5  UNL     1     -31.936   7.635   3.064  1.00 20.00     0.034 C 
BRANCH   2   3
HETATM    3  C3  UNL     1     -32.542   8.288   1.830  1.00 20.00    -0.013 A 
HETATM    4  C1  UNL     1     -32.424   9.772   1.622  1.00 20.00     0.005 A 
HETATM    5  C2  UNL     1     -31.652   8.827   0.745  1.00 20.00     0.005 A 
ENDBRANCH   2   3
ENDBRANCH   1   2
BRANCH   1   6
HETATM    6  N9  UNL     1     -33.206   5.797   4.095  1.00 20.00     0.085 N 
HETATM    7  C4  UNL     1     -33.407   6.885   5.063  1.00 20.00     0.309 C 
BRANCH   6   8
HETATM    8  C7  UNL     1     -34.488   5.473   3.448  1.00 20.00     0.286 C 
BRANCH   8   9
HETATM    9  C8  UNL     1     -35.546   5.025   4.442  1.00 20.00     0.144 C 
HETATM   10 CL10 UNL     1     -34.896   3.822   5.583  1.00 20.00    -0.129 Cl
ENDBRANCH   8   9
ENDBRANCH   6   8
ENDBRANCH   1   6
TORSDOF 5
ENDMDL
MODEL 4
REMARK VINA RESULT:      -4.0      1.097      1.595
REMARK  5 active torsions:
REMARK  status: ('A' for Active; 'I' for Inactive)
REMARK    1  A    between atoms: C3_3  and  C5_5 
REMARK    2  A    between atoms: C5_5  and  C6_6 
REMARK    3  A    between atoms: C6_6  and  N9_9 
REMARK    4  A    between atoms: C7_7  and  C8_8 
REMARK    5  A    between atoms: C7_7  and  N9_9 
ROOT
HETATM    1  C6  UNL     1     -32.880   6.191   3.104  1.00 20.00     0.272 C 
ENDROOT
BRANCH   1   2
HETATM    2  C5  UNL     1     -34.164   6.026   3.908  1.00 20.00     0.034 C 
BRANCH   2   3
HETATM    3  C3  UNL     1     -33.963   5.206   5.175  1.00 20.00    -0.013 A 
HETATM    4  C1  UNL     1     -34.698   5.567   6.436  1.00 20.00     0.005 A 
HETATM    5  C2  UNL     1     -35.064   4.318   5.683  1.00 20.00     0.005 A 
ENDBRANCH   2   3
ENDBRANCH   1   2
BRANCH   1   6
HETATM    6  N9  UNL     1     -32.377   7.535   3.145  1.00 20.00     0.085 N 
HETATM    7  C4  UNL     1     -31.343   7.691   4.180  1.00 20.00     0.309 C 
BRANCH   6   8
HETATM    8  C7  UNL     1     -31.830   7.944   1.840  1.00 20.00     0.286 C 
BRANCH   8   9
HETATM    9  C8  UNL     1     -32.381   9.281   1.371  1.00 20.00     0.144 C 
HETATM   10 CL10 UNL     1     -32.897   9.208  -0.332  1.00 20.00    -0.129 Cl
ENDBRANCH   8   9
ENDBRANCH   6   8
ENDBRANCH   1   6
TORSDOF 5
ENDMDL
MODEL 5
REMARK VINA RESULT:      -3.8     11.291     12.232
REMARK  5 active torsions:
REMARK  status: ('A' for Active; 'I' for Inactive)
REMARK    1  A    between atoms: C3_3  and  C5_5 
REMARK    2  A    between atoms: C5_5  and  C6_6 
REMARK    3  A    between atoms: C6_6  and  N9_9 
REMARK    4  A    between atoms: C7_7  and  C8_8 
REMARK    5  A    between atoms: C7_7  and  N9_9 
ROOT
HETATM    1  C6  UNL     1     -36.125  15.155  -3.421  1.00 20.00     0.272 C 
ENDROOT
BRANCH   1   2
HETATM    2  C5  UNL     1     -35.759  16.438  -2.683  1.00 20.00     0.034 C 
BRANCH   2   3
HETATM    3  C3  UNL     1     -34.662  16.228  -1.648  1.00 20.00    -0.013 A 
HETATM    4  C1  UNL     1     -33.684  17.330  -1.346  1.00 20.00     0.005 A 
HETATM    5  C2  UNL     1     -34.721  16.945  -0.328  1.00 20.00     0.005 A 
ENDBRANCH   2   3
ENDBRANCH   1   2
BRANCH   1   6
HETATM    6  N9  UNL     1     -35.108  14.751  -4.352  1.00 20.00     0.085 N 
HETATM    7  C4  UNL     1     -34.943  13.289  -4.367  1.00 20.00     0.309 C 
BRANCH   6   8
HETATM    8  C7  UNL     1     -35.410  15.224  -5.713  1.00 20.00     0.286 C 
BRANCH   8   9
HETATM    9  C8  UNL     1     -34.259  16.004  -6.327  1.00 20.00     0.144 C 
HETATM   10 CL10 UNL     1     -33.077  16.498  -5.090  1.00 20.00    -0.129 Cl
ENDBRANCH   8   9
ENDBRANCH   6   8
ENDBRANCH   1   6
TORSDOF 5
ENDMDL
MODEL 6
REMARK VINA RESULT:      -3.8     11.322     12.563
REMARK  5 active torsions:
REMARK  status: ('A' for Active; 'I' for Inactive)
REMARK    1  A    between atoms: C3_3  and  C5_5 
REMARK    2  A    between atoms: C5_5  and  C6_6 
REMARK    3  A    between atoms: C6_6  and  N9_9 
REMARK    4  A    between atoms: C7_7  and  C8_8 
REMARK    5  A    between atoms: C7_7  and  N9_9 
ROOT
HETATM    1  C6  UNL     1     -33.355  16.127  -4.817  1.00 20.00     0.272 C 
ENDROOT
BRANCH   1   2
HETATM    2  C5  UNL     1     -33.855  17.057  -3.718  1.00 20.00     0.034 C 
BRANCH   2   3
HETATM    3  C3  UNL     1     -33.638  16.488  -2.323  1.00 20.00    -0.013 A 
HETATM    4  C1  UNL     1     -33.713  17.385  -1.118  1.00 20.00     0.005 A 
HETATM    5  C2  UNL     1     -34.792  16.368  -1.367  1.00 20.00     0.005 A 
ENDBRANCH   2   3
ENDBRANCH   1   2
BRANCH   1   6
HETATM    6  N9  UNL     1     -34.426  15.434  -5.477  1.00 20.00     0.085 N 
HETATM    7  C4  UNL     1     -34.423  15.693  -6.924  1.00 20.00     0.309 C 
BRANCH   6   8
HETATM    8  C7  UNL     1     -34.354  13.983  -5.238  1.00 20.00     0.286 C 
BRANCH   8   9
HETATM    9  C8  UNL     1     -35.233  13.539  -4.080  1.00 20.00     0.144 C 
HETATM   10 CL10 UNL     1     -36.682  14.564  -3.935  1.00 20.00    -0.129 Cl
ENDBRANCH   8   9
ENDBRANCH   6   8
ENDBRANCH   1   6
TORSDOF 5
ENDMDL
MODEL 7
REMARK VINA RESULT:      -3.8     11.234     12.187
REMARK  5 active torsions:
REMARK  status: ('A' for Active; 'I' for Inactive)
REMARK    1  A    between atoms: C3_3  and  C5_5 
REMARK    2  A    between atoms: C5_5  and  C6_6 
REMARK    3  A    between atoms: C6_6  and  N9_9 
REMARK    4  A    between atoms: C7_7  and  C8_8 
REMARK    5  A    between atoms: C7_7  and  N9_9 
ROOT
HETATM    1  C6  UNL     1     -36.247  15.265  -3.510  1.00 20.00     0.272 C 
ENDROOT
BRANCH   1   2
HETATM    2  C5  UNL     1     -35.811  16.505  -2.739  1.00 20.00     0.034 C 
BRANCH   2   3
HETATM    3  C3  UNL     1     -34.734  16.206  -1.705  1.00 20.00    -0.013 A 
HETATM    4  C1  UNL     1     -33.679  17.229  -1.390  1.00 20.00     0.005 A 
HETATM    5  C2  UNL     1     -34.743  16.910  -0.377  1.00 20.00     0.005 A 
ENDBRANCH   2   3
ENDBRANCH   1   2
BRANCH   1   6
HETATM    6  N9  UNL     1     -36.064  15.411  -4.928  1.00 20.00     0.085 N 
HETATM    7  C4  UNL     1     -35.413  16.687  -5.258  1.00 20.00     0.309 C 
BRANCH   6   8
HETATM    8  C7  UNL     1     -35.273  14.299  -5.483  1.00 20.00     0.286 C 
BRANCH   8   9
HETATM    9  C8  UNL     1     -34.872  13.285  -4.424  1.00 20.00     0.144 C 
HETATM   10 CL10 UNL     1     -33.240  13.616  -3.793  1.00 20.00    -0.129 Cl
ENDBRANCH   8   9
ENDBRANCH   6   8
ENDBRANCH   1   6
TORSDOF 5
ENDMDL
MODEL 8
REMARK VINA RESULT:      -3.8     11.184     11.935
REMARK  5 active torsions:
REMARK  status: ('A' for Active; 'I' for Inactive)
REMARK    1  A    between atoms: C3_3  and  C5_5 
REMARK    2  A    between atoms: C5_5  and  C6_6 
REMARK    3  A    between atoms: C6_6  and  N9_9 
REMARK    4  A    between atoms: C7_7  and  C8_8 
REMARK    5  A    between atoms: C7_7  and  N9_9 
ROOT
HETATM    1  C6  UNL     1     -33.618  16.312  -2.592  1.00 20.00     0.272 C 
ENDROOT
BRANCH   1   2
HETATM    2  C5  UNL     1     -34.730  16.196  -1.556  1.00 20.00     0.034 C 
BRANCH   2   3
HETATM    3  C3  UNL     1     -34.935  17.481  -0.767  1.00 20.00    -0.013 A 
HETATM    4  C1  UNL     1     -35.043  17.441   0.732  1.00 20.00     0.005 A 
HETATM    5  C2  UNL     1     -33.824  18.033   0.082  1.00 20.00     0.005 A 
ENDBRANCH   2   3
ENDBRANCH   1   2
BRANCH   1   6
HETATM    6  N9  UNL     1     -33.964  15.686  -3.838  1.00 20.00     0.085 N 
HETATM    7  C4  UNL     1     -33.282  16.330  -4.970  1.00 20.00     0.309 C 
BRANCH   6   8
HETATM    8  C7  UNL     1     -33.640  14.249  -3.823  1.00 20.00     0.286 C 
BRANCH   8   9
HETATM    9  C8  UNL     1     -34.801  13.386  -4.290  1.00 20.00     0.144 C 
HETATM   10 CL10 UNL     1     -36.354  14.241  -4.120  1.00 20.00    -0.129 Cl
ENDBRANCH   8   9
ENDBRANCH   6   8
ENDBRANCH   1   6
TORSDOF 5
ENDMDL
MODEL 9
REMARK VINA RESULT:      -3.7      2.216      4.584
REMARK  5 active torsions:
REMARK  status: ('A' for Active; 'I' for Inactive)
REMARK    1  A    between atoms: C3_3  and  C5_5 
REMARK    2  A    between atoms: C5_5  and  C6_6 
REMARK    3  A    between atoms: C6_6  and  N9_9 
REMARK    4  A    between atoms: C7_7  and  C8_8 
REMARK    5  A    between atoms: C7_7  and  N9_9 
ROOT
HETATM    1  C6  UNL     1     -34.033   5.115   2.846  1.00 20.00     0.272 C 
ENDROOT
BRANCH   1   2
HETATM    2  C5  UNL     1     -32.628   5.699   2.940  1.00 20.00     0.034 C 
BRANCH   2   3
HETATM    3  C3  UNL     1     -32.632   7.202   3.181  1.00 20.00    -0.013 A 
HETATM    4  C1  UNL     1     -31.350   7.922   3.495  1.00 20.00     0.005 A 
HETATM    5  C2  UNL     1     -32.024   8.131   2.167  1.00 20.00     0.005 A 
ENDBRANCH   2   3
ENDBRANCH   1   2
BRANCH   1   6
HETATM    6  N9  UNL     1     -34.867   5.515   3.945  1.00 20.00     0.085 N 
HETATM    7  C4  UNL     1     -36.200   5.930   3.485  1.00 20.00     0.309 C 
BRANCH   6   8
HETATM    8  C7  UNL     1     -35.004   4.433   4.935  1.00 20.00     0.286 C 
BRANCH   8   9
HETATM    9  C8  UNL     1     -34.771   4.913   6.358  1.00 20.00     0.144 C 
HETATM   10 CL10 UNL     1     -34.039   6.536   6.384  1.00 20.00    -0.129 Cl
ENDBRANCH   8   9
ENDBRANCH   6   8
ENDBRANCH   1   6
TORSDOF 5
ENDMDL
