MODEL 1
REMARK VINA RESULT:      -5.1      0.000      0.000
REMARK  2 active torsions:
REMARK  status: ('A' for Active; 'I' for Inactive)
REMARK    1  A    between atoms: C2_2  and  C3_3 
REMARK    2  A    between atoms: C3_3  and  C7_7 
ROOT
HETATM    1  C4  UNL     1     -34.366   4.570   5.935  1.00 20.00     0.002 C 
HETATM    2  C5  UNL     1     -35.386   4.825   4.808  1.00 20.00     0.012 C 
HETATM    3  C6  UNL     1     -34.026   6.073   5.883  1.00 20.00     0.012 C 
HETATM    4  C7  UNL     1     -34.592   6.103   4.441  1.00 20.00     0.059 C 
ENDROOT
BRANCH   4   5
HETATM    5  C3  UNL     1     -33.592   5.942   3.362  1.00 20.00     0.152 C 
HETATM    6  O8  UNL     1     -33.791   5.181   2.418  1.00 20.00    -0.293 OA
BRANCH   5   7
HETATM    7  C2  UNL     1     -32.359   6.768   3.466  1.00 20.00     0.040 C 
HETATM    8  C1  UNL     1     -32.095   7.718   2.564  1.00 20.00     0.015 C 
ENDBRANCH   5   7
ENDBRANCH   4   5
TORSDOF 2
ENDMDL
MODEL 2
REMARK VINA RESULT:      -4.6      1.672      3.696
REMARK  2 active torsions:
REMARK  status: ('A' for Active; 'I' for Inactive)
REMARK    1  A    between atoms: C2_2  and  C3_3 
REMARK    2  A    between atoms: C3_3  and  C7_7 
ROOT
HETATM    1  C4  UNL     1     -32.195   5.776   3.080  1.00 20.00     0.002 C 
HETATM    2  C5  UNL     1     -32.432   7.156   3.723  1.00 20.00     0.012 C 
HETATM    3  C6  UNL     1     -33.718   5.682   2.864  1.00 20.00     0.012 C 
HETATM    4  C7  UNL     1     -33.895   6.726   3.995  1.00 20.00     0.059 C 
ENDROOT
BRANCH   4   5
HETATM    5  C3  UNL     1     -34.154   6.166   5.340  1.00 20.00     0.152 C 
HETATM    6  O8  UNL     1     -33.625   6.645   6.341  1.00 20.00    -0.293 OA
BRANCH   5   7
HETATM    7  C2  UNL     1     -35.105   5.025   5.417  1.00 20.00     0.040 C 
HETATM    8  C1  UNL     1     -34.713   3.841   5.897  1.00 20.00     0.015 C 
ENDBRANCH   5   7
ENDBRANCH   4   5
TORSDOF 2
ENDMDL
MODEL 3
REMARK VINA RESULT:      -4.2      1.485      3.266
REMARK  2 active torsions:
REMARK  status: ('A' for Active; 'I' for Inactive)
REMARK    1  A    between atoms: C2_2  and  C3_3 
REMARK    2  A    between atoms: C3_3  and  C7_7 
ROOT
HETATM    1  C4  UNL     1     -32.815   5.470   2.787  1.00 20.00     0.002 C 
HETATM    2  C5  UNL     1     -33.170   6.536   3.841  1.00 20.00     0.012 C 
HETATM    3  C6  UNL     1     -34.326   5.308   2.530  1.00 20.00     0.012 C 
HETATM    4  C7  UNL     1     -34.581   5.905   3.937  1.00 20.00     0.059 C 
ENDROOT
BRANCH   4   5
HETATM    5  C3  UNL     1     -34.762   4.915   5.023  1.00 20.00     0.152 C 
HETATM    6  O8  UNL     1     -35.105   3.760   4.780  1.00 20.00    -0.293 OA
BRANCH   5   7
HETATM    7  C2  UNL     1     -34.478   5.382   6.407  1.00 20.00     0.040 C 
HETATM    8  C1  UNL     1     -34.076   6.635   6.636  1.00 20.00     0.015 C 
ENDBRANCH   5   7
ENDBRANCH   4   5
TORSDOF 2
ENDMDL
MODEL 4
REMARK VINA RESULT:      -4.1      1.069      3.554
REMARK  2 active torsions:
REMARK  status: ('A' for Active; 'I' for Inactive)
REMARK    1  A    between atoms: C2_2  and  C3_3 
REMARK    2  A    between atoms: C3_3  and  C7_7 
ROOT
HETATM    1  C4  UNL     1     -32.221   7.931   2.474  1.00 20.00     0.002 C 
HETATM    2  C5  UNL     1     -32.416   6.443   2.124  1.00 20.00     0.012 C 
HETATM    3  C6  UNL     1     -31.738   7.478   3.865  1.00 20.00     0.012 C 
HETATM    4  C7  UNL     1     -32.495   6.144   3.642  1.00 20.00     0.059 C 
ENDROOT
BRANCH   4   5
HETATM    5  C3  UNL     1     -33.860   6.087   4.208  1.00 20.00     0.152 C 
HETATM    6  O8  UNL     1     -34.838   5.877   3.493  1.00 20.00    -0.293 OA
BRANCH   5   7
HETATM    7  C2  UNL     1     -33.981   6.262   5.681  1.00 20.00     0.040 C 
HETATM    8  C1  UNL     1     -34.644   5.371   6.423  1.00 20.00     0.015 C 
ENDBRANCH   5   7
ENDBRANCH   4   5
TORSDOF 2
ENDMDL
MODEL 5
REMARK VINA RESULT:      -3.9     11.580     12.264
REMARK  2 active torsions:
REMARK  status: ('A' for Active; 'I' for Inactive)
REMARK    1  A    between atoms: C2_2  and  C3_3 
REMARK    2  A    between atoms: C3_3  and  C7_7 
ROOT
HETATM    1  C4  UNL     1     -34.445  13.799  -5.001  1.00 20.00     0.002 C 
HETATM    2  C5  UNL     1     -35.465  14.370  -3.998  1.00 20.00     0.012 C 
HETATM    3  C6  UNL     1     -33.473  13.621  -3.818  1.00 20.00     0.012 C 
HETATM    4  C7  UNL     1     -34.283  14.697  -3.052  1.00 20.00     0.059 C 
ENDROOT
BRANCH   4   5
HETATM    5  C3  UNL     1     -33.755  16.076  -3.146  1.00 20.00     0.152 C 
HETATM    6  O8  UNL     1     -33.329  16.522  -4.209  1.00 20.00    -0.293 OA
BRANCH   5   7
HETATM    7  C2  UNL     1     -33.797  16.894  -1.905  1.00 20.00     0.040 C 
HETATM    8  C1  UNL     1     -34.632  16.583  -0.909  1.00 20.00     0.015 C 
ENDBRANCH   5   7
ENDBRANCH   4   5
TORSDOF 2
ENDMDL
MODEL 6
REMARK VINA RESULT:      -3.9     11.324     12.195
REMARK  2 active torsions:
REMARK  status: ('A' for Active; 'I' for Inactive)
REMARK    1  A    between atoms: C2_2  and  C3_3 
REMARK    2  A    between atoms: C3_3  and  C7_7 
ROOT
HETATM    1  C4  UNL     1     -34.580  13.256  -4.686  1.00 20.00     0.002 C 
HETATM    2  C5  UNL     1     -33.425  13.609  -3.729  1.00 20.00     0.012 C 
HETATM    3  C6  UNL     1     -34.473  14.688  -5.246  1.00 20.00     0.012 C 
HETATM    4  C7  UNL     1     -33.784  15.103  -3.922  1.00 20.00     0.059 C 
ENDROOT
BRANCH   4   5
HETATM    5  C3  UNL     1     -34.679  15.680  -2.894  1.00 20.00     0.152 C 
HETATM    6  O8  UNL     1     -35.879  15.416  -2.875  1.00 20.00    -0.293 OA
BRANCH   5   7
HETATM    7  C2  UNL     1     -34.047  16.563  -1.877  1.00 20.00     0.040 C 
HETATM    8  C1  UNL     1     -34.610  16.735  -0.678  1.00 20.00     0.015 C 
ENDBRANCH   5   7
ENDBRANCH   4   5
TORSDOF 2
ENDMDL
MODEL 7
REMARK VINA RESULT:      -3.9     11.390     13.044
REMARK  2 active torsions:
REMARK  status: ('A' for Active; 'I' for Inactive)
REMARK    1  A    between atoms: C2_2  and  C3_3 
REMARK    2  A    between atoms: C3_3  and  C7_7 
ROOT
HETATM    1  C4  UNL     1     -35.489  14.373  -7.508  1.00 20.00     0.002 C 
HETATM    2  C5  UNL     1     -34.225  15.053  -6.949  1.00 20.00     0.012 C 
HETATM    3  C6  UNL     1     -36.213  14.791  -6.213  1.00 20.00     0.012 C 
HETATM    4  C7  UNL     1     -34.827  14.902  -5.530  1.00 20.00     0.059 C 
ENDROOT
BRANCH   4   5
HETATM    5  C3  UNL     1     -34.391  13.703  -4.779  1.00 20.00     0.152 C 
HETATM    6  O8  UNL     1     -34.892  12.601  -4.995  1.00 20.00    -0.293 OA
BRANCH   5   7
HETATM    7  C2  UNL     1     -33.305  13.897  -3.782  1.00 20.00     0.040 C 
HETATM    8  C1  UNL     1     -32.824  15.116  -3.523  1.00 20.00     0.015 C 
ENDBRANCH   5   7
ENDBRANCH   4   5
TORSDOF 2
ENDMDL
MODEL 8
REMARK VINA RESULT:      -3.7     11.655     12.554
REMARK  2 active torsions:
REMARK  status: ('A' for Active; 'I' for Inactive)
REMARK    1  A    between atoms: C2_2  and  C3_3 
REMARK    2  A    between atoms: C3_3  and  C7_7 
ROOT
HETATM    1  C4  UNL     1     -33.694  17.292  -1.405  1.00 20.00     0.002 C 
HETATM    2  C5  UNL     1     -34.697  16.140  -1.605  1.00 20.00     0.012 C 
HETATM    3  C6  UNL     1     -34.082  17.793  -2.810  1.00 20.00     0.012 C 
HETATM    4  C7  UNL     1     -34.574  16.360  -3.133  1.00 20.00     0.059 C 
ENDROOT
BRANCH   4   5
HETATM    5  C3  UNL     1     -33.594  15.492  -3.823  1.00 20.00     0.152 C 
HETATM    6  O8  UNL     1     -32.658  15.971  -4.459  1.00 20.00    -0.293 OA
BRANCH   5   7
HETATM    7  C2  UNL     1     -33.785  14.024  -3.681  1.00 20.00     0.040 C 
HETATM    8  C1  UNL     1     -34.858  13.421  -4.200  1.00 20.00     0.015 C 
ENDBRANCH   5   7
ENDBRANCH   4   5
TORSDOF 2
ENDMDL
MODEL 9
REMARK VINA RESULT:      -3.7      1.860      2.636
REMARK  2 active torsions:
REMARK  status: ('A' for Active; 'I' for Inactive)
REMARK    1  A    between atoms: C2_2  and  C3_3 
REMARK    2  A    between atoms: C3_3  and  C7_7 
ROOT
HETATM    1  C4  UNL     1     -34.680   6.227   3.856  1.00 20.00     0.002 C 
HETATM    2  C5  UNL     1     -33.482   5.999   4.797  1.00 20.00     0.012 C 
HETATM    3  C6  UNL     1     -33.808   5.674   2.712  1.00 20.00     0.012 C 
HETATM    4  C7  UNL     1     -32.558   6.031   3.554  1.00 20.00     0.059 C 
ENDROOT
BRANCH   4   5
HETATM    5  C3  UNL     1     -31.943   7.343   3.253  1.00 20.00     0.152 C 
HETATM    6  O8  UNL     1     -31.285   7.946   4.098  1.00 20.00    -0.293 OA
BRANCH   5   7
HETATM    7  C2  UNL     1     -32.137   7.871   1.876  1.00 20.00     0.040 C 
HETATM    8  C1  UNL     1     -32.332   9.176   1.666  1.00 20.00     0.015 C 
ENDBRANCH   5   7
ENDBRANCH   4   5
TORSDOF 2
ENDMDL
