MODEL 1
REMARK VINA RESULT:      -5.7      0.000      0.000
REMARK  2 active torsions:
REMARK  status: ('A' for Active; 'I' for Inactive)
REMARK    1  A    between atoms: C3_3  and  C7_7 
REMARK    2  A    between atoms: C8_8  and  C10_10 
ROOT
HETATM    1  C1  UNL     1     -32.170   8.901   1.135  1.00 20.00     0.021 C 
HETATM    2  C2  UNL     1     -31.997   8.274   2.144  1.00 20.00    -0.039 C 
HETATM    3  C3  UNL     1     -31.788   7.520   3.357  1.00 20.00     0.205 C 
HETATM    4  O11 UNL     1     -30.909   7.856   4.139  1.00 20.00    -0.283 OA
ENDROOT
BRANCH   3   5
HETATM    5  C7  UNL     1     -32.707   6.330   3.577  1.00 20.00     0.069 C 
HETATM    6  C4  UNL     1     -33.200   5.705   2.277  1.00 20.00     0.013 C 
HETATM    7  C5  UNL     1     -34.402   4.866   2.707  1.00 20.00     0.005 C 
HETATM    8  C8  UNL     1     -34.962   5.550   3.954  1.00 20.00    -0.014 C 
HETATM    9  C6  UNL     1     -34.010   6.698   4.285  1.00 20.00     0.017 C 
BRANCH   8  10
HETATM   10  C10 UNL     1     -34.957   4.567   5.109  1.00 20.00     0.000 C 
HETATM   11  C9  UNL     1     -34.705   5.243   6.420  1.00 20.00     0.005 C 
ENDBRANCH   8  10
ENDBRANCH   3   5
TORSDOF 2
ENDMDL
MODEL 2
REMARK VINA RESULT:      -5.1     11.195     12.019
REMARK  2 active torsions:
REMARK  status: ('A' for Active; 'I' for Inactive)
REMARK    1  A    between atoms: C3_3  and  C7_7 
REMARK    2  A    between atoms: C8_8  and  C10_10 
ROOT
HETATM    1  C1  UNL     1     -34.795  14.738  -7.153  1.00 20.00     0.021 C 
HETATM    2  C2  UNL     1     -34.839  14.285  -6.042  1.00 20.00    -0.039 C 
HETATM    3  C3  UNL     1     -34.893  13.740  -4.706  1.00 20.00     0.205 C 
HETATM    4  O11 UNL     1     -34.886  12.527  -4.543  1.00 20.00    -0.283 OA
ENDROOT
BRANCH   3   5
HETATM    5  C7  UNL     1     -34.952  14.746  -3.570  1.00 20.00     0.069 C 
HETATM    6  C4  UNL     1     -36.248  15.548  -3.546  1.00 20.00     0.013 C 
HETATM    7  C5  UNL     1     -35.921  16.746  -2.657  1.00 20.00     0.005 C 
HETATM    8  C8  UNL     1     -34.416  16.973  -2.801  1.00 20.00    -0.014 C 
HETATM    9  C6  UNL     1     -33.887  15.838  -3.675  1.00 20.00     0.017 C 
BRANCH   8  10
HETATM   10  C10 UNL     1     -33.763  16.880  -1.435  1.00 20.00     0.000 C 
HETATM   11  C9  UNL     1     -34.763  16.985  -0.327  1.00 20.00     0.005 C 
ENDBRANCH   8  10
ENDBRANCH   3   5
TORSDOF 2
ENDMDL
MODEL 3
REMARK VINA RESULT:      -5.0      1.494      4.552
REMARK  2 active torsions:
REMARK  status: ('A' for Active; 'I' for Inactive)
REMARK    1  A    between atoms: C3_3  and  C7_7 
REMARK    2  A    between atoms: C8_8  and  C10_10 
ROOT
HETATM    1  C1  UNL     1     -35.167   3.910   5.948  1.00 20.00     0.021 C 
HETATM    2  C2  UNL     1     -34.667   4.998   5.859  1.00 20.00    -0.039 C 
HETATM    3  C3  UNL     1     -34.067   6.307   5.751  1.00 20.00     0.205 C 
HETATM    4  O11 UNL     1     -33.902   6.985   6.756  1.00 20.00    -0.283 OA
ENDROOT
BRANCH   3   5
HETATM    5  C7  UNL     1     -33.672   6.754   4.354  1.00 20.00     0.069 C 
HETATM    6  C4  UNL     1     -33.562   5.600   3.364  1.00 20.00     0.013 C 
HETATM    7  C5  UNL     1     -32.754   6.185   2.207  1.00 20.00     0.005 C 
HETATM    8  C8  UNL     1     -31.878   7.277   2.822  1.00 20.00    -0.014 C 
HETATM    9  C6  UNL     1     -32.278   7.378   4.292  1.00 20.00     0.017 C 
BRANCH   8  10
HETATM   10  C10 UNL     1     -32.178   8.601   2.144  1.00 20.00     0.000 C 
HETATM   11  C9  UNL     1     -31.771   8.598   0.704  1.00 20.00     0.005 C 
ENDBRANCH   8  10
ENDBRANCH   3   5
TORSDOF 2
ENDMDL
MODEL 4
REMARK VINA RESULT:      -4.9     10.914     12.213
REMARK  2 active torsions:
REMARK  status: ('A' for Active; 'I' for Inactive)
REMARK    1  A    between atoms: C3_3  and  C7_7 
REMARK    2  A    between atoms: C8_8  and  C10_10 
ROOT
HETATM    1  C1  UNL     1     -35.508  14.397  -7.816  1.00 20.00     0.021 C 
HETATM    2  C2  UNL     1     -35.265  14.153  -6.665  1.00 20.00    -0.039 C 
HETATM    3  C3  UNL     1     -34.974  13.860  -5.282  1.00 20.00     0.205 C 
HETATM    4  O11 UNL     1     -34.790  12.703  -4.931  1.00 20.00    -0.283 OA
ENDROOT
BRANCH   3   5
HETATM    5  C7  UNL     1     -34.914  15.050  -4.340  1.00 20.00     0.069 C 
HETATM    6  C4  UNL     1     -34.121  16.223  -4.903  1.00 20.00     0.013 C 
HETATM    7  C5  UNL     1     -33.818  17.083  -3.679  1.00 20.00     0.005 C 
HETATM    8  C8  UNL     1     -33.784  16.120  -2.492  1.00 20.00    -0.014 C 
HETATM    9  C6  UNL     1     -34.179  14.748  -3.034  1.00 20.00     0.017 C 
BRANCH   8  10
HETATM   10  C10 UNL     1     -34.814  16.553  -1.467  1.00 20.00     0.000 C 
HETATM   11  C9  UNL     1     -34.206  17.372  -0.372  1.00 20.00     0.005 C 
ENDBRANCH   8  10
ENDBRANCH   3   5
TORSDOF 2
ENDMDL
MODEL 5
REMARK VINA RESULT:      -4.6     10.832     12.410
REMARK  2 active torsions:
REMARK  status: ('A' for Active; 'I' for Inactive)
REMARK    1  A    between atoms: C3_3  and  C7_7 
REMARK    2  A    between atoms: C8_8  and  C10_10 
ROOT
HETATM    1  C1  UNL     1     -33.673  13.738  -3.757  1.00 20.00     0.021 C 
HETATM    2  C2  UNL     1     -33.956  14.882  -3.525  1.00 20.00    -0.039 C 
HETATM    3  C3  UNL     1     -34.295  16.257  -3.246  1.00 20.00     0.205 C 
HETATM    4  O11 UNL     1     -34.960  16.895  -4.052  1.00 20.00    -0.283 OA
ENDROOT
BRANCH   3   5
HETATM    5  C7  UNL     1     -33.788  16.823  -1.931  1.00 20.00     0.069 C 
HETATM    6  C4  UNL     1     -34.772  16.643  -0.781  1.00 20.00     0.013 C 
HETATM    7  C5  UNL     1     -34.286  17.633   0.275  1.00 20.00     0.005 C 
HETATM    8  C8  UNL     1     -33.591  18.756  -0.495  1.00 20.00    -0.014 C 
HETATM    9  C6  UNL     1     -33.589  18.338  -1.964  1.00 20.00     0.017 C 
BRANCH   8  10
HETATM   10  C10 UNL     1     -32.155  18.874  -0.020  1.00 20.00     0.000 C 
HETATM   11  C9  UNL     1     -32.067  19.034   1.465  1.00 20.00     0.005 C 
ENDBRANCH   8  10
ENDBRANCH   3   5
TORSDOF 2
ENDMDL
MODEL 6
REMARK VINA RESULT:      -4.5     10.738     11.993
REMARK  2 active torsions:
REMARK  status: ('A' for Active; 'I' for Inactive)
REMARK    1  A    between atoms: C3_3  and  C7_7 
REMARK    2  A    between atoms: C8_8  and  C10_10 
ROOT
HETATM    1  C1  UNL     1     -35.182  17.436   1.009  1.00 20.00     0.021 C 
HETATM    2  C2  UNL     1     -34.481  17.621   0.053  1.00 20.00    -0.039 C 
HETATM    3  C3  UNL     1     -33.638  17.843  -1.098  1.00 20.00     0.205 C 
HETATM    4  O11 UNL     1     -32.946  18.850  -1.159  1.00 20.00    -0.283 OA
ENDROOT
BRANCH   3   5
HETATM    5  C7  UNL     1     -33.674  16.774  -2.176  1.00 20.00     0.069 C 
HETATM    6  C4  UNL     1     -33.740  17.346  -3.587  1.00 20.00     0.013 C 
HETATM    7  C5  UNL     1     -34.206  16.168  -4.439  1.00 20.00     0.005 C 
HETATM    8  C8  UNL     1     -35.027  15.278  -3.506  1.00 20.00    -0.014 C 
HETATM    9  C6  UNL     1     -34.924  15.897  -2.114  1.00 20.00     0.017 C 
BRANCH   8  10
HETATM   10  C10 UNL     1     -34.413  13.891  -3.468  1.00 20.00     0.000 C 
HETATM   11  C9  UNL     1     -34.461  13.220  -4.805  1.00 20.00     0.005 C 
ENDBRANCH   8  10
ENDBRANCH   3   5
TORSDOF 2
ENDMDL
MODEL 7
REMARK VINA RESULT:      -4.5     10.999     13.284
REMARK  2 active torsions:
REMARK  status: ('A' for Active; 'I' for Inactive)
REMARK    1  A    between atoms: C3_3  and  C7_7 
REMARK    2  A    between atoms: C8_8  and  C10_10 
ROOT
HETATM    1  C1  UNL     1     -34.513  16.338  -1.633  1.00 20.00     0.021 C 
HETATM    2  C2  UNL     1     -34.507  15.524  -2.515  1.00 20.00    -0.039 C 
HETATM    3  C3  UNL     1     -34.499  14.544  -3.576  1.00 20.00     0.205 C 
HETATM    4  O11 UNL     1     -34.154  13.394  -3.339  1.00 20.00    -0.283 OA
ENDROOT
BRANCH   3   5
HETATM    5  C7  UNL     1     -34.936  15.032  -4.946  1.00 20.00     0.069 C 
HETATM    6  C4  UNL     1     -35.055  13.911  -5.972  1.00 20.00     0.013 C 
HETATM    7  C5  UNL     1     -35.058  14.640  -7.313  1.00 20.00     0.005 C 
HETATM    8  C8  UNL     1     -34.269  15.930  -7.088  1.00 20.00    -0.014 C 
HETATM    9  C6  UNL     1     -33.926  15.975  -5.600  1.00 20.00     0.017 C 
BRANCH   8  10
HETATM   10  C10 UNL     1     -35.150  17.120  -7.419  1.00 20.00     0.000 C 
HETATM   11  C9  UNL     1     -34.346  18.327  -7.787  1.00 20.00     0.005 C 
ENDBRANCH   8  10
ENDBRANCH   3   5
TORSDOF 2
ENDMDL
MODEL 8
REMARK VINA RESULT:      -4.5     11.159     12.279
REMARK  2 active torsions:
REMARK  status: ('A' for Active; 'I' for Inactive)
REMARK    1  A    between atoms: C3_3  and  C7_7 
REMARK    2  A    between atoms: C8_8  and  C10_10 
ROOT
HETATM    1  C1  UNL     1     -34.680  13.261  -4.851  1.00 20.00     0.021 C 
HETATM    2  C2  UNL     1     -35.429  13.986  -4.255  1.00 20.00    -0.039 C 
HETATM    3  C3  UNL     1     -36.329  14.857  -3.538  1.00 20.00     0.205 C 
HETATM    4  O11 UNL     1     -37.520  14.583  -3.476  1.00 20.00    -0.283 OA
ENDROOT
BRANCH   3   5
HETATM    5  C7  UNL     1     -35.708  16.084  -2.893  1.00 20.00     0.069 C 
HETATM    6  C4  UNL     1     -35.163  17.084  -3.906  1.00 20.00     0.013 C 
HETATM    7  C5  UNL     1     -34.229  17.968  -3.082  1.00 20.00     0.005 C 
HETATM    8  C8  UNL     1     -33.734  17.091  -1.931  1.00 20.00    -0.014 C 
HETATM    9  C6  UNL     1     -34.477  15.762  -2.047  1.00 20.00     0.017 C 
BRANCH   8  10
HETATM   10  C10 UNL     1     -34.104  17.742  -0.612  1.00 20.00     0.000 C 
HETATM   11  C9  UNL     1     -32.973  18.539  -0.043  1.00 20.00     0.005 C 
ENDBRANCH   8  10
ENDBRANCH   3   5
TORSDOF 2
ENDMDL
MODEL 9
REMARK VINA RESULT:      -4.4     11.029     12.511
REMARK  2 active torsions:
REMARK  status: ('A' for Active; 'I' for Inactive)
REMARK    1  A    between atoms: C3_3  and  C7_7 
REMARK    2  A    between atoms: C8_8  and  C10_10 
ROOT
HETATM    1  C1  UNL     1     -34.724  16.924  -0.329  1.00 20.00     0.021 C 
HETATM    2  C2  UNL     1     -34.479  16.974  -1.503  1.00 20.00    -0.039 C 
HETATM    3  C3  UNL     1     -34.186  17.033  -2.915  1.00 20.00     0.205 C 
HETATM    4  O11 UNL     1     -33.502  17.947  -3.356  1.00 20.00    -0.283 OA
ENDROOT
BRANCH   3   5
HETATM    5  C7  UNL     1     -34.765  15.920  -3.771  1.00 20.00     0.069 C 
HETATM    6  C4  UNL     1     -34.605  14.538  -3.147  1.00 20.00     0.013 C 
HETATM    7  C5  UNL     1     -34.829  13.580  -4.314  1.00 20.00     0.005 C 
HETATM    8  C8  UNL     1     -34.405  14.346  -5.568  1.00 20.00    -0.014 C 
HETATM    9  C6  UNL     1     -34.054  15.761  -5.115  1.00 20.00     0.017 C 
BRANCH   8  10
HETATM   10  C10 UNL     1     -35.575  14.419  -6.530  1.00 20.00     0.000 C 
HETATM   11  C9  UNL     1     -35.139  14.771  -7.918  1.00 20.00     0.005 C 
ENDBRANCH   8  10
ENDBRANCH   3   5
TORSDOF 2
ENDMDL
