MODEL 1
REMARK VINA RESULT:      -4.3      0.000      0.000
REMARK  2 active torsions:
REMARK  status: ('A' for Active; 'I' for Inactive)
REMARK    1  A    between atoms: C3_3  and  C7_7 
REMARK    2  A    between atoms: C7_7  and  C8_8 
ROOT
HETATM    1  C1  UNL     1     -34.821  14.774  -7.418  1.00 20.00     0.021 C 
HETATM    2  C2  UNL     1     -34.905  14.327  -6.308  1.00 20.00    -0.040 C 
HETATM    3  C3  UNL     1     -35.007  13.788  -4.970  1.00 20.00     0.202 C 
HETATM    4  O9  UNL     1     -34.822  12.592  -4.789  1.00 20.00    -0.283 OA
ENDROOT
BRANCH   3   5
HETATM    5  C7  UNL     1     -35.341  14.766  -3.863  1.00 20.00     0.101 C 
BRANCH   5   6
HETATM    6  C8  UNL     1     -34.170  15.675  -3.424  1.00 20.00    -0.044 C 
HETATM    7  C4  UNL     1     -32.823  14.939  -3.525  1.00 20.00     0.015 C 
HETATM    8  C5  UNL     1     -34.398  16.069  -1.950  1.00 20.00     0.015 C 
HETATM    9  C6  UNL     1     -34.113  16.958  -4.267  1.00 20.00     0.015 C 
ENDBRANCH   5   6
ENDBRANCH   3   5
TORSDOF 2
ENDMDL
MODEL 2
REMARK VINA RESULT:      -4.2      0.231      1.477
REMARK  2 active torsions:
REMARK  status: ('A' for Active; 'I' for Inactive)
REMARK    1  A    between atoms: C3_3  and  C7_7 
REMARK    2  A    between atoms: C7_7  and  C8_8 
ROOT
HETATM    1  C1  UNL     1     -34.813  14.763  -7.219  1.00 20.00     0.021 C 
HETATM    2  C2  UNL     1     -34.942  14.320  -6.112  1.00 20.00    -0.040 C 
HETATM    3  C3  UNL     1     -35.096  13.786  -4.776  1.00 20.00     0.202 C 
HETATM    4  O9  UNL     1     -34.910  12.593  -4.582  1.00 20.00    -0.283 OA
ENDROOT
BRANCH   3   5
HETATM    5  C7  UNL     1     -35.484  14.766  -3.689  1.00 20.00     0.101 C 
BRANCH   5   6
HETATM    6  C8  UNL     1     -34.370  15.755  -3.276  1.00 20.00    -0.044 C 
HETATM    7  C4  UNL     1     -34.390  17.018  -4.154  1.00 20.00     0.015 C 
HETATM    8  C5  UNL     1     -33.011  15.051  -3.471  1.00 20.00     0.015 C 
HETATM    9  C6  UNL     1     -34.501  16.158  -1.800  1.00 20.00     0.015 C 
ENDBRANCH   5   6
ENDBRANCH   3   5
TORSDOF 2
ENDMDL
MODEL 3
REMARK VINA RESULT:      -4.1      1.519      3.801
REMARK  2 active torsions:
REMARK  status: ('A' for Active; 'I' for Inactive)
REMARK    1  A    between atoms: C3_3  and  C7_7 
REMARK    2  A    between atoms: C7_7  and  C8_8 
ROOT
HETATM    1  C1  UNL     1     -34.623  16.295  -1.617  1.00 20.00     0.021 C 
HETATM    2  C2  UNL     1     -34.016  15.889  -2.569  1.00 20.00    -0.040 C 
HETATM    3  C3  UNL     1     -33.284  15.399  -3.716  1.00 20.00     0.202 C 
HETATM    4  O9  UNL     1     -32.254  14.762  -3.543  1.00 20.00    -0.283 OA
ENDROOT
BRANCH   3   5
HETATM    5  C7  UNL     1     -33.859  15.717  -5.080  1.00 20.00     0.101 C 
BRANCH   5   6
HETATM    6  C8  UNL     1     -34.945  14.733  -5.573  1.00 20.00    -0.044 C 
HETATM    7  C4  UNL     1     -34.734  13.327  -4.984  1.00 20.00     0.015 C 
HETATM    8  C5  UNL     1     -34.841  14.636  -7.108  1.00 20.00     0.015 C 
HETATM    9  C6  UNL     1     -36.354  15.229  -5.211  1.00 20.00     0.015 C 
ENDBRANCH   5   6
ENDBRANCH   3   5
TORSDOF 2
ENDMDL
MODEL 4
REMARK VINA RESULT:      -4.0      1.508      3.809
REMARK  2 active torsions:
REMARK  status: ('A' for Active; 'I' for Inactive)
REMARK    1  A    between atoms: C3_3  and  C7_7 
REMARK    2  A    between atoms: C7_7  and  C8_8 
ROOT
HETATM    1  C1  UNL     1     -34.413  16.395  -1.572  1.00 20.00     0.021 C 
HETATM    2  C2  UNL     1     -33.873  15.951  -2.547  1.00 20.00    -0.040 C 
HETATM    3  C3  UNL     1     -33.222  15.414  -3.722  1.00 20.00     0.202 C 
HETATM    4  O9  UNL     1     -32.206  14.744  -3.592  1.00 20.00    -0.283 OA
ENDROOT
BRANCH   3   5
HETATM    5  C7  UNL     1     -33.860  15.726  -5.059  1.00 20.00     0.101 C 
BRANCH   5   6
HETATM    6  C8  UNL     1     -34.935  14.714  -5.519  1.00 20.00    -0.044 C 
HETATM    7  C4  UNL     1     -34.944  14.567  -7.050  1.00 20.00     0.015 C 
HETATM    8  C5  UNL     1     -36.313  15.246  -5.074  1.00 20.00     0.015 C 
HETATM    9  C6  UNL     1     -34.715  13.336  -4.876  1.00 20.00     0.015 C 
ENDBRANCH   5   6
ENDBRANCH   3   5
TORSDOF 2
ENDMDL
MODEL 5
REMARK VINA RESULT:      -3.9      1.348      3.591
REMARK  2 active torsions:
REMARK  status: ('A' for Active; 'I' for Inactive)
REMARK    1  A    between atoms: C3_3  and  C7_7 
REMARK    2  A    between atoms: C7_7  and  C8_8 
ROOT
HETATM    1  C1  UNL     1     -34.687  15.921  -2.122  1.00 20.00     0.021 C 
HETATM    2  C2  UNL     1     -34.473  15.062  -2.932  1.00 20.00    -0.040 C 
HETATM    3  C3  UNL     1     -34.216  14.026  -3.907  1.00 20.00     0.202 C 
HETATM    4  O9  UNL     1     -33.215  13.331  -3.794  1.00 20.00    -0.283 OA
ENDROOT
BRANCH   3   5
HETATM    5  C7  UNL     1     -35.227  13.872  -5.024  1.00 20.00     0.101 C 
BRANCH   5   6
HETATM    6  C8  UNL     1     -35.220  15.012  -6.068  1.00 20.00    -0.044 C 
HETATM    7  C4  UNL     1     -36.369  16.004  -5.819  1.00 20.00     0.015 C 
HETATM    8  C5  UNL     1     -35.417  14.383  -7.462  1.00 20.00     0.015 C 
HETATM    9  C6  UNL     1     -33.883  15.769  -6.060  1.00 20.00     0.015 C 
ENDBRANCH   5   6
ENDBRANCH   3   5
TORSDOF 2
ENDMDL
MODEL 6
REMARK VINA RESULT:      -3.9     11.768     12.786
REMARK  2 active torsions:
REMARK  status: ('A' for Active; 'I' for Inactive)
REMARK    1  A    between atoms: C3_3  and  C7_7 
REMARK    2  A    between atoms: C7_7  and  C8_8 
ROOT
HETATM    1  C1  UNL     1     -34.943   3.902   5.421  1.00 20.00     0.021 C 
HETATM    2  C2  UNL     1     -34.496   5.015   5.404  1.00 20.00    -0.040 C 
HETATM    3  C3  UNL     1     -33.957   6.357   5.384  1.00 20.00     0.202 C 
HETATM    4  O9  UNL     1     -33.605   6.878   6.435  1.00 20.00    -0.283 OA
ENDROOT
BRANCH   3   5
HETATM    5  C7  UNL     1     -33.863   7.035   4.034  1.00 20.00     0.101 C 
BRANCH   5   6
HETATM    6  C8  UNL     1     -32.459   7.005   3.388  1.00 20.00    -0.044 C 
HETATM    7  C4  UNL     1     -31.397   7.596   4.331  1.00 20.00     0.015 C 
HETATM    8  C5  UNL     1     -32.503   7.863   2.108  1.00 20.00     0.015 C 
HETATM    9  C6  UNL     1     -32.055   5.574   3.000  1.00 20.00     0.015 C 
ENDBRANCH   5   6
ENDBRANCH   3   5
TORSDOF 2
ENDMDL
MODEL 7
REMARK VINA RESULT:      -3.9      2.150      4.311
REMARK  2 active torsions:
REMARK  status: ('A' for Active; 'I' for Inactive)
REMARK    1  A    between atoms: C3_3  and  C7_7 
REMARK    2  A    between atoms: C7_7  and  C8_8 
ROOT
HETATM    1  C1  UNL     1     -34.745  17.010  -0.159  1.00 20.00     0.021 C 
HETATM    2  C2  UNL     1     -34.361  16.855  -1.285  1.00 20.00    -0.040 C 
HETATM    3  C3  UNL     1     -33.898  16.667  -2.643  1.00 20.00     0.202 C 
HETATM    4  O9  UNL     1     -33.625  17.647  -3.324  1.00 20.00    -0.283 OA
ENDROOT
BRANCH   3   5
HETATM    5  C7  UNL     1     -33.781  15.240  -3.134  1.00 20.00     0.101 C 
BRANCH   5   6
HETATM    6  C8  UNL     1     -34.894  14.795  -4.110  1.00 20.00    -0.044 C 
HETATM    7  C4  UNL     1     -34.950  13.262  -4.232  1.00 20.00     0.015 C 
HETATM    8  C5  UNL     1     -34.573  15.381  -5.500  1.00 20.00     0.015 C 
HETATM    9  C6  UNL     1     -36.268  15.321  -3.666  1.00 20.00     0.015 C 
ENDBRANCH   5   6
ENDBRANCH   3   5
TORSDOF 2
ENDMDL
MODEL 8
REMARK VINA RESULT:      -3.8     11.460     12.401
REMARK  2 active torsions:
REMARK  status: ('A' for Active; 'I' for Inactive)
REMARK    1  A    between atoms: C3_3  and  C7_7 
REMARK    2  A    between atoms: C7_7  and  C8_8 
ROOT
HETATM    1  C1  UNL     1     -34.995   4.272   6.034  1.00 20.00     0.021 C 
HETATM    2  C2  UNL     1     -34.762   4.927   5.056  1.00 20.00    -0.040 C 
HETATM    3  C3  UNL     1     -34.481   5.716   3.877  1.00 20.00     0.202 C 
HETATM    4  O9  UNL     1     -34.872   5.324   2.786  1.00 20.00    -0.283 OA
ENDROOT
BRANCH   3   5
HETATM    5  C7  UNL     1     -33.707   7.001   4.083  1.00 20.00     0.101 C 
BRANCH   5   6
HETATM    6  C8  UNL     1     -32.350   7.068   3.346  1.00 20.00    -0.044 C 
HETATM    7  C4  UNL     1     -31.852   5.662   2.965  1.00 20.00     0.015 C 
HETATM    8  C5  UNL     1     -31.319   7.706   4.299  1.00 20.00     0.015 C 
HETATM    9  C6  UNL     1     -32.445   7.934   2.081  1.00 20.00     0.015 C 
ENDBRANCH   5   6
ENDBRANCH   3   5
TORSDOF 2
ENDMDL
MODEL 9
REMARK VINA RESULT:      -3.8     11.732     12.641
REMARK  2 active torsions:
REMARK  status: ('A' for Active; 'I' for Inactive)
REMARK    1  A    between atoms: C3_3  and  C7_7 
REMARK    2  A    between atoms: C7_7  and  C8_8 
ROOT
HETATM    1  C1  UNL     1     -32.045   8.236   2.222  1.00 20.00     0.021 C 
HETATM    2  C2  UNL     1     -32.542   7.204   2.577  1.00 20.00    -0.040 C 
HETATM    3  C3  UNL     1     -33.142   5.959   3.004  1.00 20.00     0.202 C 
HETATM    4  O9  UNL     1     -33.685   5.239   2.177  1.00 20.00    -0.283 OA
ENDROOT
BRANCH   3   5
HETATM    5  C7  UNL     1     -33.052   5.628   4.479  1.00 20.00     0.101 C 
BRANCH   5   6
HETATM    6  C8  UNL     1     -34.409   5.352   5.167  1.00 20.00    -0.044 C 
HETATM    7  C4  UNL     1     -35.586   5.727   4.250  1.00 20.00     0.015 C 
HETATM    8  C5  UNL     1     -34.487   6.224   6.437  1.00 20.00     0.015 C 
HETATM    9  C6  UNL     1     -34.535   3.878   5.581  1.00 20.00     0.015 C 
ENDBRANCH   5   6
ENDBRANCH   3   5
TORSDOF 2
ENDMDL
