MODEL 1
REMARK VINA RESULT:      -4.6      0.000      0.000
REMARK  2 active torsions:
REMARK  status: ('A' for Active; 'I' for Inactive)
REMARK    1  A    between atoms: C3_3  and  C7_7 
REMARK    2  A    between atoms: C8_8  and  C10_10 
ROOT
HETATM    1  C1  UNL     1     -35.058  14.784  -7.099  1.00 20.00     0.021 C 
HETATM    2  C2  UNL     1     -34.815  14.314  -6.021  1.00 20.00    -0.039 C 
HETATM    3  C3  UNL     1     -34.524  13.749  -4.726  1.00 20.00     0.205 C 
HETATM    4  O11 UNL     1     -34.845  12.593  -4.479  1.00 20.00    -0.283 OA
ENDROOT
BRANCH   3   5
HETATM    5  C7  UNL     1     -33.826  14.647  -3.751  1.00 20.00     0.069 C 
HETATM    6  C4  UNL     1     -34.824  15.241  -2.755  1.00 20.00     0.013 C 
HETATM    7  C5  UNL     1     -35.070  16.660  -3.249  1.00 20.00     0.005 C 
HETATM    8  C8  UNL     1     -33.698  17.083  -3.761  1.00 20.00    -0.014 C 
HETATM    9  C6  UNL     1     -33.190  15.835  -4.486  1.00 20.00     0.017 C 
BRANCH   8  10
HETATM   10  C10 UNL     1     -33.745  18.315  -4.647  1.00 20.00     0.000 C 
HETATM   11  C9  UNL     1     -33.702  17.963  -6.101  1.00 20.00     0.005 C 
ENDBRANCH   8  10
ENDBRANCH   3   5
TORSDOF 2
ENDMDL
MODEL 2
REMARK VINA RESULT:      -4.6      1.567      2.716
REMARK  2 active torsions:
REMARK  status: ('A' for Active; 'I' for Inactive)
REMARK    1  A    between atoms: C3_3  and  C7_7 
REMARK    2  A    between atoms: C8_8  and  C10_10 
ROOT
HETATM    1  C1  UNL     1     -34.178  17.333  -6.549  1.00 20.00     0.021 C 
HETATM    2  C2  UNL     1     -34.441  16.165  -6.462  1.00 20.00    -0.039 C 
HETATM    3  C3  UNL     1     -34.756  14.761  -6.357  1.00 20.00     0.205 C 
HETATM    4  O11 UNL     1     -35.178  14.157  -7.335  1.00 20.00    -0.283 OA
ENDROOT
BRANCH   3   5
HETATM    5  C7  UNL     1     -34.536  14.129  -5.017  1.00 20.00     0.069 C 
HETATM    6  C4  UNL     1     -35.851  14.038  -4.240  1.00 20.00     0.013 C 
HETATM    7  C5  UNL     1     -35.796  15.188  -3.243  1.00 20.00     0.005 C 
HETATM    8  C8  UNL     1     -34.325  15.219  -2.845  1.00 20.00    -0.014 C 
HETATM    9  C6  UNL     1     -33.593  14.995  -4.170  1.00 20.00     0.017 C 
BRANCH   8  10
HETATM   10  C10 UNL     1     -33.922  16.507  -2.147  1.00 20.00     0.000 C 
HETATM   11  C9  UNL     1     -34.602  16.664  -0.823  1.00 20.00     0.005 C 
ENDBRANCH   8  10
ENDBRANCH   3   5
TORSDOF 2
ENDMDL
MODEL 3
REMARK VINA RESULT:      -4.6      2.018      3.985
REMARK  2 active torsions:
REMARK  status: ('A' for Active; 'I' for Inactive)
REMARK    1  A    between atoms: C3_3  and  C7_7 
REMARK    2  A    between atoms: C8_8  and  C10_10 
ROOT
HETATM    1  C1  UNL     1     -34.623  17.023  -0.406  1.00 20.00     0.021 C 
HETATM    2  C2  UNL     1     -34.436  16.593  -1.511  1.00 20.00    -0.039 C 
HETATM    3  C3  UNL     1     -34.211  16.076  -2.840  1.00 20.00     0.205 C 
HETATM    4  O11 UNL     1     -33.292  16.518  -3.518  1.00 20.00    -0.283 OA
ENDROOT
BRANCH   3   5
HETATM    5  C7  UNL     1     -35.148  15.003  -3.302  1.00 20.00     0.069 C 
HETATM    6  C4  UNL     1     -34.418  13.664  -3.424  1.00 20.00     0.013 C 
HETATM    7  C5  UNL     1     -34.156  13.498  -4.916  1.00 20.00     0.005 C 
HETATM    8  C8  UNL     1     -35.413  14.087  -5.547  1.00 20.00    -0.014 C 
HETATM    9  C6  UNL     1     -35.685  15.333  -4.701  1.00 20.00     0.017 C 
BRANCH   8  10
HETATM   10  C10 UNL     1     -35.253  14.388  -7.027  1.00 20.00     0.000 C 
HETATM   11  C9  UNL     1     -34.429  15.614  -7.264  1.00 20.00     0.005 C 
ENDBRANCH   8  10
ENDBRANCH   3   5
TORSDOF 2
ENDMDL
MODEL 4
REMARK VINA RESULT:      -4.6      1.510      3.756
REMARK  2 active torsions:
REMARK  status: ('A' for Active; 'I' for Inactive)
REMARK    1  A    between atoms: C3_3  and  C7_7 
REMARK    2  A    between atoms: C8_8  and  C10_10 
ROOT
HETATM    1  C1  UNL     1     -34.445  16.706  -0.919  1.00 20.00     0.021 C 
HETATM    2  C2  UNL     1     -34.789  16.101  -1.898  1.00 20.00    -0.039 C 
HETATM    3  C3  UNL     1     -35.202  15.373  -3.073  1.00 20.00     0.205 C 
HETATM    4  O11 UNL     1     -36.383  15.091  -3.230  1.00 20.00    -0.283 OA
ENDROOT
BRANCH   3   5
HETATM    5  C7  UNL     1     -34.121  15.007  -4.042  1.00 20.00     0.069 C 
HETATM    6  C4  UNL     1     -33.514  16.262  -4.673  1.00 20.00     0.013 C 
HETATM    7  C5  UNL     1     -34.148  16.349  -6.055  1.00 20.00     0.005 C 
HETATM    8  C8  UNL     1     -34.244  14.887  -6.475  1.00 20.00    -0.014 C 
HETATM    9  C6  UNL     1     -34.700  14.179  -5.197  1.00 20.00     0.017 C 
BRANCH   8  10
HETATM   10  C10 UNL     1     -35.179  14.663  -7.652  1.00 20.00     0.000 C 
HETATM   11  C9  UNL     1     -36.599  14.985  -7.309  1.00 20.00     0.005 C 
ENDBRANCH   8  10
ENDBRANCH   3   5
TORSDOF 2
ENDMDL
MODEL 5
REMARK VINA RESULT:      -4.5      1.168      2.791
REMARK  2 active torsions:
REMARK  status: ('A' for Active; 'I' for Inactive)
REMARK    1  A    between atoms: C3_3  and  C7_7 
REMARK    2  A    between atoms: C8_8  and  C10_10 
ROOT
HETATM    1  C1  UNL     1     -32.637  14.721  -3.545  1.00 20.00     0.021 C 
HETATM    2  C2  UNL     1     -33.633  14.250  -4.023  1.00 20.00    -0.039 C 
HETATM    3  C3  UNL     1     -34.830  13.684  -4.598  1.00 20.00     0.205 C 
HETATM    4  O11 UNL     1     -35.133  12.524  -4.353  1.00 20.00    -0.283 OA
ENDROOT
BRANCH   3   5
HETATM    5  C7  UNL     1     -35.636  14.590  -5.477  1.00 20.00     0.069 C 
HETATM    6  C4  UNL     1     -35.265  14.387  -6.947  1.00 20.00     0.013 C 
HETATM    7  C5  UNL     1     -34.352  15.559  -7.285  1.00 20.00     0.005 C 
HETATM    8  C8  UNL     1     -34.968  16.706  -6.491  1.00 20.00    -0.014 C 
HETATM    9  C6  UNL     1     -35.328  16.058  -5.152  1.00 20.00     0.017 C 
BRANCH   8  10
HETATM   10  C10 UNL     1     -34.040  17.900  -6.351  1.00 20.00     0.000 C 
HETATM   11  C9  UNL     1     -33.574  18.086  -4.941  1.00 20.00     0.005 C 
ENDBRANCH   8  10
ENDBRANCH   3   5
TORSDOF 2
ENDMDL
MODEL 6
REMARK VINA RESULT:      -4.5      2.002      2.806
REMARK  2 active torsions:
REMARK  status: ('A' for Active; 'I' for Inactive)
REMARK    1  A    between atoms: C3_3  and  C7_7 
REMARK    2  A    between atoms: C8_8  and  C10_10 
ROOT
HETATM    1  C1  UNL     1     -35.503  14.388  -7.442  1.00 20.00     0.021 C 
HETATM    2  C2  UNL     1     -34.861  14.846  -6.537  1.00 20.00    -0.039 C 
HETATM    3  C3  UNL     1     -34.089  15.397  -5.449  1.00 20.00     0.205 C 
HETATM    4  O11 UNL     1     -33.292  16.301  -5.664  1.00 20.00    -0.283 OA
ENDROOT
BRANCH   3   5
HETATM    5  C7  UNL     1     -34.330  14.802  -4.096  1.00 20.00     0.069 C 
HETATM    6  C4  UNL     1     -35.793  14.976  -3.683  1.00 20.00     0.013 C 
HETATM    7  C5  UNL     1     -35.787  16.145  -2.707  1.00 20.00     0.005 C 
HETATM    8  C8  UNL     1     -34.482  15.942  -1.945  1.00 20.00    -0.014 C 
HETATM    9  C6  UNL     1     -33.492  15.532  -3.038  1.00 20.00     0.017 C 
BRANCH   8  10
HETATM   10  C10 UNL     1     -34.045  17.173  -1.170  1.00 20.00     0.000 C 
HETATM   11  C9  UNL     1     -34.793  17.321   0.118  1.00 20.00     0.005 C 
ENDBRANCH   8  10
ENDBRANCH   3   5
TORSDOF 2
ENDMDL
MODEL 7
REMARK VINA RESULT:      -4.5     11.418     13.049
REMARK  2 active torsions:
REMARK  status: ('A' for Active; 'I' for Inactive)
REMARK    1  A    between atoms: C3_3  and  C7_7 
REMARK    2  A    between atoms: C8_8  and  C10_10 
ROOT
HETATM    1  C1  UNL     1     -33.526   7.276   7.000  1.00 20.00     0.021 C 
HETATM    2  C2  UNL     1     -34.020   6.431   6.304  1.00 20.00    -0.039 C 
HETATM    3  C3  UNL     1     -34.614   5.416   5.468  1.00 20.00     0.205 C 
HETATM    4  O11 UNL     1     -35.028   4.379   5.970  1.00 20.00    -0.283 OA
ENDROOT
BRANCH   3   5
HETATM    5  C7  UNL     1     -34.683   5.720   4.003  1.00 20.00     0.069 C 
HETATM    6  C4  UNL     1     -33.817   4.741   3.208  1.00 20.00     0.013 C 
HETATM    7  C5  UNL     1     -32.547   5.518   2.884  1.00 20.00     0.005 C 
HETATM    8  C8  UNL     1     -33.069   6.927   2.629  1.00 20.00    -0.014 C 
HETATM    9  C6  UNL     1     -34.121   7.120   3.724  1.00 20.00     0.017 C 
BRANCH   8  10
HETATM   10  C10 UNL     1     -31.977   7.983   2.653  1.00 20.00     0.000 C 
HETATM   11  C9  UNL     1     -31.938   8.778   1.386  1.00 20.00     0.005 C 
ENDBRANCH   8  10
ENDBRANCH   3   5
TORSDOF 2
ENDMDL
MODEL 8
REMARK VINA RESULT:      -4.5     11.161     12.888
REMARK  2 active torsions:
REMARK  status: ('A' for Active; 'I' for Inactive)
REMARK    1  A    between atoms: C3_3  and  C7_7 
REMARK    2  A    between atoms: C8_8  and  C10_10 
ROOT
HETATM    1  C1  UNL     1     -32.105   8.820   0.928  1.00 20.00     0.021 C 
HETATM    2  C2  UNL     1     -32.061   8.144   1.920  1.00 20.00    -0.039 C 
HETATM    3  C3  UNL     1     -32.009   7.332   3.112  1.00 20.00     0.205 C 
HETATM    4  O11 UNL     1     -31.464   7.764   4.120  1.00 20.00    -0.283 OA
ENDROOT
BRANCH   3   5
HETATM    5  C7  UNL     1     -32.646   5.980   3.022  1.00 20.00     0.069 C 
HETATM    6  C4  UNL     1     -34.043   6.080   2.406  1.00 20.00     0.013 C 
HETATM    7  C5  UNL     1     -34.998   5.991   3.590  1.00 20.00     0.005 C 
HETATM    8  C8  UNL     1     -34.308   4.986   4.505  1.00 20.00    -0.014 C 
HETATM    9  C6  UNL     1     -32.833   5.387   4.425  1.00 20.00     0.017 C 
BRANCH   8  10
HETATM   10  C10 UNL     1     -34.856   4.995   5.922  1.00 20.00     0.000 C 
HETATM   11  C9  UNL     1     -34.356   6.164   6.710  1.00 20.00     0.005 C 
ENDBRANCH   8  10
ENDBRANCH   3   5
TORSDOF 2
ENDMDL
MODEL 9
REMARK VINA RESULT:      -4.4      1.838      2.929
REMARK  2 active torsions:
REMARK  status: ('A' for Active; 'I' for Inactive)
REMARK    1  A    between atoms: C3_3  and  C7_7 
REMARK    2  A    between atoms: C8_8  and  C10_10 
ROOT
HETATM    1  C1  UNL     1     -37.602  15.652  -4.735  1.00 20.00     0.021 C 
HETATM    2  C2  UNL     1     -36.783  15.224  -5.502  1.00 20.00    -0.039 C 
HETATM    3  C3  UNL     1     -35.799  14.710  -6.424  1.00 20.00     0.205 C 
HETATM    4  O11 UNL     1     -36.103  14.518  -7.594  1.00 20.00    -0.283 OA
ENDROOT
BRANCH   3   5
HETATM    5  C7  UNL     1     -34.437  14.444  -5.861  1.00 20.00     0.069 C 
HETATM    6  C4  UNL     1     -34.491  13.318  -4.826  1.00 20.00     0.013 C 
HETATM    7  C5  UNL     1     -34.453  14.025  -3.478  1.00 20.00     0.005 C 
HETATM    8  C8  UNL     1     -33.504  15.190  -3.734  1.00 20.00    -0.014 C 
HETATM    9  C6  UNL     1     -33.915  15.685  -5.123  1.00 20.00     0.017 C 
BRANCH   8  10
HETATM   10  C10 UNL     1     -33.580  16.268  -2.667  1.00 20.00     0.000 C 
HETATM   11  C9  UNL     1     -34.788  16.114  -1.798  1.00 20.00     0.005 C 
ENDBRANCH   8  10
ENDBRANCH   3   5
TORSDOF 2
ENDMDL
