MODEL 1
REMARK VINA RESULT:      -4.7      0.000      0.000
REMARK  1 active torsions:
REMARK  status: ('A' for Active; 'I' for Inactive)
REMARK    1  A    between atoms: C3_3  and  C7_7 
ROOT
HETATM    1  C1  UNL     1     -34.784  17.032  -0.043  1.00 20.00     0.021 C 
HETATM    2  C2  UNL     1     -34.354  17.093  -1.162  1.00 20.00    -0.039 C 
HETATM    3  C3  UNL     1     -33.837  17.168  -2.508  1.00 20.00     0.208 C 
HETATM    4  O10 UNL     1     -33.553  18.256  -2.991  1.00 20.00    -0.283 OA
ENDROOT
BRANCH   3   5
HETATM    5  C7  UNL     1     -33.682  15.867  -3.232  1.00 20.00     0.100 C 
HETATM    6  C6  UNL     1     -33.333  16.098  -4.706  1.00 20.00     0.047 C 
HETATM    7  C8  UNL     1     -34.503  15.418  -5.417  1.00 20.00     0.122 C 
HETATM    8  C4  UNL     1     -34.424  13.899  -5.269  1.00 20.00     0.034 C 
HETATM    9  O11 UNL     1     -35.594  15.733  -4.523  1.00 20.00    -0.380 OA
HETATM   10  C5  UNL     1     -34.813  13.699  -3.802  1.00 20.00     0.035 C 
HETATM   11  C9  UNL     1     -35.025  15.137  -3.330  1.00 20.00     0.134 C 
ENDBRANCH   3   5
TORSDOF 1
ENDMDL
MODEL 2
REMARK VINA RESULT:      -4.6      1.687      4.280
REMARK  1 active torsions:
REMARK  status: ('A' for Active; 'I' for Inactive)
REMARK    1  A    between atoms: C3_3  and  C7_7 
ROOT
HETATM    1  C1  UNL     1     -35.308  14.394  -7.567  1.00 20.00     0.021 C 
HETATM    2  C2  UNL     1     -35.228  14.179  -6.390  1.00 20.00    -0.039 C 
HETATM    3  C3  UNL     1     -35.131  13.920  -4.972  1.00 20.00     0.208 C 
HETATM    4  O10 UNL     1     -34.972  12.774  -4.573  1.00 20.00    -0.283 OA
ENDROOT
BRANCH   3   5
HETATM    5  C7  UNL     1     -35.236  15.111  -4.072  1.00 20.00     0.100 C 
HETATM    6  C6  UNL     1     -34.793  16.387  -4.796  1.00 20.00     0.047 C 
HETATM    7  C8  UNL     1     -33.627  16.854  -3.926  1.00 20.00     0.122 C 
HETATM    8  C4  UNL     1     -34.125  17.370  -2.576  1.00 20.00     0.034 C 
HETATM    9  O11 UNL     1     -33.037  15.591  -3.546  1.00 20.00    -0.380 OA
HETATM   10  C5  UNL     1     -34.524  16.074  -1.865  1.00 20.00     0.035 C 
HETATM   11  C9  UNL     1     -34.219  15.021  -2.930  1.00 20.00     0.134 C 
ENDBRANCH   3   5
TORSDOF 1
ENDMDL
MODEL 3
REMARK VINA RESULT:      -4.5      1.602      4.408
REMARK  1 active torsions:
REMARK  status: ('A' for Active; 'I' for Inactive)
REMARK    1  A    between atoms: C3_3  and  C7_7 
ROOT
HETATM    1  C1  UNL     1     -35.523  14.499  -7.704  1.00 20.00     0.021 C 
HETATM    2  C2  UNL     1     -35.131  14.183  -6.615  1.00 20.00    -0.039 C 
HETATM    3  C3  UNL     1     -34.658  13.803  -5.304  1.00 20.00     0.208 C 
HETATM    4  O10 UNL     1     -34.849  12.665  -4.896  1.00 20.00    -0.283 OA
ENDROOT
BRANCH   3   5
HETATM    5  C7  UNL     1     -33.949  14.863  -4.521  1.00 20.00     0.100 C 
HETATM    6  C6  UNL     1     -34.049  14.593  -3.016  1.00 20.00     0.047 C 
HETATM    7  C8  UNL     1     -34.761  15.849  -2.517  1.00 20.00     0.122 C 
HETATM    8  C4  UNL     1     -33.842  17.067  -2.596  1.00 20.00     0.034 C 
HETATM    9  O11 UNL     1     -35.670  16.109  -3.610  1.00 20.00    -0.380 OA
HETATM   10  C5  UNL     1     -33.793  17.334  -4.102  1.00 20.00     0.035 C 
HETATM   11  C9  UNL     1     -34.669  16.209  -4.653  1.00 20.00     0.134 C 
ENDBRANCH   3   5
TORSDOF 1
ENDMDL
MODEL 4
REMARK VINA RESULT:      -4.5      1.758      2.974
REMARK  1 active torsions:
REMARK  status: ('A' for Active; 'I' for Inactive)
REMARK    1  A    between atoms: C3_3  and  C7_7 
ROOT
HETATM    1  C1  UNL     1     -34.530  16.317  -1.627  1.00 20.00     0.021 C 
HETATM    2  C2  UNL     1     -34.596  15.507  -2.510  1.00 20.00    -0.039 C 
HETATM    3  C3  UNL     1     -34.675  14.531  -3.572  1.00 20.00     0.208 C 
HETATM    4  O10 UNL     1     -34.188  13.420  -3.414  1.00 20.00    -0.283 OA
ENDROOT
BRANCH   3   5
HETATM    5  C7  UNL     1     -35.369  14.969  -4.824  1.00 20.00     0.100 C 
HETATM    6  C6  UNL     1     -34.986  14.070  -6.005  1.00 20.00     0.047 C 
HETATM    7  C8  UNL     1     -34.360  15.073  -6.974  1.00 20.00     0.122 C 
HETATM    8  C4  UNL     1     -35.422  15.999  -7.564  1.00 20.00     0.034 C 
HETATM    9  O11 UNL     1     -33.686  15.964  -6.057  1.00 20.00    -0.380 OA
HETATM   10  C5  UNL     1     -35.755  16.905  -6.376  1.00 20.00     0.035 C 
HETATM   11  C9  UNL     1     -34.852  16.337  -5.281  1.00 20.00     0.134 C 
ENDBRANCH   3   5
TORSDOF 1
ENDMDL
MODEL 5
REMARK VINA RESULT:      -4.5     12.162     14.311
REMARK  1 active torsions:
REMARK  status: ('A' for Active; 'I' for Inactive)
REMARK    1  A    between atoms: C3_3  and  C7_7 
ROOT
HETATM    1  C1  UNL     1     -41.361   1.612  -4.041  1.00 20.00     0.021 C 
HETATM    2  C2  UNL     1     -41.818   2.384  -3.245  1.00 20.00    -0.039 C 
HETATM    3  C3  UNL     1     -42.370   3.314  -2.288  1.00 20.00     0.208 C 
HETATM    4  O10 UNL     1     -43.347   2.995  -1.624  1.00 20.00    -0.283 OA
ENDROOT
BRANCH   3   5
HETATM    5  C7  UNL     1     -41.681   4.638  -2.177  1.00 20.00     0.100 C 
HETATM    6  C6  UNL     1     -40.704   4.651  -0.996  1.00 20.00     0.047 C 
HETATM    7  C8  UNL     1     -41.259   5.787  -0.139  1.00 20.00     0.122 C 
HETATM    8  C4  UNL     1     -41.023   7.141  -0.807  1.00 20.00     0.034 C 
HETATM    9  O11 UNL     1     -42.681   5.618  -0.337  1.00 20.00    -0.380 OA
HETATM   10  C5  UNL     1     -42.036   7.114  -1.954  1.00 20.00     0.035 C 
HETATM   11  C9  UNL     1     -42.674   5.736  -1.782  1.00 20.00     0.134 C 
ENDBRANCH   3   5
TORSDOF 1
ENDMDL
MODEL 6
REMARK VINA RESULT:      -4.4     11.055     12.109
REMARK  1 active torsions:
REMARK  status: ('A' for Active; 'I' for Inactive)
REMARK    1  A    between atoms: C3_3  and  C7_7 
ROOT
HETATM    1  C1  UNL     1     -32.176   8.384   1.213  1.00 20.00     0.021 C 
HETATM    2  C2  UNL     1     -32.030   7.911   2.306  1.00 20.00    -0.039 C 
HETATM    3  C3  UNL     1     -31.853   7.342   3.622  1.00 20.00     0.208 C 
HETATM    4  O10 UNL     1     -31.085   7.870   4.414  1.00 20.00    -0.283 OA
ENDROOT
BRANCH   3   5
HETATM    5  C7  UNL     1     -32.648   6.110   3.924  1.00 20.00     0.100 C 
HETATM    6  C6  UNL     1     -33.511   5.706   2.723  1.00 20.00     0.047 C 
HETATM    7  C8  UNL     1     -34.920   5.772   3.311  1.00 20.00     0.122 C 
HETATM    8  C4  UNL     1     -35.149   4.637   4.308  1.00 20.00     0.034 C 
HETATM    9  O11 UNL     1     -34.801   6.907   4.197  1.00 20.00    -0.380 OA
HETATM   10  C5  UNL     1     -34.308   5.086   5.505  1.00 20.00     0.035 C 
HETATM   11  C9  UNL     1     -33.705   6.395   4.996  1.00 20.00     0.134 C 
ENDBRANCH   3   5
TORSDOF 1
ENDMDL
MODEL 7
REMARK VINA RESULT:      -4.4      1.858      2.820
REMARK  1 active torsions:
REMARK  status: ('A' for Active; 'I' for Inactive)
REMARK    1  A    between atoms: C3_3  and  C7_7 
ROOT
HETATM    1  C1  UNL     1     -34.609  16.218  -1.763  1.00 20.00     0.021 C 
HETATM    2  C2  UNL     1     -34.440  15.417  -2.640  1.00 20.00    -0.039 C 
HETATM    3  C3  UNL     1     -34.237  14.453  -3.696  1.00 20.00     0.208 C 
HETATM    4  O10 UNL     1     -34.257  13.257  -3.439  1.00 20.00    -0.283 OA
ENDROOT
BRANCH   3   5
HETATM    5  C7  UNL     1     -34.009  15.009  -5.067  1.00 20.00     0.100 C 
HETATM    6  C6  UNL     1     -34.271  16.519  -5.097  1.00 20.00     0.047 C 
HETATM    7  C8  UNL     1     -35.393  16.624  -6.128  1.00 20.00     0.122 C 
HETATM    8  C4  UNL     1     -34.873  16.328  -7.534  1.00 20.00     0.034 C 
HETATM    9  O11 UNL     1     -36.146  15.423  -5.847  1.00 20.00    -0.380 OA
HETATM   10  C5  UNL     1     -34.658  14.813  -7.485  1.00 20.00     0.035 C 
HETATM   11  C9  UNL     1     -35.061  14.482  -6.048  1.00 20.00     0.134 C 
ENDBRANCH   3   5
TORSDOF 1
ENDMDL
MODEL 8
REMARK VINA RESULT:      -4.4      1.053      1.744
REMARK  1 active torsions:
REMARK  status: ('A' for Active; 'I' for Inactive)
REMARK    1  A    between atoms: C3_3  and  C7_7 
ROOT
HETATM    1  C1  UNL     1     -34.650  16.924  -0.350  1.00 20.00     0.021 C 
HETATM    2  C2  UNL     1     -34.458  17.054  -1.527  1.00 20.00    -0.039 C 
HETATM    3  C3  UNL     1     -34.228  17.210  -2.944  1.00 20.00     0.208 C 
HETATM    4  O10 UNL     1     -33.594  18.172  -3.355  1.00 20.00    -0.283 OA
ENDROOT
BRANCH   3   5
HETATM    5  C7  UNL     1     -34.801  16.148  -3.831  1.00 20.00     0.100 C 
HETATM    6  C6  UNL     1     -35.191  14.908  -3.019  1.00 20.00     0.047 C 
HETATM    7  C8  UNL     1     -34.321  13.826  -3.658  1.00 20.00     0.122 C 
HETATM    8  C4  UNL     1     -34.811  13.494  -5.067  1.00 20.00     0.034 C 
HETATM    9  O11 UNL     1     -33.116  14.569  -3.946  1.00 20.00    -0.380 OA
HETATM   10  C5  UNL     1     -34.375  14.730  -5.859  1.00 20.00     0.035 C 
HETATM   11  C9  UNL     1     -33.729  15.590  -4.773  1.00 20.00     0.134 C 
ENDBRANCH   3   5
TORSDOF 1
ENDMDL
MODEL 9
REMARK VINA RESULT:      -4.4      1.299      4.002
REMARK  1 active torsions:
REMARK  status: ('A' for Active; 'I' for Inactive)
REMARK    1  A    between atoms: C3_3  and  C7_7 
ROOT
HETATM    1  C1  UNL     1     -34.517  13.394  -4.860  1.00 20.00     0.021 C 
HETATM    2  C2  UNL     1     -34.033  14.429  -4.494  1.00 20.00    -0.039 C 
HETATM    3  C3  UNL     1     -33.449  15.675  -4.055  1.00 20.00     0.208 C 
HETATM    4  O10 UNL     1     -32.812  16.359  -4.844  1.00 20.00    -0.283 OA
ENDROOT
BRANCH   3   5
HETATM    5  C7  UNL     1     -33.677  16.045  -2.623  1.00 20.00     0.100 C 
HETATM    6  C6  UNL     1     -35.122  15.754  -2.204  1.00 20.00     0.047 C 
HETATM    7  C8  UNL     1     -35.615  17.140  -1.791  1.00 20.00     0.122 C 
HETATM    8  C4  UNL     1     -34.954  17.589  -0.488  1.00 20.00     0.034 C 
HETATM    9  O11 UNL     1     -34.939  17.977  -2.755  1.00 20.00    -0.380 OA
HETATM   10  C5  UNL     1     -33.528  17.908  -0.945  1.00 20.00     0.035 C 
HETATM   11  C9  UNL     1     -33.587  17.563  -2.433  1.00 20.00     0.134 C 
ENDBRANCH   3   5
TORSDOF 1
ENDMDL
