MODEL 1
REMARK VINA RESULT:      -4.5      0.000      0.000
REMARK  3 active torsions:
REMARK  status: ('A' for Active; 'I' for Inactive)
REMARK    1  A    between atoms: C7_7  and  C9_9 
REMARK    2  A    between atoms: C9_9  and  C10_10 
REMARK    3  A    between atoms: C10_10  and  N11_11 
ROOT
HETATM    1  C1  UNL     1     -34.941   4.406   5.356  1.00 20.00     0.029 C 
HETATM    2  C4  UNL     1     -34.961   5.539   6.379  1.00 20.00     0.023 C 
HETATM    3  C5  UNL     1     -34.622   4.912   3.957  1.00 20.00     0.235 C 
HETATM    4  C6  UNL     1     -33.345   6.840   4.938  1.00 20.00     0.254 C 
HETATM    5  C8  UNL     1     -33.655   6.331   6.340  1.00 20.00     0.108 C 
HETATM    6  N11 UNL     1     -33.315   5.670   3.980  1.00 20.00    -0.070 N 
HETATM    7 CL12 UNL     1     -33.755   7.712   7.469  1.00 20.00    -0.123 Cl
HETATM    8  H31 UNL     1     -32.592   5.019   4.317  1.00 20.00     0.279 HD
ENDROOT
BRANCH   6   9
HETATM    9  C10 UNL     1     -32.894   6.093   2.600  1.00 20.00     0.235 C 
BRANCH   9  10
HETATM   10  C9  UNL     1     -32.203   7.445   2.683  1.00 20.00     0.032 C 
BRANCH  10  11
HETATM   11  C7  UNL     1     -32.706   8.387   1.601  1.00 20.00    -0.013 A 
HETATM   12  C2  UNL     1     -32.406   9.858   1.677  1.00 20.00     0.005 A 
HETATM   13  C3  UNL     1     -31.741   9.009   0.631  1.00 20.00     0.005 A 
ENDBRANCH  10  11
ENDBRANCH   9  10
ENDBRANCH   6   9
TORSDOF 3
ENDMDL
MODEL 2
REMARK VINA RESULT:      -4.5     11.451     12.577
REMARK  3 active torsions:
REMARK  status: ('A' for Active; 'I' for Inactive)
REMARK    1  A    between atoms: C7_7  and  C9_9 
REMARK    2  A    between atoms: C9_9  and  C10_10 
REMARK    3  A    between atoms: C10_10  and  N11_11 
ROOT
HETATM    1  C1  UNL     1     -35.073  13.352  -4.148  1.00 20.00     0.029 C 
HETATM    2  C4  UNL     1     -34.788  13.537  -5.636  1.00 20.00     0.023 C 
HETATM    3  C5  UNL     1     -34.393  14.422  -3.305  1.00 20.00     0.235 C 
HETATM    4  C6  UNL     1     -34.471  16.012  -5.247  1.00 20.00     0.254 C 
HETATM    5  C8  UNL     1     -35.160  14.947  -6.091  1.00 20.00     0.108 C 
HETATM    6  N11 UNL     1     -34.812  15.789  -3.791  1.00 20.00    -0.070 N 
HETATM    7 CL12 UNL     1     -34.714  15.163  -7.807  1.00 20.00    -0.123 Cl
HETATM    8  H31 UNL     1     -35.837  15.841  -3.706  1.00 20.00     0.279 HD
ENDROOT
BRANCH   6   9
HETATM    9  C10 UNL     1     -34.260  16.882  -2.918  1.00 20.00     0.235 C 
BRANCH   9  10
HETATM   10  C9  UNL     1     -34.396  16.470  -1.460  1.00 20.00     0.032 C 
BRANCH  10  11
HETATM   11  C7  UNL     1     -34.815  17.647  -0.594  1.00 20.00    -0.013 A 
HETATM   12  C2  UNL     1     -35.151  17.440   0.856  1.00 20.00     0.005 A 
HETATM   13  C3  UNL     1     -33.893  18.167   0.473  1.00 20.00     0.005 A 
ENDBRANCH  10  11
ENDBRANCH   9  10
ENDBRANCH   6   9
TORSDOF 3
ENDMDL
MODEL 3
REMARK VINA RESULT:      -4.5     11.247     12.554
REMARK  3 active torsions:
REMARK  status: ('A' for Active; 'I' for Inactive)
REMARK    1  A    between atoms: C7_7  and  C9_9 
REMARK    2  A    between atoms: C9_9  and  C10_10 
REMARK    3  A    between atoms: C10_10  and  N11_11 
ROOT
HETATM    1  C1  UNL     1     -33.439  16.782  -5.298  1.00 20.00     0.029 C 
HETATM    2  C4  UNL     1     -34.287  15.516  -5.385  1.00 20.00     0.023 C 
HETATM    3  C5  UNL     1     -33.704  17.553  -4.013  1.00 20.00     0.235 C 
HETATM    4  C6  UNL     1     -34.367  15.421  -2.862  1.00 20.00     0.254 C 
HETATM    5  C8  UNL     1     -34.094  14.645  -4.145  1.00 20.00     0.108 C 
HETATM    6  N11 UNL     1     -33.481  16.646  -2.825  1.00 20.00    -0.070 N 
HETATM    7 CL12 UNL     1     -35.179  13.229  -4.228  1.00 20.00    -0.123 Cl
HETATM    8  H31 UNL     1     -32.506  16.320  -2.871  1.00 20.00     0.279 HD
ENDROOT
BRANCH   6   9
HETATM    9  C10 UNL     1     -33.617  17.391  -1.526  1.00 20.00     0.235 C 
BRANCH   9  10
HETATM   10  C9  UNL     1     -34.695  16.728  -0.683  1.00 20.00     0.032 C 
BRANCH  10  11
HETATM   11  C7  UNL     1     -35.323  17.718   0.285  1.00 20.00    -0.013 A 
HETATM   12  C2  UNL     1     -35.330  17.434   1.761  1.00 20.00     0.005 A 
HETATM   13  C3  UNL     1     -34.455  18.525   1.210  1.00 20.00     0.005 A 
ENDBRANCH  10  11
ENDBRANCH   9  10
ENDBRANCH   6   9
TORSDOF 3
ENDMDL
MODEL 4
REMARK VINA RESULT:      -4.5     11.794     13.636
REMARK  3 active torsions:
REMARK  status: ('A' for Active; 'I' for Inactive)
REMARK    1  A    between atoms: C7_7  and  C9_9 
REMARK    2  A    between atoms: C9_9  and  C10_10 
REMARK    3  A    between atoms: C10_10  and  N11_11 
ROOT
HETATM    1  C1  UNL     1     -33.798  17.772  -6.526  1.00 20.00     0.029 C 
HETATM    2  C4  UNL     1     -34.783  16.880  -7.276  1.00 20.00     0.023 C 
HETATM    3  C5  UNL     1     -33.668  17.367  -5.065  1.00 20.00     0.235 C 
HETATM    4  C6  UNL     1     -34.289  15.007  -5.655  1.00 20.00     0.254 C 
HETATM    5  C8  UNL     1     -34.411  15.407  -7.121  1.00 20.00     0.108 C 
HETATM    6  N11 UNL     1     -33.283  15.909  -4.977  1.00 20.00    -0.070 N 
HETATM    7 CL12 UNL     1     -35.643  14.387  -7.918  1.00 20.00    -0.123 Cl
HETATM    8  H31 UNL     1     -32.389  15.800  -5.476  1.00 20.00     0.279 HD
ENDROOT
BRANCH   6   9
HETATM    9  C10 UNL     1     -33.028  15.487  -3.556  1.00 20.00     0.235 C 
BRANCH   9  10
HETATM   10  C9  UNL     1     -34.356  15.384  -2.823  1.00 20.00     0.032 C 
BRANCH  10  11
HETATM   11  C7  UNL     1     -34.670  16.667  -2.070  1.00 20.00    -0.013 A 
HETATM   12  C2  UNL     1     -34.717  16.672  -0.568  1.00 20.00     0.005 A 
HETATM   13  C3  UNL     1     -33.595  17.366  -1.287  1.00 20.00     0.005 A 
ENDBRANCH  10  11
ENDBRANCH   9  10
ENDBRANCH   6   9
TORSDOF 3
ENDMDL
MODEL 5
REMARK VINA RESULT:      -4.4     11.188     11.992
REMARK  3 active torsions:
REMARK  status: ('A' for Active; 'I' for Inactive)
REMARK    1  A    between atoms: C7_7  and  C9_9 
REMARK    2  A    between atoms: C9_9  and  C10_10 
REMARK    3  A    between atoms: C10_10  and  N11_11 
ROOT
HETATM    1  C1  UNL     1     -34.026  13.622  -4.233  1.00 20.00     0.029 C 
HETATM    2  C4  UNL     1     -35.410  13.845  -4.837  1.00 20.00     0.023 C 
HETATM    3  C5  UNL     1     -33.453  14.902  -3.643  1.00 20.00     0.235 C 
HETATM    4  C6  UNL     1     -35.777  15.762  -3.234  1.00 20.00     0.254 C 
HETATM    5  C8  UNL     1     -36.354  14.477  -3.816  1.00 20.00     0.108 C 
HETATM    6  N11 UNL     1     -34.422  15.469  -2.632  1.00 20.00    -0.070 N 
HETATM    7 CL12 UNL     1     -37.928  14.824  -4.586  1.00 20.00    -0.123 Cl
HETATM    8  H31 UNL     1     -34.558  14.752  -1.906  1.00 20.00     0.279 HD
ENDROOT
BRANCH   6   9
HETATM    9  C10 UNL     1     -33.853  16.674  -1.934  1.00 20.00     0.235 C 
BRANCH   9  10
HETATM   10  C9  UNL     1     -34.567  16.861  -0.604  1.00 20.00     0.032 C 
BRANCH  10  11
HETATM   11  C7  UNL     1     -34.300  18.242  -0.028  1.00 20.00    -0.013 A 
HETATM   12  C2  UNL     1     -33.886  18.397   1.409  1.00 20.00     0.005 A 
HETATM   13  C3  UNL     1     -32.897  18.663   0.309  1.00 20.00     0.005 A 
ENDBRANCH  10  11
ENDBRANCH   9  10
ENDBRANCH   6   9
TORSDOF 3
ENDMDL
MODEL 6
REMARK VINA RESULT:      -4.3     10.588     11.963
REMARK  3 active torsions:
REMARK  status: ('A' for Active; 'I' for Inactive)
REMARK    1  A    between atoms: C7_7  and  C9_9 
REMARK    2  A    between atoms: C9_9  and  C10_10 
REMARK    3  A    between atoms: C10_10  and  N11_11 
ROOT
HETATM    1  C1  UNL     1     -40.773   6.073  -0.495  1.00 20.00     0.029 C 
HETATM    2  C4  UNL     1     -41.558   7.236  -1.095  1.00 20.00     0.023 C 
HETATM    3  C5  UNL     1     -41.486   4.744  -0.698  1.00 20.00     0.235 C 
HETATM    4  C6  UNL     1     -42.599   5.647  -2.761  1.00 20.00     0.254 C 
HETATM    5  C8  UNL     1     -41.879   6.976  -2.566  1.00 20.00     0.108 C 
HETATM    6  N11 UNL     1     -41.760   4.537  -2.169  1.00 20.00    -0.070 N 
HETATM    7 CL12 UNL     1     -42.890   8.302  -3.205  1.00 20.00    -0.123 Cl
HETATM    8  H31 UNL     1     -40.850   4.551  -2.652  1.00 20.00     0.279 HD
ENDROOT
BRANCH   6   9
HETATM    9  C10 UNL     1     -42.360   3.184  -2.437  1.00 20.00     0.235 C 
BRANCH   9  10
HETATM   10  C9  UNL     1     -41.424   2.394  -3.337  1.00 20.00     0.032 C 
BRANCH  10  11
HETATM   11  C7  UNL     1     -42.156   1.253  -4.024  1.00 20.00    -0.013 A 
HETATM   12  C2  UNL     1     -41.570  -0.132  -4.027  1.00 20.00     0.005 A 
HETATM   13  C3  UNL     1     -42.795   0.164  -3.209  1.00 20.00     0.005 A 
ENDBRANCH  10  11
ENDBRANCH   9  10
ENDBRANCH   6   9
TORSDOF 3
ENDMDL
MODEL 7
REMARK VINA RESULT:      -4.3     11.809     13.271
REMARK  3 active torsions:
REMARK  status: ('A' for Active; 'I' for Inactive)
REMARK    1  A    between atoms: C7_7  and  C9_9 
REMARK    2  A    between atoms: C9_9  and  C10_10 
REMARK    3  A    between atoms: C10_10  and  N11_11 
ROOT
HETATM    1  C1  UNL     1     -35.082  14.400  -6.822  1.00 20.00     0.029 C 
HETATM    2  C4  UNL     1     -34.435  15.702  -7.288  1.00 20.00     0.023 C 
HETATM    3  C5  UNL     1     -34.734  14.083  -5.375  1.00 20.00     0.235 C 
HETATM    4  C6  UNL     1     -34.433  16.531  -4.902  1.00 20.00     0.254 C 
HETATM    5  C8  UNL     1     -34.789  16.853  -6.349  1.00 20.00     0.108 C 
HETATM    6  N11 UNL     1     -35.123  15.248  -4.496  1.00 20.00    -0.070 N 
HETATM    7 CL12 UNL     1     -33.931  18.333  -6.860  1.00 20.00    -0.123 Cl
HETATM    8  H31 UNL     1     -36.135  15.394  -4.614  1.00 20.00     0.279 HD
ENDROOT
BRANCH   6   9
HETATM    9  C10 UNL     1     -34.907  14.940  -3.039  1.00 20.00     0.235 C 
BRANCH   9  10
HETATM   10  C9  UNL     1     -34.049  16.032  -2.422  1.00 20.00     0.032 C 
BRANCH  10  11
HETATM   11  C7  UNL     1     -34.604  16.473  -1.077  1.00 20.00    -0.013 A 
HETATM   12  C2  UNL     1     -34.039  17.681  -0.382  1.00 20.00     0.005 A 
HETATM   13  C3  UNL     1     -35.421  17.729  -0.970  1.00 20.00     0.005 A 
ENDBRANCH  10  11
ENDBRANCH   9  10
ENDBRANCH   6   9
TORSDOF 3
ENDMDL
MODEL 8
REMARK VINA RESULT:      -4.2     11.166     13.184
REMARK  3 active torsions:
REMARK  status: ('A' for Active; 'I' for Inactive)
REMARK    1  A    between atoms: C7_7  and  C9_9 
REMARK    2  A    between atoms: C9_9  and  C10_10 
REMARK    3  A    between atoms: C10_10  and  N11_11 
ROOT
HETATM    1  C1  UNL     1     -34.280  13.679  -3.835  1.00 20.00     0.029 C 
HETATM    2  C4  UNL     1     -34.324  14.989  -3.054  1.00 20.00     0.023 C 
HETATM    3  C5  UNL     1     -34.770  13.856  -5.265  1.00 20.00     0.235 C 
HETATM    4  C6  UNL     1     -34.059  16.265  -5.218  1.00 20.00     0.254 C 
HETATM    5  C8  UNL     1     -33.559  16.088  -3.789  1.00 20.00     0.108 C 
HETATM    6  N11 UNL     1     -33.966  14.941  -5.943  1.00 20.00    -0.070 N 
HETATM    7 CL12 UNL     1     -33.723  17.631  -2.904  1.00 20.00    -0.123 Cl
HETATM    8  H31 UNL     1     -32.979  14.648  -5.919  1.00 20.00     0.279 HD
ENDROOT
BRANCH   6   9
HETATM    9  C10 UNL     1     -34.332  15.076  -7.395  1.00 20.00     0.235 C 
BRANCH   9  10
HETATM   10  C9  UNL     1     -35.678  14.411  -7.633  1.00 20.00     0.032 C 
BRANCH  10  11
HETATM   11  C7  UNL     1     -36.777  15.445  -7.816  1.00 20.00    -0.013 A 
HETATM   12  C2  UNL     1     -38.221  15.025  -7.820  1.00 20.00     0.005 A 
HETATM   13  C3  UNL     1     -37.671  15.812  -6.664  1.00 20.00     0.005 A 
ENDBRANCH  10  11
ENDBRANCH   9  10
ENDBRANCH   6   9
TORSDOF 3
ENDMDL
MODEL 9
REMARK VINA RESULT:      -4.2     11.830     13.504
REMARK  3 active torsions:
REMARK  status: ('A' for Active; 'I' for Inactive)
REMARK    1  A    between atoms: C7_7  and  C9_9 
REMARK    2  A    between atoms: C9_9  and  C10_10 
REMARK    3  A    between atoms: C10_10  and  N11_11 
ROOT
HETATM    1  C1  UNL     1     -33.644  18.207  -5.346  1.00 20.00     0.029 C 
HETATM    2  C4  UNL     1     -34.191  17.301  -6.445  1.00 20.00     0.023 C 
HETATM    3  C5  UNL     1     -34.181  17.822  -3.975  1.00 20.00     0.235 C 
HETATM    4  C6  UNL     1     -34.477  15.451  -4.749  1.00 20.00     0.254 C 
HETATM    5  C8  UNL     1     -33.931  15.832  -6.120  1.00 20.00     0.108 C 
HETATM    6  N11 UNL     1     -33.878  16.367  -3.705  1.00 20.00    -0.070 N 
HETATM    7 CL12 UNL     1     -34.679  14.796  -7.368  1.00 20.00    -0.123 Cl
HETATM    8  H31 UNL     1     -32.856  16.255  -3.751  1.00 20.00     0.279 HD
ENDROOT
BRANCH   6   9
HETATM    9  C10 UNL     1     -34.285  15.965  -2.314  1.00 20.00     0.235 C 
BRANCH   9  10
HETATM   10  C9  UNL     1     -33.921  17.080  -1.347  1.00 20.00     0.032 C 
BRANCH  10  11
HETATM   11  C7  UNL     1     -34.788  17.030  -0.099  1.00 20.00    -0.013 A 
HETATM   12  C2  UNL     1     -34.561  18.006   1.021  1.00 20.00     0.005 A 
HETATM   13  C3  UNL     1     -35.793  18.115   0.168  1.00 20.00     0.005 A 
ENDBRANCH  10  11
ENDBRANCH   9  10
ENDBRANCH   6   9
TORSDOF 3
ENDMDL
