MODEL 1
REMARK VINA RESULT:      -5.2      0.000      0.000
REMARK  1 active torsions:
REMARK  status: ('A' for Active; 'I' for Inactive)
REMARK    1  A    between atoms: C3_3  and  C5_5 
ROOT
HETATM    1  C1  UNL     1     -32.179   8.631   1.848  1.00 20.00     0.021 C 
HETATM    2  C2  UNL     1     -32.386   7.640   2.493  1.00 20.00    -0.039 C 
HETATM    3  C3  UNL     1     -32.634   6.447   3.267  1.00 20.00     0.206 C 
HETATM    4  O8  UNL     1     -31.840   5.517   3.224  1.00 20.00    -0.283 OA
ENDROOT
BRANCH   3   5
HETATM    5  C5  UNL     1     -33.858   6.440   4.075  1.00 20.00     0.073 A 
HETATM    6  C4  UNL     1     -35.008   5.557   3.663  1.00 20.00     0.018 A 
HETATM    7  C6  UNL     1     -34.200   5.211   4.882  1.00 20.00    -0.006 A 
HETATM    8  C7  UNL     1     -34.796   5.348   6.240  1.00 20.00     0.011 C 
ENDBRANCH   3   5
TORSDOF 1
ENDMDL
MODEL 2
REMARK VINA RESULT:      -4.8      1.457      4.075
REMARK  1 active torsions:
REMARK  status: ('A' for Active; 'I' for Inactive)
REMARK    1  A    between atoms: C3_3  and  C5_5 
ROOT
HETATM    1  C1  UNL     1     -34.960   4.411   6.315  1.00 20.00     0.021 C 
HETATM    2  C2  UNL     1     -34.788   5.011   5.289  1.00 20.00    -0.039 C 
HETATM    3  C3  UNL     1     -34.582   5.732   4.055  1.00 20.00     0.206 C 
HETATM    4  O8  UNL     1     -35.447   5.716   3.189  1.00 20.00    -0.283 OA
ENDROOT
BRANCH   3   5
HETATM    5  C5  UNL     1     -33.312   6.455   3.929  1.00 20.00     0.073 A 
HETATM    6  C4  UNL     1     -32.121   5.751   3.330  1.00 20.00     0.018 A 
HETATM    7  C6  UNL     1     -32.816   6.835   2.555  1.00 20.00    -0.006 A 
HETATM    8  C7  UNL     1     -32.147   8.148   2.337  1.00 20.00     0.011 C 
ENDBRANCH   3   5
TORSDOF 1
ENDMDL
MODEL 3
REMARK VINA RESULT:      -4.7      1.696      4.032
REMARK  1 active torsions:
REMARK  status: ('A' for Active; 'I' for Inactive)
REMARK    1  A    between atoms: C3_3  and  C5_5 
ROOT
HETATM    1  C1  UNL     1     -35.233   4.039   5.908  1.00 20.00     0.021 C 
HETATM    2  C2  UNL     1     -34.560   5.014   5.711  1.00 20.00    -0.039 C 
HETATM    3  C3  UNL     1     -33.752   6.186   5.475  1.00 20.00     0.206 C 
HETATM    4  O8  UNL     1     -33.776   7.113   6.275  1.00 20.00    -0.283 OA
ENDROOT
BRANCH   3   5
HETATM    5  C5  UNL     1     -32.936   6.179   4.257  1.00 20.00     0.073 A 
HETATM    6  C4  UNL     1     -33.561   5.749   2.954  1.00 20.00     0.018 A 
HETATM    7  C6  UNL     1     -33.217   7.195   3.177  1.00 20.00    -0.006 A 
HETATM    8  C7  UNL     1     -32.093   7.822   2.427  1.00 20.00     0.011 C 
ENDBRANCH   3   5
TORSDOF 1
ENDMDL
MODEL 4
REMARK VINA RESULT:      -4.6      2.043      3.701
REMARK  1 active torsions:
REMARK  status: ('A' for Active; 'I' for Inactive)
REMARK    1  A    between atoms: C3_3  and  C5_5 
ROOT
HETATM    1  C1  UNL     1     -33.566   7.492   7.129  1.00 20.00     0.021 C 
HETATM    2  C2  UNL     1     -34.002   6.539   6.542  1.00 20.00    -0.039 C 
HETATM    3  C3  UNL     1     -34.528   5.393   5.838  1.00 20.00     0.206 C 
HETATM    4  O8  UNL     1     -35.386   4.697   6.364  1.00 20.00    -0.283 OA
ENDROOT
BRANCH   3   5
HETATM    5  C5  UNL     1     -33.977   5.143   4.502  1.00 20.00     0.073 A 
HETATM    6  C4  UNL     1     -34.797   5.496   3.288  1.00 20.00     0.018 A 
HETATM    7  C6  UNL     1     -33.586   6.315   3.636  1.00 20.00    -0.006 A 
HETATM    8  C7  UNL     1     -32.364   6.244   2.787  1.00 20.00     0.011 C 
ENDBRANCH   3   5
TORSDOF 1
ENDMDL
MODEL 5
REMARK VINA RESULT:      -4.6     11.100     11.880
REMARK  1 active torsions:
REMARK  status: ('A' for Active; 'I' for Inactive)
REMARK    1  A    between atoms: C3_3  and  C5_5 
ROOT
HETATM    1  C1  UNL     1     -34.645  14.831  -7.008  1.00 20.00     0.021 C 
HETATM    2  C2  UNL     1     -34.605  14.354  -5.907  1.00 20.00    -0.039 C 
HETATM    3  C3  UNL     1     -34.557  13.778  -4.584  1.00 20.00     0.206 C 
HETATM    4  O8  UNL     1     -35.037  12.670  -4.384  1.00 20.00    -0.283 OA
ENDROOT
BRANCH   3   5
HETATM    5  C5  UNL     1     -33.915  14.591  -3.545  1.00 20.00     0.073 A 
HETATM    6  C4  UNL     1     -33.387  15.957  -3.900  1.00 20.00     0.018 A 
HETATM    7  C6  UNL     1     -34.616  15.830  -3.043  1.00 20.00    -0.006 A 
HETATM    8  C7  UNL     1     -34.562  16.188  -1.598  1.00 20.00     0.011 C 
ENDBRANCH   3   5
TORSDOF 1
ENDMDL
MODEL 6
REMARK VINA RESULT:      -4.1     11.073     12.469
REMARK  1 active torsions:
REMARK  status: ('A' for Active; 'I' for Inactive)
REMARK    1  A    between atoms: C3_3  and  C5_5 
ROOT
HETATM    1  C1  UNL     1     -34.489  16.254  -1.804  1.00 20.00     0.021 C 
HETATM    2  C2  UNL     1     -34.565  15.414  -2.659  1.00 20.00    -0.039 C 
HETATM    3  C3  UNL     1     -34.654  14.403  -3.686  1.00 20.00     0.206 C 
HETATM    4  O8  UNL     1     -34.233  13.274  -3.468  1.00 20.00    -0.283 OA
ENDROOT
BRANCH   3   5
HETATM    5  C5  UNL     1     -35.265  14.817  -4.954  1.00 20.00     0.073 A 
HETATM    6  C4  UNL     1     -35.157  16.256  -5.388  1.00 20.00     0.018 A 
HETATM    7  C6  UNL     1     -34.372  15.197  -6.110  1.00 20.00    -0.006 A 
HETATM    8  C7  UNL     1     -34.741  14.808  -7.500  1.00 20.00     0.011 C 
ENDBRANCH   3   5
TORSDOF 1
ENDMDL
MODEL 7
REMARK VINA RESULT:      -4.0     11.084     12.203
REMARK  1 active torsions:
REMARK  status: ('A' for Active; 'I' for Inactive)
REMARK    1  A    between atoms: C3_3  and  C5_5 
ROOT
HETATM    1  C1  UNL     1     -33.704  13.577  -3.834  1.00 20.00     0.021 C 
HETATM    2  C2  UNL     1     -33.634  14.775  -3.864  1.00 20.00    -0.039 C 
HETATM    3  C3  UNL     1     -33.549  16.216  -3.901  1.00 20.00     0.206 C 
HETATM    4  O8  UNL     1     -32.924  16.766  -4.798  1.00 20.00    -0.283 OA
ENDROOT
BRANCH   3   5
HETATM    5  C5  UNL     1     -34.242  16.935  -2.827  1.00 20.00     0.073 A 
HETATM    6  C4  UNL     1     -34.746  16.167  -1.632  1.00 20.00     0.018 A 
HETATM    7  C6  UNL     1     -33.565  17.086  -1.487  1.00 20.00    -0.006 A 
HETATM    8  C7  UNL     1     -33.694  18.358  -0.722  1.00 20.00     0.011 C 
ENDBRANCH   3   5
TORSDOF 1
ENDMDL
MODEL 8
REMARK VINA RESULT:      -4.0     11.487     12.678
REMARK  1 active torsions:
REMARK  status: ('A' for Active; 'I' for Inactive)
REMARK    1  A    between atoms: C3_3  and  C5_5 
ROOT
HETATM    1  C1  UNL     1     -34.578  14.942  -7.328  1.00 20.00     0.021 C 
HETATM    2  C2  UNL     1     -34.266  15.544  -6.337  1.00 20.00    -0.039 C 
HETATM    3  C3  UNL     1     -33.890  16.270  -5.147  1.00 20.00     0.206 C 
HETATM    4  O8  UNL     1     -32.977  17.083  -5.193  1.00 20.00    -0.283 OA
ENDROOT
BRANCH   3   5
HETATM    5  C5  UNL     1     -34.656  15.968  -3.933  1.00 20.00     0.073 A 
HETATM    6  C4  UNL     1     -34.458  14.640  -3.248  1.00 20.00     0.018 A 
HETATM    7  C6  UNL     1     -33.936  15.896  -2.608  1.00 20.00    -0.006 A 
HETATM    8  C7  UNL     1     -34.579  16.432  -1.376  1.00 20.00     0.011 C 
ENDBRANCH   3   5
TORSDOF 1
ENDMDL
MODEL 9
REMARK VINA RESULT:      -3.9      9.706     11.030
REMARK  1 active torsions:
REMARK  status: ('A' for Active; 'I' for Inactive)
REMARK    1  A    between atoms: C3_3  and  C5_5 
ROOT
HETATM    1  C1  UNL     1     -41.727   2.040  -3.461  1.00 20.00     0.021 C 
HETATM    2  C2  UNL     1     -42.144   3.128  -3.170  1.00 20.00    -0.039 C 
HETATM    3  C3  UNL     1     -42.646   4.435  -2.821  1.00 20.00     0.206 C 
HETATM    4  O8  UNL     1     -43.415   5.014  -3.578  1.00 20.00    -0.283 OA
ENDROOT
BRANCH   3   5
HETATM    5  C5  UNL     1     -42.184   4.990  -1.545  1.00 20.00     0.073 A 
HETATM    6  C4  UNL     1     -40.782   4.692  -1.077  1.00 20.00     0.018 A 
HETATM    7  C6  UNL     1     -41.134   6.074  -1.552  1.00 20.00    -0.006 A 
HETATM    8  C7  UNL     1     -41.216   7.201  -0.581  1.00 20.00     0.011 C 
ENDBRANCH   3   5
TORSDOF 1
ENDMDL
