MODEL 1
REMARK VINA RESULT:      -4.8      0.000      0.000
REMARK  2 active torsions:
REMARK  status: ('A' for Active; 'I' for Inactive)
REMARK    1  A    between atoms: C3_3  and  C8_8 
REMARK    2  A    between atoms: C9_9  and  C12_12 
ROOT
HETATM    1  C1  UNL     1     -35.531  14.410  -7.564  1.00 20.00     0.021 C 
HETATM    2  C2  UNL     1     -35.122  14.139  -6.469  1.00 20.00    -0.039 C 
HETATM    3  C3  UNL     1     -34.630  13.812  -5.151  1.00 20.00     0.205 C 
HETATM    4  O13 UNL     1     -35.071  12.834  -4.562  1.00 20.00    -0.283 OA
ENDROOT
BRANCH   3   5
HETATM    5  C8  UNL     1     -33.567  14.737  -4.580  1.00 20.00     0.069 C 
HETATM    6  C4  UNL     1     -33.754  16.139  -5.150  1.00 20.00     0.013 C 
HETATM    7  C6  UNL     1     -34.925  16.904  -4.532  1.00 20.00     0.006 C 
HETATM    8  C9  UNL     1     -34.912  16.896  -2.999  1.00 20.00    -0.011 C 
HETATM    9  C7  UNL     1     -34.812  15.462  -2.467  1.00 20.00     0.006 C 
HETATM   10  C5  UNL     1     -33.634  14.682  -3.057  1.00 20.00     0.013 C 
BRANCH   8  11
HETATM   11  C12 UNL     1     -33.804  17.790  -2.436  1.00 20.00    -0.019 C 
HETATM   12  C10 UNL     1     -33.994  19.233  -2.896  1.00 20.00     0.010 C 
HETATM   13  C11 UNL     1     -33.774  17.711  -0.912  1.00 20.00     0.010 C 
ENDBRANCH   8  11
ENDBRANCH   3   5
TORSDOF 2
ENDMDL
MODEL 2
REMARK VINA RESULT:      -4.8      2.109      4.973
REMARK  2 active torsions:
REMARK  status: ('A' for Active; 'I' for Inactive)
REMARK    1  A    between atoms: C3_3  and  C8_8 
REMARK    2  A    between atoms: C9_9  and  C12_12 
ROOT
HETATM    1  C1  UNL     1     -35.168  17.386   0.772  1.00 20.00     0.021 C 
HETATM    2  C2  UNL     1     -34.641  17.266  -0.300  1.00 20.00    -0.039 C 
HETATM    3  C3  UNL     1     -34.008  17.123  -1.589  1.00 20.00     0.205 C 
HETATM    4  O13 UNL     1     -33.278  18.011  -2.011  1.00 20.00    -0.283 OA
ENDROOT
BRANCH   3   5
HETATM    5  C8  UNL     1     -34.305  15.838  -2.347  1.00 20.00     0.069 C 
HETATM    6  C4  UNL     1     -35.744  15.865  -2.848  1.00 20.00     0.013 C 
HETATM    7  C6  UNL     1     -35.957  16.772  -4.060  1.00 20.00     0.006 C 
HETATM    8  C9  UNL     1     -34.952  16.519  -5.190  1.00 20.00    -0.011 C 
HETATM    9  C7  UNL     1     -33.515  16.588  -4.660  1.00 20.00     0.006 C 
HETATM   10  C5  UNL     1     -33.272  15.673  -3.458  1.00 20.00     0.013 C 
BRANCH   8  11
HETATM   11  C12 UNL     1     -35.229  15.198  -5.911  1.00 20.00    -0.019 C 
HETATM   12  C10 UNL     1     -36.701  15.097  -6.301  1.00 20.00     0.010 C 
HETATM   13  C11 UNL     1     -34.336  15.061  -7.142  1.00 20.00     0.010 C 
ENDBRANCH   8  11
ENDBRANCH   3   5
TORSDOF 2
ENDMDL
MODEL 3
REMARK VINA RESULT:      -4.8      2.128      5.063
REMARK  2 active torsions:
REMARK  status: ('A' for Active; 'I' for Inactive)
REMARK    1  A    between atoms: C3_3  and  C8_8 
REMARK    2  A    between atoms: C9_9  and  C12_12 
ROOT
HETATM    1  C1  UNL     1     -34.022  18.124   0.629  1.00 20.00     0.021 C 
HETATM    2  C2  UNL     1     -34.011  18.256  -0.564  1.00 20.00    -0.039 C 
HETATM    3  C3  UNL     1     -33.998  18.415  -1.999  1.00 20.00     0.205 C 
HETATM    4  O13 UNL     1     -33.208  19.193  -2.517  1.00 20.00    -0.283 OA
ENDROOT
BRANCH   3   5
HETATM    5  C8  UNL     1     -34.997  17.576  -2.779  1.00 20.00     0.069 C 
HETATM    6  C4  UNL     1     -34.819  17.832  -4.272  1.00 20.00     0.013 C 
HETATM    7  C6  UNL     1     -33.591  17.147  -4.872  1.00 20.00     0.006 C 
HETATM    8  C9  UNL     1     -33.496  15.658  -4.521  1.00 20.00    -0.011 C 
HETATM    9  C7  UNL     1     -33.592  15.453  -3.005  1.00 20.00     0.006 C 
HETATM   10  C5  UNL     1     -34.824  16.113  -2.384  1.00 20.00     0.013 C 
BRANCH   8  11
HETATM   11  C12 UNL     1     -34.542  14.830  -5.274  1.00 20.00    -0.019 C 
HETATM   12  C10 UNL     1     -34.355  14.972  -6.782  1.00 20.00     0.010 C 
HETATM   13  C11 UNL     1     -34.464  13.363  -4.858  1.00 20.00     0.010 C 
ENDBRANCH   8  11
ENDBRANCH   3   5
TORSDOF 2
ENDMDL
MODEL 4
REMARK VINA RESULT:      -4.7      2.124      5.167
REMARK  2 active torsions:
REMARK  status: ('A' for Active; 'I' for Inactive)
REMARK    1  A    between atoms: C3_3  and  C8_8 
REMARK    2  A    between atoms: C9_9  and  C12_12 
ROOT
HETATM    1  C1  UNL     1     -35.147  17.439   0.760  1.00 20.00     0.021 C 
HETATM    2  C2  UNL     1     -34.972  17.667  -0.405  1.00 20.00    -0.039 C 
HETATM    3  C3  UNL     1     -34.761  17.941  -1.807  1.00 20.00     0.205 C 
HETATM    4  O13 UNL     1     -35.310  18.903  -2.328  1.00 20.00    -0.283 OA
ENDROOT
BRANCH   3   5
HETATM    5  C8  UNL     1     -33.842  16.984  -2.550  1.00 20.00     0.069 C 
HETATM    6  C4  UNL     1     -34.363  15.559  -2.399  1.00 20.00     0.013 C 
HETATM    7  C6  UNL     1     -35.583  15.255  -3.268  1.00 20.00     0.006 C 
HETATM    8  C9  UNL     1     -35.396  15.653  -4.737  1.00 20.00    -0.011 C 
HETATM    9  C7  UNL     1     -34.957  17.118  -4.847  1.00 20.00     0.006 C 
HETATM   10  C5  UNL     1     -33.725  17.442  -4.001  1.00 20.00     0.013 C 
BRANCH   8  11
HETATM   11  C12 UNL     1     -34.428  14.713  -5.461  1.00 20.00    -0.019 C 
HETATM   12  C10 UNL     1     -34.765  13.256  -5.155  1.00 20.00     0.010 C 
HETATM   13  C11 UNL     1     -34.459  14.968  -6.966  1.00 20.00     0.010 C 
ENDBRANCH   8  11
ENDBRANCH   3   5
TORSDOF 2
ENDMDL
MODEL 5
REMARK VINA RESULT:      -4.7      1.067      2.085
REMARK  2 active torsions:
REMARK  status: ('A' for Active; 'I' for Inactive)
REMARK    1  A    between atoms: C3_3  and  C8_8 
REMARK    2  A    between atoms: C9_9  and  C12_12 
ROOT
HETATM    1  C1  UNL     1     -34.847  14.863  -7.918  1.00 20.00     0.021 C 
HETATM    2  C2  UNL     1     -35.051  14.684  -6.749  1.00 20.00    -0.039 C 
HETATM    3  C3  UNL     1     -35.296  14.469  -5.342  1.00 20.00     0.205 C 
HETATM    4  O13 UNL     1     -35.080  13.369  -4.849  1.00 20.00    -0.283 OA
ENDROOT
BRANCH   3   5
HETATM    5  C8  UNL     1     -35.819  15.662  -4.559  1.00 20.00     0.069 C 
HETATM    6  C4  UNL     1     -35.965  15.281  -3.090  1.00 20.00     0.013 C 
HETATM    7  C6  UNL     1     -34.636  15.213  -2.336  1.00 20.00     0.006 C 
HETATM    8  C9  UNL     1     -33.765  16.460  -2.530  1.00 20.00    -0.011 C 
HETATM    9  C7  UNL     1     -33.571  16.756  -4.022  1.00 20.00     0.006 C 
HETATM   10  C5  UNL     1     -34.889  16.849  -4.794  1.00 20.00     0.013 C 
BRANCH   8  11
HETATM   11  C12 UNL     1     -34.330  17.669  -1.779  1.00 20.00    -0.019 C 
HETATM   12  C10 UNL     1     -34.575  17.324  -0.313  1.00 20.00     0.010 C 
HETATM   13  C11 UNL     1     -33.387  18.863  -1.899  1.00 20.00     0.010 C 
ENDBRANCH   8  11
ENDBRANCH   3   5
TORSDOF 2
ENDMDL
MODEL 6
REMARK VINA RESULT:      -4.5      1.762      4.816
REMARK  2 active torsions:
REMARK  status: ('A' for Active; 'I' for Inactive)
REMARK    1  A    between atoms: C3_3  and  C8_8 
REMARK    2  A    between atoms: C9_9  and  C12_12 
ROOT
HETATM    1  C1  UNL     1     -33.091  18.466  -0.551  1.00 20.00     0.021 C 
HETATM    2  C2  UNL     1     -33.551  17.554  -1.180  1.00 20.00    -0.039 C 
HETATM    3  C3  UNL     1     -34.104  16.457  -1.938  1.00 20.00     0.205 C 
HETATM    4  O13 UNL     1     -35.092  15.867  -1.521  1.00 20.00    -0.283 OA
ENDROOT
BRANCH   3   5
HETATM    5  C8  UNL     1     -33.395  16.109  -3.237  1.00 20.00     0.069 C 
HETATM    6  C4  UNL     1     -33.931  14.786  -3.771  1.00 20.00     0.013 C 
HETATM    7  C6  UNL     1     -35.314  14.897  -4.414  1.00 20.00     0.006 C 
HETATM    8  C9  UNL     1     -35.413  16.024  -5.448  1.00 20.00    -0.011 C 
HETATM    9  C7  UNL     1     -34.946  17.354  -4.843  1.00 20.00     0.006 C 
HETATM   10  C5  UNL     1     -33.555  17.272  -4.211  1.00 20.00     0.013 C 
BRANCH   8  11
HETATM   11  C12 UNL     1     -34.650  15.685  -6.732  1.00 20.00    -0.019 C 
HETATM   12  C10 UNL     1     -35.247  14.450  -7.400  1.00 20.00     0.010 C 
HETATM   13  C11 UNL     1     -34.661  16.873  -7.691  1.00 20.00     0.010 C 
ENDBRANCH   8  11
ENDBRANCH   3   5
TORSDOF 2
ENDMDL
MODEL 7
REMARK VINA RESULT:      -4.3      1.834      2.686
REMARK  2 active torsions:
REMARK  status: ('A' for Active; 'I' for Inactive)
REMARK    1  A    between atoms: C3_3  and  C8_8 
REMARK    2  A    between atoms: C9_9  and  C12_12 
ROOT
HETATM    1  C1  UNL     1     -34.638  14.919  -7.538  1.00 20.00     0.021 C 
HETATM    2  C2  UNL     1     -34.324  15.339  -6.459  1.00 20.00    -0.039 C 
HETATM    3  C3  UNL     1     -33.948  15.844  -5.160  1.00 20.00     0.205 C 
HETATM    4  O13 UNL     1     -32.844  16.350  -5.001  1.00 20.00    -0.283 OA
ENDROOT
BRANCH   3   5
HETATM    5  C8  UNL     1     -34.984  15.706  -4.056  1.00 20.00     0.069 C 
HETATM    6  C4  UNL     1     -34.280  15.455  -2.727  1.00 20.00     0.013 C 
HETATM    7  C6  UNL     1     -33.632  16.703  -2.128  1.00 20.00     0.006 C 
HETATM    8  C9  UNL     1     -34.579  17.908  -2.067  1.00 20.00    -0.011 C 
HETATM    9  C7  UNL     1     -35.197  18.179  -3.444  1.00 20.00     0.006 C 
HETATM   10  C5  UNL     1     -35.870  16.948  -4.055  1.00 20.00     0.013 C 
BRANCH   8  11
HETATM   11  C12 UNL     1     -35.650  17.733  -0.987  1.00 20.00    -0.019 C 
HETATM   12  C10 UNL     1     -35.010  17.379   0.352  1.00 20.00     0.010 C 
HETATM   13  C11 UNL     1     -36.495  18.998  -0.862  1.00 20.00     0.010 C 
ENDBRANCH   8  11
ENDBRANCH   3   5
TORSDOF 2
ENDMDL
MODEL 8
REMARK VINA RESULT:      -4.2      2.288      4.959
REMARK  2 active torsions:
REMARK  status: ('A' for Active; 'I' for Inactive)
REMARK    1  A    between atoms: C3_3  and  C8_8 
REMARK    2  A    between atoms: C9_9  and  C12_12 
ROOT
HETATM    1  C1  UNL     1     -34.699  16.762  -0.544  1.00 20.00     0.021 C 
HETATM    2  C2  UNL     1     -34.490  16.454  -1.685  1.00 20.00    -0.039 C 
HETATM    3  C3  UNL     1     -34.240  16.084  -3.058  1.00 20.00     0.205 C 
HETATM    4  O13 UNL     1     -33.313  16.602  -3.668  1.00 20.00    -0.283 OA
ENDROOT
BRANCH   3   5
HETATM    5  C8  UNL     1     -35.175  15.046  -3.658  1.00 20.00     0.069 C 
HETATM    6  C4  UNL     1     -36.620  15.496  -3.471  1.00 20.00     0.013 C 
HETATM    7  C6  UNL     1     -37.047  16.610  -4.427  1.00 20.00     0.006 C 
HETATM    8  C9  UNL     1     -36.716  16.310  -5.893  1.00 20.00    -0.011 C 
HETATM    9  C7  UNL     1     -35.235  15.948  -6.049  1.00 20.00     0.006 C 
HETATM   10  C5  UNL     1     -34.788  14.821  -5.116  1.00 20.00     0.013 C 
BRANCH   8  11
HETATM   11  C12 UNL     1     -37.630  15.226  -6.471  1.00 20.00    -0.019 C 
HETATM   12  C10 UNL     1     -39.093  15.652  -6.379  1.00 20.00     0.010 C 
HETATM   13  C11 UNL     1     -37.250  14.918  -7.917  1.00 20.00     0.010 C 
ENDBRANCH   8  11
ENDBRANCH   3   5
TORSDOF 2
ENDMDL
MODEL 9
REMARK VINA RESULT:      -4.1      1.940      2.264
REMARK  2 active torsions:
REMARK  status: ('A' for Active; 'I' for Inactive)
REMARK    1  A    between atoms: C3_3  and  C8_8 
REMARK    2  A    between atoms: C9_9  and  C12_12 
ROOT
HETATM    1  C1  UNL     1     -34.995  14.360  -7.334  1.00 20.00     0.021 C 
HETATM    2  C2  UNL     1     -34.684  15.457  -6.960  1.00 20.00    -0.039 C 
HETATM    3  C3  UNL     1     -34.310  16.778  -6.510  1.00 20.00     0.205 C 
HETATM    4  O13 UNL     1     -34.742  17.764  -7.092  1.00 20.00    -0.283 OA
ENDROOT
BRANCH   3   5
HETATM    5  C8  UNL     1     -33.380  16.842  -5.309  1.00 20.00     0.069 C 
HETATM    6  C4  UNL     1     -33.411  18.247  -4.717  1.00 20.00     0.013 C 
HETATM    7  C6  UNL     1     -34.674  18.546  -3.909  1.00 20.00     0.006 C 
HETATM    8  C9  UNL     1     -34.996  17.468  -2.867  1.00 20.00    -0.011 C 
HETATM    9  C7  UNL     1     -35.041  16.082  -3.521  1.00 20.00     0.006 C 
HETATM   10  C5  UNL     1     -33.779  15.752  -4.320  1.00 20.00     0.013 C 
BRANCH   8  11
HETATM   11  C12 UNL     1     -34.021  17.509  -1.688  1.00 20.00    -0.019 C 
HETATM   12  C10 UNL     1     -33.647  18.950  -1.350  1.00 20.00     0.010 C 
HETATM   13  C11 UNL     1     -34.622  16.810  -0.471  1.00 20.00     0.010 C 
ENDBRANCH   8  11
ENDBRANCH   3   5
TORSDOF 2
ENDMDL
