MODEL 1
REMARK VINA RESULT:      -5.8      0.000      0.000
REMARK  4 active torsions:
REMARK  status: ('A' for Active; 'I' for Inactive)
REMARK    1  A    between atoms: C1_1  and  C5_5 
REMARK    2  A    between atoms: C1_1  and  C9_9 
REMARK    3  A    between atoms: C6_6  and  C10_10 
REMARK    4  A    between atoms: C9_9  and  C10_10 
ROOT
HETATM    1  C1  UNL     1     -33.660   5.911   3.502  1.00 20.00     0.131 C 
HETATM    2  O11 UNL     1     -34.251   5.331   2.592  1.00 20.00    -0.298 OA
ENDROOT
BRANCH   1   3
HETATM    3  C5  UNL     1     -34.401   6.416   4.713  1.00 20.00     0.059 A 
HETATM    4  C4  UNL     1     -33.721   6.337   6.034  1.00 20.00     0.017 A 
HETATM    5  C7  UNL     1     -34.894   5.449   5.732  1.00 20.00    -0.007 A 
HETATM    6  C8  UNL     1     -34.704   3.974   5.626  1.00 20.00     0.011 C 
ENDBRANCH   1   3
BRANCH   1   7
HETATM    7  C9  UNL     1     -32.163   6.163   3.482  1.00 20.00     0.079 C 
BRANCH   7   8
HETATM    8  C10 UNL     1     -31.819   7.629   3.240  1.00 20.00     0.012 C 
BRANCH   8   9
HETATM    9  C6  UNL     1     -32.486   8.157   1.981  1.00 20.00    -0.014 A 
HETATM   10  C2  UNL     1     -32.485   9.632   1.685  1.00 20.00     0.005 A 
HETATM   11  C3  UNL     1     -31.653   8.697   0.852  1.00 20.00     0.005 A 
ENDBRANCH   8   9
ENDBRANCH   7   8
ENDBRANCH   1   7
TORSDOF 4
ENDMDL
MODEL 2
REMARK VINA RESULT:      -5.5      1.243      1.515
REMARK  4 active torsions:
REMARK  status: ('A' for Active; 'I' for Inactive)
REMARK    1  A    between atoms: C1_1  and  C5_5 
REMARK    2  A    between atoms: C1_1  and  C9_9 
REMARK    3  A    between atoms: C6_6  and  C10_10 
REMARK    4  A    between atoms: C9_9  and  C10_10 
ROOT
HETATM    1  C1  UNL     1     -33.393   6.175   4.115  1.00 20.00     0.131 C 
HETATM    2  O11 UNL     1     -33.546   6.795   5.165  1.00 20.00    -0.298 OA
ENDROOT
BRANCH   1   3
HETATM    3  C5  UNL     1     -34.479   5.279   3.576  1.00 20.00     0.059 A 
HETATM    4  C4  UNL     1     -35.886   5.575   3.958  1.00 20.00     0.017 A 
HETATM    5  C7  UNL     1     -35.196   4.354   4.497  1.00 20.00    -0.007 A 
HETATM    6  C8  UNL     1     -34.897   4.249   5.955  1.00 20.00     0.011 C 
ENDBRANCH   1   3
BRANCH   1   7
HETATM    7  C9  UNL     1     -32.124   6.258   3.286  1.00 20.00     0.079 C 
BRANCH   7   8
HETATM    8  C10 UNL     1     -31.693   7.696   3.016  1.00 20.00     0.012 C 
BRANCH   8   9
HETATM    9  C6  UNL     1     -32.500   8.316   1.886  1.00 20.00    -0.014 A 
HETATM   10  C2  UNL     1     -32.463   9.802   1.656  1.00 20.00     0.005 A 
HETATM   11  C3  UNL     1     -31.804   8.872   0.675  1.00 20.00     0.005 A 
ENDBRANCH   8   9
ENDBRANCH   7   8
ENDBRANCH   1   7
TORSDOF 4
ENDMDL
MODEL 3
REMARK VINA RESULT:      -5.4      1.266      2.127
REMARK  4 active torsions:
REMARK  status: ('A' for Active; 'I' for Inactive)
REMARK    1  A    between atoms: C1_1  and  C5_5 
REMARK    2  A    between atoms: C1_1  and  C9_9 
REMARK    3  A    between atoms: C6_6  and  C10_10 
REMARK    4  A    between atoms: C9_9  and  C10_10 
ROOT
HETATM    1  C1  UNL     1     -34.988   5.136   3.869  1.00 20.00     0.131 C 
HETATM    2  O11 UNL     1     -36.079   5.701   3.891  1.00 20.00    -0.298 OA
ENDROOT
BRANCH   1   3
HETATM    3  C5  UNL     1     -34.484   4.370   5.065  1.00 20.00     0.059 A 
HETATM    4  C4  UNL     1     -35.337   4.334   6.283  1.00 20.00     0.017 A 
HETATM    5  C7  UNL     1     -34.051   5.108   6.284  1.00 20.00    -0.007 A 
HETATM    6  C8  UNL     1     -34.075   6.595   6.397  1.00 20.00     0.011 C 
ENDBRANCH   1   3
BRANCH   1   7
HETATM    7  C9  UNL     1     -34.071   5.160   2.658  1.00 20.00     0.079 C 
BRANCH   7   8
HETATM    8  C10 UNL     1     -32.677   5.684   2.990  1.00 20.00     0.012 C 
BRANCH   8   9
HETATM    9  C6  UNL     1     -32.677   7.193   3.170  1.00 20.00    -0.014 A 
HETATM   10  C2  UNL     1     -31.410   7.911   3.545  1.00 20.00     0.005 A 
HETATM   11  C3  UNL     1     -31.986   8.075   2.167  1.00 20.00     0.005 A 
ENDBRANCH   8   9
ENDBRANCH   7   8
ENDBRANCH   1   7
TORSDOF 4
ENDMDL
MODEL 4
REMARK VINA RESULT:      -4.7     10.679     12.231
REMARK  4 active torsions:
REMARK  status: ('A' for Active; 'I' for Inactive)
REMARK    1  A    between atoms: C1_1  and  C5_5 
REMARK    2  A    between atoms: C1_1  and  C9_9 
REMARK    3  A    between atoms: C6_6  and  C10_10 
REMARK    4  A    between atoms: C9_9  and  C10_10 
ROOT
HETATM    1  C1  UNL     1     -34.464  13.797  -4.990  1.00 20.00     0.131 C 
HETATM    2  O11 UNL     1     -34.816  12.630  -4.826  1.00 20.00    -0.298 OA
ENDROOT
BRANCH   1   3
HETATM    3  C5  UNL     1     -34.615  14.474  -6.328  1.00 20.00     0.059 A 
HETATM    4  C4  UNL     1     -34.602  15.961  -6.366  1.00 20.00     0.017 A 
HETATM    5  C7  UNL     1     -35.871  15.209  -6.644  1.00 20.00    -0.007 A 
HETATM    6  C8  UNL     1     -37.022  15.315  -5.701  1.00 20.00     0.011 C 
ENDBRANCH   1   3
BRANCH   1   7
HETATM    7  C9  UNL     1     -33.859  14.639  -3.881  1.00 20.00     0.079 C 
BRANCH   7   8
HETATM    8  C10 UNL     1     -34.819  14.846  -2.713  1.00 20.00     0.012 C 
BRANCH   8   9
HETATM    9  C6  UNL     1     -34.868  16.303  -2.284  1.00 20.00    -0.014 A 
HETATM   10  C2  UNL     1     -34.729  16.670  -0.832  1.00 20.00     0.005 A 
HETATM   11  C3  UNL     1     -33.623  16.992  -1.799  1.00 20.00     0.005 A 
ENDBRANCH   8   9
ENDBRANCH   7   8
ENDBRANCH   1   7
TORSDOF 4
ENDMDL
MODEL 5
REMARK VINA RESULT:      -4.6      1.149      5.029
REMARK  4 active torsions:
REMARK  status: ('A' for Active; 'I' for Inactive)
REMARK    1  A    between atoms: C1_1  and  C5_5 
REMARK    2  A    between atoms: C1_1  and  C9_9 
REMARK    3  A    between atoms: C6_6  and  C10_10 
REMARK    4  A    between atoms: C9_9  and  C10_10 
ROOT
HETATM    1  C1  UNL     1     -32.502   6.889   3.009  1.00 20.00     0.131 C 
HETATM    2  O11 UNL     1     -31.823   5.872   2.879  1.00 20.00    -0.298 OA
ENDROOT
BRANCH   1   3
HETATM    3  C5  UNL     1     -31.899   8.256   2.818  1.00 20.00     0.059 A 
HETATM    4  C4  UNL     1     -32.766   9.333   2.266  1.00 20.00     0.017 A 
HETATM    5  C7  UNL     1     -31.647   8.765   1.441  1.00 20.00    -0.007 A 
HETATM    6  C8  UNL     1     -31.952   7.985   0.207  1.00 20.00     0.011 C 
ENDBRANCH   1   3
BRANCH   1   7
HETATM    7  C9  UNL     1     -33.977   6.854   3.367  1.00 20.00     0.079 C 
BRANCH   7   8
HETATM    8  C10 UNL     1     -34.523   5.432   3.462  1.00 20.00     0.012 C 
BRANCH   8   9
HETATM    9  C6  UNL     1     -35.235   5.196   4.784  1.00 20.00    -0.014 A 
HETATM   10  C2  UNL     1     -34.850   4.032   5.655  1.00 20.00     0.005 A 
HETATM   11  C3  UNL     1     -34.517   5.434   6.084  1.00 20.00     0.005 A 
ENDBRANCH   8   9
ENDBRANCH   7   8
ENDBRANCH   1   7
TORSDOF 4
ENDMDL
MODEL 6
REMARK VINA RESULT:      -4.6     10.909     11.820
REMARK  4 active torsions:
REMARK  status: ('A' for Active; 'I' for Inactive)
REMARK    1  A    between atoms: C1_1  and  C5_5 
REMARK    2  A    between atoms: C1_1  and  C9_9 
REMARK    3  A    between atoms: C6_6  and  C10_10 
REMARK    4  A    between atoms: C9_9  and  C10_10 
ROOT
HETATM    1  C1  UNL     1     -33.511  15.786  -3.566  1.00 20.00     0.131 C 
HETATM    2  O11 UNL     1     -32.680  15.914  -4.463  1.00 20.00    -0.298 OA
ENDROOT
BRANCH   1   3
HETATM    3  C5  UNL     1     -34.191  14.463  -3.319  1.00 20.00     0.059 A 
HETATM    4  C4  UNL     1     -34.152  13.443  -4.401  1.00 20.00     0.017 A 
HETATM    5  C7  UNL     1     -35.442  14.129  -4.054  1.00 20.00    -0.007 A 
HETATM    6  C8  UNL     1     -36.088  15.045  -5.039  1.00 20.00     0.011 C 
ENDBRANCH   1   3
BRANCH   1   7
HETATM    7  C9  UNL     1     -33.916  16.926  -2.649  1.00 20.00     0.079 C 
BRANCH   7   8
HETATM    8  C10 UNL     1     -34.516  16.435  -1.335  1.00 20.00     0.012 C 
BRANCH   8   9
HETATM    9  C6  UNL     1     -34.950  17.595  -0.453  1.00 20.00    -0.014 A 
HETATM   10  C2  UNL     1     -35.176  17.384   1.019  1.00 20.00     0.005 A 
HETATM   11  C3  UNL     1     -33.994  18.185   0.547  1.00 20.00     0.005 A 
ENDBRANCH   8   9
ENDBRANCH   7   8
ENDBRANCH   1   7
TORSDOF 4
ENDMDL
MODEL 7
REMARK VINA RESULT:      -4.6      1.417      5.298
REMARK  4 active torsions:
REMARK  status: ('A' for Active; 'I' for Inactive)
REMARK    1  A    between atoms: C1_1  and  C5_5 
REMARK    2  A    between atoms: C1_1  and  C9_9 
REMARK    3  A    between atoms: C6_6  and  C10_10 
REMARK    4  A    between atoms: C9_9  and  C10_10 
ROOT
HETATM    1  C1  UNL     1     -32.236   7.305   2.775  1.00 20.00     0.131 C 
HETATM    2  O11 UNL     1     -31.394   7.672   3.593  1.00 20.00    -0.298 OA
ENDROOT
BRANCH   1   3
HETATM    3  C5  UNL     1     -32.225   7.826   1.361  1.00 20.00     0.059 A 
HETATM    4  C4  UNL     1     -31.119   8.735   0.958  1.00 20.00     0.017 A 
HETATM    5  C7  UNL     1     -32.517   9.263   1.103  1.00 20.00    -0.007 A 
HETATM    6  C8  UNL     1     -32.835  10.245   2.180  1.00 20.00     0.011 C 
ENDBRANCH   1   3
BRANCH   1   7
HETATM    7  C9  UNL     1     -33.337   6.316   3.114  1.00 20.00     0.079 C 
BRANCH   7   8
HETATM    8  C10 UNL     1     -33.545   6.164   4.618  1.00 20.00     0.012 C 
BRANCH   8   9
HETATM    9  C6  UNL     1     -34.814   5.386   4.929  1.00 20.00    -0.014 A 
HETATM   10  C2  UNL     1     -34.741   3.925   5.276  1.00 20.00     0.005 A 
HETATM   11  C3  UNL     1     -35.098   4.932   6.333  1.00 20.00     0.005 A 
ENDBRANCH   8   9
ENDBRANCH   7   8
ENDBRANCH   1   7
TORSDOF 4
ENDMDL
MODEL 8
REMARK VINA RESULT:      -4.6     10.729     12.163
REMARK  4 active torsions:
REMARK  status: ('A' for Active; 'I' for Inactive)
REMARK    1  A    between atoms: C1_1  and  C5_5 
REMARK    2  A    between atoms: C1_1  and  C9_9 
REMARK    3  A    between atoms: C6_6  and  C10_10 
REMARK    4  A    between atoms: C9_9  and  C10_10 
ROOT
HETATM    1  C1  UNL     1     -34.535  15.927  -5.268  1.00 20.00     0.131 C 
HETATM    2  O11 UNL     1     -33.600  16.232  -6.005  1.00 20.00    -0.298 OA
ENDROOT
BRANCH   1   3
HETATM    3  C5  UNL     1     -35.155  14.555  -5.324  1.00 20.00     0.059 A 
HETATM    4  C4  UNL     1     -35.838  14.044  -4.105  1.00 20.00     0.017 A 
HETATM    5  C7  UNL     1     -34.541  13.436  -4.556  1.00 20.00    -0.007 A 
HETATM    6  C8  UNL     1     -33.315  13.588  -3.720  1.00 20.00     0.011 C 
ENDBRANCH   1   3
BRANCH   1   7
HETATM    7  C9  UNL     1     -35.135  16.889  -4.257  1.00 20.00     0.079 C 
BRANCH   7   8
HETATM    8  C10 UNL     1     -34.072  17.620  -3.443  1.00 20.00     0.012 C 
BRANCH   8   9
HETATM    9  C6  UNL     1     -33.693  16.840  -2.194  1.00 20.00    -0.014 A 
HETATM   10  C2  UNL     1     -33.807  17.479  -0.837  1.00 20.00     0.005 A 
HETATM   11  C3  UNL     1     -34.757  16.384  -1.234  1.00 20.00     0.005 A 
ENDBRANCH   8   9
ENDBRANCH   7   8
ENDBRANCH   1   7
TORSDOF 4
ENDMDL
MODEL 9
REMARK VINA RESULT:      -4.5     11.076     12.587
REMARK  4 active torsions:
REMARK  status: ('A' for Active; 'I' for Inactive)
REMARK    1  A    between atoms: C1_1  and  C5_5 
REMARK    2  A    between atoms: C1_1  and  C9_9 
REMARK    3  A    between atoms: C6_6  and  C10_10 
REMARK    4  A    between atoms: C9_9  and  C10_10 
ROOT
HETATM    1  C1  UNL     1     -35.273  14.351  -4.794  1.00 20.00     0.131 C 
HETATM    2  O11 UNL     1     -34.402  13.490  -4.686  1.00 20.00    -0.298 OA
ENDROOT
BRANCH   1   3
HETATM    3  C5  UNL     1     -35.431  15.144  -6.066  1.00 20.00     0.059 A 
HETATM    4  C4  UNL     1     -34.431  14.937  -7.148  1.00 20.00     0.017 A 
HETATM    5  C7  UNL     1     -34.462  16.229  -6.384  1.00 20.00    -0.007 A 
HETATM    6  C8  UNL     1     -33.320  16.598  -5.497  1.00 20.00     0.011 C 
ENDBRANCH   1   3
BRANCH   1   7
HETATM    7  C9  UNL     1     -36.246  14.684  -3.676  1.00 20.00     0.079 C 
BRANCH   7   8
HETATM    8  C10 UNL     1     -35.918  16.006  -2.989  1.00 20.00     0.012 C 
BRANCH   8   9
HETATM    9  C6  UNL     1     -34.727  15.868  -2.054  1.00 20.00    -0.014 A 
HETATM   10  C2  UNL     1     -33.764  17.010  -1.879  1.00 20.00     0.005 A 
HETATM   11  C3  UNL     1     -34.691  16.629  -0.758  1.00 20.00     0.005 A 
ENDBRANCH   8   9
ENDBRANCH   7   8
ENDBRANCH   1   7
TORSDOF 4
ENDMDL
