MODEL 1
REMARK VINA RESULT:      -4.2      0.000      0.000
REMARK  3 active torsions:
REMARK  status: ('A' for Active; 'I' for Inactive)
REMARK    1  A    between atoms: C2_2  and  C8_8 
REMARK    2  A    between atoms: C6_6  and  C8_8 
REMARK    3  A    between atoms: C8_8  and  N9_9 
ROOT
HETATM    1  C8  UNL     1     -34.468  16.541  -2.886  1.00 20.00     0.248 C 
ENDROOT
BRANCH   1   2
HETATM    2  C2  UNL     1     -33.943  16.924  -1.529  1.00 20.00    -0.002 C 
HETATM    3  C1  UNL     1     -34.684  16.931  -0.416  1.00 20.00     0.009 C 
ENDBRANCH   1   2
BRANCH   1   4
HETATM    4  C6  UNL     1     -34.528  15.036  -3.059  1.00 20.00     0.048 C 
HETATM    5  C3  UNL     1     -35.616  14.561  -3.997  1.00 20.00     0.035 C 
HETATM    6  C4  UNL     1     -35.134  13.169  -4.347  1.00 20.00     0.168 C 
HETATM    7  O10 UNL     1     -33.700  13.205  -4.310  1.00 20.00    -0.391 OA
HETATM    8  C5  UNL     1     -33.291  14.445  -3.713  1.00 20.00     0.174 C 
ENDBRANCH   1   4
BRANCH   1   9
HETATM    9  N9  UNL     1     -33.607  17.143  -3.877  1.00 20.00     0.087 N 
HETATM   10  C7  UNL     1     -33.741  18.599  -3.886  1.00 20.00     0.307 C 
HETATM   11  H25 UNL     1     -33.844  16.788  -4.807  1.00 20.00     0.316 HD
ENDBRANCH   1   9
TORSDOF 3
ENDMDL
MODEL 2
REMARK VINA RESULT:      -3.9      1.493      2.512
REMARK  3 active torsions:
REMARK  status: ('A' for Active; 'I' for Inactive)
REMARK    1  A    between atoms: C2_2  and  C8_8 
REMARK    2  A    between atoms: C6_6  and  C8_8 
REMARK    3  A    between atoms: C8_8  and  N9_9 
ROOT
HETATM    1  C8  UNL     1     -34.080  16.168  -2.374  1.00 20.00     0.248 C 
ENDROOT
BRANCH   1   2
HETATM    2  C2  UNL     1     -33.814  17.583  -2.809  1.00 20.00    -0.002 C 
HETATM    3  C1  UNL     1     -33.782  17.980  -4.086  1.00 20.00     0.009 C 
ENDBRANCH   1   2
BRANCH   1   4
HETATM    4  C6  UNL     1     -34.653  15.334  -3.504  1.00 20.00     0.048 C 
HETATM    5  C3  UNL     1     -34.108  13.924  -3.574  1.00 20.00     0.035 C 
HETATM    6  C4  UNL     1     -35.162  13.229  -4.408  1.00 20.00     0.168 C 
HETATM    7  O10 UNL     1     -36.412  13.875  -4.123  1.00 20.00    -0.391 OA
HETATM    8  C5  UNL     1     -36.144  15.072  -3.376  1.00 20.00     0.174 C 
ENDBRANCH   1   4
BRANCH   1   9
HETATM    9  N9  UNL     1     -34.988  16.216  -1.252  1.00 20.00     0.087 N 
HETATM   10  C7  UNL     1     -34.558  17.199  -0.260  1.00 20.00     0.307 C 
HETATM   11  H25 UNL     1     -35.035  15.297  -0.803  1.00 20.00     0.316 HD
ENDBRANCH   1   9
TORSDOF 3
ENDMDL
MODEL 3
REMARK VINA RESULT:      -3.8      2.409      4.269
REMARK  3 active torsions:
REMARK  status: ('A' for Active; 'I' for Inactive)
REMARK    1  A    between atoms: C2_2  and  C8_8 
REMARK    2  A    between atoms: C6_6  and  C8_8 
REMARK    3  A    between atoms: C8_8  and  N9_9 
ROOT
HETATM    1  C8  UNL     1     -34.954  15.715  -3.161  1.00 20.00     0.248 C 
ENDROOT
BRANCH   1   2
HETATM    2  C2  UNL     1     -34.529  14.287  -3.378  1.00 20.00    -0.002 C 
HETATM    3  C1  UNL     1     -33.286  13.920  -3.709  1.00 20.00     0.009 C 
ENDBRANCH   1   2
BRANCH   1   4
HETATM    4  C6  UNL     1     -34.067  16.415  -2.151  1.00 20.00     0.048 C 
HETATM    5  C3  UNL     1     -33.770  17.861  -2.484  1.00 20.00     0.035 C 
HETATM    6  C4  UNL     1     -33.329  18.401  -1.140  1.00 20.00     0.168 C 
HETATM    7  O10 UNL     1     -34.048  17.665  -0.140  1.00 20.00    -0.391 OA
HETATM    8  C5  UNL     1     -34.693  16.549  -0.774  1.00 20.00     0.174 C 
ENDBRANCH   1   4
BRANCH   1   9
HETATM    9  N9  UNL     1     -36.330  15.702  -2.723  1.00 20.00     0.087 N 
HETATM   10  C7  UNL     1     -37.183  14.978  -3.664  1.00 20.00     0.307 C 
HETATM   11  H25 UNL     1     -36.677  16.661  -2.638  1.00 20.00     0.316 HD
ENDBRANCH   1   9
TORSDOF 3
ENDMDL
MODEL 4
REMARK VINA RESULT:      -3.8      0.945      2.218
REMARK  3 active torsions:
REMARK  status: ('A' for Active; 'I' for Inactive)
REMARK    1  A    between atoms: C2_2  and  C8_8 
REMARK    2  A    between atoms: C6_6  and  C8_8 
REMARK    3  A    between atoms: C8_8  and  N9_9 
ROOT
HETATM    1  C8  UNL     1     -33.589  16.435  -3.209  1.00 20.00     0.248 C 
ENDROOT
BRANCH   1   2
HETATM    2  C2  UNL     1     -33.600  17.081  -4.568  1.00 20.00    -0.002 C 
HETATM    3  C1  UNL     1     -33.578  18.404  -4.767  1.00 20.00     0.009 C 
ENDBRANCH   1   2
BRANCH   1   4
HETATM    4  C6  UNL     1     -34.205  15.051  -3.243  1.00 20.00     0.048 C 
HETATM    5  C3  UNL     1     -35.359  14.908  -4.212  1.00 20.00     0.035 C 
HETATM    6  C4  UNL     1     -35.426  13.406  -4.390  1.00 20.00     0.168 C 
HETATM    7  O10 UNL     1     -34.087  12.911  -4.248  1.00 20.00    -0.391 OA
HETATM    8  C5  UNL     1     -33.261  13.971  -3.741  1.00 20.00     0.174 C 
ENDBRANCH   1   4
BRANCH   1   9
HETATM    9  N9  UNL     1     -34.308  17.302  -2.304  1.00 20.00     0.087 N 
HETATM   10  C7  UNL     1     -34.505  16.667  -1.003  1.00 20.00     0.307 C 
HETATM   11  H25 UNL     1     -35.224  17.532  -2.698  1.00 20.00     0.316 HD
ENDBRANCH   1   9
TORSDOF 3
ENDMDL
MODEL 5
REMARK VINA RESULT:      -3.8      1.970      2.311
REMARK  3 active torsions:
REMARK  status: ('A' for Active; 'I' for Inactive)
REMARK    1  A    between atoms: C2_2  and  C8_8 
REMARK    2  A    between atoms: C6_6  and  C8_8 
REMARK    3  A    between atoms: C8_8  and  N9_9 
ROOT
HETATM    1  C8  UNL     1     -34.741  16.475  -3.153  1.00 20.00     0.248 C 
ENDROOT
BRANCH   1   2
HETATM    2  C2  UNL     1     -34.011  16.658  -1.851  1.00 20.00    -0.002 C 
HETATM    3  C1  UNL     1     -34.618  16.788  -0.666  1.00 20.00     0.009 C 
ENDBRANCH   1   2
BRANCH   1   4
HETATM    4  C6  UNL     1     -36.015  15.673  -2.973  1.00 20.00     0.048 C 
HETATM    5  C3  UNL     1     -37.268  16.386  -3.434  1.00 20.00     0.035 C 
HETATM    6  C4  UNL     1     -38.235  15.233  -3.598  1.00 20.00     0.168 C 
HETATM    7  O10 UNL     1     -37.457  14.090  -3.982  1.00 20.00    -0.391 OA
HETATM    8  C5  UNL     1     -36.067  14.407  -3.810  1.00 20.00     0.174 C 
ENDBRANCH   1   4
BRANCH   1   9
HETATM    9  N9  UNL     1     -33.841  15.818  -4.073  1.00 20.00     0.087 N 
HETATM   10  C7  UNL     1     -33.325  16.753  -5.071  1.00 20.00     0.307 C 
HETATM   11  H25 UNL     1     -34.331  15.061  -4.557  1.00 20.00     0.316 HD
ENDBRANCH   1   9
TORSDOF 3
ENDMDL
MODEL 6
REMARK VINA RESULT:      -3.8      2.329      3.143
REMARK  3 active torsions:
REMARK  status: ('A' for Active; 'I' for Inactive)
REMARK    1  A    between atoms: C2_2  and  C8_8 
REMARK    2  A    between atoms: C6_6  and  C8_8 
REMARK    3  A    between atoms: C8_8  and  N9_9 
ROOT
HETATM    1  C8  UNL     1     -35.626  14.902  -3.491  1.00 20.00     0.248 C 
ENDROOT
BRANCH   1   2
HETATM    2  C2  UNL     1     -34.513  15.546  -2.709  1.00 20.00    -0.002 C 
HETATM    3  C1  UNL     1     -34.699  16.252  -1.588  1.00 20.00     0.009 C 
ENDBRANCH   1   2
BRANCH   1   4
HETATM    4  C6  UNL     1     -35.520  15.211  -4.971  1.00 20.00     0.048 C 
HETATM    5  C3  UNL     1     -34.630  16.391  -5.298  1.00 20.00     0.035 C 
HETATM    6  C4  UNL     1     -34.330  16.153  -6.762  1.00 20.00     0.168 C 
HETATM    7  O10 UNL     1     -34.331  14.732  -6.962  1.00 20.00    -0.391 OA
HETATM    8  C5  UNL     1     -34.864  14.108  -5.783  1.00 20.00     0.174 C 
ENDBRANCH   1   4
BRANCH   1   9
HETATM    9  N9  UNL     1     -36.877  15.378  -2.949  1.00 20.00     0.087 N 
HETATM   10  C7  UNL     1     -38.009  14.951  -3.768  1.00 20.00     0.307 C 
HETATM   11  H25 UNL     1     -36.872  16.401  -2.907  1.00 20.00     0.316 HD
ENDBRANCH   1   9
TORSDOF 3
ENDMDL
MODEL 7
REMARK VINA RESULT:      -3.7      2.238      3.901
REMARK  3 active torsions:
REMARK  status: ('A' for Active; 'I' for Inactive)
REMARK    1  A    between atoms: C2_2  and  C8_8 
REMARK    2  A    between atoms: C6_6  and  C8_8 
REMARK    3  A    between atoms: C8_8  and  N9_9 
ROOT
HETATM    1  C8  UNL     1     -34.077  15.449  -3.320  1.00 20.00     0.248 C 
ENDROOT
BRANCH   1   2
HETATM    2  C2  UNL     1     -34.236  13.961  -3.471  1.00 20.00    -0.002 C 
HETATM    3  C1  UNL     1     -35.136  13.383  -4.273  1.00 20.00     0.009 C 
ENDBRANCH   1   2
BRANCH   1   4
HETATM    4  C6  UNL     1     -34.912  15.988  -2.176  1.00 20.00     0.048 C 
HETATM    5  C3  UNL     1     -34.134  16.810  -1.171  1.00 20.00     0.035 C 
HETATM    6  C4  UNL     1     -35.239  17.583  -0.485  1.00 20.00     0.168 C 
HETATM    7  O10 UNL     1     -36.269  17.793  -1.462  1.00 20.00    -0.391 OA
HETATM    8  C5  UNL     1     -35.979  16.980  -2.610  1.00 20.00     0.174 C 
ENDBRANCH   1   4
BRANCH   1   9
HETATM    9  N9  UNL     1     -34.455  16.061  -4.573  1.00 20.00     0.087 N 
HETATM   10  C7  UNL     1     -33.302  16.656  -5.245  1.00 20.00     0.307 C 
HETATM   11  H25 UNL     1     -35.150  16.794  -4.406  1.00 20.00     0.316 HD
ENDBRANCH   1   9
TORSDOF 3
ENDMDL
MODEL 8
REMARK VINA RESULT:      -3.7      2.542      3.474
REMARK  3 active torsions:
REMARK  status: ('A' for Active; 'I' for Inactive)
REMARK    1  A    between atoms: C2_2  and  C8_8 
REMARK    2  A    between atoms: C6_6  and  C8_8 
REMARK    3  A    between atoms: C8_8  and  N9_9 
ROOT
HETATM    1  C8  UNL     1     -33.318  16.029  -3.626  1.00 20.00     0.248 C 
ENDROOT
BRANCH   1   2
HETATM    2  C2  UNL     1     -34.449  15.745  -2.675  1.00 20.00    -0.002 C 
HETATM    3  C1  UNL     1     -34.584  16.329  -1.479  1.00 20.00     0.009 C 
ENDBRANCH   1   2
BRANCH   1   4
HETATM    4  C6  UNL     1     -33.820  16.609  -4.934  1.00 20.00     0.048 C 
HETATM    5  C3  UNL     1     -35.325  16.576  -5.091  1.00 20.00     0.035 C 
HETATM    6  C4  UNL     1     -35.543  17.610  -6.175  1.00 20.00     0.168 C 
HETATM    7  O10 UNL     1     -34.509  18.594  -6.024  1.00 20.00    -0.391 OA
HETATM    8  C5  UNL     1     -33.535  18.092  -5.096  1.00 20.00     0.174 C 
ENDBRANCH   1   4
BRANCH   1   9
HETATM    9  N9  UNL     1     -32.607  14.791  -3.846  1.00 20.00     0.087 N 
HETATM   10  C7  UNL     1     -33.516  13.647  -3.846  1.00 20.00     0.307 C 
HETATM   11  H25 UNL     1     -31.910  14.655  -3.110  1.00 20.00     0.316 HD
ENDBRANCH   1   9
TORSDOF 3
ENDMDL
MODEL 9
REMARK VINA RESULT:      -3.6      2.313      3.985
REMARK  3 active torsions:
REMARK  status: ('A' for Active; 'I' for Inactive)
REMARK    1  A    between atoms: C2_2  and  C8_8 
REMARK    2  A    between atoms: C6_6  and  C8_8 
REMARK    3  A    between atoms: C8_8  and  N9_9 
ROOT
HETATM    1  C8  UNL     1     -34.475  15.665  -4.752  1.00 20.00     0.248 C 
ENDROOT
BRANCH   1   2
HETATM    2  C2  UNL     1     -33.393  16.656  -5.083  1.00 20.00    -0.002 C 
HETATM    3  C1  UNL     1     -33.603  17.798  -5.747  1.00 20.00     0.009 C 
ENDBRANCH   1   2
BRANCH   1   4
HETATM    4  C6  UNL     1     -34.869  15.733  -3.290  1.00 20.00     0.048 C 
HETATM    5  C3  UNL     1     -33.761  16.197  -2.369  1.00 20.00     0.035 C 
HETATM    6  C4  UNL     1     -34.539  16.630  -1.145  1.00 20.00     0.168 C 
HETATM    7  O10 UNL     1     -35.810  17.109  -1.608  1.00 20.00    -0.391 OA
HETATM    8  C5  UNL     1     -35.951  16.757  -2.993  1.00 20.00     0.174 C 
ENDBRANCH   1   4
BRANCH   1   9
HETATM    9  N9  UNL     1     -33.987  14.349  -5.097  1.00 20.00     0.087 N 
HETATM   10  C7  UNL     1     -34.867  13.302  -4.581  1.00 20.00     0.307 C 
HETATM   11  H25 UNL     1     -33.051  14.212  -4.705  1.00 20.00     0.316 HD
ENDBRANCH   1   9
TORSDOF 3
ENDMDL
