MODEL 1
REMARK VINA RESULT:      -4.2      0.000      0.000
REMARK  2 active torsions:
REMARK  status: ('A' for Active; 'I' for Inactive)
REMARK    1  A    between atoms: C5_5  and  C8_8 
REMARK    2  A    between atoms: C8_8  and  N9_9 
ROOT
HETATM    1  C1  UNL     1     -34.672  16.717  -0.732  1.00 20.00     0.014 C 
HETATM    2  C2  UNL     1     -34.587  16.258  -1.838  1.00 20.00    -0.081 C 
HETATM    3  C8  UNL     1     -34.457  15.708  -3.208  1.00 20.00     0.301 C 
ENDROOT
BRANCH   3   4
HETATM    4  C5  UNL     1     -34.497  14.218  -3.225  1.00 20.00     0.035 A 
HETATM    5  C3  UNL     1     -33.454  13.440  -3.983  1.00 20.00     0.012 A 
HETATM    6  C4  UNL     1     -34.884  13.432  -4.455  1.00 20.00    -0.011 A 
HETATM    7  C6  UNL     1     -35.256  14.088  -5.739  1.00 20.00     0.010 C 
ENDBRANCH   3   4
BRANCH   3   8
HETATM    8  N9  UNL     1     -33.233  16.221  -3.801  1.00 20.00     0.095 N 
HETATM    9  C7  UNL     1     -33.520  17.271  -4.771  1.00 20.00     0.308 C 
HETATM   10  H22 UNL     1     -32.634  16.600  -3.068  1.00 20.00     0.317 HD
ENDBRANCH   3   8
TORSDOF 2
ENDMDL
MODEL 2
REMARK VINA RESULT:      -4.2      1.533      2.409
REMARK  2 active torsions:
REMARK  status: ('A' for Active; 'I' for Inactive)
REMARK    1  A    between atoms: C5_5  and  C8_8 
REMARK    2  A    between atoms: C8_8  and  N9_9 
ROOT
HETATM    1  C1  UNL     1     -34.811  17.206   0.124  1.00 20.00     0.014 C 
HETATM    2  C2  UNL     1     -34.780  16.636  -0.932  1.00 20.00    -0.081 C 
HETATM    3  C8  UNL     1     -34.766  15.947  -2.243  1.00 20.00     0.301 C 
ENDROOT
BRANCH   3   4
HETATM    4  C5  UNL     1     -33.446  16.060  -2.927  1.00 20.00     0.035 A 
HETATM    5  C3  UNL     1     -33.373  16.131  -4.430  1.00 20.00     0.012 A 
HETATM    6  C4  UNL     1     -32.840  14.920  -3.711  1.00 20.00    -0.011 A 
HETATM    7  C6  UNL     1     -33.515  13.601  -3.857  1.00 20.00     0.010 C 
ENDBRANCH   3   4
BRANCH   3   8
HETATM    8  N9  UNL     1     -35.843  16.481  -3.061  1.00 20.00     0.095 N 
HETATM    9  C7  UNL     1     -36.799  15.439  -3.415  1.00 20.00     0.308 C 
HETATM   10  H22 UNL     1     -36.327  17.216  -2.546  1.00 20.00     0.317 HD
ENDBRANCH   3   8
TORSDOF 2
ENDMDL
MODEL 3
REMARK VINA RESULT:      -4.0      1.821      4.183
REMARK  2 active torsions:
REMARK  status: ('A' for Active; 'I' for Inactive)
REMARK    1  A    between atoms: C5_5  and  C8_8 
REMARK    2  A    between atoms: C8_8  and  N9_9 
ROOT
HETATM    1  C1  UNL     1     -33.886  13.855  -3.764  1.00 20.00     0.014 C 
HETATM    2  C2  UNL     1     -34.364  14.833  -3.258  1.00 20.00    -0.081 C 
HETATM    3  C8  UNL     1     -34.981  16.028  -2.637  1.00 20.00     0.301 C 
ENDROOT
BRANCH   3   4
HETATM    4  C5  UNL     1     -34.423  16.315  -1.285  1.00 20.00     0.035 A 
HETATM    5  C3  UNL     1     -35.082  17.333  -0.392  1.00 20.00     0.012 A 
HETATM    6  C4  UNL     1     -33.714  17.609  -0.959  1.00 20.00    -0.011 A 
HETATM    7  C6  UNL     1     -33.521  18.690  -1.964  1.00 20.00     0.010 C 
ENDBRANCH   3   4
BRANCH   3   8
HETATM    8  N9  UNL     1     -36.422  15.839  -2.596  1.00 20.00     0.095 N 
HETATM    9  C7  UNL     1     -37.004  15.950  -3.928  1.00 20.00     0.308 C 
HETATM   10  H22 UNL     1     -36.632  14.916  -2.217  1.00 20.00     0.317 HD
ENDBRANCH   3   8
TORSDOF 2
ENDMDL
MODEL 4
REMARK VINA RESULT:      -4.0     11.610     12.593
REMARK  2 active torsions:
REMARK  status: ('A' for Active; 'I' for Inactive)
REMARK    1  A    between atoms: C5_5  and  C8_8 
REMARK    2  A    between atoms: C8_8  and  N9_9 
ROOT
HETATM    1  C1  UNL     1     -31.885   7.565   2.546  1.00 20.00     0.014 C 
HETATM    2  C2  UNL     1     -32.535   6.935   3.335  1.00 20.00    -0.081 C 
HETATM    3  C8  UNL     1     -33.343   6.183   4.323  1.00 20.00     0.301 C 
ENDROOT
BRANCH   3   4
HETATM    4  C5  UNL     1     -34.344   5.290   3.672  1.00 20.00     0.035 A 
HETATM    5  C3  UNL     1     -35.812   5.454   3.966  1.00 20.00     0.012 A 
HETATM    6  C4  UNL     1     -35.088   4.217   4.431  1.00 20.00    -0.011 A 
HETATM    7  C6  UNL     1     -34.875   3.973   5.884  1.00 20.00     0.010 C 
ENDBRANCH   3   4
BRANCH   3   8
HETATM    8  N9  UNL     1     -33.975   7.132   5.225  1.00 20.00     0.095 N 
HETATM    9  C7  UNL     1     -33.379   7.067   6.554  1.00 20.00     0.308 C 
HETATM   10  H22 UNL     1     -33.864   8.076   4.856  1.00 20.00     0.317 HD
ENDBRANCH   3   8
TORSDOF 2
ENDMDL
MODEL 5
REMARK VINA RESULT:      -4.0      1.272      3.944
REMARK  2 active torsions:
REMARK  status: ('A' for Active; 'I' for Inactive)
REMARK    1  A    between atoms: C5_5  and  C8_8 
REMARK    2  A    between atoms: C8_8  and  N9_9 
ROOT
HETATM    1  C1  UNL     1     -33.424  13.737  -3.798  1.00 20.00     0.014 C 
HETATM    2  C2  UNL     1     -33.596  14.847  -3.375  1.00 20.00    -0.081 C 
HETATM    3  C8  UNL     1     -33.818  16.226  -2.880  1.00 20.00     0.301 C 
ENDROOT
BRANCH   3   4
HETATM    4  C5  UNL     1     -34.646  16.255  -1.641  1.00 20.00     0.035 A 
HETATM    5  C3  UNL     1     -35.551  17.426  -1.360  1.00 20.00     0.012 A 
HETATM    6  C4  UNL     1     -34.347  17.184  -0.488  1.00 20.00    -0.011 A 
HETATM    7  C6  UNL     1     -33.202  18.136  -0.504  1.00 20.00     0.010 C 
ENDBRANCH   3   4
BRANCH   3   8
HETATM    8  N9  UNL     1     -34.416  17.013  -3.946  1.00 20.00     0.095 N 
HETATM    9  C7  UNL     1     -33.456  17.264  -5.014  1.00 20.00     0.308 C 
HETATM   10  H22 UNL     1     -35.217  16.510  -4.330  1.00 20.00     0.317 HD
ENDBRANCH   3   8
TORSDOF 2
ENDMDL
MODEL 6
REMARK VINA RESULT:      -3.9      1.404      2.931
REMARK  2 active torsions:
REMARK  status: ('A' for Active; 'I' for Inactive)
REMARK    1  A    between atoms: C5_5  and  C8_8 
REMARK    2  A    between atoms: C8_8  and  N9_9 
ROOT
HETATM    1  C1  UNL     1     -34.435  16.405  -1.493  1.00 20.00     0.014 C 
HETATM    2  C2  UNL     1     -33.968  16.264  -2.590  1.00 20.00    -0.081 C 
HETATM    3  C8  UNL     1     -33.378  16.066  -3.934  1.00 20.00     0.301 C 
ENDROOT
BRANCH   3   4
HETATM    4  C5  UNL     1     -34.408  16.084  -5.011  1.00 20.00     0.035 A 
HETATM    5  C3  UNL     1     -34.002  15.914  -6.452  1.00 20.00     0.012 A 
HETATM    6  C4  UNL     1     -34.549  17.235  -5.979  1.00 20.00    -0.011 A 
HETATM    7  C6  UNL     1     -33.671  18.437  -5.925  1.00 20.00     0.010 C 
ENDBRANCH   3   4
BRANCH   3   8
HETATM    8  N9  UNL     1     -32.622  14.824  -3.932  1.00 20.00     0.095 N 
HETATM    9  C7  UNL     1     -33.504  13.674  -3.775  1.00 20.00     0.308 C 
HETATM   10  H22 UNL     1     -32.112  14.736  -4.811  1.00 20.00     0.317 HD
ENDBRANCH   3   8
TORSDOF 2
ENDMDL
MODEL 7
REMARK VINA RESULT:      -3.9     12.078     13.632
REMARK  2 active torsions:
REMARK  status: ('A' for Active; 'I' for Inactive)
REMARK    1  A    between atoms: C5_5  and  C8_8 
REMARK    2  A    between atoms: C8_8  and  N9_9 
ROOT
HETATM    1  C1  UNL     1     -41.471   2.597  -3.369  1.00 20.00     0.014 C 
HETATM    2  C2  UNL     1     -41.746   3.429  -2.548  1.00 20.00    -0.081 C 
HETATM    3  C8  UNL     1     -42.086   4.434  -1.514  1.00 20.00     0.301 C 
ENDROOT
BRANCH   3   4
HETATM    4  C5  UNL     1     -41.159   5.600  -1.533  1.00 20.00     0.035 A 
HETATM    5  C3  UNL     1     -40.829   6.329  -0.257  1.00 20.00     0.012 A 
HETATM    6  C4  UNL     1     -41.636   7.019  -1.325  1.00 20.00    -0.011 A 
HETATM    7  C6  UNL     1     -43.067   7.353  -1.086  1.00 20.00     0.010 C 
ENDBRANCH   3   4
BRANCH   3   8
HETATM    8  N9  UNL     1     -42.101   3.779  -0.216  1.00 20.00     0.095 N 
HETATM    9  C7  UNL     1     -43.417   3.870   0.402  1.00 20.00     0.308 C 
HETATM   10  H22 UNL     1     -41.853   2.796  -0.329  1.00 20.00     0.317 HD
ENDBRANCH   3   8
TORSDOF 2
ENDMDL
MODEL 8
REMARK VINA RESULT:      -3.9     11.918     12.810
REMARK  2 active torsions:
REMARK  status: ('A' for Active; 'I' for Inactive)
REMARK    1  A    between atoms: C5_5  and  C8_8 
REMARK    2  A    between atoms: C8_8  and  N9_9 
ROOT
HETATM    1  C1  UNL     1     -33.418   7.712   7.214  1.00 20.00     0.014 C 
HETATM    2  C2  UNL     1     -33.689   6.869   6.404  1.00 20.00    -0.081 C 
HETATM    3  C8  UNL     1     -34.043   5.816   5.424  1.00 20.00     0.301 C 
ENDROOT
BRANCH   3   4
HETATM    4  C5  UNL     1     -34.381   6.380   4.086  1.00 20.00     0.035 A 
HETATM    5  C3  UNL     1     -34.255   5.530   2.850  1.00 20.00     0.012 A 
HETATM    6  C4  UNL     1     -33.328   6.699   3.051  1.00 20.00    -0.011 A 
HETATM    7  C6  UNL     1     -31.876   6.474   3.293  1.00 20.00     0.010 C 
ENDBRANCH   3   4
BRANCH   3   8
HETATM    8  N9  UNL     1     -35.135   5.024   5.966  1.00 20.00     0.095 N 
HETATM    9  C7  UNL     1     -34.963   3.611   5.654  1.00 20.00     0.308 C 
HETATM   10  H22 UNL     1     -35.168   5.140   6.978  1.00 20.00     0.317 HD
ENDBRANCH   3   8
TORSDOF 2
ENDMDL
MODEL 9
REMARK VINA RESULT:      -3.8      1.922      3.604
REMARK  2 active torsions:
REMARK  status: ('A' for Active; 'I' for Inactive)
REMARK    1  A    between atoms: C5_5  and  C8_8 
REMARK    2  A    between atoms: C8_8  and  N9_9 
ROOT
HETATM    1  C1  UNL     1     -37.901  14.815  -4.132  1.00 20.00     0.014 C 
HETATM    2  C2  UNL     1     -36.766  14.657  -3.771  1.00 20.00    -0.081 C 
HETATM    3  C8  UNL     1     -35.367  14.435  -3.340  1.00 20.00     0.301 C 
ENDROOT
BRANCH   3   4
HETATM    4  C5  UNL     1     -34.473  15.568  -3.714  1.00 20.00     0.035 A 
HETATM    5  C3  UNL     1     -33.040  15.588  -3.253  1.00 20.00     0.012 A 
HETATM    6  C4  UNL     1     -34.014  16.602  -2.714  1.00 20.00    -0.011 A 
HETATM    7  C6  UNL     1     -34.421  16.566  -1.282  1.00 20.00     0.010 C 
ENDBRANCH   3   4
BRANCH   3   8
HETATM    8  N9  UNL     1     -34.902  13.175  -3.898  1.00 20.00     0.095 N 
HETATM    9  C7  UNL     1     -34.737  13.272  -5.343  1.00 20.00     0.308 C 
HETATM   10  H22 UNL     1     -34.007  12.927  -3.476  1.00 20.00     0.317 HD
ENDBRANCH   3   8
TORSDOF 2
ENDMDL
