MODEL 1
REMARK VINA RESULT:      -5.2      0.000      0.000
REMARK  1 active torsions:
REMARK  status: ('A' for Active; 'I' for Inactive)
REMARK    1  A    between atoms: C3_3  and  C5_5 
ROOT
HETATM    1  C1  UNL     1     -32.550   6.045   3.143  1.00 20.00     0.021 C 
HETATM    2  C2  UNL     1     -33.680   5.799   3.461  1.00 20.00    -0.039 C 
HETATM    3  C3  UNL     1     -35.041   5.503   3.843  1.00 20.00     0.206 C 
HETATM    4  O8  UNL     1     -35.966   5.879   3.138  1.00 20.00    -0.283 OA
ENDROOT
BRANCH   3   5
HETATM    5  C5  UNL     1     -35.216   4.749   5.090  1.00 20.00     0.073 A 
HETATM    6  C4  UNL     1     -34.010   4.154   5.772  1.00 20.00     0.018 A 
HETATM    7  C6  UNL     1     -34.736   5.305   6.409  1.00 20.00    -0.006 A 
HETATM    8  C7  UNL     1     -34.076   6.638   6.515  1.00 20.00     0.011 C 
ENDBRANCH   3   5
TORSDOF 1
ENDMDL
MODEL 2
REMARK VINA RESULT:      -4.8     12.308     13.032
REMARK  1 active torsions:
REMARK  status: ('A' for Active; 'I' for Inactive)
REMARK    1  A    between atoms: C3_3  and  C5_5 
ROOT
HETATM    1  C1  UNL     1     -34.845  14.756  -7.089  1.00 20.00     0.021 C 
HETATM    2  C2  UNL     1     -34.665  14.262  -6.011  1.00 20.00    -0.039 C 
HETATM    3  C3  UNL     1     -34.449  13.666  -4.713  1.00 20.00     0.206 C 
HETATM    4  O8  UNL     1     -35.058  12.652  -4.401  1.00 20.00    -0.283 OA
ENDROOT
BRANCH   3   5
HETATM    5  C5  UNL     1     -33.485  14.343  -3.840  1.00 20.00     0.073 A 
HETATM    6  C4  UNL     1     -33.163  15.797  -4.078  1.00 20.00     0.018 A 
HETATM    7  C6  UNL     1     -33.935  15.394  -2.853  1.00 20.00    -0.006 A 
HETATM    8  C7  UNL     1     -35.366  15.787  -2.710  1.00 20.00     0.011 C 
ENDBRANCH   3   5
TORSDOF 1
ENDMDL
MODEL 3
REMARK VINA RESULT:      -4.7      1.607      3.151
REMARK  1 active torsions:
REMARK  status: ('A' for Active; 'I' for Inactive)
REMARK    1  A    between atoms: C3_3  and  C5_5 
ROOT
HETATM    1  C1  UNL     1     -33.872   7.076   6.720  1.00 20.00     0.021 C 
HETATM    2  C2  UNL     1     -34.153   6.031   6.200  1.00 20.00    -0.039 C 
HETATM    3  C3  UNL     1     -34.491   4.773   5.577  1.00 20.00     0.206 C 
HETATM    4  O8  UNL     1     -34.275   3.724   6.167  1.00 20.00    -0.283 OA
ENDROOT
BRANCH   3   5
HETATM    5  C5  UNL     1     -35.088   4.852   4.239  1.00 20.00     0.073 A 
HETATM    6  C4  UNL     1     -35.449   6.199   3.666  1.00 20.00     0.018 A 
HETATM    7  C6  UNL     1     -34.311   5.418   3.074  1.00 20.00    -0.006 A 
HETATM    8  C7  UNL     1     -32.911   5.912   3.218  1.00 20.00     0.011 C 
ENDBRANCH   3   5
TORSDOF 1
ENDMDL
MODEL 4
REMARK VINA RESULT:      -4.7      1.956      2.397
REMARK  1 active torsions:
REMARK  status: ('A' for Active; 'I' for Inactive)
REMARK    1  A    between atoms: C3_3  and  C5_5 
ROOT
HETATM    1  C1  UNL     1     -32.156   8.565   2.074  1.00 20.00     0.021 C 
HETATM    2  C2  UNL     1     -32.443   7.535   2.620  1.00 20.00    -0.039 C 
HETATM    3  C3  UNL     1     -32.787   6.296   3.276  1.00 20.00     0.206 C 
HETATM    4  O8  UNL     1     -31.932   5.439   3.445  1.00 20.00    -0.283 OA
ENDROOT
BRANCH   3   5
HETATM    5  C5  UNL     1     -34.183   6.155   3.706  1.00 20.00     0.073 A 
HETATM    6  C4  UNL     1     -34.590   4.951   4.518  1.00 20.00     0.018 A 
HETATM    7  C6  UNL     1     -34.568   6.311   5.158  1.00 20.00    -0.006 A 
HETATM    8  C7  UNL     1     -33.565   6.622   6.217  1.00 20.00     0.011 C 
ENDBRANCH   3   5
TORSDOF 1
ENDMDL
MODEL 5
REMARK VINA RESULT:      -4.6      1.787      2.324
REMARK  1 active torsions:
REMARK  status: ('A' for Active; 'I' for Inactive)
REMARK    1  A    between atoms: C3_3  and  C5_5 
ROOT
HETATM    1  C1  UNL     1     -32.157   6.686   3.020  1.00 20.00     0.021 C 
HETATM    2  C2  UNL     1     -32.830   6.624   4.011  1.00 20.00    -0.039 C 
HETATM    3  C3  UNL     1     -33.640   6.551   5.205  1.00 20.00     0.206 C 
HETATM    4  O8  UNL     1     -33.200   6.974   6.265  1.00 20.00    -0.283 OA
ENDROOT
BRANCH   3   5
HETATM    5  C5  UNL     1     -34.972   5.955   5.051  1.00 20.00     0.073 A 
HETATM    6  C4  UNL     1     -35.190   4.888   4.009  1.00 20.00     0.018 A 
HETATM    7  C6  UNL     1     -35.237   4.528   5.467  1.00 20.00    -0.006 A 
HETATM    8  C7  UNL     1     -34.176   3.663   6.058  1.00 20.00     0.011 C 
ENDBRANCH   3   5
TORSDOF 1
ENDMDL
MODEL 6
REMARK VINA RESULT:      -4.5     12.266     13.210
REMARK  1 active torsions:
REMARK  status: ('A' for Active; 'I' for Inactive)
REMARK    1  A    between atoms: C3_3  and  C5_5 
ROOT
HETATM    1  C1  UNL     1     -34.606  16.332  -1.658  1.00 20.00     0.021 C 
HETATM    2  C2  UNL     1     -34.082  15.882  -2.640  1.00 20.00    -0.039 C 
HETATM    3  C3  UNL     1     -33.452  15.342  -3.821  1.00 20.00     0.206 C 
HETATM    4  O8  UNL     1     -32.691  16.039  -4.477  1.00 20.00    -0.283 OA
ENDROOT
BRANCH   3   5
HETATM    5  C5  UNL     1     -33.782  13.952  -4.156  1.00 20.00     0.073 A 
HETATM    6  C4  UNL     1     -35.203  13.471  -4.003  1.00 20.00     0.018 A 
HETATM    7  C6  UNL     1     -34.609  13.622  -5.375  1.00 20.00    -0.006 A 
HETATM    8  C7  UNL     1     -35.120  14.677  -6.297  1.00 20.00     0.011 C 
ENDBRANCH   3   5
TORSDOF 1
ENDMDL
MODEL 7
REMARK VINA RESULT:      -4.4     12.109     12.965
REMARK  1 active torsions:
REMARK  status: ('A' for Active; 'I' for Inactive)
REMARK    1  A    between atoms: C3_3  and  C5_5 
ROOT
HETATM    1  C1  UNL     1     -37.647  14.735  -4.057  1.00 20.00     0.021 C 
HETATM    2  C2  UNL     1     -36.522  14.317  -4.031  1.00 20.00    -0.039 C 
HETATM    3  C3  UNL     1     -35.170  13.812  -4.001  1.00 20.00     0.206 C 
HETATM    4  O8  UNL     1     -34.905  12.749  -4.544  1.00 20.00    -0.283 OA
ENDROOT
BRANCH   3   5
HETATM    5  C5  UNL     1     -34.183  14.640  -3.298  1.00 20.00     0.073 A 
HETATM    6  C4  UNL     1     -32.718  14.478  -3.616  1.00 20.00     0.018 A 
HETATM    7  C6  UNL     1     -33.435  15.737  -4.017  1.00 20.00    -0.006 A 
HETATM    8  C7  UNL     1     -33.663  16.038  -5.460  1.00 20.00     0.011 C 
ENDBRANCH   3   5
TORSDOF 1
ENDMDL
MODEL 8
REMARK VINA RESULT:      -4.2      1.728      2.941
REMARK  1 active torsions:
REMARK  status: ('A' for Active; 'I' for Inactive)
REMARK    1  A    between atoms: C3_3  and  C5_5 
ROOT
HETATM    1  C1  UNL     1     -33.437   7.402   7.064  1.00 20.00     0.021 C 
HETATM    2  C2  UNL     1     -33.422   7.025   5.925  1.00 20.00    -0.039 C 
HETATM    3  C3  UNL     1     -33.403   6.571   4.555  1.00 20.00     0.206 C 
HETATM    4  O8  UNL     1     -32.346   6.536   3.940  1.00 20.00    -0.283 OA
ENDROOT
BRANCH   3   5
HETATM    5  C5  UNL     1     -34.695   6.172   3.984  1.00 20.00     0.073 A 
HETATM    6  C4  UNL     1     -34.763   4.976   3.069  1.00 20.00     0.018 A 
HETATM    7  C6  UNL     1     -35.386   4.908   4.435  1.00 20.00    -0.006 A 
HETATM    8  C7  UNL     1     -34.804   4.013   5.477  1.00 20.00     0.011 C 
ENDBRANCH   3   5
TORSDOF 1
ENDMDL
MODEL 9
REMARK VINA RESULT:      -4.2      8.786      9.892
REMARK  1 active torsions:
REMARK  status: ('A' for Active; 'I' for Inactive)
REMARK    1  A    between atoms: C3_3  and  C5_5 
ROOT
HETATM    1  C1  UNL     1     -41.962   2.278  -3.091  1.00 20.00     0.021 C 
HETATM    2  C2  UNL     1     -41.936   3.418  -2.716  1.00 20.00    -0.039 C 
HETATM    3  C3  UNL     1     -41.907   4.790  -2.267  1.00 20.00     0.206 C 
HETATM    4  O8  UNL     1     -42.640   5.617  -2.789  1.00 20.00    -0.283 OA
ENDROOT
BRANCH   3   5
HETATM    5  C5  UNL     1     -40.968   5.098  -1.182  1.00 20.00     0.073 A 
HETATM    6  C4  UNL     1     -41.007   6.458  -0.532  1.00 20.00     0.018 A 
HETATM    7  C6  UNL     1     -41.449   5.248   0.242  1.00 20.00    -0.006 A 
HETATM    8  C7  UNL     1     -42.883   5.085   0.617  1.00 20.00     0.011 C 
ENDBRANCH   3   5
TORSDOF 1
ENDMDL
