MODEL 1
REMARK VINA RESULT:      -4.6      0.000      0.000
REMARK  3 active torsions:
REMARK  status: ('A' for Active; 'I' for Inactive)
REMARK    1  A    between atoms: C3_3  and  C7_7 
REMARK    2  A    between atoms: C6_6  and  O9_9 
REMARK    3  A    between atoms: C7_7  and  O9_9 
ROOT
HETATM    1  C1  UNL     1     -35.135   3.924   6.175  1.00 20.00     0.021 C 
HETATM    2  C2  UNL     1     -34.608   4.954   5.850  1.00 20.00    -0.037 C 
HETATM    3  C3  UNL     1     -33.974   6.193   5.461  1.00 20.00     0.230 C 
HETATM    4  O8  UNL     1     -33.629   6.984   6.330  1.00 20.00    -0.281 OA
ENDROOT
BRANCH   3   5
HETATM    5  C7  UNL     1     -33.814   6.435   3.972  1.00 20.00     0.200 C 
HETATM    6  C5  UNL     1     -34.742   5.556   3.150  1.00 20.00     0.049 C 
BRANCH   5   7
HETATM    7  O9  UNL     1     -32.467   6.163   3.613  1.00 20.00    -0.378 OA
BRANCH   7   8
HETATM    8  C6  UNL     1     -31.710   7.360   3.481  1.00 20.00     0.164 C 
HETATM    9  C4  UNL     1     -32.057   8.020   2.163  1.00 20.00     0.033 C 
ENDBRANCH   7   8
ENDBRANCH   5   7
ENDBRANCH   3   5
TORSDOF 3
ENDMDL
MODEL 2
REMARK VINA RESULT:      -4.1     11.880     12.817
REMARK  3 active torsions:
REMARK  status: ('A' for Active; 'I' for Inactive)
REMARK    1  A    between atoms: C3_3  and  C7_7 
REMARK    2  A    between atoms: C6_6  and  O9_9 
REMARK    3  A    between atoms: C7_7  and  O9_9 
ROOT
HETATM    1  C1  UNL     1     -34.781  14.789  -7.176  1.00 20.00     0.021 C 
HETATM    2  C2  UNL     1     -34.934  14.316  -6.083  1.00 20.00    -0.037 C 
HETATM    3  C3  UNL     1     -35.120  13.745  -4.768  1.00 20.00     0.230 C 
HETATM    4  O8  UNL     1     -34.836  12.567  -4.584  1.00 20.00    -0.281 OA
ENDROOT
BRANCH   3   5
HETATM    5  C7  UNL     1     -35.697  14.661  -3.705  1.00 20.00     0.200 C 
HETATM    6  C5  UNL     1     -37.191  14.871  -3.886  1.00 20.00     0.049 C 
BRANCH   5   7
HETATM    7  O9  UNL     1     -35.033  15.913  -3.781  1.00 20.00    -0.378 OA
BRANCH   7   8
HETATM    8  C6  UNL     1     -34.009  16.022  -2.800  1.00 20.00     0.164 C 
HETATM    9  C4  UNL     1     -34.643  16.315  -1.456  1.00 20.00     0.033 C 
ENDBRANCH   7   8
ENDBRANCH   5   7
ENDBRANCH   3   5
TORSDOF 3
ENDMDL
MODEL 3
REMARK VINA RESULT:      -4.1     11.800     12.705
REMARK  3 active torsions:
REMARK  status: ('A' for Active; 'I' for Inactive)
REMARK    1  A    between atoms: C3_3  and  C7_7 
REMARK    2  A    between atoms: C6_6  and  O9_9 
REMARK    3  A    between atoms: C7_7  and  O9_9 
ROOT
HETATM    1  C1  UNL     1     -35.242  14.446  -7.382  1.00 20.00     0.021 C 
HETATM    2  C2  UNL     1     -35.008  14.164  -6.238  1.00 20.00    -0.037 C 
HETATM    3  C3  UNL     1     -34.727  13.823  -4.861  1.00 20.00     0.230 C 
HETATM    4  O8  UNL     1     -34.979  12.692  -4.465  1.00 20.00    -0.281 OA
ENDROOT
BRANCH   3   5
HETATM    5  C7  UNL     1     -34.163  14.929  -3.990  1.00 20.00     0.200 C 
HETATM    6  C5  UNL     1     -32.691  14.713  -3.680  1.00 20.00     0.049 C 
BRANCH   5   7
HETATM    7  O9  UNL     1     -34.898  14.966  -2.775  1.00 20.00    -0.378 OA
BRANCH   7   8
HETATM    8  C6  UNL     1     -35.199  16.301  -2.387  1.00 20.00     0.164 C 
HETATM    9  C4  UNL     1     -34.591  16.567  -1.026  1.00 20.00     0.033 C 
ENDBRANCH   7   8
ENDBRANCH   5   7
ENDBRANCH   3   5
TORSDOF 3
ENDMDL
MODEL 4
REMARK VINA RESULT:      -4.1      1.399      4.365
REMARK  3 active torsions:
REMARK  status: ('A' for Active; 'I' for Inactive)
REMARK    1  A    between atoms: C3_3  and  C7_7 
REMARK    2  A    between atoms: C6_6  and  O9_9 
REMARK    3  A    between atoms: C7_7  and  O9_9 
ROOT
HETATM    1  C1  UNL     1     -32.115   8.814   1.742  1.00 20.00     0.021 C 
HETATM    2  C2  UNL     1     -32.312   7.824   2.393  1.00 20.00    -0.037 C 
HETATM    3  C3  UNL     1     -32.549   6.631   3.175  1.00 20.00     0.230 C 
HETATM    4  O8  UNL     1     -31.714   5.735   3.161  1.00 20.00    -0.281 OA
ENDROOT
BRANCH   3   5
HETATM    5  C7  UNL     1     -33.857   6.570   3.941  1.00 20.00     0.200 C 
HETATM    6  C5  UNL     1     -33.652   6.777   5.432  1.00 20.00     0.049 C 
BRANCH   5   7
HETATM    7  O9  UNL     1     -34.450   5.299   3.720  1.00 20.00    -0.378 OA
BRANCH   7   8
HETATM    8  C6  UNL     1     -35.410   4.989   4.723  1.00 20.00     0.164 C 
HETATM    9  C4  UNL     1     -34.909   3.816   5.539  1.00 20.00     0.033 C 
ENDBRANCH   7   8
ENDBRANCH   5   7
ENDBRANCH   3   5
TORSDOF 3
ENDMDL
MODEL 5
REMARK VINA RESULT:      -4.0      1.310      1.728
REMARK  3 active torsions:
REMARK  status: ('A' for Active; 'I' for Inactive)
REMARK    1  A    between atoms: C3_3  and  C7_7 
REMARK    2  A    between atoms: C6_6  and  O9_9 
REMARK    3  A    between atoms: C7_7  and  O9_9 
ROOT
HETATM    1  C1  UNL     1     -33.674   7.345   7.055  1.00 20.00     0.021 C 
HETATM    2  C2  UNL     1     -33.880   6.571   6.160  1.00 20.00    -0.037 C 
HETATM    3  C3  UNL     1     -34.127   5.638   5.084  1.00 20.00     0.230 C 
HETATM    4  O8  UNL     1     -34.560   4.524   5.350  1.00 20.00    -0.281 OA
ENDROOT
BRANCH   3   5
HETATM    5  C7  UNL     1     -33.790   6.113   3.683  1.00 20.00     0.200 C 
HETATM    6  C5  UNL     1     -34.472   5.269   2.619  1.00 20.00     0.049 C 
BRANCH   5   7
HETATM    7  O9  UNL     1     -32.383   6.043   3.509  1.00 20.00    -0.378 OA
BRANCH   7   8
HETATM    8  C6  UNL     1     -31.793   7.337   3.498  1.00 20.00     0.164 C 
HETATM    9  C4  UNL     1     -32.096   8.004   2.172  1.00 20.00     0.033 C 
ENDBRANCH   7   8
ENDBRANCH   5   7
ENDBRANCH   3   5
TORSDOF 3
ENDMDL
MODEL 6
REMARK VINA RESULT:      -4.0      1.180      4.144
REMARK  3 active torsions:
REMARK  status: ('A' for Active; 'I' for Inactive)
REMARK    1  A    between atoms: C3_3  and  C7_7 
REMARK    2  A    between atoms: C6_6  and  O9_9 
REMARK    3  A    between atoms: C7_7  and  O9_9 
ROOT
HETATM    1  C1  UNL     1     -32.219   8.617   1.194  1.00 20.00     0.021 C 
HETATM    2  C2  UNL     1     -32.098   8.035   2.238  1.00 20.00    -0.037 C 
HETATM    3  C3  UNL     1     -31.951   7.335   3.495  1.00 20.00     0.230 C 
HETATM    4  O8  UNL     1     -31.035   7.647   4.246  1.00 20.00    -0.281 OA
ENDROOT
BRANCH   3   5
HETATM    5  C7  UNL     1     -32.944   6.223   3.772  1.00 20.00     0.200 C 
HETATM    6  C5  UNL     1     -33.492   5.617   2.490  1.00 20.00     0.049 C 
BRANCH   5   7
HETATM    7  O9  UNL     1     -34.016   6.755   4.536  1.00 20.00    -0.378 OA
BRANCH   7   8
HETATM    8  C6  UNL     1     -33.991   6.278   5.875  1.00 20.00     0.164 C 
HETATM    9  C4  UNL     1     -34.805   5.004   5.960  1.00 20.00     0.033 C 
ENDBRANCH   7   8
ENDBRANCH   5   7
ENDBRANCH   3   5
TORSDOF 3
ENDMDL
MODEL 7
REMARK VINA RESULT:      -4.0     11.850     13.157
REMARK  3 active torsions:
REMARK  status: ('A' for Active; 'I' for Inactive)
REMARK    1  A    between atoms: C3_3  and  C7_7 
REMARK    2  A    between atoms: C6_6  and  O9_9 
REMARK    3  A    between atoms: C7_7  and  O9_9 
ROOT
HETATM    1  C1  UNL     1     -35.045  14.677  -7.154  1.00 20.00     0.021 C 
HETATM    2  C2  UNL     1     -34.834  14.254  -6.049  1.00 20.00    -0.037 C 
HETATM    3  C3  UNL     1     -34.582  13.745  -4.720  1.00 20.00     0.230 C 
HETATM    4  O8  UNL     1     -34.967  12.619  -4.431  1.00 20.00    -0.281 OA
ENDROOT
BRANCH   3   5
HETATM    5  C7  UNL     1     -33.875  14.680  -3.758  1.00 20.00     0.200 C 
HETATM    6  C5  UNL     1     -34.852  15.394  -2.838  1.00 20.00     0.049 C 
BRANCH   5   7
HETATM    7  O9  UNL     1     -33.151  15.641  -4.511  1.00 20.00    -0.378 OA
BRANCH   7   8
HETATM    8  C6  UNL     1     -33.513  16.968  -4.151  1.00 20.00     0.164 C 
HETATM    9  C4  UNL     1     -33.583  17.817  -5.403  1.00 20.00     0.033 C 
ENDBRANCH   7   8
ENDBRANCH   5   7
ENDBRANCH   3   5
TORSDOF 3
ENDMDL
MODEL 8
REMARK VINA RESULT:      -4.0      1.112      1.339
REMARK  3 active torsions:
REMARK  status: ('A' for Active; 'I' for Inactive)
REMARK    1  A    between atoms: C3_3  and  C7_7 
REMARK    2  A    between atoms: C6_6  and  O9_9 
REMARK    3  A    between atoms: C7_7  and  O9_9 
ROOT
HETATM    1  C1  UNL     1     -35.178   4.022   5.396  1.00 20.00     0.021 C 
HETATM    2  C2  UNL     1     -34.536   5.008   5.156  1.00 20.00    -0.037 C 
HETATM    3  C3  UNL     1     -33.765   6.197   4.869  1.00 20.00     0.230 C 
HETATM    4  O8  UNL     1     -33.493   6.966   5.783  1.00 20.00    -0.281 OA
ENDROOT
BRANCH   3   5
HETATM    5  C7  UNL     1     -33.374   6.419   3.420  1.00 20.00     0.200 C 
HETATM    6  C5  UNL     1     -32.169   5.582   3.022  1.00 20.00     0.049 C 
BRANCH   5   7
HETATM    7  O9  UNL     1     -33.073   7.794   3.239  1.00 20.00    -0.378 OA
BRANCH   7   8
HETATM    8  C6  UNL     1     -32.053   7.981   2.265  1.00 20.00     0.164 C 
HETATM    9  C4  UNL     1     -32.343   9.247   1.486  1.00 20.00     0.033 C 
ENDBRANCH   7   8
ENDBRANCH   5   7
ENDBRANCH   3   5
TORSDOF 3
ENDMDL
MODEL 9
REMARK VINA RESULT:      -4.0      1.535      1.909
REMARK  3 active torsions:
REMARK  status: ('A' for Active; 'I' for Inactive)
REMARK    1  A    between atoms: C3_3  and  C7_7 
REMARK    2  A    between atoms: C6_6  and  O9_9 
REMARK    3  A    between atoms: C7_7  and  O9_9 
ROOT
HETATM    1  C1  UNL     1     -35.134   4.285   6.213  1.00 20.00     0.021 C 
HETATM    2  C2  UNL     1     -34.874   4.864   5.193  1.00 20.00    -0.037 C 
HETATM    3  C3  UNL     1     -34.561   5.559   3.965  1.00 20.00     0.230 C 
HETATM    4  O8  UNL     1     -35.407   5.615   3.081  1.00 20.00    -0.281 OA
ENDROOT
BRANCH   3   5
HETATM    5  C7  UNL     1     -33.168   6.149   3.854  1.00 20.00     0.200 C 
HETATM    6  C5  UNL     1     -32.857   7.092   5.005  1.00 20.00     0.049 C 
BRANCH   5   7
HETATM    7  O9  UNL     1     -33.074   6.857   2.627  1.00 20.00    -0.378 OA
BRANCH   7   8
HETATM    8  C6  UNL     1     -31.949   7.727   2.612  1.00 20.00     0.164 C 
HETATM    9  C4  UNL     1     -32.090   8.693   1.454  1.00 20.00     0.033 C 
ENDBRANCH   7   8
ENDBRANCH   5   7
ENDBRANCH   3   5
TORSDOF 3
ENDMDL
