MODEL 1
REMARK VINA RESULT:      -5.0      0.000      0.000
REMARK  1 active torsions:
REMARK  status: ('A' for Active; 'I' for Inactive)
REMARK    1  A    between atoms: C3_3  and  C9_9 
ROOT
HETATM    1  C1  UNL     1     -34.294  16.259  -1.628  1.00 20.00     0.016 A 
HETATM    2  C2  UNL     1     -35.150  17.205  -0.992  1.00 20.00     0.015 A 
HETATM    3  C3  UNL     1     -34.173  16.498  -2.979  1.00 20.00    -0.013 A 
HETATM    4  C4  UNL     1     -35.649  18.131  -1.883  1.00 20.00    -0.021 A 
HETATM    5  C10 UNL     1     -36.561  19.263  -1.617  1.00 20.00     0.056 C 
HETATM    6  S12 UNL     1     -35.087  17.858  -3.476  1.00 20.00    -0.099 SA
ENDROOT
BRANCH   3   7
HETATM    7  C9  UNL     1     -33.361  15.726  -4.006  1.00 20.00     0.033 C 
HETATM    8  C7  UNL     1     -33.288  14.203  -3.822  1.00 20.00     0.088 C 
HETATM    9  C5  UNL     1     -34.425  13.708  -4.682  1.00 20.00     0.127 C 
HETATM   10  C6  UNL     1     -34.984  14.790  -5.568  1.00 20.00     0.079 C 
HETATM   11  O11 UNL     1     -34.845  12.559  -4.661  1.00 20.00    -0.298 OA
HETATM   12  C8  UNL     1     -33.937  15.890  -5.422  1.00 20.00     0.018 C 
ENDBRANCH   3   7
TORSDOF 1
ENDMDL
MODEL 2
REMARK VINA RESULT:      -4.7      1.497      1.656
REMARK  1 active torsions:
REMARK  status: ('A' for Active; 'I' for Inactive)
REMARK    1  A    between atoms: C3_3  and  C9_9 
ROOT
HETATM    1  C1  UNL     1     -34.466  16.257  -1.554  1.00 20.00     0.016 A 
HETATM    2  C2  UNL     1     -34.731  16.956  -0.340  1.00 20.00     0.015 A 
HETATM    3  C3  UNL     1     -35.217  16.741  -2.603  1.00 20.00    -0.013 A 
HETATM    4  C4  UNL     1     -35.675  17.947  -0.509  1.00 20.00    -0.021 A 
HETATM    5  C10 UNL     1     -36.215  18.884   0.499  1.00 20.00     0.056 C 
HETATM    6  S12 UNL     1     -36.236  18.031  -2.124  1.00 20.00    -0.099 SA
ENDROOT
BRANCH   3   7
HETATM    7  C9  UNL     1     -35.231  16.273  -4.049  1.00 20.00     0.033 C 
HETATM    8  C7  UNL     1     -34.383  15.035  -4.380  1.00 20.00     0.088 C 
HETATM    9  C5  UNL     1     -35.374  13.906  -4.242  1.00 20.00     0.127 C 
HETATM   10  C6  UNL     1     -36.791  14.400  -4.127  1.00 20.00     0.079 C 
HETATM   11  O11 UNL     1     -35.061  12.723  -4.225  1.00 20.00    -0.298 OA
HETATM   12  C8  UNL     1     -36.644  15.872  -4.501  1.00 20.00     0.018 C 
ENDBRANCH   3   7
TORSDOF 1
ENDMDL
MODEL 3
REMARK VINA RESULT:      -4.7      1.056      1.366
REMARK  1 active torsions:
REMARK  status: ('A' for Active; 'I' for Inactive)
REMARK    1  A    between atoms: C3_3  and  C9_9 
ROOT
HETATM    1  C1  UNL     1     -34.752  17.913  -3.772  1.00 20.00     0.016 A 
HETATM    2  C2  UNL     1     -35.440  18.558  -2.703  1.00 20.00     0.015 A 
HETATM    3  C3  UNL     1     -34.155  16.738  -3.368  1.00 20.00    -0.013 A 
HETATM    4  C4  UNL     1     -35.342  17.851  -1.524  1.00 20.00    -0.021 A 
HETATM    5  C10 UNL     1     -35.914  18.185  -0.202  1.00 20.00     0.056 C 
HETATM    6  S12 UNL     1     -34.425  16.418  -1.708  1.00 20.00    -0.099 SA
ENDROOT
BRANCH   3   7
HETATM    7  C9  UNL     1     -33.334  15.763  -4.195  1.00 20.00     0.033 C 
HETATM    8  C7  UNL     1     -33.382  14.288  -3.766  1.00 20.00     0.088 C 
HETATM    9  C5  UNL     1     -34.493  13.728  -4.620  1.00 20.00     0.127 C 
HETATM   10  C6  UNL     1     -34.914  14.681  -5.706  1.00 20.00     0.079 C 
HETATM   11  O11 UNL     1     -34.993  12.624  -4.449  1.00 20.00    -0.298 OA
HETATM   12  C8  UNL     1     -33.804  15.726  -5.658  1.00 20.00     0.018 C 
ENDBRANCH   3   7
TORSDOF 1
ENDMDL
MODEL 4
REMARK VINA RESULT:      -4.7      2.132      2.390
REMARK  1 active torsions:
REMARK  status: ('A' for Active; 'I' for Inactive)
REMARK    1  A    between atoms: C3_3  and  C9_9 
ROOT
HETATM    1  C1  UNL     1     -34.686  15.956  -1.914  1.00 20.00     0.016 A 
HETATM    2  C2  UNL     1     -34.123  16.953  -1.065  1.00 20.00     0.015 A 
HETATM    3  C3  UNL     1     -34.626  16.315  -3.243  1.00 20.00    -0.013 A 
HETATM    4  C4  UNL     1     -33.655  18.036  -1.778  1.00 20.00    -0.021 A 
HETATM    5  C10 UNL     1     -33.008  19.262  -1.267  1.00 20.00     0.056 C 
HETATM    6  S12 UNL     1     -33.894  17.847  -3.463  1.00 20.00    -0.099 SA
ENDROOT
BRANCH   3   7
HETATM    7  C9  UNL     1     -35.113  15.538  -4.454  1.00 20.00     0.033 C 
HETATM    8  C7  UNL     1     -35.919  14.260  -4.174  1.00 20.00     0.088 C 
HETATM    9  C5  UNL     1     -37.345  14.753  -4.198  1.00 20.00     0.127 C 
HETATM   10  C6  UNL     1     -37.456  16.153  -4.740  1.00 20.00     0.079 C 
HETATM   11  O11 UNL     1     -38.302  14.090  -3.821  1.00 20.00    -0.298 OA
HETATM   12  C8  UNL     1     -36.064  16.378  -5.321  1.00 20.00     0.018 C 
ENDBRANCH   3   7
TORSDOF 1
ENDMDL
MODEL 5
REMARK VINA RESULT:      -4.6      1.786      2.298
REMARK  1 active torsions:
REMARK  status: ('A' for Active; 'I' for Inactive)
REMARK    1  A    between atoms: C3_3  and  C9_9 
ROOT
HETATM    1  C1  UNL     1     -34.827  15.845  -1.939  1.00 20.00     0.016 A 
HETATM    2  C2  UNL     1     -34.074  16.886  -1.323  1.00 20.00     0.015 A 
HETATM    3  C3  UNL     1     -35.220  16.177  -3.217  1.00 20.00    -0.013 A 
HETATM    4  C4  UNL     1     -33.921  17.975  -2.154  1.00 20.00    -0.021 A 
HETATM    5  C10 UNL     1     -33.210  19.243  -1.886  1.00 20.00     0.056 C 
HETATM    6  S12 UNL     1     -34.682  17.739  -3.669  1.00 20.00    -0.099 SA
ENDROOT
BRANCH   3   7
HETATM    7  C9  UNL     1     -36.031  15.351  -4.201  1.00 20.00     0.033 C 
HETATM    8  C7  UNL     1     -35.874  15.703  -5.689  1.00 20.00     0.088 C 
HETATM    9  C5  UNL     1     -34.785  14.761  -6.141  1.00 20.00     0.127 C 
HETATM   10  C6  UNL     1     -34.484  13.701  -5.115  1.00 20.00     0.079 C 
HETATM   11  O11 UNL     1     -34.212  14.849  -7.219  1.00 20.00    -0.298 OA
HETATM   12  C8  UNL     1     -35.648  13.864  -4.142  1.00 20.00     0.018 C 
ENDBRANCH   3   7
TORSDOF 1
ENDMDL
MODEL 6
REMARK VINA RESULT:      -4.4      2.137      3.553
REMARK  1 active torsions:
REMARK  status: ('A' for Active; 'I' for Inactive)
REMARK    1  A    between atoms: C3_3  and  C9_9 
ROOT
HETATM    1  C1  UNL     1     -36.120  17.194  -5.602  1.00 20.00     0.016 A 
HETATM    2  C2  UNL     1     -35.696  18.050  -6.659  1.00 20.00     0.015 A 
HETATM    3  C3  UNL     1     -35.099  16.918  -4.719  1.00 20.00    -0.013 A 
HETATM    4  C4  UNL     1     -34.367  18.397  -6.543  1.00 20.00    -0.021 A 
HETATM    5  C10 UNL     1     -33.562  19.261  -7.431  1.00 20.00     0.056 C 
HETATM    6  S12 UNL     1     -33.637  17.690  -5.165  1.00 20.00    -0.099 SA
ENDROOT
BRANCH   3   7
HETATM    7  C9  UNL     1     -35.137  16.054  -3.469  1.00 20.00     0.033 C 
HETATM    8  C7  UNL     1     -35.923  14.737  -3.568  1.00 20.00     0.088 C 
HETATM    9  C5  UNL     1     -34.857  13.740  -3.951  1.00 20.00     0.127 C 
HETATM   10  C6  UNL     1     -33.469  14.309  -3.817  1.00 20.00     0.079 C 
HETATM   11  O11 UNL     1     -35.093  12.600  -4.328  1.00 20.00    -0.298 OA
HETATM   12  C8  UNL     1     -33.729  15.601  -3.051  1.00 20.00     0.018 C 
ENDBRANCH   3   7
TORSDOF 1
ENDMDL
MODEL 7
REMARK VINA RESULT:      -4.4      2.315      3.346
REMARK  1 active torsions:
REMARK  status: ('A' for Active; 'I' for Inactive)
REMARK    1  A    between atoms: C3_3  and  C9_9 
ROOT
HETATM    1  C1  UNL     1     -33.482  15.355  -4.228  1.00 20.00     0.016 A 
HETATM    2  C2  UNL     1     -33.315  15.871  -2.910  1.00 20.00     0.015 A 
HETATM    3  C3  UNL     1     -34.809  15.168  -4.546  1.00 20.00    -0.013 A 
HETATM    4  C4  UNL     1     -34.522  16.061  -2.273  1.00 20.00    -0.021 A 
HETATM    5  C10 UNL     1     -34.771  16.576  -0.910  1.00 20.00     0.056 C 
HETATM    6  S12 UNL     1     -35.848  15.616  -3.260  1.00 20.00    -0.099 SA
ENDROOT
BRANCH   3   7
HETATM    7  C9  UNL     1     -35.406  14.639  -5.840  1.00 20.00     0.033 C 
HETATM    8  C7  UNL     1     -36.755  15.236  -6.270  1.00 20.00     0.088 C 
HETATM    9  C5  UNL     1     -36.344  16.364  -7.184  1.00 20.00     0.127 C 
HETATM   10  C6  UNL     1     -34.883  16.307  -7.542  1.00 20.00     0.079 C 
HETATM   11  O11 UNL     1     -37.112  17.227  -7.588  1.00 20.00    -0.298 OA
HETATM   12  C8  UNL     1     -34.490  14.920  -7.042  1.00 20.00     0.018 C 
ENDBRANCH   3   7
TORSDOF 1
ENDMDL
MODEL 8
REMARK VINA RESULT:      -4.4      2.446      4.715
REMARK  1 active torsions:
REMARK  status: ('A' for Active; 'I' for Inactive)
REMARK    1  A    between atoms: C3_3  and  C9_9 
ROOT
HETATM    1  C1  UNL     1     -34.271  14.695  -3.203  1.00 20.00     0.016 A 
HETATM    2  C2  UNL     1     -34.004  14.208  -4.516  1.00 20.00     0.015 A 
HETATM    3  C3  UNL     1     -34.992  15.869  -3.225  1.00 20.00    -0.013 A 
HETATM    4  C4  UNL     1     -34.532  15.028  -5.489  1.00 20.00    -0.021 A 
HETATM    5  C10 UNL     1     -34.472  14.868  -6.958  1.00 20.00     0.056 C 
HETATM    6  S12 UNL     1     -35.344  16.378  -4.821  1.00 20.00    -0.099 SA
ENDROOT
BRANCH   3   7
HETATM    7  C9  UNL     1     -35.475  16.703  -2.049  1.00 20.00     0.033 C 
HETATM    8  C7  UNL     1     -34.597  16.688  -0.788  1.00 20.00     0.088 C 
HETATM    9  C5  UNL     1     -33.708  17.891  -0.986  1.00 20.00     0.127 C 
HETATM   10  C6  UNL     1     -34.174  18.765  -2.120  1.00 20.00     0.079 C 
HETATM   11  O11 UNL     1     -32.721  18.128  -0.303  1.00 20.00    -0.298 OA
HETATM   12  C8  UNL     1     -35.559  18.194  -2.410  1.00 20.00     0.018 C 
ENDBRANCH   3   7
TORSDOF 1
ENDMDL
MODEL 9
REMARK VINA RESULT:      -4.3      2.232      4.096
REMARK  1 active torsions:
REMARK  status: ('A' for Active; 'I' for Inactive)
REMARK    1  A    between atoms: C3_3  and  C9_9 
ROOT
HETATM    1  C1  UNL     1     -35.896  14.913  -6.804  1.00 20.00     0.016 A 
HETATM    2  C2  UNL     1     -36.000  15.935  -7.792  1.00 20.00     0.015 A 
HETATM    3  C3  UNL     1     -36.057  15.408  -5.529  1.00 20.00    -0.013 A 
HETATM    4  C4  UNL     1     -36.239  17.172  -7.233  1.00 20.00    -0.021 A 
HETATM    5  C10 UNL     1     -36.410  18.471  -7.916  1.00 20.00     0.056 C 
HETATM    6  S12 UNL     1     -36.334  17.098  -5.525  1.00 20.00    -0.099 SA
ENDROOT
BRANCH   3   7
HETATM    7  C9  UNL     1     -36.016  14.654  -4.210  1.00 20.00     0.033 C 
HETATM    8  C7  UNL     1     -35.216  13.342  -4.191  1.00 20.00     0.088 C 
HETATM    9  C5  UNL     1     -33.854  13.790  -3.719  1.00 20.00     0.127 C 
HETATM   10  C6  UNL     1     -33.866  15.202  -3.197  1.00 20.00     0.079 C 
HETATM   11  O11 UNL     1     -32.855  13.084  -3.755  1.00 20.00    -0.298 OA
HETATM   12  C8  UNL     1     -35.361  15.490  -3.099  1.00 20.00     0.018 C 
ENDBRANCH   3   7
TORSDOF 1
ENDMDL
