MODEL 1
REMARK VINA RESULT:      -4.8      0.000      0.000
REMARK  1 active torsions:
REMARK  status: ('A' for Active; 'I' for Inactive)
REMARK    1  A    between atoms: C3_3  and  C8_8 
ROOT
HETATM    1  C1  UNL     1     -34.872  16.057  -1.914  1.00 20.00     0.016 A 
HETATM    2  C2  UNL     1     -34.400  16.843  -0.822  1.00 20.00     0.015 A 
HETATM    3  C3  UNL     1     -34.582  16.634  -3.130  1.00 20.00    -0.012 A 
HETATM    4  C4  UNL     1     -33.767  17.991  -1.248  1.00 20.00    -0.021 A 
HETATM    5  C10 UNL     1     -33.145  19.056  -0.431  1.00 20.00     0.056 C 
HETATM    6  S11 UNL     1     -33.743  18.117  -2.956  1.00 20.00    -0.099 SA
ENDROOT
BRANCH   3   7
HETATM    7  C8  UNL     1     -34.907  16.122  -4.517  1.00 20.00     0.040 C 
HETATM    8  C6  UNL     1     -33.909  16.419  -5.647  1.00 20.00     0.011 C 
HETATM    9  C5  UNL     1     -34.288  15.464  -6.780  1.00 20.00     0.002 C 
HETATM   10  C7  UNL     1     -35.198  14.397  -6.167  1.00 20.00     0.016 C 
HETATM   11  C9  UNL     1     -35.131  14.609  -4.660  1.00 20.00     0.067 C 
HETATM   12 BR12 UNL     1     -33.650  13.557  -3.922  1.00 20.00    -0.090 Br
ENDBRANCH   3   7
TORSDOF 1
ENDMDL
MODEL 2
REMARK VINA RESULT:      -4.7      1.357      1.430
REMARK  1 active torsions:
REMARK  status: ('A' for Active; 'I' for Inactive)
REMARK    1  A    between atoms: C3_3  and  C8_8 
ROOT
HETATM    1  C1  UNL     1     -33.698  16.357  -2.878  1.00 20.00     0.016 A 
HETATM    2  C2  UNL     1     -33.849  16.836  -1.544  1.00 20.00     0.015 A 
HETATM    3  C3  UNL     1     -34.847  16.519  -3.619  1.00 20.00    -0.012 A 
HETATM    4  C4  UNL     1     -35.109  17.346  -1.318  1.00 20.00    -0.021 A 
HETATM    5  C10 UNL     1     -35.654  17.933  -0.074  1.00 20.00     0.056 C 
HETATM    6  S11 UNL     1     -36.103  17.245  -2.709  1.00 20.00    -0.099 SA
ENDROOT
BRANCH   3   7
HETATM    7  C8  UNL     1     -35.096  16.143  -5.064  1.00 20.00     0.040 C 
HETATM    8  C6  UNL     1     -33.881  16.031  -5.999  1.00 20.00     0.011 C 
HETATM    9  C5  UNL     1     -34.386  15.268  -7.225  1.00 20.00     0.002 C 
HETATM   10  C7  UNL     1     -35.716  14.625  -6.823  1.00 20.00     0.016 C 
HETATM   11  C9  UNL     1     -35.834  14.820  -5.317  1.00 20.00     0.067 C 
HETATM   12 BR12 UNL     1     -34.996  13.304  -4.399  1.00 20.00    -0.090 Br
ENDBRANCH   3   7
TORSDOF 1
ENDMDL
MODEL 3
REMARK VINA RESULT:      -4.6      2.125      5.082
REMARK  1 active torsions:
REMARK  status: ('A' for Active; 'I' for Inactive)
REMARK    1  A    between atoms: C3_3  and  C8_8 
ROOT
HETATM    1  C1  UNL     1     -33.648  17.745  -4.661  1.00 20.00     0.016 A 
HETATM    2  C2  UNL     1     -33.797  17.239  -5.986  1.00 20.00     0.015 A 
HETATM    3  C3  UNL     1     -33.878  16.777  -3.709  1.00 20.00    -0.012 A 
HETATM    4  C4  UNL     1     -34.136  15.904  -5.994  1.00 20.00    -0.021 A 
HETATM    5  C10 UNL     1     -34.377  15.023  -7.158  1.00 20.00     0.056 C 
HETATM    6  S11 UNL     1     -34.273  15.265  -4.411  1.00 20.00    -0.099 SA
ENDROOT
BRANCH   3   7
HETATM    7  C8  UNL     1     -33.821  16.906  -2.202  1.00 20.00     0.040 C 
HETATM    8  C6  UNL     1     -33.291  18.222  -1.612  1.00 20.00     0.011 C 
HETATM    9  C5  UNL     1     -33.725  18.209  -0.145  1.00 20.00     0.002 C 
HETATM   10  C7  UNL     1     -34.801  17.127  -0.017  1.00 20.00     0.016 C 
HETATM   11  C9  UNL     1     -35.141  16.708  -1.442  1.00 20.00     0.067 C 
HETATM   12 BR12 UNL     1     -36.582  17.847  -2.126  1.00 20.00    -0.090 Br
ENDBRANCH   3   7
TORSDOF 1
ENDMDL
MODEL 4
REMARK VINA RESULT:      -4.5      1.630      1.940
REMARK  1 active torsions:
REMARK  status: ('A' for Active; 'I' for Inactive)
REMARK    1  A    between atoms: C3_3  and  C8_8 
ROOT
HETATM    1  C1  UNL     1     -34.462  15.884  -2.298  1.00 20.00     0.016 A 
HETATM    2  C2  UNL     1     -34.516  16.574  -1.053  1.00 20.00     0.015 A 
HETATM    3  C3  UNL     1     -34.095  16.713  -3.335  1.00 20.00    -0.012 A 
HETATM    4  C4  UNL     1     -34.188  17.906  -1.186  1.00 20.00    -0.021 A 
HETATM    5  C10 UNL     1     -34.127  18.948  -0.137  1.00 20.00     0.056 C 
HETATM    6  S11 UNL     1     -33.817  18.318  -2.806  1.00 20.00    -0.099 SA
ENDROOT
BRANCH   3   7
HETATM    7  C8  UNL     1     -33.922  16.371  -4.799  1.00 20.00     0.040 C 
HETATM    8  C6  UNL     1     -34.259  14.940  -5.249  1.00 20.00     0.011 C 
HETATM    9  C5  UNL     1     -34.380  15.016  -6.772  1.00 20.00     0.002 C 
HETATM   10  C7  UNL     1     -34.509  16.499  -7.128  1.00 20.00     0.016 C 
HETATM   11  C9  UNL     1     -34.705  17.229  -5.805  1.00 20.00     0.067 C 
HETATM   12 BR12 UNL     1     -36.618  17.317  -5.391  1.00 20.00    -0.090 Br
ENDBRANCH   3   7
TORSDOF 1
ENDMDL
MODEL 5
REMARK VINA RESULT:      -4.5      2.208      5.075
REMARK  1 active torsions:
REMARK  status: ('A' for Active; 'I' for Inactive)
REMARK    1  A    between atoms: C3_3  and  C8_8 
ROOT
HETATM    1  C1  UNL     1     -34.376  14.457  -3.491  1.00 20.00     0.016 A 
HETATM    2  C2  UNL     1     -34.305  13.872  -4.789  1.00 20.00     0.015 A 
HETATM    3  C3  UNL     1     -35.143  15.600  -3.479  1.00 20.00    -0.012 A 
HETATM    4  C4  UNL     1     -35.022  14.593  -5.720  1.00 20.00    -0.021 A 
HETATM    5  C10 UNL     1     -35.195  14.317  -7.163  1.00 20.00     0.056 C 
HETATM    6  S11 UNL     1     -35.775  15.967  -5.028  1.00 20.00    -0.099 SA
ENDROOT
BRANCH   3   7
HETATM    7  C8  UNL     1     -35.464  16.507  -2.310  1.00 20.00     0.040 C 
HETATM    8  C6  UNL     1     -34.580  16.407  -1.057  1.00 20.00     0.011 C 
HETATM    9  C5  UNL     1     -34.877  17.674  -0.254  1.00 20.00     0.002 C 
HETATM   10  C7  UNL     1     -35.590  18.639  -1.205  1.00 20.00     0.016 C 
HETATM   11  C9  UNL     1     -35.475  18.017  -2.591  1.00 20.00     0.067 C 
HETATM   12 BR12 UNL     1     -33.823  18.636  -3.444  1.00 20.00    -0.090 Br
ENDBRANCH   3   7
TORSDOF 1
ENDMDL
MODEL 6
REMARK VINA RESULT:      -4.4      1.883      2.102
REMARK  1 active torsions:
REMARK  status: ('A' for Active; 'I' for Inactive)
REMARK    1  A    between atoms: C3_3  and  C8_8 
ROOT
HETATM    1  C1  UNL     1     -34.565  16.157  -1.550  1.00 20.00     0.016 A 
HETATM    2  C2  UNL     1     -34.811  17.187  -0.596  1.00 20.00     0.015 A 
HETATM    3  C3  UNL     1     -35.414  16.239  -2.631  1.00 20.00    -0.012 A 
HETATM    4  C4  UNL     1     -35.839  18.018  -0.987  1.00 20.00    -0.021 A 
HETATM    5  C10 UNL     1     -36.391  19.193  -0.279  1.00 20.00     0.056 C 
HETATM    6  S11 UNL     1     -36.502  17.555  -2.496  1.00 20.00    -0.099 SA
ENDROOT
BRANCH   3   7
HETATM    7  C8  UNL     1     -35.477  15.343  -3.850  1.00 20.00     0.040 C 
HETATM    8  C6  UNL     1     -36.536  15.655  -4.919  1.00 20.00     0.011 C 
HETATM    9  C5  UNL     1     -36.099  14.872  -6.158  1.00 20.00     0.002 C 
HETATM   10  C7  UNL     1     -34.643  14.462  -5.925  1.00 20.00     0.016 C 
HETATM   11  C9  UNL     1     -34.191  15.216  -4.681  1.00 20.00     0.067 C 
HETATM   12 BR12 UNL     1     -33.460  16.956  -5.206  1.00 20.00    -0.090 Br
ENDBRANCH   3   7
TORSDOF 1
ENDMDL
MODEL 7
REMARK VINA RESULT:      -4.4      1.733      2.249
REMARK  1 active torsions:
REMARK  status: ('A' for Active; 'I' for Inactive)
REMARK    1  A    between atoms: C3_3  and  C8_8 
ROOT
HETATM    1  C1  UNL     1     -33.702  17.994  -3.711  1.00 20.00     0.016 A 
HETATM    2  C2  UNL     1     -33.750  18.862  -2.581  1.00 20.00     0.015 A 
HETATM    3  C3  UNL     1     -33.979  16.688  -3.372  1.00 20.00    -0.012 A 
HETATM    4  C4  UNL     1     -34.064  18.185  -1.423  1.00 20.00    -0.021 A 
HETATM    5  C10 UNL     1     -34.209  18.725  -0.053  1.00 20.00     0.056 C 
HETATM    6  S11 UNL     1     -34.297  16.511  -1.698  1.00 20.00    -0.099 SA
ENDROOT
BRANCH   3   7
HETATM    7  C8  UNL     1     -34.029  15.472  -4.272  1.00 20.00     0.040 C 
HETATM    8  C6  UNL     1     -34.272  14.102  -3.618  1.00 20.00     0.011 C 
HETATM    9  C5  UNL     1     -34.667  13.173  -4.767  1.00 20.00     0.002 C 
HETATM   10  C7  UNL     1     -35.026  14.071  -5.953  1.00 20.00     0.016 C 
HETATM   11  C9  UNL     1     -35.070  15.491  -5.402  1.00 20.00     0.067 C 
HETATM   12 BR12 UNL     1     -36.878  15.880  -4.753  1.00 20.00    -0.090 Br
ENDBRANCH   3   7
TORSDOF 1
ENDMDL
MODEL 8
REMARK VINA RESULT:      -4.3      2.157      2.818
REMARK  1 active torsions:
REMARK  status: ('A' for Active; 'I' for Inactive)
REMARK    1  A    between atoms: C3_3  and  C8_8 
ROOT
HETATM    1  C1  UNL     1     -33.734  15.377  -4.028  1.00 20.00     0.016 A 
HETATM    2  C2  UNL     1     -33.455  15.913  -2.737  1.00 20.00     0.015 A 
HETATM    3  C3  UNL     1     -35.085  15.344  -4.294  1.00 20.00    -0.012 A 
HETATM    4  C4  UNL     1     -34.604  16.269  -2.066  1.00 20.00    -0.021 A 
HETATM    5  C10 UNL     1     -34.736  16.855  -0.715  1.00 20.00     0.056 C 
HETATM    6  S11 UNL     1     -36.012  15.957  -2.990  1.00 20.00    -0.099 SA
ENDROOT
BRANCH   3   7
HETATM    7  C8  UNL     1     -35.788  14.853  -5.542  1.00 20.00     0.040 C 
HETATM    8  C6  UNL     1     -37.221  15.344  -5.801  1.00 20.00     0.011 C 
HETATM    9  C5  UNL     1     -37.495  15.025  -7.271  1.00 20.00     0.002 C 
HETATM   10  C7  UNL     1     -36.137  14.739  -7.918  1.00 20.00     0.016 C 
HETATM   11  C9  UNL     1     -35.092  15.133  -6.882  1.00 20.00     0.067 C 
HETATM   12 BR12 UNL     1     -34.633  17.024  -7.111  1.00 20.00    -0.090 Br
ENDBRANCH   3   7
TORSDOF 1
ENDMDL
MODEL 9
REMARK VINA RESULT:      -4.3      3.003      4.183
REMARK  1 active torsions:
REMARK  status: ('A' for Active; 'I' for Inactive)
REMARK    1  A    between atoms: C3_3  and  C8_8 
ROOT
HETATM    1  C1  UNL     1     -37.671  14.687  -4.110  1.00 20.00     0.016 A 
HETATM    2  C2  UNL     1     -38.883  15.432  -4.203  1.00 20.00     0.015 A 
HETATM    3  C3  UNL     1     -36.641  15.436  -3.587  1.00 20.00    -0.012 A 
HETATM    4  C4  UNL     1     -38.730  16.723  -3.747  1.00 20.00    -0.021 A 
HETATM    5  C10 UNL     1     -39.743  17.800  -3.678  1.00 20.00     0.056 C 
HETATM    6  S11 UNL     1     -37.134  17.033  -3.210  1.00 20.00    -0.099 SA
ENDROOT
BRANCH   3   7
HETATM    7  C8  UNL     1     -35.209  15.018  -3.328  1.00 20.00     0.040 C 
HETATM    8  C6  UNL     1     -34.770  13.623  -3.800  1.00 20.00     0.011 C 
HETATM    9  C5  UNL     1     -33.241  13.652  -3.773  1.00 20.00     0.002 C 
HETATM   10  C7  UNL     1     -32.833  15.125  -3.682  1.00 20.00     0.016 C 
HETATM   11  C9  UNL     1     -34.111  15.925  -3.903  1.00 20.00     0.067 C 
HETATM   12 BR12 UNL     1     -34.341  16.263  -5.820  1.00 20.00    -0.090 Br
ENDBRANCH   3   7
TORSDOF 1
ENDMDL
