MODEL 1
REMARK VINA RESULT:      -3.7      0.000      0.000
REMARK  4 active torsions:
REMARK  status: ('A' for Active; 'I' for Inactive)
REMARK    1  A    between atoms: C1_1  and  C5_5 
REMARK       I    between atoms: C1_1  and  N8_8 
REMARK    2  A    between atoms: C5_5  and  S10_10 
REMARK    3  A    between atoms: C6_6  and  N8_8 
REMARK    4  A    between atoms: C7_7  and  N8_8 
ROOT
HETATM    1  C1  UNL     1     -36.645  15.131  -3.731  1.00 20.00     0.229 C 
HETATM    2  N8  UNL     1     -35.270  14.964  -3.518  1.00 20.00    -0.348 N 
HETATM    3  O9  UNL     1     -37.453  14.203  -3.644  1.00 20.00    -0.273 OA
ENDROOT
BRANCH   2   4
HETATM    4  C6  UNL     1     -34.422  16.032  -2.993  1.00 20.00     0.121 C 
HETATM    5  C2  UNL     1     -34.671  16.251  -1.540  1.00 20.00     0.026 C 
ENDBRANCH   2   4
BRANCH   2   6
HETATM    6  C7  UNL     1     -34.581  13.711  -3.803  1.00 20.00     0.079 C 
HETATM    7  C3  UNL     1     -33.089  13.897  -3.563  1.00 20.00     0.032 C 
HETATM    8  C4  UNL     1     -34.874  13.302  -5.240  1.00 20.00     0.032 C 
ENDBRANCH   2   6
BRANCH   1   9
HETATM    9  C5  UNL     1     -37.087  16.542  -4.077  1.00 20.00     0.173 C 
BRANCH   9  10
HETATM   10  S10 UNL     1     -36.890  16.901  -5.841  1.00 20.00    -0.173 SA
HETATM   11  H25 UNL     1     -36.223  15.779  -6.146  1.00 20.00     0.102 HD
ENDBRANCH   9  10
ENDBRANCH   1   9
TORSDOF 4
ENDMDL
MODEL 2
REMARK VINA RESULT:      -3.6      1.785      2.925
REMARK  4 active torsions:
REMARK  status: ('A' for Active; 'I' for Inactive)
REMARK    1  A    between atoms: C1_1  and  C5_5 
REMARK       I    between atoms: C1_1  and  N8_8 
REMARK    2  A    between atoms: C5_5  and  S10_10 
REMARK    3  A    between atoms: C6_6  and  N8_8 
REMARK    4  A    between atoms: C7_7  and  N8_8 
ROOT
HETATM    1  C1  UNL     1     -35.033  13.780  -5.110  1.00 20.00     0.229 C 
HETATM    2  N8  UNL     1     -35.174  14.764  -4.121  1.00 20.00    -0.348 N 
HETATM    3  O9  UNL     1     -34.505  12.686  -4.893  1.00 20.00    -0.273 OA
ENDROOT
BRANCH   2   4
HETATM    4  C6  UNL     1     -36.277  15.723  -4.122  1.00 20.00     0.121 C 
HETATM    5  C2  UNL     1     -37.565  15.060  -3.773  1.00 20.00     0.026 C 
ENDBRANCH   2   4
BRANCH   2   6
HETATM    6  C7  UNL     1     -34.232  14.905  -3.017  1.00 20.00     0.079 C 
HETATM    7  C3  UNL     1     -34.721  16.003  -2.082  1.00 20.00     0.032 C 
HETATM    8  C4  UNL     1     -32.854  15.219  -3.581  1.00 20.00     0.032 C 
ENDBRANCH   2   6
BRANCH   1   9
HETATM    9  C5  UNL     1     -35.577  14.145  -6.479  1.00 20.00     0.173 C 
BRANCH   9  10
HETATM   10  S10 UNL     1     -34.467  15.262  -7.375  1.00 20.00    -0.173 SA
HETATM   11  H25 UNL     1     -34.630  16.314  -6.561  1.00 20.00     0.102 HD
ENDBRANCH   9  10
ENDBRANCH   1   9
TORSDOF 4
ENDMDL
MODEL 3
REMARK VINA RESULT:      -3.5      2.861      3.579
REMARK  4 active torsions:
REMARK  status: ('A' for Active; 'I' for Inactive)
REMARK    1  A    between atoms: C1_1  and  C5_5 
REMARK       I    between atoms: C1_1  and  N8_8 
REMARK    2  A    between atoms: C5_5  and  S10_10 
REMARK    3  A    between atoms: C6_6  and  N8_8 
REMARK    4  A    between atoms: C7_7  and  N8_8 
ROOT
HETATM    1  C1  UNL     1     -33.349  15.716  -3.799  1.00 20.00     0.229 C 
HETATM    2  N8  UNL     1     -34.232  15.501  -4.867  1.00 20.00    -0.348 N 
HETATM    3  O9  UNL     1     -32.372  14.994  -3.584  1.00 20.00    -0.273 OA
ENDROOT
BRANCH   2   4
HETATM    4  C6  UNL     1     -34.952  16.592  -5.520  1.00 20.00     0.121 C 
HETATM    5  C2  UNL     1     -34.018  17.481  -6.266  1.00 20.00     0.026 C 
ENDBRANCH   2   4
BRANCH   2   6
HETATM    6  C7  UNL     1     -34.498  14.173  -5.407  1.00 20.00     0.079 C 
HETATM    7  C3  UNL     1     -35.324  14.309  -6.679  1.00 20.00     0.032 C 
HETATM    8  C4  UNL     1     -35.220  13.347  -4.352  1.00 20.00     0.032 C 
ENDBRANCH   2   6
BRANCH   1   9
HETATM    9  C5  UNL     1     -33.672  16.905  -2.912  1.00 20.00     0.173 C 
BRANCH   9  10
HETATM   10  S10 UNL     1     -34.661  16.430  -1.471  1.00 20.00    -0.173 SA
HETATM   11  H25 UNL     1     -34.043  15.262  -1.248  1.00 20.00     0.102 HD
ENDBRANCH   9  10
ENDBRANCH   1   9
TORSDOF 4
ENDMDL
MODEL 4
REMARK VINA RESULT:      -3.5      1.654      1.788
REMARK  4 active torsions:
REMARK  status: ('A' for Active; 'I' for Inactive)
REMARK    1  A    between atoms: C1_1  and  C5_5 
REMARK       I    between atoms: C1_1  and  N8_8 
REMARK    2  A    between atoms: C5_5  and  S10_10 
REMARK    3  A    between atoms: C6_6  and  N8_8 
REMARK    4  A    between atoms: C7_7  and  N8_8 
ROOT
HETATM    1  C1  UNL     1     -37.301  15.195  -3.774  1.00 20.00     0.229 C 
HETATM    2  N8  UNL     1     -35.962  15.283  -4.181  1.00 20.00    -0.348 N 
HETATM    3  O9  UNL     1     -37.929  14.133  -3.765  1.00 20.00    -0.273 OA
ENDROOT
BRANCH   2   4
HETATM    4  C6  UNL     1     -35.042  16.280  -3.638  1.00 20.00     0.121 C 
HETATM    5  C2  UNL     1     -34.659  15.950  -2.235  1.00 20.00     0.026 C 
ENDBRANCH   2   4
BRANCH   2   6
HETATM    6  C7  UNL     1     -35.386  14.386  -5.176  1.00 20.00     0.079 C 
HETATM    7  C3  UNL     1     -34.668  13.248  -4.464  1.00 20.00     0.032 C 
HETATM    8  C4  UNL     1     -34.440  15.179  -6.066  1.00 20.00     0.032 C 
ENDBRANCH   2   6
BRANCH   1   9
HETATM    9  C5  UNL     1     -37.940  16.502  -3.339  1.00 20.00     0.173 C 
BRANCH   9  10
HETATM   10  S10 UNL     1     -39.704  16.309  -2.980  1.00 20.00    -0.173 SA
HETATM   11  H25 UNL     1     -39.861  15.149  -3.633  1.00 20.00     0.102 HD
ENDBRANCH   9  10
ENDBRANCH   1   9
TORSDOF 4
ENDMDL
MODEL 5
REMARK VINA RESULT:      -3.4      2.242      2.707
REMARK  4 active torsions:
REMARK  status: ('A' for Active; 'I' for Inactive)
REMARK    1  A    between atoms: C1_1  and  C5_5 
REMARK       I    between atoms: C1_1  and  N8_8 
REMARK    2  A    between atoms: C5_5  and  S10_10 
REMARK    3  A    between atoms: C6_6  and  N8_8 
REMARK    4  A    between atoms: C7_7  and  N8_8 
ROOT
HETATM    1  C1  UNL     1     -35.537  15.857  -3.384  1.00 20.00     0.229 C 
HETATM    2  N8  UNL     1     -34.659  15.527  -4.426  1.00 20.00    -0.348 N 
HETATM    3  O9  UNL     1     -36.519  15.170  -3.094  1.00 20.00    -0.273 OA
ENDROOT
BRANCH   2   4
HETATM    4  C6  UNL     1     -33.243  15.886  -4.402  1.00 20.00     0.121 C 
HETATM    5  C2  UNL     1     -32.459  14.925  -3.574  1.00 20.00     0.026 C 
ENDBRANCH   2   4
BRANCH   2   6
HETATM    6  C7  UNL     1     -35.092  14.798  -5.613  1.00 20.00     0.079 C 
HETATM    7  C3  UNL     1     -34.874  13.308  -5.390  1.00 20.00     0.032 C 
HETATM    8  C4  UNL     1     -34.313  15.309  -6.817  1.00 20.00     0.032 C 
ENDBRANCH   2   6
BRANCH   1   9
HETATM    9  C5  UNL     1     -35.200  17.128  -2.623  1.00 20.00     0.173 C 
BRANCH   9  10
HETATM   10  S10 UNL     1     -34.613  16.780  -0.946  1.00 20.00    -0.173 SA
HETATM   11  H25 UNL     1     -35.071  17.912  -0.393  1.00 20.00     0.102 HD
ENDBRANCH   9  10
ENDBRANCH   1   9
TORSDOF 4
ENDMDL
MODEL 6
REMARK VINA RESULT:      -3.4      2.362      3.547
REMARK  4 active torsions:
REMARK  status: ('A' for Active; 'I' for Inactive)
REMARK    1  A    between atoms: C1_1  and  C5_5 
REMARK       I    between atoms: C1_1  and  N8_8 
REMARK    2  A    between atoms: C5_5  and  S10_10 
REMARK    3  A    between atoms: C6_6  and  N8_8 
REMARK    4  A    between atoms: C7_7  and  N8_8 
ROOT
HETATM    1  C1  UNL     1     -33.908  15.985  -5.361  1.00 20.00     0.229 C 
HETATM    2  N8  UNL     1     -34.942  15.745  -4.444  1.00 20.00    -0.348 N 
HETATM    3  O9  UNL     1     -32.858  16.552  -5.050  1.00 20.00    -0.273 OA
ENDROOT
BRANCH   2   4
HETATM    4  C6  UNL     1     -35.842  14.599  -4.560  1.00 20.00     0.121 C 
HETATM    5  C2  UNL     1     -35.130  13.324  -4.261  1.00 20.00     0.026 C 
ENDBRANCH   2   4
BRANCH   2   6
HETATM    6  C7  UNL     1     -35.197  16.619  -3.305  1.00 20.00     0.079 C 
HETATM    7  C3  UNL     1     -34.547  16.023  -2.064  1.00 20.00     0.032 C 
HETATM    8  C4  UNL     1     -36.700  16.778  -3.132  1.00 20.00     0.032 C 
ENDBRANCH   2   6
BRANCH   1   9
HETATM    9  C5  UNL     1     -34.162  15.498  -6.776  1.00 20.00     0.173 C 
BRANCH   9  10
HETATM   10  S10 UNL     1     -35.019  16.739  -7.778  1.00 20.00    -0.173 SA
HETATM   11  H25 UNL     1     -36.207  16.627  -7.166  1.00 20.00     0.102 HD
ENDBRANCH   9  10
ENDBRANCH   1   9
TORSDOF 4
ENDMDL
MODEL 7
REMARK VINA RESULT:      -3.4      2.800      3.690
REMARK  4 active torsions:
REMARK  status: ('A' for Active; 'I' for Inactive)
REMARK    1  A    between atoms: C1_1  and  C5_5 
REMARK       I    between atoms: C1_1  and  N8_8 
REMARK    2  A    between atoms: C5_5  and  S10_10 
REMARK    3  A    between atoms: C6_6  and  N8_8 
REMARK    4  A    between atoms: C7_7  and  N8_8 
ROOT
HETATM    1  C1  UNL     1     -33.663  16.331  -5.084  1.00 20.00     0.229 C 
HETATM    2  N8  UNL     1     -34.815  15.534  -5.140  1.00 20.00    -0.348 N 
HETATM    3  O9  UNL     1     -32.659  16.011  -4.443  1.00 20.00    -0.273 OA
ENDROOT
BRANCH   2   4
HETATM    4  C6  UNL     1     -35.703  15.521  -6.301  1.00 20.00     0.121 C 
HETATM    5  C2  UNL     1     -35.109  14.740  -7.423  1.00 20.00     0.026 C 
ENDBRANCH   2   4
BRANCH   2   6
HETATM    6  C7  UNL     1     -35.215  14.658  -4.045  1.00 20.00     0.079 C 
HETATM    7  C3  UNL     1     -34.698  13.252  -4.318  1.00 20.00     0.032 C 
HETATM    8  C4  UNL     1     -36.731  14.686  -3.919  1.00 20.00     0.032 C 
ENDBRANCH   2   6
BRANCH   1   9
HETATM    9  C5  UNL     1     -33.725  17.628  -5.871  1.00 20.00     0.173 C 
BRANCH   9  10
HETATM   10  S10 UNL     1     -33.656  19.081  -4.792  1.00 20.00    -0.173 SA
HETATM   11  H25 UNL     1     -33.924  18.430  -3.652  1.00 20.00     0.102 HD
ENDBRANCH   9  10
ENDBRANCH   1   9
TORSDOF 4
ENDMDL
MODEL 8
REMARK VINA RESULT:      -3.4      2.614      3.828
REMARK  4 active torsions:
REMARK  status: ('A' for Active; 'I' for Inactive)
REMARK    1  A    between atoms: C1_1  and  C5_5 
REMARK       I    between atoms: C1_1  and  N8_8 
REMARK    2  A    between atoms: C5_5  and  S10_10 
REMARK    3  A    between atoms: C6_6  and  N8_8 
REMARK    4  A    between atoms: C7_7  and  N8_8 
ROOT
HETATM    1  C1  UNL     1     -33.573  15.705  -4.000  1.00 20.00     0.229 C 
HETATM    2  N8  UNL     1     -34.595  16.523  -3.496  1.00 20.00    -0.348 N 
HETATM    3  O9  UNL     1     -32.642  16.142  -4.682  1.00 20.00    -0.273 OA
ENDROOT
BRANCH   2   4
HETATM    4  C6  UNL     1     -35.292  16.224  -2.247  1.00 20.00     0.121 C 
HETATM    5  C2  UNL     1     -34.466  16.602  -1.066  1.00 20.00     0.026 C 
ENDBRANCH   2   4
BRANCH   2   6
HETATM    6  C7  UNL     1     -35.037  17.733  -4.178  1.00 20.00     0.079 C 
HETATM    7  C3  UNL     1     -34.234  18.919  -3.661  1.00 20.00     0.032 C 
HETATM    8  C4  UNL     1     -36.529  17.916  -3.940  1.00 20.00     0.032 C 
ENDBRANCH   2   6
BRANCH   1   9
HETATM    9  C5  UNL     1     -33.682  14.232  -3.652  1.00 20.00     0.173 C 
BRANCH   9  10
HETATM   10  S10 UNL     1     -34.793  13.348  -4.777  1.00 20.00    -0.173 SA
HETATM   11  H25 UNL     1     -35.112  12.364  -3.925  1.00 20.00     0.102 HD
ENDBRANCH   9  10
ENDBRANCH   1   9
TORSDOF 4
ENDMDL
MODEL 9
REMARK VINA RESULT:      -3.3      2.167      2.460
REMARK  4 active torsions:
REMARK  status: ('A' for Active; 'I' for Inactive)
REMARK    1  A    between atoms: C1_1  and  C5_5 
REMARK       I    between atoms: C1_1  and  N8_8 
REMARK    2  A    between atoms: C5_5  and  S10_10 
REMARK    3  A    between atoms: C6_6  and  N8_8 
REMARK    4  A    between atoms: C7_7  and  N8_8 
ROOT
HETATM    1  C1  UNL     1     -34.011  16.280  -4.931  1.00 20.00     0.229 C 
HETATM    2  N8  UNL     1     -34.547  15.748  -3.750  1.00 20.00    -0.348 N 
HETATM    3  O9  UNL     1     -33.933  15.635  -5.980  1.00 20.00    -0.273 OA
ENDROOT
BRANCH   2   4
HETATM    4  C6  UNL     1     -35.222  16.576  -2.753  1.00 20.00     0.121 C 
HETATM    5  C2  UNL     1     -34.635  16.374  -1.399  1.00 20.00     0.026 C 
ENDBRANCH   2   4
BRANCH   2   6
HETATM    6  C7  UNL     1     -34.471  14.328  -3.426  1.00 20.00     0.079 C 
HETATM    7  C3  UNL     1     -33.047  13.840  -3.655  1.00 20.00     0.032 C 
HETATM    8  C4  UNL     1     -35.471  13.572  -4.289  1.00 20.00     0.032 C 
ENDBRANCH   2   6
BRANCH   1   9
HETATM    9  C5  UNL     1     -33.526  17.716  -4.841  1.00 20.00     0.173 C 
BRANCH   9  10
HETATM   10  S10 UNL     1     -33.915  18.659  -6.337  1.00 20.00    -0.173 SA
HETATM   11  H25 UNL     1     -34.500  19.691  -5.712  1.00 20.00     0.102 HD
ENDBRANCH   9  10
ENDBRANCH   1   9
TORSDOF 4
ENDMDL
