MODEL 1
REMARK VINA RESULT:      -4.8      0.000      0.000
REMARK  1 active torsions:
REMARK  status: ('A' for Active; 'I' for Inactive)
REMARK    1  A    between atoms: C3_3  and  C8_8 
ROOT
HETATM    1  C1  UNL     1     -34.319  14.043  -3.555  1.00 20.00     0.016 A 
HETATM    2  C2  UNL     1     -34.715  13.501  -4.812  1.00 20.00     0.015 A 
HETATM    3  C3  UNL     1     -34.168  15.411  -3.604  1.00 20.00    -0.013 A 
HETATM    4  C4  UNL     1     -34.852  14.478  -5.775  1.00 20.00    -0.021 A 
HETATM    5  C10 UNL     1     -35.245  14.323  -7.192  1.00 20.00     0.056 C 
HETATM    6  S11 UNL     1     -34.504  16.038  -5.162  1.00 20.00    -0.099 SA
ENDROOT
BRANCH   3   7
HETATM    7  C8  UNL     1     -33.763  16.354  -2.494  1.00 20.00     0.027 C 
HETATM    8  C5  UNL     1     -33.785  17.830  -2.937  1.00 20.00     0.011 C 
HETATM    9  C6  UNL     1     -34.269  18.596  -1.713  1.00 20.00     0.016 C 
HETATM   10  C9  UNL     1     -35.300  17.654  -1.124  1.00 20.00     0.058 C 
HETATM   11  C7  UNL     1     -34.652  16.281  -1.233  1.00 20.00     0.025 C 
HETATM   12 BR12 UNL     1     -35.713  18.109   0.709  1.00 20.00    -0.091 Br
ENDBRANCH   3   7
TORSDOF 1
ENDMDL
MODEL 2
REMARK VINA RESULT:      -4.6      3.386      5.986
REMARK  1 active torsions:
REMARK  status: ('A' for Active; 'I' for Inactive)
REMARK    1  A    between atoms: C3_3  and  C8_8 
ROOT
HETATM    1  C1  UNL     1     -32.865  18.556  -0.229  1.00 20.00     0.016 A 
HETATM    2  C2  UNL     1     -32.725  18.890   1.149  1.00 20.00     0.015 A 
HETATM    3  C3  UNL     1     -34.068  17.942  -0.494  1.00 20.00    -0.013 A 
HETATM    4  C4  UNL     1     -33.828  18.517   1.886  1.00 20.00    -0.021 A 
HETATM    5  C10 UNL     1     -34.068  18.689   3.334  1.00 20.00     0.056 C 
HETATM    6  S11 UNL     1     -35.025  17.769   0.916  1.00 20.00    -0.099 SA
ENDROOT
BRANCH   3   7
HETATM    7  C8  UNL     1     -34.597  17.437  -1.818  1.00 20.00     0.027 C 
HETATM    8  C5  UNL     1     -33.757  17.926  -3.013  1.00 20.00     0.011 C 
HETATM    9  C6  UNL     1     -33.758  16.760  -3.992  1.00 20.00     0.016 C 
HETATM   10  C9  UNL     1     -33.684  15.558  -3.070  1.00 20.00     0.058 C 
HETATM   11  C7  UNL     1     -34.649  15.898  -1.943  1.00 20.00     0.025 C 
HETATM   12 BR12 UNL     1     -34.190  13.931  -3.982  1.00 20.00    -0.091 Br
ENDBRANCH   3   7
TORSDOF 1
ENDMDL
MODEL 3
REMARK VINA RESULT:      -4.5      2.890      5.256
REMARK  1 active torsions:
REMARK  status: ('A' for Active; 'I' for Inactive)
REMARK    1  A    between atoms: C3_3  and  C8_8 
ROOT
HETATM    1  C1  UNL     1     -34.155  16.643  -1.216  1.00 20.00     0.016 A 
HETATM    2  C2  UNL     1     -35.019  17.502  -0.477  1.00 20.00     0.015 A 
HETATM    3  C3  UNL     1     -34.609  16.428  -2.498  1.00 20.00    -0.013 A 
HETATM    4  C4  UNL     1     -36.102  17.912  -1.224  1.00 20.00    -0.021 A 
HETATM    5  C10 UNL     1     -37.214  18.800  -0.823  1.00 20.00     0.056 C 
HETATM    6  S11 UNL     1     -36.073  17.261  -2.808  1.00 20.00    -0.099 SA
ENDROOT
BRANCH   3   7
HETATM    7  C8  UNL     1     -33.987  15.586  -3.589  1.00 20.00     0.027 C 
HETATM    8  C5  UNL     1     -34.386  14.102  -3.488  1.00 20.00     0.011 C 
HETATM    9  C6  UNL     1     -34.519  13.636  -4.932  1.00 20.00     0.016 C 
HETATM   10  C9  UNL     1     -35.122  14.848  -5.613  1.00 20.00     0.058 C 
HETATM   11  C7  UNL     1     -34.354  16.024  -5.024  1.00 20.00     0.025 C 
HETATM   12 BR12 UNL     1     -34.929  14.754  -7.534  1.00 20.00    -0.091 Br
ENDBRANCH   3   7
TORSDOF 1
ENDMDL
MODEL 4
REMARK VINA RESULT:      -4.5      1.644      2.008
REMARK  1 active torsions:
REMARK  status: ('A' for Active; 'I' for Inactive)
REMARK    1  A    between atoms: C3_3  and  C8_8 
ROOT
HETATM    1  C1  UNL     1     -35.294  17.466  -3.710  1.00 20.00     0.016 A 
HETATM    2  C2  UNL     1     -35.450  17.034  -5.059  1.00 20.00     0.015 A 
HETATM    3  C3  UNL     1     -34.184  16.912  -3.114  1.00 20.00    -0.013 A 
HETATM    4  C4  UNL     1     -34.451  16.165  -5.442  1.00 20.00    -0.021 A 
HETATM    5  C10 UNL     1     -34.260  15.503  -6.750  1.00 20.00     0.056 C 
HETATM    6  S11 UNL     1     -33.333  15.875  -4.178  1.00 20.00    -0.099 SA
ENDROOT
BRANCH   3   7
HETATM    7  C8  UNL     1     -33.672  17.113  -1.705  1.00 20.00     0.027 C 
HETATM    8  C5  UNL     1     -33.295  18.580  -1.419  1.00 20.00     0.011 C 
HETATM    9  C6  UNL     1     -33.696  18.807   0.033  1.00 20.00     0.016 C 
HETATM   10  C9  UNL     1     -34.976  18.003   0.149  1.00 20.00     0.058 C 
HETATM   11  C7  UNL     1     -34.670  16.712  -0.597  1.00 20.00     0.025 C 
HETATM   12 BR12 UNL     1     -35.441  17.672   1.996  1.00 20.00    -0.091 Br
ENDBRANCH   3   7
TORSDOF 1
ENDMDL
MODEL 5
REMARK VINA RESULT:      -4.4      4.217      6.887
REMARK  1 active torsions:
REMARK  status: ('A' for Active; 'I' for Inactive)
REMARK    1  A    between atoms: C3_3  and  C8_8 
ROOT
HETATM    1  C1  UNL     1     -34.776  17.982   2.639  1.00 20.00     0.016 A 
HETATM    2  C2  UNL     1     -33.986  18.166   3.811  1.00 20.00     0.015 A 
HETATM    3  C3  UNL     1     -34.103  18.353   1.497  1.00 20.00    -0.013 A 
HETATM    4  C4  UNL     1     -32.738  18.673   3.518  1.00 20.00    -0.021 A 
HETATM    5  C10 UNL     1     -31.636  19.000   4.449  1.00 20.00     0.056 C 
HETATM    6  S11 UNL     1     -32.524  18.923   1.838  1.00 20.00    -0.099 SA
ENDROOT
BRANCH   3   7
HETATM    7  C8  UNL     1     -34.585  18.313   0.064  1.00 20.00     0.027 C 
HETATM    8  C5  UNL     1     -33.613  19.011  -0.905  1.00 20.00     0.011 C 
HETATM    9  C6  UNL     1     -33.668  18.179  -2.179  1.00 20.00     0.016 C 
HETATM   10  C9  UNL     1     -33.791  16.767  -1.642  1.00 20.00     0.058 C 
HETATM   11  C7  UNL     1     -34.793  16.891  -0.502  1.00 20.00     0.025 C 
HETATM   12 BR12 UNL     1     -34.402  15.539  -3.004  1.00 20.00    -0.091 Br
ENDBRANCH   3   7
TORSDOF 1
ENDMDL
MODEL 6
REMARK VINA RESULT:      -4.4      3.131      5.262
REMARK  1 active torsions:
REMARK  status: ('A' for Active; 'I' for Inactive)
REMARK    1  A    between atoms: C3_3  and  C8_8 
ROOT
HETATM    1  C1  UNL     1     -34.853  16.228  -2.161  1.00 20.00     0.016 A 
HETATM    2  C2  UNL     1     -34.593  16.577  -0.804  1.00 20.00     0.015 A 
HETATM    3  C3  UNL     1     -34.418  17.196  -3.038  1.00 20.00    -0.013 A 
HETATM    4  C4  UNL     1     -33.969  17.801  -0.696  1.00 20.00    -0.021 A 
HETATM    5  C10 UNL     1     -33.535  18.508   0.528  1.00 20.00     0.056 C 
HETATM    6  S11 UNL     1     -33.699  18.522  -2.226  1.00 20.00    -0.099 SA
ENDROOT
BRANCH   3   7
HETATM    7  C8  UNL     1     -34.505  17.207  -4.548  1.00 20.00     0.027 C 
HETATM    8  C5  UNL     1     -33.398  16.364  -5.208  1.00 20.00     0.011 C 
HETATM    9  C6  UNL     1     -34.063  15.732  -6.423  1.00 20.00     0.016 C 
HETATM   10  C9  UNL     1     -35.458  15.430  -5.913  1.00 20.00     0.058 C 
HETATM   11  C7  UNL     1     -35.837  16.672  -5.117  1.00 20.00     0.025 C 
HETATM   12 BR12 UNL     1     -36.691  15.105  -7.365  1.00 20.00    -0.091 Br
ENDBRANCH   3   7
TORSDOF 1
ENDMDL
MODEL 7
REMARK VINA RESULT:      -4.4      1.675      2.170
REMARK  1 active torsions:
REMARK  status: ('A' for Active; 'I' for Inactive)
REMARK    1  A    between atoms: C3_3  and  C8_8 
ROOT
HETATM    1  C1  UNL     1     -33.556  16.718  -4.878  1.00 20.00     0.016 A 
HETATM    2  C2  UNL     1     -33.667  15.939  -6.067  1.00 20.00     0.015 A 
HETATM    3  C3  UNL     1     -34.684  16.629  -4.094  1.00 20.00    -0.013 A 
HETATM    4  C4  UNL     1     -34.878  15.286  -6.145  1.00 20.00    -0.021 A 
HETATM    5  C10 UNL     1     -35.372  14.388  -7.212  1.00 20.00     0.056 C 
HETATM    6  S11 UNL     1     -35.873  15.611  -4.790  1.00 20.00    -0.099 SA
ENDROOT
BRANCH   3   7
HETATM    7  C8  UNL     1     -34.963  17.297  -2.766  1.00 20.00     0.027 C 
HETATM    8  C5  UNL     1     -35.041  16.289  -1.604  1.00 20.00     0.011 C 
HETATM    9  C6  UNL     1     -34.419  17.013  -0.418  1.00 20.00     0.016 C 
HETATM   10  C9  UNL     1     -33.292  17.794  -1.065  1.00 20.00     0.058 C 
HETATM   11  C7  UNL     1     -33.911  18.346  -2.342  1.00 20.00     0.025 C 
HETATM   12 BR12 UNL     1     -32.650  19.204   0.089  1.00 20.00    -0.091 Br
ENDBRANCH   3   7
TORSDOF 1
ENDMDL
MODEL 8
REMARK VINA RESULT:      -4.4      3.072      5.526
REMARK  1 active torsions:
REMARK  status: ('A' for Active; 'I' for Inactive)
REMARK    1  A    between atoms: C3_3  and  C8_8 
ROOT
HETATM    1  C1  UNL     1     -34.716  17.032  -0.123  1.00 20.00     0.016 A 
HETATM    2  C2  UNL     1     -35.278  17.644   1.035  1.00 20.00     0.015 A 
HETATM    3  C3  UNL     1     -35.386  17.385  -1.273  1.00 20.00    -0.013 A 
HETATM    4  C4  UNL     1     -36.358  18.443   0.724  1.00 20.00    -0.021 A 
HETATM    5  C10 UNL     1     -37.203  19.243   1.636  1.00 20.00     0.056 C 
HETATM    6  S11 UNL     1     -36.688  18.452  -0.956  1.00 20.00    -0.099 SA
ENDROOT
BRANCH   3   7
HETATM    7  C8  UNL     1     -35.107  16.955  -2.696  1.00 20.00     0.027 C 
HETATM    8  C5  UNL     1     -33.601  16.933  -3.020  1.00 20.00     0.011 C 
HETATM    9  C6  UNL     1     -33.420  15.740  -3.949  1.00 20.00     0.016 C 
HETATM   10  C9  UNL     1     -34.392  14.728  -3.375  1.00 20.00     0.058 C 
HETATM   11  C7  UNL     1     -35.634  15.548  -3.055  1.00 20.00     0.025 C 
HETATM   12 BR12 UNL     1     -34.771  13.313  -4.635  1.00 20.00    -0.091 Br
ENDBRANCH   3   7
TORSDOF 1
ENDMDL
MODEL 9
REMARK VINA RESULT:      -4.3      2.214      3.281
REMARK  1 active torsions:
REMARK  status: ('A' for Active; 'I' for Inactive)
REMARK    1  A    between atoms: C3_3  and  C8_8 
ROOT
HETATM    1  C1  UNL     1     -34.524  16.190  -1.586  1.00 20.00     0.016 A 
HETATM    2  C2  UNL     1     -34.092  15.689  -2.849  1.00 20.00     0.015 A 
HETATM    3  C3  UNL     1     -34.490  17.566  -1.535  1.00 20.00    -0.013 A 
HETATM    4  C4  UNL     1     -33.743  16.703  -3.715  1.00 20.00    -0.021 A 
HETATM    5  C10 UNL     1     -33.251  16.596  -5.105  1.00 20.00     0.056 C 
HETATM    6  S11 UNL     1     -33.937  18.249  -3.005  1.00 20.00    -0.099 SA
ENDROOT
BRANCH   3   7
HETATM    7  C8  UNL     1     -34.865  18.475  -0.387  1.00 20.00     0.027 C 
HETATM    8  C5  UNL     1     -36.357  18.371  -0.016  1.00 20.00     0.011 C 
HETATM    9  C6  UNL     1     -36.392  18.517   1.499  1.00 20.00     0.016 C 
HETATM   10  C9  UNL     1     -35.142  17.773   1.928  1.00 20.00     0.058 C 
HETATM   11  C7  UNL     1     -34.088  18.211   0.921  1.00 20.00     0.025 C 
HETATM   12 BR12 UNL     1     -34.635  18.222   3.739  1.00 20.00    -0.091 Br
ENDBRANCH   3   7
TORSDOF 1
ENDMDL
