MODEL 1
REMARK VINA RESULT:      -4.6      0.000      0.000
REMARK  1 active torsions:
REMARK  status: ('A' for Active; 'I' for Inactive)
REMARK    1  A    between atoms: C3_3  and  C8_8 
ROOT
HETATM    1  C1  UNL     1     -36.463  15.105  -6.011  1.00 20.00     0.016 A 
HETATM    2  C2  UNL     1     -37.758  15.347  -6.554  1.00 20.00     0.015 A 
HETATM    3  C3  UNL     1     -36.508  14.863  -4.656  1.00 20.00    -0.012 A 
HETATM    4  C4  UNL     1     -38.743  15.280  -5.593  1.00 20.00    -0.021 A 
HETATM    5  C10 UNL     1     -40.200  15.470  -5.754  1.00 20.00     0.056 C 
HETATM    6  S11 UNL     1     -38.105  14.928  -4.044  1.00 20.00    -0.099 SA
ENDROOT
BRANCH   3   7
HETATM    7  C8  UNL     1     -35.361  14.564  -3.714  1.00 20.00     0.040 C 
HETATM    8  C6  UNL     1     -34.433  13.452  -4.234  1.00 20.00     0.011 C 
HETATM    9  C5  UNL     1     -33.093  13.768  -3.592  1.00 20.00     0.002 C 
HETATM   10  C7  UNL     1     -33.007  15.283  -3.708  1.00 20.00     0.016 C 
HETATM   11  C9  UNL     1     -34.433  15.771  -3.460  1.00 20.00     0.067 C 
HETATM   12 BR12 UNL     1     -34.612  16.368  -1.601  1.00 20.00    -0.090 Br
ENDBRANCH   3   7
TORSDOF 1
ENDMDL
MODEL 2
REMARK VINA RESULT:      -4.6      3.130      5.063
REMARK  1 active torsions:
REMARK  status: ('A' for Active; 'I' for Inactive)
REMARK    1  A    between atoms: C3_3  and  C8_8 
ROOT
HETATM    1  C1  UNL     1     -35.004  15.939  -2.207  1.00 20.00     0.016 A 
HETATM    2  C2  UNL     1     -34.520  16.513  -0.996  1.00 20.00     0.015 A 
HETATM    3  C3  UNL     1     -34.682  16.704  -3.306  1.00 20.00    -0.012 A 
HETATM    4  C4  UNL     1     -33.847  17.696  -1.216  1.00 20.00    -0.021 A 
HETATM    5  C10 UNL     1     -33.203  18.586  -0.227  1.00 20.00     0.056 C 
HETATM    6  S11 UNL     1     -33.802  18.108  -2.877  1.00 20.00    -0.099 SA
ENDROOT
BRANCH   3   7
HETATM    7  C8  UNL     1     -35.008  16.445  -4.762  1.00 20.00     0.040 C 
HETATM    8  C6  UNL     1     -33.756  16.394  -5.655  1.00 20.00     0.011 C 
HETATM    9  C5  UNL     1     -34.171  15.497  -6.809  1.00 20.00     0.002 C 
HETATM   10  C7  UNL     1     -34.958  14.392  -6.119  1.00 20.00     0.016 C 
HETATM   11  C9  UNL     1     -35.730  15.104  -5.009  1.00 20.00     0.067 C 
HETATM   12 BR12 UNL     1     -37.571  15.438  -5.597  1.00 20.00    -0.090 Br
ENDBRANCH   3   7
TORSDOF 1
ENDMDL
MODEL 3
REMARK VINA RESULT:      -4.6      1.031      1.373
REMARK  1 active torsions:
REMARK  status: ('A' for Active; 'I' for Inactive)
REMARK    1  A    between atoms: C3_3  and  C8_8 
ROOT
HETATM    1  C1  UNL     1     -38.084  14.754  -3.886  1.00 20.00     0.016 A 
HETATM    2  C2  UNL     1     -39.011  15.045  -4.928  1.00 20.00     0.015 A 
HETATM    3  C3  UNL     1     -36.779  14.813  -4.325  1.00 20.00    -0.012 A 
HETATM    4  C4  UNL     1     -38.380  15.314  -6.123  1.00 20.00    -0.021 A 
HETATM    5  C10 UNL     1     -38.986  15.656  -7.428  1.00 20.00     0.056 C 
HETATM    6  S11 UNL     1     -36.676  15.215  -5.986  1.00 20.00    -0.099 SA
ENDROOT
BRANCH   3   7
HETATM    7  C8  UNL     1     -35.509  14.572  -3.537  1.00 20.00     0.040 C 
HETATM    8  C6  UNL     1     -34.620  13.478  -4.153  1.00 20.00     0.011 C 
HETATM    9  C5  UNL     1     -33.218  13.851  -3.700  1.00 20.00     0.002 C 
HETATM   10  C7  UNL     1     -33.201  15.366  -3.854  1.00 20.00     0.016 C 
HETATM   11  C9  UNL     1     -34.599  15.814  -3.430  1.00 20.00     0.067 C 
HETATM   12 BR12 UNL     1     -34.552  16.447  -1.574  1.00 20.00    -0.090 Br
ENDBRANCH   3   7
TORSDOF 1
ENDMDL
MODEL 4
REMARK VINA RESULT:      -4.6      3.008      4.555
REMARK  1 active torsions:
REMARK  status: ('A' for Active; 'I' for Inactive)
REMARK    1  A    between atoms: C3_3  and  C8_8 
ROOT
HETATM    1  C1  UNL     1     -34.522  16.469  -1.035  1.00 20.00     0.016 A 
HETATM    2  C2  UNL     1     -35.046  17.394  -0.087  1.00 20.00     0.015 A 
HETATM    3  C3  UNL     1     -35.145  16.575  -2.258  1.00 20.00    -0.012 A 
HETATM    4  C4  UNL     1     -36.050  18.172  -0.622  1.00 20.00    -0.021 A 
HETATM    5  C10 UNL     1     -36.838  19.237   0.033  1.00 20.00     0.056 C 
HETATM    6  S11 UNL     1     -36.357  17.784  -2.261  1.00 20.00    -0.099 SA
ENDROOT
BRANCH   3   7
HETATM    7  C8  UNL     1     -34.884  15.780  -3.520  1.00 20.00     0.040 C 
HETATM    8  C6  UNL     1     -33.633  14.890  -3.419  1.00 20.00     0.011 C 
HETATM    9  C5  UNL     1     -33.919  13.751  -4.384  1.00 20.00     0.002 C 
HETATM   10  C7  UNL     1     -35.389  13.449  -4.131  1.00 20.00     0.016 C 
HETATM   11  C9  UNL     1     -36.030  14.817  -3.898  1.00 20.00     0.067 C 
HETATM   12 BR12 UNL     1     -36.896  15.429  -5.547  1.00 20.00    -0.090 Br
ENDBRANCH   3   7
TORSDOF 1
ENDMDL
MODEL 5
REMARK VINA RESULT:      -4.5      3.109      5.255
REMARK  1 active torsions:
REMARK  status: ('A' for Active; 'I' for Inactive)
REMARK    1  A    between atoms: C3_3  and  C8_8 
ROOT
HETATM    1  C1  UNL     1     -34.815  16.207  -1.655  1.00 20.00     0.016 A 
HETATM    2  C2  UNL     1     -34.185  17.063  -0.707  1.00 20.00     0.015 A 
HETATM    3  C3  UNL     1     -34.682  16.676  -2.943  1.00 20.00    -0.012 A 
HETATM    4  C4  UNL     1     -33.595  18.155  -1.306  1.00 20.00    -0.021 A 
HETATM    5  C10 UNL     1     -32.850  19.263  -0.671  1.00 20.00     0.056 C 
HETATM    6  S11 UNL     1     -33.802  18.144  -3.005  1.00 20.00    -0.099 SA
ENDROOT
BRANCH   3   7
HETATM    7  C8  UNL     1     -35.201  16.065  -4.227  1.00 20.00     0.040 C 
HETATM    8  C6  UNL     1     -35.625  17.120  -5.264  1.00 20.00     0.011 C 
HETATM    9  C5  UNL     1     -35.442  16.413  -6.596  1.00 20.00     0.002 C 
HETATM   10  C7  UNL     1     -34.132  15.660  -6.407  1.00 20.00     0.016 C 
HETATM   11  C9  UNL     1     -34.169  15.179  -4.957  1.00 20.00     0.067 C 
HETATM   12 BR12 UNL     1     -34.742  13.305  -4.899  1.00 20.00    -0.090 Br
ENDBRANCH   3   7
TORSDOF 1
ENDMDL
MODEL 6
REMARK VINA RESULT:      -4.3      3.281      4.923
REMARK  1 active torsions:
REMARK  status: ('A' for Active; 'I' for Inactive)
REMARK    1  A    between atoms: C3_3  and  C8_8 
ROOT
HETATM    1  C1  UNL     1     -34.531  16.599  -0.920  1.00 20.00     0.016 A 
HETATM    2  C2  UNL     1     -34.957  17.320   0.232  1.00 20.00     0.015 A 
HETATM    3  C3  UNL     1     -35.238  16.959  -2.046  1.00 20.00    -0.012 A 
HETATM    4  C4  UNL     1     -35.975  18.203  -0.057  1.00 20.00    -0.021 A 
HETATM    5  C10 UNL     1     -36.681  19.125   0.859  1.00 20.00     0.056 C 
HETATM    6  S11 UNL     1     -36.411  18.161  -1.711  1.00 20.00    -0.099 SA
ENDROOT
BRANCH   3   7
HETATM    7  C8  UNL     1     -35.092  16.433  -3.458  1.00 20.00     0.040 C 
HETATM    8  C6  UNL     1     -35.161  17.544  -4.520  1.00 20.00     0.011 C 
HETATM    9  C5  UNL     1     -34.351  16.988  -5.680  1.00 20.00     0.002 C 
HETATM   10  C7  UNL     1     -33.165  16.334  -4.986  1.00 20.00     0.016 C 
HETATM   11  C9  UNL     1     -33.752  15.713  -3.719  1.00 20.00     0.067 C 
HETATM   12 BR12 UNL     1     -34.070  13.800  -4.008  1.00 20.00    -0.090 Br
ENDBRANCH   3   7
TORSDOF 1
ENDMDL
MODEL 7
REMARK VINA RESULT:      -4.3      2.842      3.893
REMARK  1 active torsions:
REMARK  status: ('A' for Active; 'I' for Inactive)
REMARK    1  A    between atoms: C3_3  and  C8_8 
ROOT
HETATM    1  C1  UNL     1     -34.691  14.220  -3.648  1.00 20.00     0.016 A 
HETATM    2  C2  UNL     1     -34.406  13.833  -4.989  1.00 20.00     0.015 A 
HETATM    3  C3  UNL     1     -35.179  15.506  -3.575  1.00 20.00    -0.012 A 
HETATM    4  C4  UNL     1     -34.686  14.838  -5.889  1.00 20.00    -0.021 A 
HETATM    5  C10 UNL     1     -34.527  14.827  -7.359  1.00 20.00     0.056 C 
HETATM    6  S11 UNL     1     -35.290  16.241  -5.117  1.00 20.00    -0.099 SA
ENDROOT
BRANCH   3   7
HETATM    7  C8  UNL     1     -35.600  16.286  -2.346  1.00 20.00     0.040 C 
HETATM    8  C6  UNL     1     -34.500  16.349  -1.272  1.00 20.00     0.011 C 
HETATM    9  C5  UNL     1     -34.798  17.639  -0.525  1.00 20.00     0.002 C 
HETATM   10  C7  UNL     1     -35.168  18.604  -1.642  1.00 20.00     0.016 C 
HETATM   11  C9  UNL     1     -35.961  17.758  -2.637  1.00 20.00     0.067 C 
HETATM   12 BR12 UNL     1     -37.881  18.039  -2.360  1.00 20.00    -0.090 Br
ENDBRANCH   3   7
TORSDOF 1
ENDMDL
MODEL 8
REMARK VINA RESULT:      -4.3      3.377      5.197
REMARK  1 active torsions:
REMARK  status: ('A' for Active; 'I' for Inactive)
REMARK    1  A    between atoms: C3_3  and  C8_8 
ROOT
HETATM    1  C1  UNL     1     -34.565  16.030  -2.060  1.00 20.00     0.016 A 
HETATM    2  C2  UNL     1     -34.649  16.592  -0.753  1.00 20.00     0.015 A 
HETATM    3  C3  UNL     1     -34.052  16.923  -2.974  1.00 20.00    -0.012 A 
HETATM    4  C4  UNL     1     -34.197  17.893  -0.719  1.00 20.00    -0.021 A 
HETATM    5  C10 UNL     1     -34.123  18.811   0.438  1.00 20.00     0.056 C 
HETATM    6  S11 UNL     1     -33.675  18.432  -2.257  1.00 20.00    -0.099 SA
ENDROOT
BRANCH   3   7
HETATM    7  C8  UNL     1     -33.803  16.719  -4.454  1.00 20.00     0.040 C 
HETATM    8  C6  UNL     1     -33.953  15.251  -4.889  1.00 20.00     0.011 C 
HETATM    9  C5  UNL     1     -34.351  15.346  -6.353  1.00 20.00     0.002 C 
HETATM   10  C7  UNL     1     -35.339  16.503  -6.365  1.00 20.00     0.016 C 
HETATM   11  C9  UNL     1     -34.772  17.506  -5.361  1.00 20.00     0.067 C 
HETATM   12 BR12 UNL     1     -33.794  18.913  -6.316  1.00 20.00    -0.090 Br
ENDBRANCH   3   7
TORSDOF 1
ENDMDL
MODEL 9
REMARK VINA RESULT:      -4.3      3.101      4.901
REMARK  1 active torsions:
REMARK  status: ('A' for Active; 'I' for Inactive)
REMARK    1  A    between atoms: C3_3  and  C8_8 
ROOT
HETATM    1  C1  UNL     1     -35.024  15.309  -3.199  1.00 20.00     0.016 A 
HETATM    2  C2  UNL     1     -34.792  15.888  -1.918  1.00 20.00     0.015 A 
HETATM    3  C3  UNL     1     -34.466  16.056  -4.213  1.00 20.00    -0.012 A 
HETATM    4  C4  UNL     1     -34.066  17.056  -2.002  1.00 20.00    -0.021 A 
HETATM    5  C10 UNL     1     -33.625  17.946  -0.907  1.00 20.00     0.056 C 
HETATM    6  S11 UNL     1     -33.668  17.450  -3.620  1.00 20.00    -0.099 SA
ENDROOT
BRANCH   3   7
HETATM    7  C8  UNL     1     -34.487  15.786  -5.703  1.00 20.00     0.040 C 
HETATM    8  C6  UNL     1     -34.794  14.317  -6.041  1.00 20.00     0.011 C 
HETATM    9  C5  UNL     1     -35.429  14.388  -7.420  1.00 20.00     0.002 C 
HETATM   10  C7  UNL     1     -36.336  15.606  -7.317  1.00 20.00     0.016 C 
HETATM   11  C9  UNL     1     -35.549  16.604  -6.468  1.00 20.00     0.067 C 
HETATM   12 BR12 UNL     1     -34.668  17.911  -7.635  1.00 20.00    -0.090 Br
ENDBRANCH   3   7
TORSDOF 1
ENDMDL
