MODEL 1
REMARK VINA RESULT:      -4.0      0.000      0.000
REMARK  5 active torsions:
REMARK  status: ('A' for Active; 'I' for Inactive)
REMARK    1  A    between atoms: C3_3  and  C5_5 
REMARK    2  A    between atoms: C3_3  and  C7_7 
REMARK    3  A    between atoms: C4_4  and  C6_6 
REMARK    4  A    between atoms: C4_4  and  C7_7 
REMARK    5  A    between atoms: C5_5  and  S8_8 
ROOT
HETATM    1  C1  UNL     1     -35.053   5.748   3.160  1.00 20.00     0.010 C 
HETATM    2  C7  UNL     1     -33.728   5.676   3.928  1.00 20.00    -0.017 C 
ENDROOT
BRANCH   2   3
HETATM    3  C3  UNL     1     -32.538   6.096   3.036  1.00 20.00     0.014 C 
BRANCH   3   4
HETATM    4  C5  UNL     1     -32.162   7.574   3.125  1.00 20.00     0.073 C 
BRANCH   4   5
HETATM    5  S8  UNL     1     -31.904   8.265   1.464  1.00 20.00    -0.173 SA
HETATM    6  C2  UNL     1     -32.629   9.896   1.745  1.00 20.00     0.089 C 
ENDBRANCH   4   5
ENDBRANCH   3   4
ENDBRANCH   2   3
BRANCH   2   7
HETATM    7  C4  UNL     1     -33.848   6.473   5.243  1.00 20.00     0.019 C 
BRANCH   7   8
HETATM    8  C6  UNL     1     -34.475   5.729   6.420  1.00 20.00     0.115 C 
HETATM    9 CL9  UNL     1     -34.907   4.055   6.002  1.00 20.00    -0.130 Cl
ENDBRANCH   7   8
ENDBRANCH   2   7
TORSDOF 5
ENDMDL
MODEL 2
REMARK VINA RESULT:      -3.9      3.484      4.963
REMARK  5 active torsions:
REMARK  status: ('A' for Active; 'I' for Inactive)
REMARK    1  A    between atoms: C3_3  and  C5_5 
REMARK    2  A    between atoms: C3_3  and  C7_7 
REMARK    3  A    between atoms: C4_4  and  C6_6 
REMARK    4  A    between atoms: C4_4  and  C7_7 
REMARK    5  A    between atoms: C5_5  and  S8_8 
ROOT
HETATM    1  C1  UNL     1     -32.117   5.264   2.964  1.00 20.00     0.010 C 
HETATM    2  C7  UNL     1     -32.997   6.516   2.875  1.00 20.00    -0.017 C 
ENDROOT
BRANCH   2   3
HETATM    3  C3  UNL     1     -34.118   6.492   3.938  1.00 20.00     0.014 C 
BRANCH   3   4
HETATM    4  C5  UNL     1     -34.983   5.232   3.929  1.00 20.00     0.073 C 
BRANCH   4   5
HETATM    5  S8  UNL     1     -34.961   4.434   5.562  1.00 20.00    -0.173 SA
HETATM    6  C2  UNL     1     -34.367   5.840   6.530  1.00 20.00     0.089 C 
ENDBRANCH   4   5
ENDBRANCH   3   4
ENDBRANCH   2   3
BRANCH   2   7
HETATM    7  C4  UNL     1     -32.108   7.776   2.918  1.00 20.00     0.019 C 
BRANCH   7   8
HETATM    8  C6  UNL     1     -31.888   8.483   1.582  1.00 20.00     0.115 C 
HETATM    9 CL9  UNL     1     -32.583  10.119   1.566  1.00 20.00    -0.130 Cl
ENDBRANCH   7   8
ENDBRANCH   2   7
TORSDOF 5
ENDMDL
MODEL 3
REMARK VINA RESULT:      -3.6      3.417      5.039
REMARK  5 active torsions:
REMARK  status: ('A' for Active; 'I' for Inactive)
REMARK    1  A    between atoms: C3_3  and  C5_5 
REMARK    2  A    between atoms: C3_3  and  C7_7 
REMARK    3  A    between atoms: C4_4  and  C6_6 
REMARK    4  A    between atoms: C4_4  and  C7_7 
REMARK    5  A    between atoms: C5_5  and  S8_8 
ROOT
HETATM    1  C1  UNL     1     -31.366   7.647   4.087  1.00 20.00     0.010 C 
HETATM    2  C7  UNL     1     -32.343   6.757   3.312  1.00 20.00    -0.017 C 
ENDROOT
BRANCH   2   3
HETATM    3  C3  UNL     1     -33.682   6.600   4.068  1.00 20.00     0.014 C 
BRANCH   3   4
HETATM    4  C5  UNL     1     -34.534   5.413   3.621  1.00 20.00     0.073 C 
BRANCH   4   5
HETATM    5  S8  UNL     1     -35.125   4.477   5.063  1.00 20.00    -0.173 SA
HETATM    6  C2  UNL     1     -34.521   5.585   6.357  1.00 20.00     0.089 C 
ENDBRANCH   4   5
ENDBRANCH   3   4
ENDBRANCH   2   3
BRANCH   2   7
HETATM    7  C4  UNL     1     -32.487   7.281   1.868  1.00 20.00     0.019 C 
BRANCH   7   8
HETATM    8  C6  UNL     1     -31.691   8.541   1.533  1.00 20.00     0.115 C 
HETATM    9 CL9  UNL     1     -32.679  10.013   1.664  1.00 20.00    -0.130 Cl
ENDBRANCH   7   8
ENDBRANCH   2   7
TORSDOF 5
ENDMDL
MODEL 4
REMARK VINA RESULT:      -3.5     11.388     12.115
REMARK  5 active torsions:
REMARK  status: ('A' for Active; 'I' for Inactive)
REMARK    1  A    between atoms: C3_3  and  C5_5 
REMARK    2  A    between atoms: C3_3  and  C7_7 
REMARK    3  A    between atoms: C4_4  and  C6_6 
REMARK    4  A    between atoms: C4_4  and  C7_7 
REMARK    5  A    between atoms: C5_5  and  S8_8 
ROOT
HETATM    1  C1  UNL     1     -32.594  14.688  -3.736  1.00 20.00     0.010 C 
HETATM    2  C7  UNL     1     -33.987  14.084  -3.523  1.00 20.00    -0.017 C 
ENDROOT
BRANCH   2   3
HETATM    3  C3  UNL     1     -34.974  15.131  -2.959  1.00 20.00     0.014 C 
BRANCH   3   4
HETATM    4  C5  UNL     1     -34.336  16.462  -2.561  1.00 20.00     0.073 C 
BRANCH   4   5
HETATM    5  S8  UNL     1     -34.624  16.801  -0.798  1.00 20.00    -0.173 SA
HETATM    6  C2  UNL     1     -33.401  18.114  -0.582  1.00 20.00     0.089 C 
ENDBRANCH   4   5
ENDBRANCH   3   4
ENDBRANCH   2   3
BRANCH   2   7
HETATM    7  C4  UNL     1     -34.459  13.403  -4.825  1.00 20.00     0.019 C 
BRANCH   7   8
HETATM    8  C6  UNL     1     -35.269  14.277  -5.780  1.00 20.00     0.115 C 
HETATM    9 CL9  UNL     1     -34.264  14.966  -7.074  1.00 20.00    -0.130 Cl
ENDBRANCH   7   8
ENDBRANCH   2   7
TORSDOF 5
ENDMDL
MODEL 5
REMARK VINA RESULT:      -3.5     11.292     12.290
REMARK  5 active torsions:
REMARK  status: ('A' for Active; 'I' for Inactive)
REMARK    1  A    between atoms: C3_3  and  C5_5 
REMARK    2  A    between atoms: C3_3  and  C7_7 
REMARK    3  A    between atoms: C4_4  and  C6_6 
REMARK    4  A    between atoms: C4_4  and  C7_7 
REMARK    5  A    between atoms: C5_5  and  S8_8 
ROOT
HETATM    1  C1  UNL     1     -33.560  13.870  -3.864  1.00 20.00     0.010 C 
HETATM    2  C7  UNL     1     -33.313  15.341  -3.512  1.00 20.00    -0.017 C 
ENDROOT
BRANCH   2   3
HETATM    3  C3  UNL     1     -33.276  16.225  -4.779  1.00 20.00     0.014 C 
BRANCH   3   4
HETATM    4  C5  UNL     1     -34.119  15.708  -5.944  1.00 20.00     0.073 C 
BRANCH   4   5
HETATM    5  S8  UNL     1     -35.709  16.588  -6.016  1.00 20.00    -0.173 SA
HETATM    6  C2  UNL     1     -36.759  15.282  -5.340  1.00 20.00     0.089 C 
ENDBRANCH   4   5
ENDBRANCH   3   4
ENDBRANCH   2   3
BRANCH   2   7
HETATM    7  C4  UNL     1     -34.336  15.796  -2.450  1.00 20.00     0.019 C 
BRANCH   7   8
HETATM    8  C6  UNL     1     -33.900  16.956  -1.557  1.00 20.00     0.115 C 
HETATM    9 CL9  UNL     1     -34.813  17.009  -0.032  1.00 20.00    -0.130 Cl
ENDBRANCH   7   8
ENDBRANCH   2   7
TORSDOF 5
ENDMDL
MODEL 6
REMARK VINA RESULT:      -3.4     11.446     12.561
REMARK  5 active torsions:
REMARK  status: ('A' for Active; 'I' for Inactive)
REMARK    1  A    between atoms: C3_3  and  C5_5 
REMARK    2  A    between atoms: C3_3  and  C7_7 
REMARK    3  A    between atoms: C4_4  and  C6_6 
REMARK    4  A    between atoms: C4_4  and  C7_7 
REMARK    5  A    between atoms: C5_5  and  S8_8 
ROOT
HETATM    1  C1  UNL     1     -34.687  16.664  -0.712  1.00 20.00     0.010 C 
HETATM    2  C7  UNL     1     -34.026  16.380  -2.066  1.00 20.00    -0.017 C 
ENDROOT
BRANCH   2   3
HETATM    3  C3  UNL     1     -34.817  15.321  -2.867  1.00 20.00     0.014 C 
BRANCH   3   4
HETATM    4  C5  UNL     1     -33.971  14.174  -3.418  1.00 20.00     0.073 C 
BRANCH   4   5
HETATM    5  S8  UNL     1     -34.759  13.455  -4.891  1.00 20.00    -0.173 SA
HETATM    6  C2  UNL     1     -36.104  14.648  -5.073  1.00 20.00     0.089 C 
ENDBRANCH   4   5
ENDBRANCH   3   4
ENDBRANCH   2   3
BRANCH   2   7
HETATM    7  C4  UNL     1     -33.800  17.708  -2.819  1.00 20.00     0.019 C 
BRANCH   7   8
HETATM    8  C6  UNL     1     -34.518  17.845  -4.160  1.00 20.00     0.115 C 
HETATM    9 CL9  UNL     1     -33.465  17.425  -5.530  1.00 20.00    -0.130 Cl
ENDBRANCH   7   8
ENDBRANCH   2   7
TORSDOF 5
ENDMDL
MODEL 7
REMARK VINA RESULT:      -3.4     11.185     12.516
REMARK  5 active torsions:
REMARK  status: ('A' for Active; 'I' for Inactive)
REMARK    1  A    between atoms: C3_3  and  C5_5 
REMARK    2  A    between atoms: C3_3  and  C7_7 
REMARK    3  A    between atoms: C4_4  and  C6_6 
REMARK    4  A    between atoms: C4_4  and  C7_7 
REMARK    5  A    between atoms: C5_5  and  S8_8 
ROOT
HETATM    1  C1  UNL     1     -34.427  16.380  -1.602  1.00 20.00     0.010 C 
HETATM    2  C7  UNL     1     -34.438  15.998  -3.087  1.00 20.00    -0.017 C 
ENDROOT
BRANCH   2   3
HETATM    3  C3  UNL     1     -34.588  17.244  -3.987  1.00 20.00     0.014 C 
BRANCH   3   4
HETATM    4  C5  UNL     1     -33.611  17.307  -5.161  1.00 20.00     0.073 C 
BRANCH   4   5
HETATM    5  S8  UNL     1     -34.508  17.202  -6.739  1.00 20.00    -0.173 SA
HETATM    6  C2  UNL     1     -34.305  15.432  -7.037  1.00 20.00     0.089 C 
ENDBRANCH   4   5
ENDBRANCH   3   4
ENDBRANCH   2   3
BRANCH   2   7
HETATM    7  C4  UNL     1     -33.204  15.128  -3.406  1.00 20.00     0.019 C 
BRANCH   7   8
HETATM    8  C6  UNL     1     -33.494  13.689  -3.826  1.00 20.00     0.115 C 
HETATM    9 CL9  UNL     1     -35.224  13.412  -4.129  1.00 20.00    -0.130 Cl
ENDBRANCH   7   8
ENDBRANCH   2   7
TORSDOF 5
ENDMDL
MODEL 8
REMARK VINA RESULT:      -3.4     10.816     11.700
REMARK  5 active torsions:
REMARK  status: ('A' for Active; 'I' for Inactive)
REMARK    1  A    between atoms: C3_3  and  C5_5 
REMARK    2  A    between atoms: C3_3  and  C7_7 
REMARK    3  A    between atoms: C4_4  and  C6_6 
REMARK    4  A    between atoms: C4_4  and  C7_7 
REMARK    5  A    between atoms: C5_5  and  S8_8 
ROOT
HETATM    1  C1  UNL     1     -35.809  16.328  -2.751  1.00 20.00     0.010 C 
HETATM    2  C7  UNL     1     -34.410  15.914  -2.280  1.00 20.00    -0.017 C 
ENDROOT
BRANCH   2   3
HETATM    3  C3  UNL     1     -33.559  15.373  -3.450  1.00 20.00     0.014 C 
BRANCH   3   4
HETATM    4  C5  UNL     1     -33.589  13.854  -3.614  1.00 20.00     0.073 C 
BRANCH   4   5
HETATM    5  S8  UNL     1     -34.740  13.381  -4.939  1.00 20.00    -0.173 SA
HETATM    6  C2  UNL     1     -34.532  14.833  -5.994  1.00 20.00     0.089 C 
ENDBRANCH   4   5
ENDBRANCH   3   4
ENDBRANCH   2   3
BRANCH   2   7
HETATM    7  C4  UNL     1     -33.759  17.081  -1.507  1.00 20.00     0.019 C 
BRANCH   7   8
HETATM    8  C6  UNL     1     -34.716  17.984  -0.733  1.00 20.00     0.115 C 
HETATM    9 CL9  UNL     1     -35.151  17.302   0.850  1.00 20.00    -0.130 Cl
ENDBRANCH   7   8
ENDBRANCH   2   7
TORSDOF 5
ENDMDL
MODEL 9
REMARK VINA RESULT:      -3.4     11.480     12.154
REMARK  5 active torsions:
REMARK  status: ('A' for Active; 'I' for Inactive)
REMARK    1  A    between atoms: C3_3  and  C5_5 
REMARK    2  A    between atoms: C3_3  and  C7_7 
REMARK    3  A    between atoms: C4_4  and  C6_6 
REMARK    4  A    between atoms: C4_4  and  C7_7 
REMARK    5  A    between atoms: C5_5  and  S8_8 
ROOT
HETATM    1  C1  UNL     1     -34.651  16.523  -0.950  1.00 20.00     0.010 C 
HETATM    2  C7  UNL     1     -34.787  15.894  -2.341  1.00 20.00    -0.017 C 
ENDROOT
BRANCH   2   3
HETATM    3  C3  UNL     1     -36.185  16.158  -2.945  1.00 20.00     0.014 C 
BRANCH   3   4
HETATM    4  C5  UNL     1     -36.814  14.958  -3.652  1.00 20.00     0.073 C 
BRANCH   4   5
HETATM    5  S8  UNL     1     -37.285  15.399  -5.352  1.00 20.00    -0.173 SA
HETATM    6  C2  UNL     1     -35.800  14.806  -6.195  1.00 20.00     0.089 C 
ENDBRANCH   4   5
ENDBRANCH   3   4
ENDBRANCH   2   3
BRANCH   2   7
HETATM    7  C4  UNL     1     -33.613  16.352  -3.232  1.00 20.00     0.019 C 
BRANCH   7   8
HETATM    8  C6  UNL     1     -32.815  15.239  -3.908  1.00 20.00     0.115 C 
HETATM    9 CL9  UNL     1     -33.521  13.634  -3.616  1.00 20.00    -0.130 Cl
ENDBRANCH   7   8
ENDBRANCH   2   7
TORSDOF 5
ENDMDL
