MODEL 1
REMARK VINA RESULT:      -4.0      0.000      0.000
REMARK  4 active torsions:
REMARK  status: ('A' for Active; 'I' for Inactive)
REMARK    1  A    between atoms: C1_1  and  C8_8 
REMARK    2  A    between atoms: C1_1  and  O11_11 
REMARK    3  A    between atoms: C4_4  and  C8_8 
REMARK    4  A    between atoms: C8_8  and  N9_9 
ROOT
HETATM    1  C8  UNL     1     -34.972  14.911  -4.349  1.00 20.00     0.324 C 
ENDROOT
BRANCH   1   2
HETATM    2  C1  UNL     1     -34.430  13.495  -4.215  1.00 20.00     0.292 C 
HETATM    3  O10 UNL     1     -35.083  12.505  -4.528  1.00 20.00    -0.263 OA
BRANCH   2   4
HETATM    4  O11 UNL     1     -33.159  13.474  -3.724  1.00 20.00    -0.325 OA
HETATM    5  C7  UNL     1     -32.504  14.743  -3.638  1.00 20.00     0.213 C 
ENDBRANCH   2   4
ENDBRANCH   1   2
BRANCH   1   6
HETATM    6  C4  UNL     1     -35.426  15.171  -5.776  1.00 20.00     0.029 A 
HETATM    7  C2  UNL     1     -34.870  16.335  -6.548  1.00 20.00     0.008 A 
HETATM    8  C3  UNL     1     -34.487  14.931  -6.925  1.00 20.00     0.008 A 
ENDBRANCH   1   6
BRANCH   1   9
HETATM    9  N9  UNL     1     -36.050  15.161  -3.426  1.00 20.00     0.094 N 
HETATM   10  C5  UNL     1     -37.358  14.994  -4.077  1.00 20.00     0.310 C 
HETATM   11  C6  UNL     1     -35.956  16.510  -2.848  1.00 20.00     0.310 C 
ENDBRANCH   1   9
TORSDOF 4
ENDMDL
MODEL 2
REMARK VINA RESULT:      -4.0      1.665      3.561
REMARK  4 active torsions:
REMARK  status: ('A' for Active; 'I' for Inactive)
REMARK    1  A    between atoms: C1_1  and  C8_8 
REMARK    2  A    between atoms: C1_1  and  O11_11 
REMARK    3  A    between atoms: C4_4  and  C8_8 
REMARK    4  A    between atoms: C8_8  and  N9_9 
ROOT
HETATM    1  C8  UNL     1     -34.112  15.665  -4.230  1.00 20.00     0.324 C 
ENDROOT
BRANCH   1   2
HETATM    2  C1  UNL     1     -33.292  14.493  -3.711  1.00 20.00     0.292 C 
HETATM    3  O10 UNL     1     -32.088  14.577  -3.488  1.00 20.00    -0.263 OA
BRANCH   2   4
HETATM    4  O11 UNL     1     -34.048  13.375  -3.527  1.00 20.00    -0.325 OA
HETATM    5  C7  UNL     1     -35.247  13.300  -4.305  1.00 20.00     0.213 C 
ENDBRANCH   2   4
ENDBRANCH   1   2
BRANCH   1   6
HETATM    6  C4  UNL     1     -34.349  16.678  -3.122  1.00 20.00     0.029 A 
HETATM    7  C2  UNL     1     -35.694  16.774  -2.457  1.00 20.00     0.008 A 
HETATM    8  C3  UNL     1     -34.520  16.218  -1.700  1.00 20.00     0.008 A 
ENDBRANCH   1   6
BRANCH   1   9
HETATM    9  N9  UNL     1     -33.486  16.298  -5.363  1.00 20.00     0.094 N 
HETATM   10  C5  UNL     1     -33.514  17.763  -5.237  1.00 20.00     0.310 C 
HETATM   11  C6  UNL     1     -34.130  15.899  -6.622  1.00 20.00     0.310 C 
ENDBRANCH   1   9
TORSDOF 4
ENDMDL
MODEL 3
REMARK VINA RESULT:      -3.9      1.575      3.485
REMARK  4 active torsions:
REMARK  status: ('A' for Active; 'I' for Inactive)
REMARK    1  A    between atoms: C1_1  and  C8_8 
REMARK    2  A    between atoms: C1_1  and  O11_11 
REMARK    3  A    between atoms: C4_4  and  C8_8 
REMARK    4  A    between atoms: C8_8  and  N9_9 
ROOT
HETATM    1  C8  UNL     1     -35.085  15.095  -4.754  1.00 20.00     0.324 C 
ENDROOT
BRANCH   1   2
HETATM    2  C1  UNL     1     -35.639  13.772  -4.245  1.00 20.00     0.292 C 
HETATM    3  O10 UNL     1     -34.964  12.748  -4.198  1.00 20.00    -0.263 OA
BRANCH   2   4
HETATM    4  O11 UNL     1     -36.939  13.874  -3.852  1.00 20.00    -0.325 OA
HETATM    5  C7  UNL     1     -37.587  15.112  -4.162  1.00 20.00     0.213 C 
ENDBRANCH   2   4
ENDBRANCH   1   2
BRANCH   1   6
HETATM    6  C4  UNL     1     -34.066  15.655  -3.774  1.00 20.00     0.029 A 
HETATM    7  C2  UNL     1     -34.277  17.007  -3.151  1.00 20.00     0.008 A 
HETATM    8  C3  UNL     1     -34.403  15.764  -2.313  1.00 20.00     0.008 A 
ENDBRANCH   1   6
BRANCH   1   9
HETATM    9  N9  UNL     1     -34.501  14.962  -6.064  1.00 20.00     0.094 N 
HETATM   10  C5  UNL     1     -33.996  16.254  -6.555  1.00 20.00     0.310 C 
HETATM   11  C6  UNL     1     -35.466  14.413  -7.026  1.00 20.00     0.310 C 
ENDBRANCH   1   9
TORSDOF 4
ENDMDL
MODEL 4
REMARK VINA RESULT:      -3.8      2.188      3.851
REMARK  4 active torsions:
REMARK  status: ('A' for Active; 'I' for Inactive)
REMARK    1  A    between atoms: C1_1  and  C8_8 
REMARK    2  A    between atoms: C1_1  and  O11_11 
REMARK    3  A    between atoms: C4_4  and  C8_8 
REMARK    4  A    between atoms: C8_8  and  N9_9 
ROOT
HETATM    1  C8  UNL     1     -35.618  15.281  -4.339  1.00 20.00     0.324 C 
ENDROOT
BRANCH   1   2
HETATM    2  C1  UNL     1     -37.084  15.227  -3.936  1.00 20.00     0.292 C 
HETATM    3  O10 UNL     1     -37.663  14.174  -3.686  1.00 20.00    -0.263 OA
BRANCH   2   4
HETATM    4  O11 UNL     1     -37.651  16.465  -3.883  1.00 20.00    -0.325 OA
HETATM    5  C7  UNL     1     -37.102  17.438  -4.778  1.00 20.00     0.213 C 
ENDBRANCH   2   4
ENDBRANCH   1   2
BRANCH   1   6
HETATM    6  C4  UNL     1     -34.727  15.089  -3.122  1.00 20.00     0.029 A 
HETATM    7  C2  UNL     1     -33.626  16.069  -2.826  1.00 20.00     0.008 A 
HETATM    8  C3  UNL     1     -34.844  16.017  -1.944  1.00 20.00     0.008 A 
ENDBRANCH   1   6
BRANCH   1   9
HETATM    9  N9  UNL     1     -35.304  14.303  -5.349  1.00 20.00     0.094 N 
HETATM   10  C5  UNL     1     -34.530  13.186  -4.787  1.00 20.00     0.310 C 
HETATM   11  C6  UNL     1     -34.559  14.907  -6.463  1.00 20.00     0.310 C 
ENDBRANCH   1   9
TORSDOF 4
ENDMDL
MODEL 5
REMARK VINA RESULT:      -3.8      1.435      2.870
REMARK  4 active torsions:
REMARK  status: ('A' for Active; 'I' for Inactive)
REMARK    1  A    between atoms: C1_1  and  C8_8 
REMARK    2  A    between atoms: C1_1  and  O11_11 
REMARK    3  A    between atoms: C4_4  and  C8_8 
REMARK    4  A    between atoms: C8_8  and  N9_9 
ROOT
HETATM    1  C8  UNL     1     -35.973  14.778  -3.762  1.00 20.00     0.324 C 
ENDROOT
BRANCH   1   2
HETATM    2  C1  UNL     1     -35.156  13.862  -4.662  1.00 20.00     0.292 C 
HETATM    3  O10 UNL     1     -35.016  12.664  -4.433  1.00 20.00    -0.263 OA
BRANCH   2   4
HETATM    4  O11 UNL     1     -34.624  14.525  -5.726  1.00 20.00    -0.325 OA
HETATM    5  C7  UNL     1     -35.219  14.240  -6.996  1.00 20.00     0.213 C 
ENDBRANCH   2   4
ENDBRANCH   1   2
BRANCH   1   6
HETATM    6  C4  UNL     1     -35.126  15.948  -3.289  1.00 20.00     0.029 A 
HETATM    7  C2  UNL     1     -34.805  16.111  -1.829  1.00 20.00     0.008 A 
HETATM    8  C3  UNL     1     -33.723  15.717  -2.797  1.00 20.00     0.008 A 
ENDBRANCH   1   6
BRANCH   1   9
HETATM    9  N9  UNL     1     -37.163  15.254  -4.420  1.00 20.00     0.094 N 
HETATM   10  C5  UNL     1     -37.130  16.715  -4.589  1.00 20.00     0.310 C 
HETATM   11  C6  UNL     1     -38.373  14.870  -3.680  1.00 20.00     0.310 C 
ENDBRANCH   1   9
TORSDOF 4
ENDMDL
MODEL 6
REMARK VINA RESULT:      -3.7      1.211      2.924
REMARK  4 active torsions:
REMARK  status: ('A' for Active; 'I' for Inactive)
REMARK    1  A    between atoms: C1_1  and  C8_8 
REMARK    2  A    between atoms: C1_1  and  O11_11 
REMARK    3  A    between atoms: C4_4  and  C8_8 
REMARK    4  A    between atoms: C8_8  and  N9_9 
ROOT
HETATM    1  C8  UNL     1     -35.192  14.994  -4.069  1.00 20.00     0.324 C 
ENDROOT
BRANCH   1   2
HETATM    2  C1  UNL     1     -35.129  13.704  -4.873  1.00 20.00     0.292 C 
HETATM    3  O10 UNL     1     -35.052  12.599  -4.345  1.00 20.00    -0.263 OA
BRANCH   2   4
HETATM    4  O11 UNL     1     -35.178  13.930  -6.216  1.00 20.00    -0.325 OA
HETATM    5  C7  UNL     1     -34.745  15.225  -6.644  1.00 20.00     0.213 C 
ENDBRANCH   2   4
ENDBRANCH   1   2
BRANCH   1   6
HETATM    6  C4  UNL     1     -36.568  15.165  -3.448  1.00 20.00     0.029 A 
HETATM    7  C2  UNL     1     -37.530  16.179  -4.004  1.00 20.00     0.008 A 
HETATM    8  C3  UNL     1     -37.795  14.710  -4.190  1.00 20.00     0.008 A 
ENDBRANCH   1   6
BRANCH   1   9
HETATM    9  N9  UNL     1     -34.173  15.040  -3.051  1.00 20.00     0.094 N 
HETATM   10  C5  UNL     1     -34.447  16.102  -2.071  1.00 20.00     0.310 C 
HETATM   11  C6  UNL     1     -32.841  15.242  -3.637  1.00 20.00     0.310 C 
ENDBRANCH   1   9
TORSDOF 4
ENDMDL
MODEL 7
REMARK VINA RESULT:      -3.7      2.159      3.559
REMARK  4 active torsions:
REMARK  status: ('A' for Active; 'I' for Inactive)
REMARK    1  A    between atoms: C1_1  and  C8_8 
REMARK    2  A    between atoms: C1_1  and  O11_11 
REMARK    3  A    between atoms: C4_4  and  C8_8 
REMARK    4  A    between atoms: C8_8  and  N9_9 
ROOT
HETATM    1  C8  UNL     1     -34.698  15.919  -3.155  1.00 20.00     0.324 C 
ENDROOT
BRANCH   1   2
HETATM    2  C1  UNL     1     -33.380  15.976  -3.913  1.00 20.00     0.292 C 
HETATM    3  O10 UNL     1     -33.094  16.896  -4.673  1.00 20.00    -0.263 OA
BRANCH   2   4
HETATM    4  O11 UNL     1     -32.581  14.907  -3.640  1.00 20.00    -0.325 OA
HETATM    5  C7  UNL     1     -33.219  13.627  -3.683  1.00 20.00     0.213 C 
ENDBRANCH   2   4
ENDBRANCH   1   2
BRANCH   1   6
HETATM    6  C4  UNL     1     -34.758  17.026  -2.114  1.00 20.00     0.029 A 
HETATM    7  C2  UNL     1     -34.721  16.692  -0.649  1.00 20.00     0.008 A 
HETATM    8  C3  UNL     1     -33.542  17.363  -1.297  1.00 20.00     0.008 A 
ENDBRANCH   1   6
BRANCH   1   9
HETATM    9  N9  UNL     1     -35.830  16.003  -4.042  1.00 20.00     0.094 N 
HETATM   10  C5  UNL     1     -36.530  17.288  -3.893  1.00 20.00     0.310 C 
HETATM   11  C6  UNL     1     -36.773  14.899  -3.810  1.00 20.00     0.310 C 
ENDBRANCH   1   9
TORSDOF 4
ENDMDL
MODEL 8
REMARK VINA RESULT:      -3.7      1.528      2.838
REMARK  4 active torsions:
REMARK  status: ('A' for Active; 'I' for Inactive)
REMARK    1  A    between atoms: C1_1  and  C8_8 
REMARK    2  A    between atoms: C1_1  and  O11_11 
REMARK    3  A    between atoms: C4_4  and  C8_8 
REMARK    4  A    between atoms: C8_8  and  N9_9 
ROOT
HETATM    1  C8  UNL     1     -34.402  14.722  -5.116  1.00 20.00     0.324 C 
ENDROOT
BRANCH   1   2
HETATM    2  C1  UNL     1     -35.476  13.960  -4.354  1.00 20.00     0.292 C 
HETATM    3  O10 UNL     1     -35.586  12.739  -4.410  1.00 20.00    -0.263 OA
BRANCH   2   4
HETATM    4  O11 UNL     1     -36.270  14.786  -3.617  1.00 20.00    -0.325 OA
HETATM    5  C7  UNL     1     -37.675  14.688  -3.871  1.00 20.00     0.213 C 
ENDBRANCH   2   4
ENDBRANCH   1   2
BRANCH   1   6
HETATM    6  C4  UNL     1     -35.001  15.406  -6.335  1.00 20.00     0.029 A 
HETATM    7  C2  UNL     1     -34.670  14.917  -7.718  1.00 20.00     0.008 A 
HETATM    8  C3  UNL     1     -36.049  14.706  -7.156  1.00 20.00     0.008 A 
ENDBRANCH   1   6
BRANCH   1   9
HETATM    9  N9  UNL     1     -33.733  15.686  -4.280  1.00 20.00     0.094 N 
HETATM   10  C5  UNL     1     -33.321  16.868  -5.053  1.00 20.00     0.310 C 
HETATM   11  C6  UNL     1     -32.560  15.096  -3.619  1.00 20.00     0.310 C 
ENDBRANCH   1   9
TORSDOF 4
ENDMDL
MODEL 9
REMARK VINA RESULT:      -3.6      2.352      3.550
REMARK  4 active torsions:
REMARK  status: ('A' for Active; 'I' for Inactive)
REMARK    1  A    between atoms: C1_1  and  C8_8 
REMARK    2  A    between atoms: C1_1  and  O11_11 
REMARK    3  A    between atoms: C4_4  and  C8_8 
REMARK    4  A    between atoms: C8_8  and  N9_9 
ROOT
HETATM    1  C8  UNL     1     -35.520  15.126  -3.398  1.00 20.00     0.324 C 
ENDROOT
BRANCH   1   2
HETATM    2  C1  UNL     1     -36.805  15.117  -4.212  1.00 20.00     0.292 C 
HETATM    3  O10 UNL     1     -36.927  15.741  -5.261  1.00 20.00    -0.263 OA
BRANCH   2   4
HETATM    4  O11 UNL     1     -37.770  14.342  -3.643  1.00 20.00    -0.325 OA
HETATM    5  C7  UNL     1     -39.117  14.791  -3.826  1.00 20.00     0.213 C 
ENDBRANCH   2   4
ENDBRANCH   1   2
BRANCH   1   6
HETATM    6  C4  UNL     1     -34.353  14.646  -4.245  1.00 20.00     0.029 A 
HETATM    7  C2  UNL     1     -33.418  13.591  -3.721  1.00 20.00     0.008 A 
HETATM    8  C3  UNL     1     -34.368  13.265  -4.841  1.00 20.00     0.008 A 
ENDBRANCH   1   6
BRANCH   1   9
HETATM    9  N9  UNL     1     -35.240  16.430  -2.852  1.00 20.00     0.094 N 
HETATM   10  C5  UNL     1     -34.268  17.158  -3.683  1.00 20.00     0.310 C 
HETATM   11  C6  UNL     1     -34.737  16.337  -1.474  1.00 20.00     0.310 C 
ENDBRANCH   1   9
TORSDOF 4
ENDMDL
