MODEL 1
REMARK VINA RESULT:      -4.2      0.000      0.000
REMARK  3 active torsions:
REMARK  status: ('A' for Active; 'I' for Inactive)
REMARK    1  A    between atoms: C4_4  and  C9_9 
REMARK    2  A    between atoms: C7_7  and  C8_8 
REMARK    3  A    between atoms: C7_7  and  N10_10 
ROOT
HETATM    1  C1  UNL     1     -33.494  17.424  -4.922  1.00 20.00     0.032 C 
HETATM    2  C2  UNL     1     -33.908  15.986  -5.219  1.00 20.00     0.038 C 
HETATM    3  C3  UNL     1     -33.940  17.679  -3.492  1.00 20.00     0.273 C 
HETATM    4  C4  UNL     1     -34.566  15.482  -3.932  1.00 20.00     0.226 C 
HETATM    5  N10 UNL     1     -33.962  16.339  -2.902  1.00 20.00     0.094 N 
ENDROOT
BRANCH   4   6
HETATM    6  C9  UNL     1     -34.310  13.997  -3.711  1.00 20.00     0.011 C 
HETATM    7  C5  UNL     1     -34.842  13.177  -4.885  1.00 20.00     0.011 C 
HETATM    8  C6  UNL     1     -32.820  13.729  -3.505  1.00 20.00     0.011 C 
ENDBRANCH   4   6
BRANCH   5   9
HETATM    9  C7  UNL     1     -34.691  16.323  -1.639  1.00 20.00     0.287 C 
BRANCH   9  10
HETATM   10  C8  UNL     1     -34.141  17.323  -0.637  1.00 20.00     0.144 C 
HETATM   11 CL11 UNL     1     -35.151  17.394   0.829  1.00 20.00    -0.129 Cl
ENDBRANCH   9  10
ENDBRANCH   5   9
TORSDOF 3
ENDMDL
MODEL 2
REMARK VINA RESULT:      -4.1      2.047      3.832
REMARK  3 active torsions:
REMARK  status: ('A' for Active; 'I' for Inactive)
REMARK    1  A    between atoms: C4_4  and  C9_9 
REMARK    2  A    between atoms: C7_7  and  C8_8 
REMARK    3  A    between atoms: C7_7  and  N10_10 
ROOT
HETATM    1  C1  UNL     1     -33.489  17.829  -5.011  1.00 20.00     0.032 C 
HETATM    2  C2  UNL     1     -33.927  18.066  -3.570  1.00 20.00     0.038 C 
HETATM    3  C3  UNL     1     -33.242  16.333  -5.112  1.00 20.00     0.273 C 
HETATM    4  C4  UNL     1     -33.920  16.683  -2.913  1.00 20.00     0.226 C 
HETATM    5  N10 UNL     1     -34.097  15.780  -4.059  1.00 20.00     0.094 N 
ENDROOT
BRANCH   4   6
HETATM    6  C9  UNL     1     -35.015  16.551  -1.862  1.00 20.00     0.011 C 
HETATM    7  C5  UNL     1     -34.493  16.953  -0.485  1.00 20.00     0.011 C 
HETATM    8  C6  UNL     1     -36.232  17.395  -2.240  1.00 20.00     0.011 C 
ENDBRANCH   4   6
BRANCH   5   9
HETATM    9  C7  UNL     1     -33.749  14.395  -3.760  1.00 20.00     0.287 C 
BRANCH   9  10
HETATM   10  C8  UNL     1     -34.846  13.421  -4.155  1.00 20.00     0.144 C 
HETATM   11 CL11 UNL     1     -36.442  14.211  -4.165  1.00 20.00    -0.129 Cl
ENDBRANCH   9  10
ENDBRANCH   5   9
TORSDOF 3
ENDMDL
MODEL 3
REMARK VINA RESULT:      -4.0      1.667      2.755
REMARK  3 active torsions:
REMARK  status: ('A' for Active; 'I' for Inactive)
REMARK    1  A    between atoms: C4_4  and  C9_9 
REMARK    2  A    between atoms: C7_7  and  C8_8 
REMARK    3  A    between atoms: C7_7  and  N10_10 
ROOT
HETATM    1  C1  UNL     1     -33.371  13.451  -3.932  1.00 20.00     0.032 C 
HETATM    2  C2  UNL     1     -34.643  13.709  -4.733  1.00 20.00     0.038 C 
HETATM    3  C3  UNL     1     -32.863  14.828  -3.539  1.00 20.00     0.273 C 
HETATM    4  C4  UNL     1     -34.808  15.230  -4.752  1.00 20.00     0.226 C 
HETATM    5  N10 UNL     1     -34.075  15.650  -3.548  1.00 20.00     0.094 N 
ENDROOT
BRANCH   4   6
HETATM    6  C9  UNL     1     -36.275  15.640  -4.742  1.00 20.00     0.011 C 
HETATM    7  C5  UNL     1     -36.900  15.443  -6.122  1.00 20.00     0.011 C 
HETATM    8  C6  UNL     1     -37.050  14.851  -3.687  1.00 20.00     0.011 C 
ENDBRANCH   4   6
BRANCH   5   9
HETATM    9  C7  UNL     1     -33.757  17.073  -3.535  1.00 20.00     0.287 C 
BRANCH   9  10
HETATM   10  C8  UNL     1     -34.090  17.732  -2.207  1.00 20.00     0.144 C 
HETATM   11 CL11 UNL     1     -34.657  16.536  -1.015  1.00 20.00    -0.129 Cl
ENDBRANCH   9  10
ENDBRANCH   5   9
TORSDOF 3
ENDMDL
MODEL 4
REMARK VINA RESULT:      -4.0     11.878     13.395
REMARK  3 active torsions:
REMARK  status: ('A' for Active; 'I' for Inactive)
REMARK    1  A    between atoms: C4_4  and  C9_9 
REMARK    2  A    between atoms: C7_7  and  C8_8 
REMARK    3  A    between atoms: C7_7  and  N10_10 
ROOT
HETATM    1  C1  UNL     1     -40.773   6.045  -0.388  1.00 20.00     0.032 C 
HETATM    2  C2  UNL     1     -40.916   4.634  -0.948  1.00 20.00     0.038 C 
HETATM    3  C3  UNL     1     -41.431   6.950  -1.416  1.00 20.00     0.273 C 
HETATM    4  C4  UNL     1     -41.664   4.800  -2.273  1.00 20.00     0.226 C 
HETATM    5  N10 UNL     1     -42.389   6.064  -2.080  1.00 20.00     0.094 N 
ENDROOT
BRANCH   4   6
HETATM    6  C9  UNL     1     -42.578   3.615  -2.558  1.00 20.00     0.011 C 
HETATM    7  C5  UNL     1     -41.783   2.447  -3.139  1.00 20.00     0.011 C 
HETATM    8  C6  UNL     1     -43.314   3.182  -1.291  1.00 20.00     0.011 C 
ENDBRANCH   4   6
BRANCH   5   9
HETATM    9  C7  UNL     1     -42.879   6.643  -3.325  1.00 20.00     0.287 C 
BRANCH   9  10
HETATM   10  C8  UNL     1     -42.731   8.155  -3.362  1.00 20.00     0.144 C 
HETATM   11 CL11 UNL     1     -42.014   8.699  -4.899  1.00 20.00    -0.129 Cl
ENDBRANCH   9  10
ENDBRANCH   5   9
TORSDOF 3
ENDMDL
MODEL 5
REMARK VINA RESULT:      -4.0      2.739      3.711
REMARK  3 active torsions:
REMARK  status: ('A' for Active; 'I' for Inactive)
REMARK    1  A    between atoms: C4_4  and  C9_9 
REMARK    2  A    between atoms: C7_7  and  C8_8 
REMARK    3  A    between atoms: C7_7  and  N10_10 
ROOT
HETATM    1  C1  UNL     1     -34.239  18.116  -1.921  1.00 20.00     0.032 C 
HETATM    2  C2  UNL     1     -34.284  16.626  -1.596  1.00 20.00     0.038 C 
HETATM    3  C3  UNL     1     -33.697  18.197  -3.338  1.00 20.00     0.273 C 
HETATM    4  C4  UNL     1     -33.772  15.922  -2.855  1.00 20.00     0.226 C 
HETATM    5  N10 UNL     1     -34.061  16.900  -3.913  1.00 20.00     0.094 N 
ENDROOT
BRANCH   4   6
HETATM    6  C9  UNL     1     -34.456  14.578  -3.069  1.00 20.00     0.011 C 
HETATM    7  C5  UNL     1     -35.829  14.768  -3.712  1.00 20.00     0.011 C 
HETATM    8  C6  UNL     1     -33.587  13.659  -3.925  1.00 20.00     0.011 C 
ENDBRANCH   4   6
BRANCH   5   9
HETATM    9  C7  UNL     1     -33.335  16.642  -5.151  1.00 20.00     0.287 C 
BRANCH   9  10
HETATM   10  C8  UNL     1     -34.238  16.671  -6.373  1.00 20.00     0.144 C 
HETATM   11 CL11 UNL     1     -34.299  15.079  -7.171  1.00 20.00    -0.129 Cl
ENDBRANCH   9  10
ENDBRANCH   5   9
TORSDOF 3
ENDMDL
MODEL 6
REMARK VINA RESULT:      -3.9      2.628      4.115
REMARK  3 active torsions:
REMARK  status: ('A' for Active; 'I' for Inactive)
REMARK    1  A    between atoms: C4_4  and  C9_9 
REMARK    2  A    between atoms: C7_7  and  C8_8 
REMARK    3  A    between atoms: C7_7  and  N10_10 
ROOT
HETATM    1  C1  UNL     1     -34.036  13.516  -4.457  1.00 20.00     0.032 C 
HETATM    2  C2  UNL     1     -33.665  14.511  -3.362  1.00 20.00     0.038 C 
HETATM    3  C3  UNL     1     -35.555  13.532  -4.512  1.00 20.00     0.273 C 
HETATM    4  C4  UNL     1     -34.998  15.059  -2.846  1.00 20.00     0.226 C 
HETATM    5  N10 UNL     1     -35.896  14.858  -3.993  1.00 20.00     0.094 N 
ENDROOT
BRANCH   4   6
HETATM    6  C9  UNL     1     -34.881  16.516  -2.416  1.00 20.00     0.011 C 
HETATM    7  C5  UNL     1     -34.612  16.615  -0.916  1.00 20.00     0.011 C 
HETATM    8  C6  UNL     1     -33.783  17.227  -3.205  1.00 20.00     0.011 C 
ENDBRANCH   4   6
BRANCH   5   9
HETATM    9  C7  UNL     1     -37.308  14.947  -3.641  1.00 20.00     0.287 C 
BRANCH   9  10
HETATM   10  C8  UNL     1     -38.016  16.088  -4.352  1.00 20.00     0.144 C 
HETATM   11 CL11 UNL     1     -36.915  16.938  -5.465  1.00 20.00    -0.129 Cl
ENDBRANCH   9  10
ENDBRANCH   5   9
TORSDOF 3
ENDMDL
MODEL 7
REMARK VINA RESULT:      -3.9      1.567      3.169
REMARK  3 active torsions:
REMARK  status: ('A' for Active; 'I' for Inactive)
REMARK    1  A    between atoms: C4_4  and  C9_9 
REMARK    2  A    between atoms: C7_7  and  C8_8 
REMARK    3  A    between atoms: C7_7  and  N10_10 
ROOT
HETATM    1  C1  UNL     1     -34.893  13.237  -4.585  1.00 20.00     0.032 C 
HETATM    2  C2  UNL     1     -34.915  14.118  -5.830  1.00 20.00     0.038 C 
HETATM    3  C3  UNL     1     -34.192  14.067  -3.522  1.00 20.00     0.273 C 
HETATM    4  C4  UNL     1     -34.230  15.423  -5.414  1.00 20.00     0.226 C 
HETATM    5  N10 UNL     1     -34.433  15.445  -3.958  1.00 20.00     0.094 N 
ENDROOT
BRANCH   4   6
HETATM    6  C9  UNL     1     -34.829  16.627  -6.128  1.00 20.00     0.011 C 
HETATM    7  C5  UNL     1     -34.707  16.473  -7.642  1.00 20.00     0.011 C 
HETATM    8  C6  UNL     1     -36.291  16.823  -5.726  1.00 20.00     0.011 C 
ENDBRANCH   4   6
BRANCH   5   9
HETATM    9  C7  UNL     1     -33.557  16.385  -3.268  1.00 20.00     0.287 C 
BRANCH   9  10
HETATM   10  C8  UNL     1     -34.316  17.302  -2.323  1.00 20.00     0.144 C 
HETATM   11 CL11 UNL     1     -34.615  16.512  -0.755  1.00 20.00    -0.129 Cl
ENDBRANCH   9  10
ENDBRANCH   5   9
TORSDOF 3
ENDMDL
MODEL 8
REMARK VINA RESULT:      -3.9      2.163      3.322
REMARK  3 active torsions:
REMARK  status: ('A' for Active; 'I' for Inactive)
REMARK    1  A    between atoms: C4_4  and  C9_9 
REMARK    2  A    between atoms: C7_7  and  C8_8 
REMARK    3  A    between atoms: C7_7  and  N10_10 
ROOT
HETATM    1  C1  UNL     1     -34.753  14.863  -7.311  1.00 20.00     0.032 C 
HETATM    2  C2  UNL     1     -34.784  14.367  -5.869  1.00 20.00     0.038 C 
HETATM    3  C3  UNL     1     -34.439  16.347  -7.215  1.00 20.00     0.273 C 
HETATM    4  C4  UNL     1     -34.473  15.597  -5.012  1.00 20.00     0.226 C 
HETATM    5  N10 UNL     1     -33.726  16.458  -5.940  1.00 20.00     0.094 N 
ENDROOT
BRANCH   4   6
HETATM    6  C9  UNL     1     -33.688  15.230  -3.760  1.00 20.00     0.011 C 
HETATM    7  C5  UNL     1     -34.443  15.660  -2.504  1.00 20.00     0.011 C 
HETATM    8  C6  UNL     1     -33.398  13.730  -3.723  1.00 20.00     0.011 C 
ENDBRANCH   4   6
BRANCH   5   9
HETATM    9  C7  UNL     1     -33.639  17.844  -5.497  1.00 20.00     0.287 C 
BRANCH   9  10
HETATM   10  C8  UNL     1     -34.999  18.442  -5.182  1.00 20.00     0.144 C 
HETATM   11 CL11 UNL     1     -35.040  19.131  -3.540  1.00 20.00    -0.129 Cl
ENDBRANCH   9  10
ENDBRANCH   5   9
TORSDOF 3
ENDMDL
MODEL 9
REMARK VINA RESULT:      -3.9      2.861      4.487
REMARK  3 active torsions:
REMARK  status: ('A' for Active; 'I' for Inactive)
REMARK    1  A    between atoms: C4_4  and  C9_9 
REMARK    2  A    between atoms: C7_7  and  C8_8 
REMARK    3  A    between atoms: C7_7  and  N10_10 
ROOT
HETATM    1  C1  UNL     1     -37.579  15.999  -3.470  1.00 20.00     0.032 C 
HETATM    2  C2  UNL     1     -36.513  17.014  -3.071  1.00 20.00     0.038 C 
HETATM    3  C3  UNL     1     -36.808  14.764  -3.908  1.00 20.00     0.273 C 
HETATM    4  C4  UNL     1     -35.175  16.303  -3.290  1.00 20.00     0.226 C 
HETATM    5  N10 UNL     1     -35.541  14.884  -3.182  1.00 20.00     0.094 N 
ENDROOT
BRANCH   4   6
HETATM    6  C9  UNL     1     -34.130  16.739  -2.271  1.00 20.00     0.011 C 
HETATM    7  C5  UNL     1     -33.717  18.190  -2.508  1.00 20.00     0.011 C 
HETATM    8  C6  UNL     1     -34.655  16.558  -0.847  1.00 20.00     0.011 C 
ENDBRANCH   4   6
BRANCH   5   9
HETATM    9  C7  UNL     1     -34.528  13.985  -3.723  1.00 20.00     0.287 C 
BRANCH   9  10
HETATM   10  C8  UNL     1     -34.877  13.485  -5.114  1.00 20.00     0.144 C 
HETATM   11 CL11 UNL     1     -34.372  14.648  -6.366  1.00 20.00    -0.129 Cl
ENDBRANCH   9  10
ENDBRANCH   5   9
TORSDOF 3
ENDMDL
