MODEL 1
REMARK VINA RESULT:      -4.5      0.000      0.000
REMARK  5 active torsions:
REMARK  status: ('A' for Active; 'I' for Inactive)
REMARK    1  A    between atoms: C1_1  and  C9_9 
REMARK    2  A    between atoms: C6_6  and  C7_7 
REMARK    3  A    between atoms: C6_6  and  C8_8 
REMARK    4  A    between atoms: C7_7  and  C9_9 
REMARK    5  A    between atoms: C8_8  and  C10_10 
ROOT
HETATM    1  C6  UNL     1     -34.049  16.412  -1.860  1.00 20.00     0.001 C 
ENDROOT
BRANCH   1   2
HETATM    2  C7  UNL     1     -35.039  15.666  -2.762  1.00 20.00     0.011 C 
BRANCH   2   3
HETATM    3  C9  UNL     1     -34.359  14.866  -3.884  1.00 20.00     0.043 C 
HETATM    4  C2  UNL     1     -32.867  14.650  -3.643  1.00 20.00     0.017 C 
BRANCH   3   5
HETATM    5  C1  UNL     1     -35.085  13.539  -4.033  1.00 20.00     0.235 C 
HETATM    6  O11 UNL     1     -34.729  12.626  -4.770  1.00 20.00    -0.306 OA
ENDBRANCH   3   5
ENDBRANCH   2   3
ENDBRANCH   1   2
BRANCH   1   7
HETATM    7  C8  UNL     1     -34.696  16.775  -0.517  1.00 20.00     0.008 C 
BRANCH   7   8
HETATM    8  C10 UNL     1     -34.302  18.156   0.072  1.00 20.00    -0.051 C 
HETATM    9  C3  UNL     1     -35.220  19.224  -0.554  1.00 20.00     0.014 C 
HETATM   10  C4  UNL     1     -34.490  18.187   1.597  1.00 20.00     0.014 C 
HETATM   11  C5  UNL     1     -32.845  18.508  -0.266  1.00 20.00     0.014 C 
ENDBRANCH   7   8
ENDBRANCH   1   7
TORSDOF 5
ENDMDL
MODEL 2
REMARK VINA RESULT:      -4.4      1.029      1.801
REMARK  5 active torsions:
REMARK  status: ('A' for Active; 'I' for Inactive)
REMARK    1  A    between atoms: C1_1  and  C9_9 
REMARK    2  A    between atoms: C6_6  and  C7_7 
REMARK    3  A    between atoms: C6_6  and  C8_8 
REMARK    4  A    between atoms: C7_7  and  C9_9 
REMARK    5  A    between atoms: C8_8  and  C10_10 
ROOT
HETATM    1  C6  UNL     1     -33.689  16.244  -2.534  1.00 20.00     0.001 C 
ENDROOT
BRANCH   1   2
HETATM    2  C7  UNL     1     -33.860  14.925  -3.297  1.00 20.00     0.011 C 
BRANCH   2   3
HETATM    3  C9  UNL     1     -34.663  15.073  -4.599  1.00 20.00     0.043 C 
HETATM    4  C2  UNL     1     -33.954  15.930  -5.643  1.00 20.00     0.017 C 
BRANCH   3   5
HETATM    5  C1  UNL     1     -34.956  13.683  -5.140  1.00 20.00     0.235 C 
HETATM    6  O11 UNL     1     -34.923  12.653  -4.475  1.00 20.00    -0.306 OA
ENDBRANCH   3   5
ENDBRANCH   2   3
ENDBRANCH   1   2
BRANCH   1   7
HETATM    7  C8  UNL     1     -34.684  16.336  -1.369  1.00 20.00     0.008 C 
BRANCH   7   8
HETATM    8  C10 UNL     1     -34.659  17.663  -0.563  1.00 20.00    -0.051 C 
HETATM    9  C3  UNL     1     -33.203  18.167  -0.517  1.00 20.00     0.014 C 
HETATM   10  C4  UNL     1     -35.526  18.740  -1.233  1.00 20.00     0.014 C 
HETATM   11  C5  UNL     1     -35.144  17.446   0.879  1.00 20.00     0.014 C 
ENDBRANCH   7   8
ENDBRANCH   1   7
TORSDOF 5
ENDMDL
MODEL 3
REMARK VINA RESULT:      -4.3      1.812      3.050
REMARK  5 active torsions:
REMARK  status: ('A' for Active; 'I' for Inactive)
REMARK    1  A    between atoms: C1_1  and  C9_9 
REMARK    2  A    between atoms: C6_6  and  C7_7 
REMARK    3  A    between atoms: C6_6  and  C8_8 
REMARK    4  A    between atoms: C7_7  and  C9_9 
REMARK    5  A    between atoms: C8_8  and  C10_10 
ROOT
HETATM    1  C6  UNL     1     -36.139  16.233  -4.545  1.00 20.00     0.001 C 
ENDROOT
BRANCH   1   2
HETATM    2  C7  UNL     1     -36.473  14.898  -5.219  1.00 20.00     0.011 C 
BRANCH   2   3
HETATM    3  C9  UNL     1     -35.324  14.340  -6.073  1.00 20.00     0.043 C 
HETATM    4  C2  UNL     1     -34.320  15.411  -6.493  1.00 20.00     0.017 C 
BRANCH   3   5
HETATM    5  C1  UNL     1     -34.643  13.229  -5.292  1.00 20.00     0.235 C 
HETATM    6  O11 UNL     1     -35.078  12.732  -4.259  1.00 20.00    -0.306 OA
ENDBRANCH   3   5
ENDBRANCH   2   3
ENDBRANCH   1   2
BRANCH   1   7
HETATM    7  C8  UNL     1     -35.896  16.043  -3.041  1.00 20.00     0.008 C 
BRANCH   7   8
HETATM    8  C10 UNL     1     -34.539  16.575  -2.504  1.00 20.00    -0.051 C 
HETATM    9  C3  UNL     1     -34.602  16.578  -0.964  1.00 20.00     0.014 C 
HETATM   10  C4  UNL     1     -33.374  15.672  -2.941  1.00 20.00     0.014 C 
HETATM   11  C5  UNL     1     -34.276  18.010  -2.984  1.00 20.00     0.014 C 
ENDBRANCH   7   8
ENDBRANCH   1   7
TORSDOF 5
ENDMDL
MODEL 4
REMARK VINA RESULT:      -4.3      2.743      5.628
REMARK  5 active torsions:
REMARK  status: ('A' for Active; 'I' for Inactive)
REMARK    1  A    between atoms: C1_1  and  C9_9 
REMARK    2  A    between atoms: C6_6  and  C7_7 
REMARK    3  A    between atoms: C6_6  and  C8_8 
REMARK    4  A    between atoms: C7_7  and  C9_9 
REMARK    5  A    between atoms: C8_8  and  C10_10 
ROOT
HETATM    1  C6  UNL     1     -33.893  16.814  -1.936  1.00 20.00     0.001 C 
ENDROOT
BRANCH   1   2
HETATM    2  C7  UNL     1     -34.323  17.080  -0.489  1.00 20.00     0.011 C 
BRANCH   2   3
HETATM    3  C9  UNL     1     -33.948  18.484   0.011  1.00 20.00     0.043 C 
HETATM    4  C2  UNL     1     -33.764  18.549   1.525  1.00 20.00     0.017 C 
BRANCH   3   5
HETATM    5  C1  UNL     1     -32.687  18.928  -0.711  1.00 20.00     0.235 C 
HETATM    6  O11 UNL     1     -31.640  19.246  -0.158  1.00 20.00    -0.306 OA
ENDBRANCH   3   5
ENDBRANCH   2   3
ENDBRANCH   1   2
BRANCH   1   7
HETATM    7  C8  UNL     1     -34.672  15.634  -2.532  1.00 20.00     0.008 C 
BRANCH   7   8
HETATM    8  C10 UNL     1     -34.150  15.098  -3.892  1.00 20.00    -0.051 C 
HETATM    9  C3  UNL     1     -33.183  16.145  -4.481  1.00 20.00     0.014 C 
HETATM   10  C4  UNL     1     -33.386  13.776  -3.715  1.00 20.00     0.014 C 
HETATM   11  C5  UNL     1     -35.303  14.887  -4.886  1.00 20.00     0.014 C 
ENDBRANCH   7   8
ENDBRANCH   1   7
TORSDOF 5
ENDMDL
MODEL 5
REMARK VINA RESULT:      -4.3      2.997      5.136
REMARK  5 active torsions:
REMARK  status: ('A' for Active; 'I' for Inactive)
REMARK    1  A    between atoms: C1_1  and  C9_9 
REMARK    2  A    between atoms: C6_6  and  C7_7 
REMARK    3  A    between atoms: C6_6  and  C8_8 
REMARK    4  A    between atoms: C7_7  and  C9_9 
REMARK    5  A    between atoms: C8_8  and  C10_10 
ROOT
HETATM    1  C6  UNL     1     -33.151  16.141  -4.758  1.00 20.00     0.001 C 
ENDROOT
BRANCH   1   2
HETATM    2  C7  UNL     1     -33.630  16.061  -3.305  1.00 20.00     0.011 C 
BRANCH   2   3
HETATM    3  C9  UNL     1     -34.569  14.874  -3.036  1.00 20.00     0.043 C 
HETATM    4  C2  UNL     1     -36.040  15.214  -3.259  1.00 20.00     0.017 C 
BRANCH   3   5
HETATM    5  C1  UNL     1     -34.137  13.714  -3.918  1.00 20.00     0.235 C 
HETATM    6  O11 UNL     1     -34.847  12.759  -4.214  1.00 20.00    -0.306 OA
ENDBRANCH   3   5
ENDBRANCH   2   3
ENDBRANCH   1   2
BRANCH   1   7
HETATM    7  C8  UNL     1     -33.857  17.280  -5.507  1.00 20.00     0.008 C 
BRANCH   7   8
HETATM    8  C10 UNL     1     -34.732  16.852  -6.716  1.00 20.00    -0.051 C 
HETATM    9  C3  UNL     1     -34.398  17.780  -7.901  1.00 20.00     0.014 C 
HETATM   10  C4  UNL     1     -34.436  15.403  -7.134  1.00 20.00     0.014 C 
HETATM   11  C5  UNL     1     -36.229  16.992  -6.396  1.00 20.00     0.014 C 
ENDBRANCH   7   8
ENDBRANCH   1   7
TORSDOF 5
ENDMDL
MODEL 6
REMARK VINA RESULT:      -4.1      2.678      5.532
REMARK  5 active torsions:
REMARK  status: ('A' for Active; 'I' for Inactive)
REMARK    1  A    between atoms: C1_1  and  C9_9 
REMARK    2  A    between atoms: C6_6  and  C7_7 
REMARK    3  A    between atoms: C6_6  and  C8_8 
REMARK    4  A    between atoms: C7_7  and  C9_9 
REMARK    5  A    between atoms: C8_8  and  C10_10 
ROOT
HETATM    1  C6  UNL     1     -33.802  16.242  -2.521  1.00 20.00     0.001 C 
ENDROOT
BRANCH   1   2
HETATM    2  C7  UNL     1     -34.835  16.279  -1.390  1.00 20.00     0.011 C 
BRANCH   2   3
HETATM    3  C9  UNL     1     -34.464  17.247  -0.255  1.00 20.00     0.043 C 
HETATM    4  C2  UNL     1     -33.276  18.142  -0.600  1.00 20.00     0.017 C 
BRANCH   3   5
HETATM    5  C1  UNL     1     -35.691  18.076   0.087  1.00 20.00     0.235 C 
HETATM    6  O11 UNL     1     -36.344  17.965   1.119  1.00 20.00    -0.306 OA
ENDBRANCH   3   5
ENDBRANCH   2   3
ENDBRANCH   1   2
BRANCH   1   7
HETATM    7  C8  UNL     1     -34.489  16.127  -3.889  1.00 20.00     0.008 C 
BRANCH   7   8
HETATM    8  C10 UNL     1     -34.596  14.692  -4.472  1.00 20.00    -0.051 C 
HETATM    9  C3  UNL     1     -35.993  14.138  -4.128  1.00 20.00     0.014 C 
HETATM   10  C4  UNL     1     -34.439  14.699  -6.001  1.00 20.00     0.014 C 
HETATM   11  C5  UNL     1     -33.538  13.762  -3.858  1.00 20.00     0.014 C 
ENDBRANCH   7   8
ENDBRANCH   1   7
TORSDOF 5
ENDMDL
MODEL 7
REMARK VINA RESULT:      -4.1     10.040     11.121
REMARK  5 active torsions:
REMARK  status: ('A' for Active; 'I' for Inactive)
REMARK    1  A    between atoms: C1_1  and  C9_9 
REMARK    2  A    between atoms: C6_6  and  C7_7 
REMARK    3  A    between atoms: C6_6  and  C8_8 
REMARK    4  A    between atoms: C7_7  and  C9_9 
REMARK    5  A    between atoms: C8_8  and  C10_10 
ROOT
HETATM    1  C6  UNL     1     -32.515   7.129   3.777  1.00 20.00     0.001 C 
ENDROOT
BRANCH   1   2
HETATM    2  C7  UNL     1     -31.834   7.589   2.483  1.00 20.00     0.011 C 
BRANCH   2   3
HETATM    3  C9  UNL     1     -32.666   8.604   1.683  1.00 20.00     0.043 C 
HETATM    4  C2  UNL     1     -32.691   9.990   2.322  1.00 20.00     0.017 C 
BRANCH   3   5
HETATM    5  C1  UNL     1     -32.115   8.665   0.268  1.00 20.00     0.235 C 
HETATM    6  O11 UNL     1     -32.792   8.837  -0.739  1.00 20.00    -0.306 OA
ENDBRANCH   3   5
ENDBRANCH   2   3
ENDBRANCH   1   2
BRANCH   1   7
HETATM    7  C8  UNL     1     -33.227   5.785   3.574  1.00 20.00     0.008 C 
BRANCH   7   8
HETATM    8  C10 UNL     1     -34.377   5.473   4.570  1.00 20.00    -0.051 C 
HETATM    9  C3  UNL     1     -35.714   5.789   3.872  1.00 20.00     0.014 C 
HETATM   10  C4  UNL     1     -34.378   3.990   4.975  1.00 20.00     0.014 C 
HETATM   11  C5  UNL     1     -34.269   6.343   5.833  1.00 20.00     0.014 C 
ENDBRANCH   7   8
ENDBRANCH   1   7
TORSDOF 5
ENDMDL
MODEL 8
REMARK VINA RESULT:      -4.1      3.633      5.353
REMARK  5 active torsions:
REMARK  status: ('A' for Active; 'I' for Inactive)
REMARK    1  A    between atoms: C1_1  and  C9_9 
REMARK    2  A    between atoms: C6_6  and  C7_7 
REMARK    3  A    between atoms: C6_6  and  C8_8 
REMARK    4  A    between atoms: C7_7  and  C9_9 
REMARK    5  A    between atoms: C8_8  and  C10_10 
ROOT
HETATM    1  C6  UNL     1     -35.512  14.708  -6.467  1.00 20.00     0.001 C 
ENDROOT
BRANCH   1   2
HETATM    2  C7  UNL     1     -34.944  13.678  -5.484  1.00 20.00     0.011 C 
BRANCH   2   3
HETATM    3  C9  UNL     1     -35.369  13.925  -4.028  1.00 20.00     0.043 C 
HETATM    4  C2  UNL     1     -34.342  14.730  -3.236  1.00 20.00     0.017 C 
BRANCH   3   5
HETATM    5  C1  UNL     1     -36.720  14.621  -4.036  1.00 20.00     0.235 C 
HETATM    6  O11 UNL     1     -37.778  14.098  -3.705  1.00 20.00    -0.306 OA
ENDBRANCH   3   5
ENDBRANCH   2   3
ENDBRANCH   1   2
BRANCH   1   7
HETATM    7  C8  UNL     1     -34.408  15.643  -6.981  1.00 20.00     0.008 C 
BRANCH   7   8
HETATM    8  C10 UNL     1     -34.604  17.152  -6.673  1.00 20.00    -0.051 C 
HETATM    9  C3  UNL     1     -33.597  17.553  -5.577  1.00 20.00     0.014 C 
HETATM   10  C4  UNL     1     -34.337  18.015  -7.917  1.00 20.00     0.014 C 
HETATM   11  C5  UNL     1     -36.024  17.434  -6.156  1.00 20.00     0.014 C 
ENDBRANCH   7   8
ENDBRANCH   1   7
TORSDOF 5
ENDMDL
MODEL 9
REMARK VINA RESULT:      -4.1     10.023     11.146
REMARK  5 active torsions:
REMARK  status: ('A' for Active; 'I' for Inactive)
REMARK    1  A    between atoms: C1_1  and  C9_9 
REMARK    2  A    between atoms: C6_6  and  C7_7 
REMARK    3  A    between atoms: C6_6  and  C8_8 
REMARK    4  A    between atoms: C7_7  and  C9_9 
REMARK    5  A    between atoms: C8_8  and  C10_10 
ROOT
HETATM    1  C6  UNL     1     -32.459   7.080   3.775  1.00 20.00     0.001 C 
ENDROOT
BRANCH   1   2
HETATM    2  C7  UNL     1     -31.784   7.584   2.495  1.00 20.00     0.011 C 
BRANCH   2   3
HETATM    3  C9  UNL     1     -32.639   8.590   1.708  1.00 20.00     0.043 C 
HETATM    4  C2  UNL     1     -32.698   9.966   2.366  1.00 20.00     0.017 C 
BRANCH   3   5
HETATM    5  C1  UNL     1     -32.089   8.683   0.295  1.00 20.00     0.235 C 
HETATM    6  O11 UNL     1     -32.772   8.823  -0.714  1.00 20.00    -0.306 OA
ENDBRANCH   3   5
ENDBRANCH   2   3
ENDBRANCH   1   2
BRANCH   1   7
HETATM    7  C8  UNL     1     -33.229   5.778   3.513  1.00 20.00     0.008 C 
BRANCH   7   8
HETATM    8  C10 UNL     1     -34.407   5.484   4.481  1.00 20.00    -0.051 C 
HETATM    9  C3  UNL     1     -34.250   6.392   5.717  1.00 20.00     0.014 C 
HETATM   10  C4  UNL     1     -35.760   5.791   3.821  1.00 20.00     0.014 C 
HETATM   11  C5  UNL     1     -34.390   4.020   4.947  1.00 20.00     0.014 C 
ENDBRANCH   7   8
ENDBRANCH   1   7
TORSDOF 5
ENDMDL
