MODEL 1
REMARK VINA RESULT:      -5.0      0.000      0.000
REMARK  0 active torsions:
REMARK  status: ('A' for Active; 'I' for Inactive)
ROOT
HETATM    1  C1  UNL     1     -36.235  15.120  -6.935  1.00 20.00     0.002 C 
HETATM    2  C2  UNL     1     -36.028  15.958  -5.650  1.00 20.00     0.015 C 
HETATM    3  C3  UNL     1     -34.809  14.553  -6.724  1.00 20.00     0.015 C 
HETATM    4  C4  UNL     1     -34.730  15.775  -2.356  1.00 20.00     0.036 C 
HETATM    5  C5  UNL     1     -33.819  16.939  -2.731  1.00 20.00     0.168 C 
HETATM    6  C6  UNL     1     -34.278  14.631  -3.268  1.00 20.00     0.050 C 
HETATM    7  C7  UNL     1     -35.340  13.941  -4.181  1.00 20.00     0.178 C 
HETATM    8  C8  UNL     1     -33.749  15.421  -4.499  1.00 20.00     0.139 C 
HETATM    9  C9  UNL     1     -34.960  14.939  -5.265  1.00 20.00     0.016 C 
HETATM   10  O10 UNL     1     -34.993  12.604  -4.448  1.00 20.00    -0.234 OA
HETATM   11  O11 UNL     1     -33.653  16.821  -4.149  1.00 20.00    -0.385 OA
ENDROOT
TORSDOF 0
ENDMDL
MODEL 2
REMARK VINA RESULT:      -4.9      1.286      3.398
REMARK  0 active torsions:
REMARK  status: ('A' for Active; 'I' for Inactive)
ROOT
HETATM    1  C1  UNL     1     -33.699  15.893  -2.713  1.00 20.00     0.002 C 
HETATM    2  C2  UNL     1     -33.615  16.198  -4.228  1.00 20.00     0.015 C 
HETATM    3  C3  UNL     1     -35.153  15.414  -2.950  1.00 20.00     0.015 C 
HETATM    4  C4  UNL     1     -34.492  14.899  -7.408  1.00 20.00     0.036 C 
HETATM    5  C5  UNL     1     -35.264  16.193  -7.640  1.00 20.00     0.168 C 
HETATM    6  C6  UNL     1     -35.219  14.228  -6.239  1.00 20.00     0.050 C 
HETATM    7  C7  UNL     1     -34.395  13.844  -4.970  1.00 20.00     0.178 C 
HETATM    8  C8  UNL     1     -35.781  15.467  -5.485  1.00 20.00     0.139 C 
HETATM    9  C9  UNL     1     -34.761  15.206  -4.400  1.00 20.00     0.016 C 
HETATM   10  O10 UNL     1     -34.963  12.742  -4.305  1.00 20.00    -0.234 OA
HETATM   11  O11 UNL     1     -35.627  16.633  -6.326  1.00 20.00    -0.385 OA
ENDROOT
TORSDOF 0
ENDMDL
MODEL 3
REMARK VINA RESULT:      -4.7      1.268      3.894
REMARK  0 active torsions:
REMARK  status: ('A' for Active; 'I' for Inactive)
ROOT
HETATM    1  C1  UNL     1     -35.091  16.995  -1.531  1.00 20.00     0.002 C 
HETATM    2  C2  UNL     1     -35.525  15.820  -2.439  1.00 20.00     0.015 C 
HETATM    3  C3  UNL     1     -33.630  16.711  -1.960  1.00 20.00     0.015 C 
HETATM    4  C4  UNL     1     -34.930  14.353  -5.611  1.00 20.00     0.036 C 
HETATM    5  C5  UNL     1     -34.579  13.069  -4.868  1.00 20.00     0.168 C 
HETATM    6  C6  UNL     1     -33.853  15.351  -5.175  1.00 20.00     0.050 C 
HETATM    7  C7  UNL     1     -34.304  16.705  -4.543  1.00 20.00     0.178 C 
HETATM    8  C8  UNL     1     -33.508  14.816  -3.755  1.00 20.00     0.139 C 
HETATM    9  C9  UNL     1     -34.210  16.027  -3.184  1.00 20.00     0.016 C 
HETATM   10  O10 UNL     1     -33.356  17.718  -4.775  1.00 20.00    -0.234 OA
HETATM   11  O11 UNL     1     -34.112  13.513  -3.589  1.00 20.00    -0.385 OA
ENDROOT
TORSDOF 0
ENDMDL
MODEL 4
REMARK VINA RESULT:      -4.5      1.371      1.647
REMARK  0 active torsions:
REMARK  status: ('A' for Active; 'I' for Inactive)
ROOT
HETATM    1  C1  UNL     1     -34.869  14.405  -6.625  1.00 20.00     0.002 C 
HETATM    2  C2  UNL     1     -34.505  15.593  -5.703  1.00 20.00     0.015 C 
HETATM    3  C3  UNL     1     -34.851  13.500  -5.369  1.00 20.00     0.015 C 
HETATM    4  C4  UNL     1     -35.247  17.030  -2.548  1.00 20.00     0.036 C 
HETATM    5  C5  UNL     1     -33.764  16.895  -2.221  1.00 20.00     0.168 C 
HETATM    6  C6  UNL     1     -35.734  15.586  -2.705  1.00 20.00     0.050 C 
HETATM    7  C7  UNL     1     -36.441  15.178  -4.035  1.00 20.00     0.178 C 
HETATM    8  C8  UNL     1     -34.434  14.884  -3.193  1.00 20.00     0.139 C 
HETATM    9  C9  UNL     1     -35.074  14.761  -4.557  1.00 20.00     0.016 C 
HETATM   10  O10 UNL     1     -37.351  14.126  -3.828  1.00 20.00    -0.234 OA
HETATM   11  O11 UNL     1     -33.321  15.791  -3.019  1.00 20.00    -0.385 OA
ENDROOT
TORSDOF 0
ENDMDL
MODEL 5
REMARK VINA RESULT:      -4.5      1.577      3.480
REMARK  0 active torsions:
REMARK  status: ('A' for Active; 'I' for Inactive)
ROOT
HETATM    1  C1  UNL     1     -34.702  16.264  -1.592  1.00 20.00     0.002 C 
HETATM    2  C2  UNL     1     -34.044  15.769  -2.903  1.00 20.00     0.015 C 
HETATM    3  C3  UNL     1     -35.823  16.889  -2.460  1.00 20.00     0.015 C 
HETATM    4  C4  UNL     1     -34.793  14.307  -6.044  1.00 20.00     0.036 C 
HETATM    5  C5  UNL     1     -34.121  15.517  -6.684  1.00 20.00     0.168 C 
HETATM    6  C6  UNL     1     -36.012  14.887  -5.321  1.00 20.00     0.050 C 
HETATM    7  C7  UNL     1     -36.177  14.605  -3.795  1.00 20.00     0.178 C 
HETATM    8  C8  UNL     1     -35.508  16.322  -4.991  1.00 20.00     0.139 C 
HETATM    9  C9  UNL     1     -35.423  15.902  -3.540  1.00 20.00     0.016 C 
HETATM   10  O10 UNL     1     -37.532  14.614  -3.418  1.00 20.00    -0.234 OA
HETATM   11  O11 UNL     1     -34.285  16.566  -5.722  1.00 20.00    -0.385 OA
ENDROOT
TORSDOF 0
ENDMDL
MODEL 6
REMARK VINA RESULT:      -4.5      1.765      3.367
REMARK  0 active torsions:
REMARK  status: ('A' for Active; 'I' for Inactive)
ROOT
HETATM    1  C1  UNL     1     -33.564  18.355  -5.100  1.00 20.00     0.002 C 
HETATM    2  C2  UNL     1     -33.437  16.845  -5.412  1.00 20.00     0.015 C 
HETATM    3  C3  UNL     1     -34.839  18.020  -4.286  1.00 20.00     0.015 C 
HETATM    4  C4  UNL     1     -33.727  13.637  -3.930  1.00 20.00     0.036 C 
HETATM    5  C5  UNL     1     -34.765  13.319  -5.000  1.00 20.00     0.168 C 
HETATM    6  C6  UNL     1     -34.361  14.762  -3.108  1.00 20.00     0.050 C 
HETATM    7  C7  UNL     1     -33.571  16.098  -2.936  1.00 20.00     0.178 C 
HETATM    8  C8  UNL     1     -35.261  15.444  -4.178  1.00 20.00     0.139 C 
HETATM    9  C9  UNL     1     -34.296  16.608  -4.173  1.00 20.00     0.016 C 
HETATM   10  O10 UNL     1     -33.911  16.741  -1.733  1.00 20.00    -0.234 OA
HETATM   11  O11 UNL     1     -35.324  14.592  -5.345  1.00 20.00    -0.385 OA
ENDROOT
TORSDOF 0
ENDMDL
MODEL 7
REMARK VINA RESULT:      -4.4      1.763      2.735
REMARK  0 active torsions:
REMARK  status: ('A' for Active; 'I' for Inactive)
ROOT
HETATM    1  C1  UNL     1     -34.495  13.237  -4.916  1.00 20.00     0.002 C 
HETATM    2  C2  UNL     1     -34.321  13.855  -3.508  1.00 20.00     0.015 C 
HETATM    3  C3  UNL     1     -35.241  14.531  -5.328  1.00 20.00     0.015 C 
HETATM    4  C4  UNL     1     -33.529  16.888  -1.851  1.00 20.00     0.036 C 
HETATM    5  C5  UNL     1     -34.876  16.767  -1.146  1.00 20.00     0.168 C 
HETATM    6  C6  UNL     1     -33.888  17.062  -3.329  1.00 20.00     0.050 C 
HETATM    7  C7  UNL     1     -33.280  16.065  -4.366  1.00 20.00     0.178 C 
HETATM    8  C8  UNL     1     -35.240  16.295  -3.401  1.00 20.00     0.139 C 
HETATM    9  C9  UNL     1     -34.525  15.211  -4.177  1.00 20.00     0.016 C 
HETATM   10  O10 UNL     1     -33.150  16.663  -5.633  1.00 20.00    -0.234 OA
HETATM   11  O11 UNL     1     -35.688  16.014  -2.055  1.00 20.00    -0.385 OA
ENDROOT
TORSDOF 0
ENDMDL
MODEL 8
REMARK VINA RESULT:      -4.4      1.802      2.791
REMARK  0 active torsions:
REMARK  status: ('A' for Active; 'I' for Inactive)
ROOT
HETATM    1  C1  UNL     1     -35.126  13.352  -4.273  1.00 20.00     0.002 C 
HETATM    2  C2  UNL     1     -35.172  14.699  -5.034  1.00 20.00     0.015 C 
HETATM    3  C3  UNL     1     -33.842  13.860  -3.572  1.00 20.00     0.015 C 
HETATM    4  C4  UNL     1     -34.726  18.189  -4.596  1.00 20.00     0.036 C 
HETATM    5  C5  UNL     1     -33.665  18.115  -5.688  1.00 20.00     0.168 C 
HETATM    6  C6  UNL     1     -34.157  17.340  -3.455  1.00 20.00     0.050 C 
HETATM    7  C7  UNL     1     -35.017  16.160  -2.903  1.00 20.00     0.178 C 
HETATM    8  C8  UNL     1     -33.287  16.322  -4.246  1.00 20.00     0.139 C 
HETATM    9  C9  UNL     1     -34.311  15.262  -3.908  1.00 20.00     0.016 C 
HETATM   10  O10 UNL     1     -34.720  15.901  -1.552  1.00 20.00    -0.234 OA
HETATM   11  O11 UNL     1     -33.171  16.772  -5.615  1.00 20.00    -0.385 OA
ENDROOT
TORSDOF 0
ENDMDL
MODEL 9
REMARK VINA RESULT:      -4.3      1.855      3.845
REMARK  0 active torsions:
REMARK  status: ('A' for Active; 'I' for Inactive)
ROOT
HETATM    1  C1  UNL     1     -34.168  16.154  -2.346  1.00 20.00     0.002 C 
HETATM    2  C2  UNL     1     -35.682  16.235  -2.654  1.00 20.00     0.015 C 
HETATM    3  C3  UNL     1     -34.129  14.845  -3.172  1.00 20.00     0.015 C 
HETATM    4  C4  UNL     1     -38.047  15.785  -5.257  1.00 20.00     0.036 C 
HETATM    5  C5  UNL     1     -38.736  14.768  -4.353  1.00 20.00     0.168 C 
HETATM    6  C6  UNL     1     -36.676  15.168  -5.547  1.00 20.00     0.050 C 
HETATM    7  C7  UNL     1     -35.398  16.000  -5.216  1.00 20.00     0.178 C 
HETATM    8  C8  UNL     1     -36.448  14.326  -4.259  1.00 20.00     0.139 C 
HETATM    9  C9  UNL     1     -35.396  15.332  -3.849  1.00 20.00     0.016 C 
HETATM   10  O10 UNL     1     -34.327  15.649  -6.058  1.00 20.00    -0.234 OA
HETATM   11  O11 UNL     1     -37.687  14.266  -3.516  1.00 20.00    -0.385 OA
ENDROOT
TORSDOF 0
ENDMDL
