MODEL 1
REMARK VINA RESULT:      -4.8      0.000      0.000
REMARK  1 active torsions:
REMARK  status: ('A' for Active; 'I' for Inactive)
REMARK    1  A    between atoms: C3_3  and  C6_6 
ROOT
HETATM    1  C1  UNL     1     -32.017   7.925   2.072  1.00 20.00     0.087 C 
HETATM    2  C5  UNL     1     -32.392   7.043   3.122  1.00 20.00     0.095 C 
HETATM    3  C6  UNL     1     -33.690   6.893   3.559  1.00 20.00     0.032 C 
HETATM    4  N8  UNL     1     -31.706   8.644   1.216  1.00 20.00    -0.192 NA
ENDROOT
BRANCH   3   5
HETATM    5  C3  UNL     1     -34.149   6.051   4.594  1.00 20.00     0.031 A 
HETATM    6  C4  UNL     1     -34.043   6.179   5.962  1.00 20.00     0.048 A 
HETATM    7  C7  UNL     1     -33.388   7.289   6.689  1.00 20.00     0.072 C 
HETATM    8  N9  UNL     1     -34.609   5.165   6.709  1.00 20.00    -0.258 NA
HETATM    9  C2  UNL     1     -35.136   4.280   5.894  1.00 20.00     0.167 A 
HETATM   10  S10 UNL     1     -34.987   4.604   4.215  1.00 20.00    -0.081 SA
ENDBRANCH   3   5
TORSDOF 1
ENDMDL
MODEL 2
REMARK VINA RESULT:      -4.2     11.424     12.100
REMARK  1 active torsions:
REMARK  status: ('A' for Active; 'I' for Inactive)
REMARK    1  A    between atoms: C3_3  and  C6_6 
ROOT
HETATM    1  C1  UNL     1     -34.147  17.657  -0.052  1.00 20.00     0.087 C 
HETATM    2  C5  UNL     1     -34.790  16.689  -0.871  1.00 20.00     0.095 C 
HETATM    3  C6  UNL     1     -34.309  16.297  -2.102  1.00 20.00     0.032 C 
HETATM    4  N8  UNL     1     -33.626  18.446   0.620  1.00 20.00    -0.192 NA
ENDROOT
BRANCH   3   5
HETATM    5  C3  UNL     1     -34.883  15.355  -2.979  1.00 20.00     0.031 A 
HETATM    6  C4  UNL     1     -34.321  14.268  -3.615  1.00 20.00     0.048 A 
HETATM    7  C7  UNL     1     -32.914  13.826  -3.512  1.00 20.00     0.072 C 
HETATM    8  N9  UNL     1     -35.170  13.534  -4.421  1.00 20.00    -0.258 NA
HETATM    9  C2  UNL     1     -36.366  14.077  -4.384  1.00 20.00     0.167 A 
HETATM   10  S10 UNL     1     -36.541  15.473  -3.402  1.00 20.00    -0.081 SA
ENDBRANCH   3   5
TORSDOF 1
ENDMDL
MODEL 3
REMARK VINA RESULT:      -4.1     11.866     12.941
REMARK  1 active torsions:
REMARK  status: ('A' for Active; 'I' for Inactive)
REMARK    1  A    between atoms: C3_3  and  C6_6 
ROOT
HETATM    1  C1  UNL     1     -34.484  17.126  -0.355  1.00 20.00     0.087 C 
HETATM    2  C5  UNL     1     -34.767  16.353  -1.514  1.00 20.00     0.095 C 
HETATM    3  C6  UNL     1     -33.903  16.240  -2.582  1.00 20.00     0.032 C 
HETATM    4  N8  UNL     1     -34.256  17.756   0.593  1.00 20.00    -0.192 NA
ENDROOT
BRANCH   3   5
HETATM    5  C3  UNL     1     -34.106  15.506  -3.768  1.00 20.00     0.031 A 
HETATM    6  C4  UNL     1     -33.981  15.887  -5.087  1.00 20.00     0.048 A 
HETATM    7  C7  UNL     1     -33.587  17.226  -5.577  1.00 20.00     0.072 C 
HETATM    8  N9  UNL     1     -34.255  14.912  -6.026  1.00 20.00    -0.258 NA
HETATM    9  C2  UNL     1     -34.585  13.803  -5.403  1.00 20.00     0.167 A 
HETATM   10  S10 UNL     1     -34.587  13.862  -3.688  1.00 20.00    -0.081 SA
ENDBRANCH   3   5
TORSDOF 1
ENDMDL
MODEL 4
REMARK VINA RESULT:      -4.1     11.581     12.210
REMARK  1 active torsions:
REMARK  status: ('A' for Active; 'I' for Inactive)
REMARK    1  A    between atoms: C3_3  and  C6_6 
ROOT
HETATM    1  C1  UNL     1     -33.828  17.724  -0.465  1.00 20.00     0.087 C 
HETATM    2  C5  UNL     1     -34.425  16.616  -1.124  1.00 20.00     0.095 C 
HETATM    3  C6  UNL     1     -34.185  16.297  -2.443  1.00 20.00     0.032 C 
HETATM    4  N8  UNL     1     -33.342  18.628   0.078  1.00 20.00    -0.192 NA
ENDROOT
BRANCH   3   5
HETATM    5  C3  UNL     1     -34.738  15.227  -3.175  1.00 20.00     0.031 A 
HETATM    6  C4  UNL     1     -36.034  15.002  -3.588  1.00 20.00     0.048 A 
HETATM    7  C7  UNL     1     -37.196  15.882  -3.340  1.00 20.00     0.072 C 
HETATM    8  N9  UNL     1     -36.248  13.838  -4.300  1.00 20.00    -0.258 NA
HETATM    9  C2  UNL     1     -35.107  13.195  -4.417  1.00 20.00     0.167 A 
HETATM   10  S10 UNL     1     -33.738  13.933  -3.693  1.00 20.00    -0.081 SA
ENDBRANCH   3   5
TORSDOF 1
ENDMDL
MODEL 5
REMARK VINA RESULT:      -4.0     11.630     13.013
REMARK  1 active torsions:
REMARK  status: ('A' for Active; 'I' for Inactive)
REMARK    1  A    between atoms: C3_3  and  C6_6 
ROOT
HETATM    1  C1  UNL     1     -34.937  13.647  -4.151  1.00 20.00     0.087 C 
HETATM    2  C5  UNL     1     -35.122  14.912  -3.530  1.00 20.00     0.095 C 
HETATM    3  C6  UNL     1     -34.107  15.613  -2.916  1.00 20.00     0.032 C 
HETATM    4  N8  UNL     1     -34.789  12.615  -4.661  1.00 20.00    -0.192 NA
ENDROOT
BRANCH   3   5
HETATM    5  C3  UNL     1     -34.203  16.863  -2.272  1.00 20.00     0.031 A 
HETATM    6  C4  UNL     1     -34.018  18.138  -2.762  1.00 20.00     0.048 A 
HETATM    7  C7  UNL     1     -33.656  18.496  -4.151  1.00 20.00     0.072 C 
HETATM    8  N9  UNL     1     -34.190  19.165  -1.856  1.00 20.00    -0.258 NA
HETATM    9  C2  UNL     1     -34.505  18.652  -0.687  1.00 20.00     0.167 A 
HETATM   10  S10 UNL     1     -34.608  16.941  -0.607  1.00 20.00    -0.081 SA
ENDBRANCH   3   5
TORSDOF 1
ENDMDL
MODEL 6
REMARK VINA RESULT:      -3.9     11.729     13.097
REMARK  1 active torsions:
REMARK  status: ('A' for Active; 'I' for Inactive)
REMARK    1  A    between atoms: C3_3  and  C6_6 
ROOT
HETATM    1  C1  UNL     1     -35.113  17.432   0.587  1.00 20.00     0.087 C 
HETATM    2  C5  UNL     1     -34.842  17.509  -0.806  1.00 20.00     0.095 C 
HETATM    3  C6  UNL     1     -34.395  16.440  -1.553  1.00 20.00     0.032 C 
HETATM    4  N8  UNL     1     -35.336  17.374   1.725  1.00 20.00    -0.192 NA
ENDROOT
BRANCH   3   5
HETATM    5  C3  UNL     1     -34.094  16.429  -2.930  1.00 20.00     0.031 A 
HETATM    6  C4  UNL     1     -34.001  15.376  -3.815  1.00 20.00     0.048 A 
HETATM    7  C7  UNL     1     -34.204  13.946  -3.498  1.00 20.00     0.072 C 
HETATM    8  N9  UNL     1     -33.685  15.708  -5.118  1.00 20.00    -0.258 NA
HETATM    9  C2  UNL     1     -33.544  17.013  -5.202  1.00 20.00     0.167 A 
HETATM   10  S10 UNL     1     -33.775  17.900  -3.751  1.00 20.00    -0.081 SA
ENDBRANCH   3   5
TORSDOF 1
ENDMDL
MODEL 7
REMARK VINA RESULT:      -3.9     12.014     13.365
REMARK  1 active torsions:
REMARK  status: ('A' for Active; 'I' for Inactive)
REMARK    1  A    between atoms: C3_3  and  C6_6 
ROOT
HETATM    1  C1  UNL     1     -34.521  16.628  -1.015  1.00 20.00     0.087 C 
HETATM    2  C5  UNL     1     -34.183  16.204  -2.329  1.00 20.00     0.095 C 
HETATM    3  C6  UNL     1     -35.075  16.204  -3.380  1.00 20.00     0.032 C 
HETATM    4  N8  UNL     1     -34.792  16.974   0.059  1.00 20.00    -0.192 NA
ENDROOT
BRANCH   3   5
HETATM    5  C3  UNL     1     -34.829  15.795  -4.706  1.00 20.00     0.031 A 
HETATM    6  C4  UNL     1     -34.776  14.531  -5.256  1.00 20.00     0.048 A 
HETATM    7  C7  UNL     1     -34.975  13.255  -4.535  1.00 20.00     0.072 C 
HETATM    8  N9  UNL     1     -34.510  14.472  -6.610  1.00 20.00    -0.258 NA
HETATM    9  C2  UNL     1     -34.365  15.696  -7.068  1.00 20.00     0.167 A 
HETATM   10  S10 UNL     1     -34.534  16.964  -5.925  1.00 20.00    -0.081 SA
ENDBRANCH   3   5
TORSDOF 1
ENDMDL
MODEL 8
REMARK VINA RESULT:      -3.9     11.968     13.037
REMARK  1 active torsions:
REMARK  status: ('A' for Active; 'I' for Inactive)
REMARK    1  A    between atoms: C3_3  and  C6_6 
ROOT
HETATM    1  C1  UNL     1     -34.390  13.564  -4.531  1.00 20.00     0.087 C 
HETATM    2  C5  UNL     1     -33.924  14.843  -4.122  1.00 20.00     0.095 C 
HETATM    3  C6  UNL     1     -34.660  15.704  -3.337  1.00 20.00     0.032 C 
HETATM    4  N8  UNL     1     -34.767  12.519  -4.867  1.00 20.00    -0.192 NA
ENDROOT
BRANCH   3   5
HETATM    5  C3  UNL     1     -34.281  16.987  -2.894  1.00 20.00     0.031 A 
HETATM    6  C4  UNL     1     -34.293  17.535  -1.628  1.00 20.00     0.048 A 
HETATM    7  C7  UNL     1     -34.731  16.860  -0.387  1.00 20.00     0.072 C 
HETATM    8  N9  UNL     1     -33.849  18.839  -1.530  1.00 20.00    -0.258 NA
HETATM    9  C2  UNL     1     -33.507  19.263  -2.726  1.00 20.00     0.167 A 
HETATM   10  S10 UNL     1     -33.694  18.145  -4.015  1.00 20.00    -0.081 SA
ENDBRANCH   3   5
TORSDOF 1
ENDMDL
MODEL 9
REMARK VINA RESULT:      -3.7     10.838     11.578
REMARK  1 active torsions:
REMARK  status: ('A' for Active; 'I' for Inactive)
REMARK    1  A    between atoms: C3_3  and  C6_6 
ROOT
HETATM    1  C1  UNL     1     -42.027   1.629  -3.747  1.00 20.00     0.087 C 
HETATM    2  C5  UNL     1     -41.529   2.770  -3.060  1.00 20.00     0.095 C 
HETATM    3  C6  UNL     1     -42.306   3.861  -2.737  1.00 20.00     0.032 C 
HETATM    4  N8  UNL     1     -42.429   0.696  -4.307  1.00 20.00    -0.192 NA
ENDROOT
BRANCH   3   5
HETATM    5  C3  UNL     1     -41.895   5.032  -2.068  1.00 20.00     0.031 A 
HETATM    6  C4  UNL     1     -42.139   6.358  -2.357  1.00 20.00     0.048 A 
HETATM    7  C7  UNL     1     -42.929   6.874  -3.495  1.00 20.00     0.072 C 
HETATM    8  N9  UNL     1     -41.584   7.277  -1.488  1.00 20.00    -0.258 NA
HETATM    9  C2  UNL     1     -40.925   6.633  -0.551  1.00 20.00     0.167 A 
HETATM   10  S10 UNL     1     -40.930   4.920  -0.654  1.00 20.00    -0.081 SA
ENDBRANCH   3   5
TORSDOF 1
ENDMDL
