MODEL 1
REMARK VINA RESULT:      -3.9      0.000      0.000
REMARK  2 active torsions:
REMARK  status: ('A' for Active; 'I' for Inactive)
REMARK    1  A    between atoms: C6_6  and  C7_7 
REMARK    2  A    between atoms: C7_7  and  N8_8 
ROOT
HETATM    1  C1  UNL     1     -39.248  14.646  -4.181  1.00 20.00     0.157 C 
HETATM    2  N8  UNL     1     -38.169  14.356  -3.812  1.00 20.00    -0.274 NA
HETATM    3  S9  UNL     1     -40.714  15.016  -4.684  1.00 20.00    -0.055 SA
ENDROOT
BRANCH   2   4
HETATM    4  C7  UNL     1     -37.314  15.481  -3.451  1.00 20.00     0.165 C 
BRANCH   4   5
HETATM    5  C6  UNL     1     -35.896  15.192  -3.935  1.00 20.00     0.067 C 
HETATM    6  C4  UNL     1     -35.691  13.693  -4.162  1.00 20.00     0.017 C 
HETATM    7  C2  UNL     1     -34.299  13.351  -4.693  1.00 20.00     0.002 C 
HETATM    8  C3  UNL     1     -33.181  13.779  -3.748  1.00 20.00     0.010 C 
HETATM    9  C5  UNL     1     -33.169  15.277  -3.480  1.00 20.00     0.074 C 
HETATM   10  S10 UNL     1     -34.711  15.837  -2.704  1.00 20.00    -0.163 SA
ENDBRANCH   4   5
ENDBRANCH   2   4
TORSDOF 2
ENDMDL
MODEL 2
REMARK VINA RESULT:      -3.9     11.205     12.329
REMARK  2 active torsions:
REMARK  status: ('A' for Active; 'I' for Inactive)
REMARK    1  A    between atoms: C6_6  and  C7_7 
REMARK    2  A    between atoms: C7_7  and  N8_8 
ROOT
HETATM    1  C1  UNL     1     -32.246   8.314   1.862  1.00 20.00     0.157 C 
HETATM    2  N8  UNL     1     -32.198   7.256   2.376  1.00 20.00    -0.274 NA
HETATM    3  S9  UNL     1     -32.311   9.736   1.147  1.00 20.00    -0.055 SA
ENDROOT
BRANCH   2   4
HETATM    4  C7  UNL     1     -32.136   7.277   3.833  1.00 20.00     0.165 C 
BRANCH   4   5
HETATM    5  C6  UNL     1     -33.448   6.727   4.386  1.00 20.00     0.067 C 
HETATM    6  C4  UNL     1     -33.289   6.300   5.847  1.00 20.00     0.017 C 
HETATM    7  C2  UNL     1     -34.588   5.785   6.466  1.00 20.00     0.002 C 
HETATM    8  C3  UNL     1     -35.148   4.565   5.741  1.00 20.00     0.010 C 
HETATM    9  C5  UNL     1     -35.463   4.835   4.277  1.00 20.00     0.074 C 
HETATM   10  S10 UNL     1     -33.982   5.324   3.347  1.00 20.00    -0.163 SA
ENDBRANCH   4   5
ENDBRANCH   2   4
TORSDOF 2
ENDMDL
MODEL 3
REMARK VINA RESULT:      -3.9      2.971      5.054
REMARK  2 active torsions:
REMARK  status: ('A' for Active; 'I' for Inactive)
REMARK    1  A    between atoms: C6_6  and  C7_7 
REMARK    2  A    between atoms: C7_7  and  N8_8 
ROOT
HETATM    1  C1  UNL     1     -33.213  18.080  -0.434  1.00 20.00     0.157 C 
HETATM    2  N8  UNL     1     -33.955  17.276  -0.868  1.00 20.00    -0.274 NA
HETATM    3  S9  UNL     1     -32.214  19.163   0.173  1.00 20.00    -0.055 SA
ENDROOT
BRANCH   2   4
HETATM    4  C7  UNL     1     -33.998  17.193  -2.323  1.00 20.00     0.165 C 
BRANCH   4   5
HETATM    5  C6  UNL     1     -34.326  15.756  -2.721  1.00 20.00     0.067 C 
HETATM    6  C4  UNL     1     -33.157  15.117  -3.472  1.00 20.00     0.017 C 
HETATM    7  C2  UNL     1     -33.414  13.659  -3.854  1.00 20.00     0.002 C 
HETATM    8  C3  UNL     1     -34.627  13.489  -4.763  1.00 20.00     0.010 C 
HETATM    9  C5  UNL     1     -35.919  13.988  -4.131  1.00 20.00     0.074 C 
HETATM   10  S10 UNL     1     -35.839  15.760  -3.743  1.00 20.00    -0.163 SA
ENDBRANCH   4   5
ENDBRANCH   2   4
TORSDOF 2
ENDMDL
MODEL 4
REMARK VINA RESULT:      -3.9      2.893      4.438
REMARK  2 active torsions:
REMARK  status: ('A' for Active; 'I' for Inactive)
REMARK    1  A    between atoms: C6_6  and  C7_7 
REMARK    2  A    between atoms: C7_7  and  N8_8 
ROOT
HETATM    1  C1  UNL     1     -34.369  17.474  -0.172  1.00 20.00     0.157 C 
HETATM    2  N8  UNL     1     -33.673  17.290  -1.103  1.00 20.00    -0.274 NA
HETATM    3  S9  UNL     1     -35.294  17.723   1.101  1.00 20.00    -0.055 SA
ENDROOT
BRANCH   2   4
HETATM    4  C7  UNL     1     -34.362  17.204  -2.385  1.00 20.00     0.165 C 
BRANCH   4   5
HETATM    5  C6  UNL     1     -34.512  15.732  -2.762  1.00 20.00     0.067 C 
HETATM    6  C4  UNL     1     -33.233  15.203  -3.415  1.00 20.00     0.017 C 
HETATM    7  C2  UNL     1     -33.311  13.719  -3.771  1.00 20.00     0.002 C 
HETATM    8  C3  UNL     1     -34.435  13.402  -4.753  1.00 20.00     0.010 C 
HETATM    9  C5  UNL     1     -35.811  13.776  -4.223  1.00 20.00     0.074 C 
HETATM   10  S10 UNL     1     -35.942  15.554  -3.882  1.00 20.00    -0.163 SA
ENDBRANCH   4   5
ENDBRANCH   2   4
TORSDOF 2
ENDMDL
MODEL 5
REMARK VINA RESULT:      -3.9      1.445      1.963
REMARK  2 active torsions:
REMARK  status: ('A' for Active; 'I' for Inactive)
REMARK    1  A    between atoms: C6_6  and  C7_7 
REMARK    2  A    between atoms: C7_7  and  N8_8 
ROOT
HETATM    1  C1  UNL     1     -39.102  15.177  -3.387  1.00 20.00     0.157 C 
HETATM    2  N8  UNL     1     -38.343  14.360  -3.760  1.00 20.00    -0.274 NA
HETATM    3  S9  UNL     1     -40.141  16.269  -2.870  1.00 20.00    -0.055 SA
ENDROOT
BRANCH   2   4
HETATM    4  C7  UNL     1     -37.264  14.856  -4.607  1.00 20.00     0.165 C 
BRANCH   4   5
HETATM    5  C6  UNL     1     -35.940  14.669  -3.871  1.00 20.00     0.067 C 
HETATM    6  C4  UNL     1     -35.271  16.018  -3.598  1.00 20.00     0.017 C 
HETATM    7  C2  UNL     1     -33.962  15.892  -2.821  1.00 20.00     0.002 C 
HETATM    8  C3  UNL     1     -32.915  15.057  -3.551  1.00 20.00     0.010 C 
HETATM    9  C5  UNL     1     -33.375  13.633  -3.825  1.00 20.00     0.074 C 
HETATM   10  S10 UNL     1     -34.857  13.592  -4.873  1.00 20.00    -0.163 SA
ENDBRANCH   4   5
ENDBRANCH   2   4
TORSDOF 2
ENDMDL
MODEL 6
REMARK VINA RESULT:      -3.8      3.330      4.318
REMARK  2 active torsions:
REMARK  status: ('A' for Active; 'I' for Inactive)
REMARK    1  A    between atoms: C6_6  and  C7_7 
REMARK    2  A    between atoms: C7_7  and  N8_8 
ROOT
HETATM    1  C1  UNL     1     -34.758  16.777  -0.717  1.00 20.00     0.157 C 
HETATM    2  N8  UNL     1     -34.609  16.135  -1.692  1.00 20.00    -0.274 NA
HETATM    3  S9  UNL     1     -34.974  17.632   0.610  1.00 20.00    -0.055 SA
ENDROOT
BRANCH   2   4
HETATM    4  C7  UNL     1     -33.680  16.695  -2.667  1.00 20.00     0.165 C 
BRANCH   4   5
HETATM    5  C6  UNL     1     -33.651  15.785  -3.893  1.00 20.00     0.067 C 
HETATM    6  C4  UNL     1     -34.136  16.531  -5.138  1.00 20.00     0.017 C 
HETATM    7  C2  UNL     1     -34.084  15.679  -6.406  1.00 20.00     0.002 C 
HETATM    8  C3  UNL     1     -34.950  14.427  -6.315  1.00 20.00     0.010 C 
HETATM    9  C5  UNL     1     -34.543  13.503  -5.176  1.00 20.00     0.074 C 
HETATM   10  S10 UNL     1     -34.689  14.320  -3.561  1.00 20.00    -0.163 SA
ENDBRANCH   4   5
ENDBRANCH   2   4
TORSDOF 2
ENDMDL
MODEL 7
REMARK VINA RESULT:      -3.8      3.444      4.262
REMARK  2 active torsions:
REMARK  status: ('A' for Active; 'I' for Inactive)
REMARK    1  A    between atoms: C6_6  and  C7_7 
REMARK    2  A    between atoms: C7_7  and  N8_8 
ROOT
HETATM    1  C1  UNL     1     -34.769  17.031  -0.291  1.00 20.00     0.157 C 
HETATM    2  N8  UNL     1     -34.479  16.304  -1.169  1.00 20.00    -0.274 NA
HETATM    3  S9  UNL     1     -35.168  17.998   0.911  1.00 20.00    -0.055 SA
ENDROOT
BRANCH   2   4
HETATM    4  C7  UNL     1     -33.941  16.954  -2.360  1.00 20.00     0.165 C 
BRANCH   4   5
HETATM    5  C6  UNL     1     -34.553  16.295  -3.593  1.00 20.00     0.067 C 
HETATM    6  C4  UNL     1     -34.894  14.829  -3.318  1.00 20.00     0.017 C 
HETATM    7  C2  UNL     1     -35.554  14.133  -4.507  1.00 20.00     0.002 C 
HETATM    8  C3  UNL     1     -34.673  14.121  -5.752  1.00 20.00     0.010 C 
HETATM    9  C5  UNL     1     -34.308  15.517  -6.236  1.00 20.00     0.074 C 
HETATM   10  S10 UNL     1     -33.378  16.444  -4.983  1.00 20.00    -0.163 SA
ENDBRANCH   4   5
ENDBRANCH   2   4
TORSDOF 2
ENDMDL
MODEL 8
REMARK VINA RESULT:      -3.7     11.301     12.592
REMARK  2 active torsions:
REMARK  status: ('A' for Active; 'I' for Inactive)
REMARK    1  A    between atoms: C6_6  and  C7_7 
REMARK    2  A    between atoms: C7_7  and  N8_8 
ROOT
HETATM    1  C1  UNL     1     -41.843   1.196  -3.527  1.00 20.00     0.157 C 
HETATM    2  N8  UNL     1     -41.519   2.317  -3.377  1.00 20.00    -0.274 NA
HETATM    3  S9  UNL     1     -42.263  -0.325  -3.743  1.00 20.00    -0.055 SA
ENDROOT
BRANCH   2   4
HETATM    4  C7  UNL     1     -42.399   3.108  -2.523  1.00 20.00     0.165 C 
BRANCH   4   5
HETATM    5  C6  UNL     1     -41.762   4.476  -2.299  1.00 20.00     0.067 C 
HETATM    6  C4  UNL     1     -41.421   4.685  -0.822  1.00 20.00     0.017 C 
HETATM    7  C2  UNL     1     -40.736   6.023  -0.547  1.00 20.00     0.002 C 
HETATM    8  C3  UNL     1     -41.594   7.221  -0.942  1.00 20.00     0.010 C 
HETATM    9  C5  UNL     1     -41.954   7.233  -2.421  1.00 20.00     0.074 C 
HETATM   10  S10 UNL     1     -42.911   5.765  -2.894  1.00 20.00    -0.163 SA
ENDBRANCH   4   5
ENDBRANCH   2   4
TORSDOF 2
ENDMDL
MODEL 9
REMARK VINA RESULT:      -3.7      8.717     10.299
REMARK  2 active torsions:
REMARK  status: ('A' for Active; 'I' for Inactive)
REMARK    1  A    between atoms: C6_6  and  C7_7 
REMARK    2  A    between atoms: C7_7  and  N8_8 
ROOT
HETATM    1  C1  UNL     1     -42.247   8.999  -4.631  1.00 20.00     0.157 C 
HETATM    2  N8  UNL     1     -42.274   7.998  -4.014  1.00 20.00    -0.274 NA
HETATM    3  S9  UNL     1     -42.196  10.344  -5.483  1.00 20.00    -0.055 SA
ENDROOT
BRANCH   2   4
HETATM    4  C7  UNL     1     -43.098   8.034  -2.810  1.00 20.00     0.165 C 
BRANCH   4   5
HETATM    5  C6  UNL     1     -42.675   6.889  -1.894  1.00 20.00     0.067 C 
HETATM    6  C4  UNL     1     -41.253   7.104  -1.371  1.00 20.00     0.017 C 
HETATM    7  C2  UNL     1     -40.795   6.008  -0.410  1.00 20.00     0.002 C 
HETATM    8  C3  UNL     1     -40.791   4.622  -1.048  1.00 20.00     0.010 C 
HETATM    9  C5  UNL     1     -42.163   4.193  -1.546  1.00 20.00     0.074 C 
HETATM   10  S10 UNL     1     -42.802   5.319  -2.818  1.00 20.00    -0.163 SA
ENDBRANCH   4   5
ENDBRANCH   2   4
TORSDOF 2
ENDMDL
