MODEL 1
REMARK VINA RESULT:      -4.8      0.000      0.000
REMARK  2 active torsions:
REMARK  status: ('A' for Active; 'I' for Inactive)
REMARK    1  A    between atoms: C6_6  and  C7_7 
REMARK    2  A    between atoms: C7_7  and  N8_8 
ROOT
HETATM    1  C1  UNL     1     -32.072   8.067   2.255  1.00 20.00     0.157 C 
HETATM    2  N8  UNL     1     -31.956   7.280   3.123  1.00 20.00    -0.274 NA
HETATM    3  S9  UNL     1     -32.213   9.143   1.089  1.00 20.00    -0.055 SA
ENDROOT
BRANCH   2   4
HETATM    4  C7  UNL     1     -32.872   6.146   3.057  1.00 20.00     0.165 C 
BRANCH   4   5
HETATM    5  C6  UNL     1     -34.057   6.420   3.984  1.00 20.00     0.067 C 
HETATM    6  C4  UNL     1     -35.177   5.387   3.786  1.00 20.00     0.017 C 
HETATM    7  C2  UNL     1     -34.949   4.079   4.537  1.00 20.00     0.002 C 
HETATM    8  C3  UNL     1     -34.983   4.242   6.059  1.00 20.00     0.010 C 
HETATM    9  C5  UNL     1     -34.766   5.661   6.571  1.00 20.00     0.074 C 
HETATM   10  S10 UNL     1     -33.419   6.507   5.701  1.00 20.00    -0.163 SA
ENDBRANCH   4   5
ENDBRANCH   2   4
TORSDOF 2
ENDMDL
MODEL 2
REMARK VINA RESULT:      -4.0     11.298     12.122
REMARK  2 active torsions:
REMARK  status: ('A' for Active; 'I' for Inactive)
REMARK    1  A    between atoms: C6_6  and  C7_7 
REMARK    2  A    between atoms: C7_7  and  N8_8 
ROOT
HETATM    1  C1  UNL     1     -34.788  17.073  -0.130  1.00 20.00     0.157 C 
HETATM    2  N8  UNL     1     -34.745  16.372  -1.075  1.00 20.00    -0.274 NA
HETATM    3  S9  UNL     1     -34.863  18.009   1.156  1.00 20.00    -0.055 SA
ENDROOT
BRANCH   2   4
HETATM    4  C7  UNL     1     -33.754  16.746  -2.079  1.00 20.00     0.165 C 
BRANCH   4   5
HETATM    5  C6  UNL     1     -34.278  16.342  -3.457  1.00 20.00     0.067 C 
HETATM    6  C4  UNL     1     -33.307  15.388  -4.171  1.00 20.00     0.017 C 
HETATM    7  C2  UNL     1     -33.446  13.931  -3.740  1.00 20.00     0.002 C 
HETATM    8  C3  UNL     1     -34.789  13.311  -4.132  1.00 20.00     0.010 C 
HETATM    9  C5  UNL     1     -35.905  14.302  -4.439  1.00 20.00     0.074 C 
HETATM   10  S10 UNL     1     -35.966  15.660  -3.240  1.00 20.00    -0.163 SA
ENDBRANCH   4   5
ENDBRANCH   2   4
TORSDOF 2
ENDMDL
MODEL 3
REMARK VINA RESULT:      -3.9     11.239     12.417
REMARK  2 active torsions:
REMARK  status: ('A' for Active; 'I' for Inactive)
REMARK    1  A    between atoms: C6_6  and  C7_7 
REMARK    2  A    between atoms: C7_7  and  N8_8 
ROOT
HETATM    1  C1  UNL     1     -34.708  17.027  -0.418  1.00 20.00     0.157 C 
HETATM    2  N8  UNL     1     -34.326  16.478  -1.387  1.00 20.00    -0.274 NA
HETATM    3  S9  UNL     1     -35.205  17.763   0.904  1.00 20.00    -0.055 SA
ENDROOT
BRANCH   2   4
HETATM    4  C7  UNL     1     -35.259  16.483  -2.509  1.00 20.00     0.165 C 
BRANCH   4   5
HETATM    5  C6  UNL     1     -34.485  16.171  -3.790  1.00 20.00     0.067 C 
HETATM    6  C4  UNL     1     -33.433  15.075  -3.560  1.00 20.00     0.017 C 
HETATM    7  C2  UNL     1     -33.997  13.659  -3.609  1.00 20.00     0.002 C 
HETATM    8  C3  UNL     1     -34.517  13.263  -4.994  1.00 20.00     0.010 C 
HETATM    9  C5  UNL     1     -34.824  14.422  -5.934  1.00 20.00     0.074 C 
HETATM   10  S10 UNL     1     -35.703  15.770  -5.100  1.00 20.00    -0.163 SA
ENDBRANCH   4   5
ENDBRANCH   2   4
TORSDOF 2
ENDMDL
MODEL 4
REMARK VINA RESULT:      -3.7     12.134     13.171
REMARK  2 active torsions:
REMARK  status: ('A' for Active; 'I' for Inactive)
REMARK    1  A    between atoms: C6_6  and  C7_7 
REMARK    2  A    between atoms: C7_7  and  N8_8 
ROOT
HETATM    1  C1  UNL     1     -38.888  15.062  -3.453  1.00 20.00     0.157 C 
HETATM    2  N8  UNL     1     -38.025  14.336  -3.789  1.00 20.00    -0.274 NA
HETATM    3  S9  UNL     1     -40.064  16.028  -2.985  1.00 20.00    -0.055 SA
ENDROOT
BRANCH   2   4
HETATM    4  C7  UNL     1     -37.087  14.895  -4.758  1.00 20.00     0.165 C 
BRANCH   4   5
HETATM    5  C6  UNL     1     -35.676  14.433  -4.395  1.00 20.00     0.067 C 
HETATM    6  C4  UNL     1     -34.766  14.376  -5.633  1.00 20.00     0.017 C 
HETATM    7  C2  UNL     1     -34.176  15.726  -6.026  1.00 20.00     0.002 C 
HETATM    8  C3  UNL     1     -33.201  16.285  -4.987  1.00 20.00     0.010 C 
HETATM    9  C5  UNL     1     -33.324  15.694  -3.588  1.00 20.00     0.074 C 
HETATM   10  S10 UNL     1     -35.050  15.527  -3.062  1.00 20.00    -0.163 SA
ENDBRANCH   4   5
ENDBRANCH   2   4
TORSDOF 2
ENDMDL
MODEL 5
REMARK VINA RESULT:      -3.6     11.539     12.612
REMARK  2 active torsions:
REMARK  status: ('A' for Active; 'I' for Inactive)
REMARK    1  A    between atoms: C6_6  and  C7_7 
REMARK    2  A    between atoms: C7_7  and  N8_8 
ROOT
HETATM    1  C1  UNL     1     -34.028  16.475  -2.292  1.00 20.00     0.157 C 
HETATM    2  N8  UNL     1     -33.658  16.174  -3.368  1.00 20.00    -0.274 NA
HETATM    3  S9  UNL     1     -34.531  16.904  -0.843  1.00 20.00    -0.055 SA
ENDROOT
BRANCH   2   4
HETATM    4  C7  UNL     1     -33.316  14.765  -3.533  1.00 20.00     0.165 C 
BRANCH   4   5
HETATM    5  C6  UNL     1     -34.080  14.215  -4.737  1.00 20.00     0.067 C 
HETATM    6  C4  UNL     1     -35.365  13.491  -4.306  1.00 20.00     0.017 C 
HETATM    7  C2  UNL     1     -36.541  14.427  -4.044  1.00 20.00     0.002 C 
HETATM    8  C3  UNL     1     -37.033  15.146  -5.302  1.00 20.00     0.010 C 
HETATM    9  C5  UNL     1     -36.041  15.197  -6.458  1.00 20.00     0.074 C 
HETATM   10  S10 UNL     1     -34.362  15.599  -5.906  1.00 20.00    -0.163 SA
ENDBRANCH   4   5
ENDBRANCH   2   4
TORSDOF 2
ENDMDL
MODEL 6
REMARK VINA RESULT:      -3.6     12.176     12.956
REMARK  2 active torsions:
REMARK  status: ('A' for Active; 'I' for Inactive)
REMARK    1  A    between atoms: C6_6  and  C7_7 
REMARK    2  A    between atoms: C7_7  and  N8_8 
ROOT
HETATM    1  C1  UNL     1     -34.394  14.082  -5.191  1.00 20.00     0.157 C 
HETATM    2  N8  UNL     1     -33.795  13.898  -4.195  1.00 20.00    -0.274 NA
HETATM    3  S9  UNL     1     -35.209  14.309  -6.541  1.00 20.00    -0.055 SA
ENDROOT
BRANCH   2   4
HETATM    4  C7  UNL     1     -33.214  15.093  -3.592  1.00 20.00     0.165 C 
BRANCH   4   5
HETATM    5  C6  UNL     1     -34.327  16.116  -3.365  1.00 20.00     0.067 C 
HETATM    6  C4  UNL     1     -34.645  16.281  -1.870  1.00 20.00     0.017 C 
HETATM    7  C2  UNL     1     -33.692  17.220  -1.137  1.00 20.00     0.002 C 
HETATM    8  C3  UNL     1     -33.794  18.673  -1.608  1.00 20.00     0.010 C 
HETATM    9  C5  UNL     1     -34.433  18.875  -2.977  1.00 20.00     0.074 C 
HETATM   10  S10 UNL     1     -33.836  17.675  -4.197  1.00 20.00    -0.163 SA
ENDBRANCH   4   5
ENDBRANCH   2   4
TORSDOF 2
ENDMDL
MODEL 7
REMARK VINA RESULT:      -3.6     11.451     12.643
REMARK  2 active torsions:
REMARK  status: ('A' for Active; 'I' for Inactive)
REMARK    1  A    between atoms: C6_6  and  C7_7 
REMARK    2  A    between atoms: C7_7  and  N8_8 
ROOT
HETATM    1  C1  UNL     1     -35.342  16.983  -1.556  1.00 20.00     0.157 C 
HETATM    2  N8  UNL     1     -35.914  16.622  -2.520  1.00 20.00    -0.274 NA
HETATM    3  S9  UNL     1     -34.581  17.456  -0.239  1.00 20.00    -0.055 SA
ENDROOT
BRANCH   2   4
HETATM    4  C7  UNL     1     -35.497  17.264  -3.762  1.00 20.00     0.165 C 
BRANCH   4   5
HETATM    5  C6  UNL     1     -35.048  16.182  -4.745  1.00 20.00     0.067 C 
HETATM    6  C4  UNL     1     -33.516  16.073  -4.802  1.00 20.00     0.017 C 
HETATM    7  C2  UNL     1     -32.916  15.237  -3.676  1.00 20.00     0.002 C 
HETATM    8  C3  UNL     1     -33.306  13.758  -3.747  1.00 20.00     0.010 C 
HETATM    9  C5  UNL     1     -34.541  13.445  -4.584  1.00 20.00     0.074 C 
HETATM   10  S10 UNL     1     -35.889  14.619  -4.284  1.00 20.00    -0.163 SA
ENDBRANCH   4   5
ENDBRANCH   2   4
TORSDOF 2
ENDMDL
MODEL 8
REMARK VINA RESULT:      -3.5     11.903     13.017
REMARK  2 active torsions:
REMARK  status: ('A' for Active; 'I' for Inactive)
REMARK    1  A    between atoms: C6_6  and  C7_7 
REMARK    2  A    between atoms: C7_7  and  N8_8 
ROOT
HETATM    1  C1  UNL     1     -34.186  17.127  -0.847  1.00 20.00     0.157 C 
HETATM    2  N8  UNL     1     -34.662  16.217  -1.421  1.00 20.00    -0.274 NA
HETATM    3  S9  UNL     1     -33.557  18.356  -0.053  1.00 20.00    -0.055 SA
ENDROOT
BRANCH   2   4
HETATM    4  C7  UNL     1     -34.007  15.867  -2.677  1.00 20.00     0.165 C 
BRANCH   4   5
HETATM    5  C6  UNL     1     -35.081  15.520  -3.709  1.00 20.00     0.067 C 
HETATM    6  C4  UNL     1     -35.164  16.584  -4.815  1.00 20.00     0.017 C 
HETATM    7  C2  UNL     1     -34.118  16.415  -5.912  1.00 20.00     0.002 C 
HETATM    8  C3  UNL     1     -34.307  15.138  -6.736  1.00 20.00     0.010 C 
HETATM    9  C5  UNL     1     -35.153  14.054  -6.079  1.00 20.00     0.074 C 
HETATM   10  S10 UNL     1     -34.741  13.828  -4.328  1.00 20.00    -0.163 SA
ENDBRANCH   4   5
ENDBRANCH   2   4
TORSDOF 2
ENDMDL
MODEL 9
REMARK VINA RESULT:      -3.5      9.936     10.986
REMARK  2 active torsions:
REMARK  status: ('A' for Active; 'I' for Inactive)
REMARK    1  A    between atoms: C6_6  and  C7_7 
REMARK    2  A    between atoms: C7_7  and  N8_8 
ROOT
HETATM    1  C1  UNL     1     -41.913   2.796  -3.099  1.00 20.00     0.157 C 
HETATM    2  N8  UNL     1     -42.128   3.800  -2.522  1.00 20.00    -0.274 NA
HETATM    3  S9  UNL     1     -41.611   1.450  -3.894  1.00 20.00    -0.055 SA
ENDROOT
BRANCH   2   4
HETATM    4  C7  UNL     1     -42.954   3.663  -1.327  1.00 20.00     0.165 C 
BRANCH   4   5
HETATM    5  C6  UNL     1     -43.232   5.056  -0.763  1.00 20.00     0.067 C 
HETATM    6  C4  UNL     1     -42.254   5.411   0.368  1.00 20.00     0.017 C 
HETATM    7  C2  UNL     1     -40.906   5.928  -0.123  1.00 20.00     0.002 C 
HETATM    8  C3  UNL     1     -41.001   7.275  -0.845  1.00 20.00     0.010 C 
HETATM    9  C5  UNL     1     -42.386   7.644  -1.364  1.00 20.00     0.074 C 
HETATM   10  S10 UNL     1     -43.217   6.244  -2.160  1.00 20.00    -0.163 SA
ENDBRANCH   4   5
ENDBRANCH   2   4
TORSDOF 2
ENDMDL
