MODEL 1
REMARK VINA RESULT:      -4.8      0.000      0.000
REMARK  2 active torsions:
REMARK  status: ('A' for Active; 'I' for Inactive)
REMARK    1  A    between atoms: C1_1  and  C7_7 
REMARK    2  A    between atoms: C3_3  and  C7_7 
ROOT
HETATM    1  C2  UNL     1     -35.791   5.397   4.258  1.00 20.00     0.015 A 
HETATM    2  C3  UNL     1     -34.364   5.510   3.792  1.00 20.00     0.004 A 
HETATM    3  C4  UNL     1     -34.663   5.116   5.229  1.00 20.00    -0.043 A 
HETATM    4  C5  UNL     1     -34.408   3.682   5.615  1.00 20.00     0.015 C 
HETATM    5  C6  UNL     1     -34.430   6.099   6.346  1.00 20.00     0.015 C 
ENDROOT
BRANCH   2   6
HETATM    6  C7  UNL     1     -33.795   6.837   3.423  1.00 20.00     0.118 C 
BRANCH   6   7
HETATM    7  C1  UNL     1     -32.307   6.853   3.019  1.00 20.00     0.172 C 
HETATM    8  O8  UNL     1     -31.864   7.957   2.601  1.00 20.00    -0.648 OA
HETATM    9  O9  UNL     1     -31.705   5.748   3.157  1.00 20.00    -0.648 OA
ENDBRANCH   6   7
ENDBRANCH   2   6
TORSDOF 2
ENDMDL
MODEL 2
REMARK VINA RESULT:      -4.6      2.433      4.152
REMARK  2 active torsions:
REMARK  status: ('A' for Active; 'I' for Inactive)
REMARK    1  A    between atoms: C1_1  and  C7_7 
REMARK    2  A    between atoms: C3_3  and  C7_7 
ROOT
HETATM    1  C2  UNL     1     -32.234   5.821   2.925  1.00 20.00     0.015 A 
HETATM    2  C3  UNL     1     -33.397   6.566   3.523  1.00 20.00     0.004 A 
HETATM    3  C4  UNL     1     -32.124   7.312   3.161  1.00 20.00    -0.043 A 
HETATM    4  C5  UNL     1     -32.179   8.220   1.959  1.00 20.00     0.015 C 
HETATM    5  C6  UNL     1     -31.193   7.791   4.244  1.00 20.00     0.015 C 
ENDROOT
BRANCH   2   6
HETATM    6  C7  UNL     1     -33.808   6.313   4.933  1.00 20.00     0.118 C 
BRANCH   6   7
HETATM    7  C1  UNL     1     -34.759   5.120   5.163  1.00 20.00     0.172 C 
HETATM    8  O8  UNL     1     -34.513   4.411   6.176  1.00 20.00    -0.648 OA
HETATM    9  O9  UNL     1     -35.678   4.997   4.302  1.00 20.00    -0.648 OA
ENDBRANCH   6   7
ENDBRANCH   2   6
TORSDOF 2
ENDMDL
MODEL 3
REMARK VINA RESULT:      -4.3     11.571     12.370
REMARK  2 active torsions:
REMARK  status: ('A' for Active; 'I' for Inactive)
REMARK    1  A    between atoms: C1_1  and  C7_7 
REMARK    2  A    between atoms: C3_3  and  C7_7 
ROOT
HETATM    1  C2  UNL     1     -35.746  15.738  -2.971  1.00 20.00     0.015 A 
HETATM    2  C3  UNL     1     -34.480  14.945  -2.781  1.00 20.00     0.004 A 
HETATM    3  C4  UNL     1     -34.544  16.393  -2.324  1.00 20.00    -0.043 A 
HETATM    4  C5  UNL     1     -34.593  16.643  -0.839  1.00 20.00     0.015 C 
HETATM    5  C6  UNL     1     -33.820  17.463  -3.099  1.00 20.00     0.015 C 
ENDROOT
BRANCH   2   6
HETATM    6  C7  UNL     1     -33.681  14.508  -3.961  1.00 20.00     0.118 C 
BRANCH   6   7
HETATM    7  C1  UNL     1     -34.445  13.726  -5.049  1.00 20.00     0.172 C 
HETATM    8  O8  UNL     1     -34.564  14.309  -6.161  1.00 20.00    -0.648 OA
HETATM    9  O9  UNL     1     -34.862  12.585  -4.693  1.00 20.00    -0.648 OA
ENDBRANCH   6   7
ENDBRANCH   2   6
TORSDOF 2
ENDMDL
MODEL 4
REMARK VINA RESULT:      -4.3     11.164     12.115
REMARK  2 active torsions:
REMARK  status: ('A' for Active; 'I' for Inactive)
REMARK    1  A    between atoms: C1_1  and  C7_7 
REMARK    2  A    between atoms: C3_3  and  C7_7 
ROOT
HETATM    1  C2  UNL     1     -35.968  16.497  -2.686  1.00 20.00     0.015 A 
HETATM    2  C3  UNL     1     -34.927  15.411  -2.611  1.00 20.00     0.004 A 
HETATM    3  C4  UNL     1     -34.659  16.765  -1.973  1.00 20.00    -0.043 A 
HETATM    4  C5  UNL     1     -34.678  16.830  -0.468  1.00 20.00     0.015 C 
HETATM    5  C6  UNL     1     -33.688  17.722  -2.613  1.00 20.00     0.015 C 
ENDROOT
BRANCH   2   6
HETATM    6  C7  UNL     1     -34.230  14.951  -3.845  1.00 20.00     0.118 C 
BRANCH   6   7
HETATM    7  C1  UNL     1     -34.008  13.430  -3.975  1.00 20.00     0.172 C 
HETATM    8  O8  UNL     1     -32.844  13.021  -3.712  1.00 20.00    -0.648 OA
HETATM    9  O9  UNL     1     -35.028  12.771  -4.331  1.00 20.00    -0.648 OA
ENDBRANCH   6   7
ENDBRANCH   2   6
TORSDOF 2
ENDMDL
MODEL 5
REMARK VINA RESULT:      -4.0     11.360     12.193
REMARK  2 active torsions:
REMARK  status: ('A' for Active; 'I' for Inactive)
REMARK    1  A    between atoms: C1_1  and  C7_7 
REMARK    2  A    between atoms: C3_3  and  C7_7 
ROOT
HETATM    1  C2  UNL     1     -35.573  17.347  -2.067  1.00 20.00     0.015 A 
HETATM    2  C3  UNL     1     -34.843  16.053  -1.828  1.00 20.00     0.004 A 
HETATM    3  C4  UNL     1     -34.525  17.272  -0.977  1.00 20.00    -0.043 A 
HETATM    4  C5  UNL     1     -34.997  17.252   0.453  1.00 20.00     0.015 C 
HETATM    5  C6  UNL     1     -33.235  18.021  -1.184  1.00 20.00     0.015 C 
ENDROOT
BRANCH   2   6
HETATM    6  C7  UNL     1     -33.902  15.519  -2.853  1.00 20.00     0.118 C 
BRANCH   6   7
HETATM    7  C1  UNL     1     -34.303  14.185  -3.516  1.00 20.00     0.172 C 
HETATM    8  O8  UNL     1     -35.520  14.071  -3.826  1.00 20.00    -0.648 OA
HETATM    9  O9  UNL     1     -33.354  13.361  -3.672  1.00 20.00    -0.648 OA
ENDBRANCH   6   7
ENDBRANCH   2   6
TORSDOF 2
ENDMDL
MODEL 6
REMARK VINA RESULT:      -3.9     11.140     12.727
REMARK  2 active torsions:
REMARK  status: ('A' for Active; 'I' for Inactive)
REMARK    1  A    between atoms: C1_1  and  C7_7 
REMARK    2  A    between atoms: C3_3  and  C7_7 
ROOT
HETATM    1  C2  UNL     1     -33.255  16.328  -4.354  1.00 20.00     0.015 A 
HETATM    2  C3  UNL     1     -34.624  15.775  -4.062  1.00 20.00     0.004 A 
HETATM    3  C4  UNL     1     -34.132  17.010  -3.325  1.00 20.00    -0.043 A 
HETATM    4  C5  UNL     1     -34.761  18.327  -3.698  1.00 20.00     0.015 C 
HETATM    5  C6  UNL     1     -33.728  16.915  -1.877  1.00 20.00     0.015 C 
ENDROOT
BRANCH   2   6
HETATM    6  C7  UNL     1     -34.774  14.449  -3.399  1.00 20.00     0.118 C 
BRANCH   6   7
HETATM    7  C1  UNL     1     -34.076  13.259  -4.089  1.00 20.00     0.172 C 
HETATM    8  O8  UNL     1     -34.761  12.650  -4.956  1.00 20.00    -0.648 OA
HETATM    9  O9  UNL     1     -32.893  13.036  -3.700  1.00 20.00    -0.648 OA
ENDBRANCH   6   7
ENDBRANCH   2   6
TORSDOF 2
ENDMDL
MODEL 7
REMARK VINA RESULT:      -3.9     11.774     12.824
REMARK  2 active torsions:
REMARK  status: ('A' for Active; 'I' for Inactive)
REMARK    1  A    between atoms: C1_1  and  C7_7 
REMARK    2  A    between atoms: C3_3  and  C7_7 
ROOT
HETATM    1  C2  UNL     1     -33.760  17.039  -4.624  1.00 20.00     0.015 A 
HETATM    2  C3  UNL     1     -34.871  16.106  -4.218  1.00 20.00     0.004 A 
HETATM    3  C4  UNL     1     -33.583  16.149  -3.412  1.00 20.00    -0.043 A 
HETATM    4  C5  UNL     1     -33.646  16.792  -2.051  1.00 20.00     0.015 C 
HETATM    5  C6  UNL     1     -32.595  15.015  -3.505  1.00 20.00     0.015 C 
ENDROOT
BRANCH   2   6
HETATM    6  C7  UNL     1     -35.240  14.953  -5.085  1.00 20.00     0.118 C 
BRANCH   6   7
HETATM    7  C1  UNL     1     -35.873  13.739  -4.374  1.00 20.00     0.172 C 
HETATM    8  O8  UNL     1     -37.026  13.924  -3.897  1.00 20.00    -0.648 OA
HETATM    9  O9  UNL     1     -35.155  12.698  -4.354  1.00 20.00    -0.648 OA
ENDBRANCH   6   7
ENDBRANCH   2   6
TORSDOF 2
ENDMDL
MODEL 8
REMARK VINA RESULT:      -3.9     11.901     13.647
REMARK  2 active torsions:
REMARK  status: ('A' for Active; 'I' for Inactive)
REMARK    1  A    between atoms: C1_1  and  C7_7 
REMARK    2  A    between atoms: C3_3  and  C7_7 
ROOT
HETATM    1  C2  UNL     1     -34.387  15.199  -6.605  1.00 20.00     0.015 A 
HETATM    2  C3  UNL     1     -35.309  15.426  -5.436  1.00 20.00     0.004 A 
HETATM    3  C4  UNL     1     -34.551  16.595  -6.042  1.00 20.00    -0.043 A 
HETATM    4  C5  UNL     1     -35.349  17.589  -6.846  1.00 20.00     0.015 C 
HETATM    5  C6  UNL     1     -33.385  17.203  -5.306  1.00 20.00     0.015 C 
ENDROOT
BRANCH   2   6
HETATM    6  C7  UNL     1     -34.981  14.861  -4.097  1.00 20.00     0.118 C 
BRANCH   6   7
HETATM    7  C1  UNL     1     -34.355  13.451  -4.087  1.00 20.00     0.172 C 
HETATM    8  O8  UNL     1     -33.149  13.389  -3.722  1.00 20.00    -0.648 OA
HETATM    9  O9  UNL     1     -35.132  12.519  -4.448  1.00 20.00    -0.648 OA
ENDBRANCH   6   7
ENDBRANCH   2   6
TORSDOF 2
ENDMDL
MODEL 9
REMARK VINA RESULT:      -3.8     11.631     12.373
REMARK  2 active torsions:
REMARK  status: ('A' for Active; 'I' for Inactive)
REMARK    1  A    between atoms: C1_1  and  C7_7 
REMARK    2  A    between atoms: C3_3  and  C7_7 
ROOT
HETATM    1  C2  UNL     1     -33.888  16.206  -3.968  1.00 20.00     0.015 A 
HETATM    2  C3  UNL     1     -33.972  15.809  -2.518  1.00 20.00     0.004 A 
HETATM    3  C4  UNL     1     -34.382  14.823  -3.599  1.00 20.00    -0.043 A 
HETATM    4  C5  UNL     1     -33.461  13.657  -3.850  1.00 20.00     0.015 C 
HETATM    5  C6  UNL     1     -35.838  14.509  -3.823  1.00 20.00     0.015 C 
ENDROOT
BRANCH   2   6
HETATM    6  C7  UNL     1     -34.957  16.467  -1.614  1.00 20.00     0.118 C 
BRANCH   6   7
HETATM    7  C1  UNL     1     -34.370  17.241  -0.415  1.00 20.00     0.172 C 
HETATM    8  O8  UNL     1     -35.065  17.228   0.638  1.00 20.00    -0.648 OA
HETATM    9  O9  UNL     1     -33.255  17.798  -0.634  1.00 20.00    -0.648 OA
ENDBRANCH   6   7
ENDBRANCH   2   6
TORSDOF 2
ENDMDL
