MODEL 1
REMARK VINA RESULT:      -5.3      0.000      0.000
REMARK  2 active torsions:
REMARK  status: ('A' for Active; 'I' for Inactive)
REMARK    1  A    between atoms: C5_5  and  C7_7 
REMARK    2  A    between atoms: C6_6  and  C8_8 
ROOT
HETATM    1  C1  UNL     1     -34.555   5.252   2.521  1.00 20.00     0.001 C 
HETATM    2  C2  UNL     1     -33.636   6.453   2.309  1.00 20.00     0.005 C 
HETATM    3  C3  UNL     1     -35.092   5.200   3.949  1.00 20.00     0.013 C 
HETATM    4  C4  UNL     1     -33.040   6.429   4.765  1.00 20.00     0.019 C 
HETATM    5  C5  UNL     1     -32.494   6.479   3.331  1.00 20.00    -0.000 C 
HETATM    6  C6  UNL     1     -33.959   5.217   4.981  1.00 20.00     0.094 C 
ENDROOT
BRANCH   6   7
HETATM    7  C8  UNL     1     -34.522   5.214   6.401  1.00 20.00     0.391 C 
HETATM    8  F9  UNL     1     -35.753   4.680   6.408  1.00 20.00    -0.171 F 
HETATM    9  F10 UNL     1     -33.730   4.491   7.207  1.00 20.00    -0.171 F 
HETATM   10  F11 UNL     1     -34.590   6.469   6.872  1.00 20.00    -0.171 F 
ENDBRANCH   6   7
BRANCH   5  11
HETATM   11  C7  UNL     1     -31.619   7.714   3.131  1.00 20.00     0.119 C 
HETATM   12 CL12 UNL     1     -32.109   8.576   1.662  1.00 20.00    -0.130 Cl
ENDBRANCH   5  11
TORSDOF 2
ENDMDL
MODEL 2
REMARK VINA RESULT:      -5.0     11.731     13.067
REMARK  2 active torsions:
REMARK  status: ('A' for Active; 'I' for Inactive)
REMARK    1  A    between atoms: C5_5  and  C7_7 
REMARK    2  A    between atoms: C6_6  and  C8_8 
ROOT
HETATM    1  C1  UNL     1     -33.515  17.644  -5.083  1.00 20.00     0.001 C 
HETATM    2  C2  UNL     1     -34.155  18.268  -3.845  1.00 20.00     0.005 C 
HETATM    3  C3  UNL     1     -33.776  16.142  -5.154  1.00 20.00     0.013 C 
HETATM    4  C4  UNL     1     -33.968  16.057  -2.635  1.00 20.00     0.019 C 
HETATM    5  C5  UNL     1     -33.701  17.567  -2.559  1.00 20.00    -0.000 C 
HETATM    6  C6  UNL     1     -33.319  15.427  -3.876  1.00 20.00     0.094 C 
ENDROOT
BRANCH   6   7
HETATM    7  C8  UNL     1     -33.634  13.934  -3.951  1.00 20.00     0.391 C 
HETATM    8  F9  UNL     1     -33.979  13.598  -5.202  1.00 20.00    -0.171 F 
HETATM    9  F10 UNL     1     -32.557  13.220  -3.590  1.00 20.00    -0.171 F 
HETATM   10  F11 UNL     1     -34.649  13.637  -3.125  1.00 20.00    -0.171 F 
ENDBRANCH   6   7
BRANCH   5  11
HETATM   11  C7  UNL     1     -34.392  18.175  -1.341  1.00 20.00     0.119 C 
HETATM   12 CL12 UNL     1     -34.798  16.905  -0.174  1.00 20.00    -0.130 Cl
ENDBRANCH   5  11
TORSDOF 2
ENDMDL
MODEL 3
REMARK VINA RESULT:      -5.0     11.696     13.056
REMARK  2 active torsions:
REMARK  status: ('A' for Active; 'I' for Inactive)
REMARK    1  A    between atoms: C5_5  and  C7_7 
REMARK    2  A    between atoms: C6_6  and  C8_8 
ROOT
HETATM    1  C1  UNL     1     -33.552  17.601  -5.082  1.00 20.00     0.001 C 
HETATM    2  C2  UNL     1     -34.163  18.227  -3.830  1.00 20.00     0.005 C 
HETATM    3  C3  UNL     1     -33.813  16.099  -5.144  1.00 20.00     0.013 C 
HETATM    4  C4  UNL     1     -33.945  16.018  -2.622  1.00 20.00     0.019 C 
HETATM    5  C5  UNL     1     -33.678  17.528  -2.554  1.00 20.00    -0.000 C 
HETATM    6  C6  UNL     1     -33.325  15.387  -3.877  1.00 20.00     0.094 C 
ENDROOT
BRANCH   6   7
HETATM    7  C8  UNL     1     -33.642  13.893  -3.942  1.00 20.00     0.391 C 
HETATM    8  F9  UNL     1     -32.578  13.179  -3.543  1.00 20.00    -0.171 F 
HETATM    9  F10 UNL     1     -34.681  13.610  -3.142  1.00 20.00    -0.171 F 
HETATM   10  F11 UNL     1     -33.953  13.544  -5.199  1.00 20.00    -0.171 F 
ENDBRANCH   6   7
BRANCH   5  11
HETATM   11  C7  UNL     1     -34.341  18.138  -1.320  1.00 20.00     0.119 C 
HETATM   12 CL12 UNL     1     -34.775  16.862  -0.170  1.00 20.00    -0.130 Cl
ENDBRANCH   5  11
TORSDOF 2
ENDMDL
MODEL 4
REMARK VINA RESULT:      -4.8      9.851     11.218
REMARK  2 active torsions:
REMARK  status: ('A' for Active; 'I' for Inactive)
REMARK    1  A    between atoms: C5_5  and  C7_7 
REMARK    2  A    between atoms: C6_6  and  C8_8 
ROOT
HETATM    1  C1  UNL     1     -40.756   5.778  -0.375  1.00 20.00     0.001 C 
HETATM    2  C2  UNL     1     -41.216   7.027  -1.123  1.00 20.00     0.005 C 
HETATM    3  C3  UNL     1     -40.800   4.540  -1.266  1.00 20.00     0.013 C 
HETATM    4  C4  UNL     1     -42.644   5.592  -2.636  1.00 20.00     0.019 C 
HETATM    5  C5  UNL     1     -42.607   6.837  -1.739  1.00 20.00    -0.000 C 
HETATM    6  C6  UNL     1     -42.189   4.335  -1.882  1.00 20.00     0.094 C 
ENDROOT
BRANCH   6   7
HETATM    7  C8  UNL     1     -42.194   3.119  -2.808  1.00 20.00     0.391 C 
HETATM    8  F9  UNL     1     -40.937   2.784  -3.135  1.00 20.00    -0.171 F 
HETATM    9  F10 UNL     1     -42.776   2.078  -2.193  1.00 20.00    -0.171 F 
HETATM   10  F11 UNL     1     -42.876   3.398  -3.929  1.00 20.00    -0.171 F 
ENDBRANCH   6   7
BRANCH   5  11
HETATM   11  C7  UNL     1     -43.024   8.079  -2.524  1.00 20.00     0.119 C 
HETATM   12 CL12 UNL     1     -42.353   8.017  -4.163  1.00 20.00    -0.130 Cl
ENDBRANCH   5  11
TORSDOF 2
ENDMDL
MODEL 5
REMARK VINA RESULT:      -4.6     11.940     13.177
REMARK  2 active torsions:
REMARK  status: ('A' for Active; 'I' for Inactive)
REMARK    1  A    between atoms: C5_5  and  C7_7 
REMARK    2  A    between atoms: C6_6  and  C8_8 
ROOT
HETATM    1  C1  UNL     1     -34.048  13.677  -4.291  1.00 20.00     0.001 C 
HETATM    2  C2  UNL     1     -34.476  14.387  -5.573  1.00 20.00     0.005 C 
HETATM    3  C3  UNL     1     -34.398  14.496  -3.051  1.00 20.00     0.013 C 
HETATM    4  C4  UNL     1     -34.243  16.620  -4.412  1.00 20.00     0.019 C 
HETATM    5  C5  UNL     1     -33.887  15.801  -5.660  1.00 20.00    -0.000 C 
HETATM    6  C6  UNL     1     -33.808  15.910  -3.122  1.00 20.00     0.094 C 
ENDROOT
BRANCH   6   7
HETATM    7  C8  UNL     1     -34.211  16.725  -1.894  1.00 20.00     0.391 C 
HETATM    8  F9  UNL     1     -34.771  15.926  -0.974  1.00 20.00    -0.171 F 
HETATM    9  F10 UNL     1     -33.131  17.313  -1.359  1.00 20.00    -0.171 F 
HETATM   10  F11 UNL     1     -35.095  17.673  -2.242  1.00 20.00    -0.171 F 
ENDBRANCH   6   7
BRANCH   5  11
HETATM   11  C7  UNL     1     -34.368  16.509  -6.924  1.00 20.00     0.119 C 
HETATM   12 CL12 UNL     1     -35.326  15.397  -7.918  1.00 20.00    -0.130 Cl
ENDBRANCH   5  11
TORSDOF 2
ENDMDL
MODEL 6
REMARK VINA RESULT:      -4.6     12.357     13.553
REMARK  2 active torsions:
REMARK  status: ('A' for Active; 'I' for Inactive)
REMARK    1  A    between atoms: C5_5  and  C7_7 
REMARK    2  A    between atoms: C6_6  and  C8_8 
ROOT
HETATM    1  C1  UNL     1     -34.746  15.458  -7.262  1.00 20.00     0.001 C 
HETATM    2  C2  UNL     1     -34.706  16.925  -6.838  1.00 20.00     0.005 C 
HETATM    3  C3  UNL     1     -34.905  14.530  -6.061  1.00 20.00     0.013 C 
HETATM    4  C4  UNL     1     -33.781  16.246  -4.586  1.00 20.00     0.019 C 
HETATM    5  C5  UNL     1     -33.614  17.181  -5.792  1.00 20.00    -0.000 C 
HETATM    6  C6  UNL     1     -33.815  14.771  -5.011  1.00 20.00     0.094 C 
ENDROOT
BRANCH   6   7
HETATM    7  C8  UNL     1     -34.023  13.865  -3.798  1.00 20.00     0.391 C 
HETATM    8  F9  UNL     1     -34.360  14.599  -2.727  1.00 20.00    -0.171 F 
HETATM    9  F10 UNL     1     -35.004  12.984  -4.048  1.00 20.00    -0.171 F 
HETATM   10  F11 UNL     1     -32.894  13.192  -3.527  1.00 20.00    -0.171 F 
ENDBRANCH   6   7
BRANCH   5  11
HETATM   11  C7  UNL     1     -33.627  18.642  -5.346  1.00 20.00     0.119 C 
HETATM   12 CL12 UNL     1     -33.723  18.739  -3.580  1.00 20.00    -0.130 Cl
ENDBRANCH   5  11
TORSDOF 2
ENDMDL
MODEL 7
REMARK VINA RESULT:      -4.5     11.665     13.013
REMARK  2 active torsions:
REMARK  status: ('A' for Active; 'I' for Inactive)
REMARK    1  A    between atoms: C5_5  and  C7_7 
REMARK    2  A    between atoms: C6_6  and  C8_8 
ROOT
HETATM    1  C1  UNL     1     -33.755  17.839  -4.369  1.00 20.00     0.001 C 
HETATM    2  C2  UNL     1     -33.300  16.399  -4.597  1.00 20.00     0.005 C 
HETATM    3  C3  UNL     1     -33.727  18.210  -2.889  1.00 20.00     0.013 C 
HETATM    4  C4  UNL     1     -34.088  15.785  -2.275  1.00 20.00     0.019 C 
HETATM    5  C5  UNL     1     -34.121  15.408  -3.763  1.00 20.00    -0.000 C 
HETATM    6  C6  UNL     1     -34.551  17.230  -2.044  1.00 20.00     0.094 C 
ENDROOT
BRANCH   6   7
HETATM    7  C8  UNL     1     -34.468  17.593  -0.562  1.00 20.00     0.391 C 
HETATM    8  F9  UNL     1     -33.193  17.822  -0.215  1.00 20.00    -0.171 F 
HETATM    9  F10 UNL     1     -35.190  18.698  -0.320  1.00 20.00    -0.171 F 
HETATM   10  F11 UNL     1     -34.948  16.587   0.185  1.00 20.00    -0.171 F 
ENDBRANCH   6   7
BRANCH   5  11
HETATM   11  C7  UNL     1     -33.615  13.982  -3.969  1.00 20.00     0.119 C 
HETATM   12 CL12 UNL     1     -34.820  13.031  -4.854  1.00 20.00    -0.130 Cl
ENDBRANCH   5  11
TORSDOF 2
ENDMDL
MODEL 8
REMARK VINA RESULT:      -4.4     12.132     12.869
REMARK  2 active torsions:
REMARK  status: ('A' for Active; 'I' for Inactive)
REMARK    1  A    between atoms: C5_5  and  C7_7 
REMARK    2  A    between atoms: C6_6  and  C8_8 
ROOT
HETATM    1  C1  UNL     1     -34.127  13.778  -4.086  1.00 20.00     0.001 C 
HETATM    2  C2  UNL     1     -33.542  14.998  -3.378  1.00 20.00     0.005 C 
HETATM    3  C3  UNL     1     -35.456  14.102  -4.761  1.00 20.00     0.013 C 
HETATM    4  C4  UNL     1     -35.871  15.929  -3.064  1.00 20.00     0.019 C 
HETATM    5  C5  UNL     1     -34.536  15.603  -2.379  1.00 20.00    -0.000 C 
HETATM    6  C6  UNL     1     -36.462  14.701  -3.771  1.00 20.00     0.094 C 
ENDROOT
BRANCH   6   7
HETATM    7  C8  UNL     1     -37.767  15.062  -4.479  1.00 20.00     0.391 C 
HETATM    8  F9  UNL     1     -37.627  14.916  -5.805  1.00 20.00    -0.171 F 
HETATM    9  F10 UNL     1     -38.756  14.261  -4.055  1.00 20.00    -0.171 F 
HETATM   10  F11 UNL     1     -38.096  16.336  -4.215  1.00 20.00    -0.171 F 
ENDBRANCH   6   7
BRANCH   5  11
HETATM   11  C7  UNL     1     -33.949  16.850  -1.721  1.00 20.00     0.119 C 
HETATM   12 CL12 UNL     1     -34.661  17.083  -0.115  1.00 20.00    -0.130 Cl
ENDBRANCH   5  11
TORSDOF 2
ENDMDL
MODEL 9
REMARK VINA RESULT:      -4.4     12.604     13.728
REMARK  2 active torsions:
REMARK  status: ('A' for Active; 'I' for Inactive)
REMARK    1  A    between atoms: C5_5  and  C7_7 
REMARK    2  A    between atoms: C6_6  and  C8_8 
ROOT
HETATM    1  C1  UNL     1     -34.954  14.997  -7.461  1.00 20.00     0.001 C 
HETATM    2  C2  UNL     1     -34.844  16.502  -7.225  1.00 20.00     0.005 C 
HETATM    3  C3  UNL     1     -35.090  14.230  -6.148  1.00 20.00     0.013 C 
HETATM    4  C4  UNL     1     -33.841  16.069  -4.945  1.00 20.00     0.019 C 
HETATM    5  C5  UNL     1     -33.698  16.841  -6.264  1.00 20.00    -0.000 C 
HETATM    6  C6  UNL     1     -33.945  14.555  -5.181  1.00 20.00     0.094 C 
ENDROOT
BRANCH   6   7
HETATM    7  C8  UNL     1     -34.129  13.814  -3.858  1.00 20.00     0.391 C 
HETATM    8  F9  UNL     1     -35.154  12.954  -3.951  1.00 20.00    -0.171 F 
HETATM    9  F10 UNL     1     -33.014  13.131  -3.556  1.00 20.00    -0.171 F 
HETATM   10  F11 UNL     1     -34.383  14.689  -2.873  1.00 20.00    -0.171 F 
ENDBRANCH   6   7
BRANCH   5  11
HETATM   11  C7  UNL     1     -33.640  18.345  -6.004  1.00 20.00     0.119 C 
HETATM   12 CL12 UNL     1     -33.922  19.235  -7.510  1.00 20.00    -0.130 Cl
ENDBRANCH   5  11
TORSDOF 2
ENDMDL
