MODEL 1
REMARK VINA RESULT:      -3.9      0.000      0.000
REMARK  4 active torsions:
REMARK  status: ('A' for Active; 'I' for Inactive)
REMARK    1  A    between atoms: C5_5  and  C7_7 
REMARK    2  A    between atoms: C5_5  and  C8_8 
REMARK    3  A    between atoms: C6_6  and  C7_7 
REMARK    4  A    between atoms: C8_8  and  O9_9 
ROOT
HETATM    1  C5  UNL     1     -35.996  15.810  -3.101  1.00 20.00     0.042 C 
ENDROOT
BRANCH   1   2
HETATM    2  C7  UNL     1     -34.609  15.983  -2.436  1.00 20.00    -0.002 C 
HETATM    3  C1  UNL     1     -33.723  16.860  -3.332  1.00 20.00     0.011 C 
BRANCH   2   4
HETATM    4  C6  UNL     1     -34.624  16.518  -0.995  1.00 20.00     0.119 C 
HETATM    5 CL10 UNL     1     -33.380  17.751  -0.677  1.00 20.00    -0.130 Cl
ENDBRANCH   2   4
ENDBRANCH   1   2
BRANCH   1   6
HETATM    6  C8  UNL     1     -36.176  14.628  -4.083  1.00 20.00     0.053 C 
HETATM    7  C2  UNL     1     -36.212  15.159  -5.522  1.00 20.00     0.045 C 
HETATM    8  C3  UNL     1     -35.071  13.579  -3.953  1.00 20.00     0.045 C 
BRANCH   6   9
HETATM    9  O9  UNL     1     -37.422  13.973  -3.847  1.00 20.00    -0.386 OA
HETATM   10  C4  UNL     1     -38.496  14.900  -3.826  1.00 20.00     0.202 C 
ENDBRANCH   6   9
ENDBRANCH   1   6
TORSDOF 4
ENDMDL
MODEL 2
REMARK VINA RESULT:      -3.8      1.946      2.410
REMARK  4 active torsions:
REMARK  status: ('A' for Active; 'I' for Inactive)
REMARK    1  A    between atoms: C5_5  and  C7_7 
REMARK    2  A    between atoms: C5_5  and  C8_8 
REMARK    3  A    between atoms: C6_6  and  C7_7 
REMARK    4  A    between atoms: C8_8  and  O9_9 
ROOT
HETATM    1  C5  UNL     1     -34.997  15.538  -3.131  1.00 20.00     0.042 C 
ENDROOT
BRANCH   1   2
HETATM    2  C7  UNL     1     -34.098  16.381  -2.195  1.00 20.00    -0.002 C 
HETATM    3  C1  UNL     1     -33.793  17.729  -2.863  1.00 20.00     0.011 C 
BRANCH   2   4
HETATM    4  C6  UNL     1     -34.631  16.589  -0.768  1.00 20.00     0.119 C 
HETATM    5 CL10 UNL     1     -33.909  17.984   0.069  1.00 20.00    -0.130 Cl
ENDBRANCH   2   4
ENDBRANCH   1   2
BRANCH   1   6
HETATM    6  C8  UNL     1     -34.298  14.565  -4.110  1.00 20.00     0.053 C 
HETATM    7  C2  UNL     1     -32.910  14.202  -3.566  1.00 20.00     0.045 C 
HETATM    8  C3  UNL     1     -35.103  13.288  -4.348  1.00 20.00     0.045 C 
BRANCH   6   9
HETATM    9  O9  UNL     1     -34.101  15.194  -5.376  1.00 20.00    -0.386 OA
HETATM   10  C4  UNL     1     -34.813  14.520  -6.402  1.00 20.00     0.202 C 
ENDBRANCH   6   9
ENDBRANCH   1   6
TORSDOF 4
ENDMDL
MODEL 3
REMARK VINA RESULT:      -3.8      1.970      3.497
REMARK  4 active torsions:
REMARK  status: ('A' for Active; 'I' for Inactive)
REMARK    1  A    between atoms: C5_5  and  C7_7 
REMARK    2  A    between atoms: C5_5  and  C8_8 
REMARK    3  A    between atoms: C6_6  and  C7_7 
REMARK    4  A    between atoms: C8_8  and  O9_9 
ROOT
HETATM    1  C5  UNL     1     -36.190  15.202  -5.537  1.00 20.00     0.042 C 
ENDROOT
BRANCH   1   2
HETATM    2  C7  UNL     1     -35.037  14.892  -6.522  1.00 20.00    -0.002 C 
HETATM    3  C1  UNL     1     -35.625  14.388  -7.849  1.00 20.00     0.011 C 
BRANCH   2   4
HETATM    4  C6  UNL     1     -34.044  16.039  -6.768  1.00 20.00     0.119 C 
HETATM    5 CL10 UNL     1     -33.292  16.665  -5.281  1.00 20.00    -0.130 Cl
ENDBRANCH   2   4
ENDBRANCH   1   2
BRANCH   1   6
HETATM    6  C8  UNL     1     -36.137  14.536  -4.141  1.00 20.00     0.053 C 
HETATM    7  C2  UNL     1     -35.162  13.352  -4.176  1.00 20.00     0.045 C 
HETATM    8  C3  UNL     1     -35.720  15.509  -3.039  1.00 20.00     0.045 C 
BRANCH   6   9
HETATM    9  O9  UNL     1     -37.419  14.013  -3.793  1.00 20.00    -0.386 OA
HETATM   10  C4  UNL     1     -38.463  14.788  -4.360  1.00 20.00     0.202 C 
ENDBRANCH   6   9
ENDBRANCH   1   6
TORSDOF 4
ENDMDL
MODEL 4
REMARK VINA RESULT:      -3.8      2.037      2.305
REMARK  4 active torsions:
REMARK  status: ('A' for Active; 'I' for Inactive)
REMARK    1  A    between atoms: C5_5  and  C7_7 
REMARK    2  A    between atoms: C5_5  and  C8_8 
REMARK    3  A    between atoms: C6_6  and  C7_7 
REMARK    4  A    between atoms: C8_8  and  O9_9 
ROOT
HETATM    1  C5  UNL     1     -34.766  15.560  -2.738  1.00 20.00     0.042 C 
ENDROOT
BRANCH   1   2
HETATM    2  C7  UNL     1     -34.031  16.624  -1.888  1.00 20.00    -0.002 C 
HETATM    3  C1  UNL     1     -33.962  17.943  -2.672  1.00 20.00     0.011 C 
BRANCH   2   4
HETATM    4  C6  UNL     1     -34.599  16.859  -0.479  1.00 20.00     0.119 C 
HETATM    5 CL10 UNL     1     -33.755  18.138   0.428  1.00 20.00    -0.130 Cl
ENDBRANCH   2   4
ENDBRANCH   1   2
BRANCH   1   6
HETATM    6  C8  UNL     1     -33.927  14.755  -3.759  1.00 20.00     0.053 C 
HETATM    7  C2  UNL     1     -34.214  15.269  -5.175  1.00 20.00     0.045 C 
HETATM    8  C3  UNL     1     -32.425  14.835  -3.481  1.00 20.00     0.045 C 
BRANCH   6   9
HETATM    9  O9  UNL     1     -34.298  13.377  -3.729  1.00 20.00    -0.386 OA
HETATM   10  C4  UNL     1     -34.825  12.959  -4.978  1.00 20.00     0.202 C 
ENDBRANCH   6   9
ENDBRANCH   1   6
TORSDOF 4
ENDMDL
MODEL 5
REMARK VINA RESULT:      -3.7      1.899      2.374
REMARK  4 active torsions:
REMARK  status: ('A' for Active; 'I' for Inactive)
REMARK    1  A    between atoms: C5_5  and  C7_7 
REMARK    2  A    between atoms: C5_5  and  C8_8 
REMARK    3  A    between atoms: C6_6  and  C7_7 
REMARK    4  A    between atoms: C8_8  and  O9_9 
ROOT
HETATM    1  C5  UNL     1     -35.591  15.017  -2.942  1.00 20.00     0.042 C 
ENDROOT
BRANCH   1   2
HETATM    2  C7  UNL     1     -34.379  15.975  -3.054  1.00 20.00    -0.002 C 
HETATM    3  C1  UNL     1     -34.108  16.612  -1.683  1.00 20.00     0.011 C 
BRANCH   2   4
HETATM    4  C6  UNL     1     -33.095  15.359  -3.631  1.00 20.00     0.119 C 
HETATM    5 CL10 UNL     1     -33.142  13.584  -3.747  1.00 20.00    -0.130 Cl
ENDBRANCH   2   4
ENDBRANCH   1   2
BRANCH   1   6
HETATM    6  C8  UNL     1     -36.772  15.241  -3.917  1.00 20.00     0.053 C 
HETATM    7  C2  UNL     1     -37.400  16.615  -3.652  1.00 20.00     0.045 C 
HETATM    8  C3  UNL     1     -36.351  15.147  -5.384  1.00 20.00     0.045 C 
BRANCH   6   9
HETATM    9  O9  UNL     1     -37.789  14.264  -3.696  1.00 20.00    -0.386 OA
HETATM   10  C4  UNL     1     -39.023  14.667  -4.267  1.00 20.00     0.202 C 
ENDBRANCH   6   9
ENDBRANCH   1   6
TORSDOF 4
ENDMDL
MODEL 6
REMARK VINA RESULT:      -3.7     11.443     12.376
REMARK  4 active torsions:
REMARK  status: ('A' for Active; 'I' for Inactive)
REMARK    1  A    between atoms: C5_5  and  C7_7 
REMARK    2  A    between atoms: C5_5  and  C8_8 
REMARK    3  A    between atoms: C6_6  and  C7_7 
REMARK    4  A    between atoms: C8_8  and  O9_9 
ROOT
HETATM    1  C5  UNL     1     -33.897   6.843   4.315  1.00 20.00     0.042 C 
ENDROOT
BRANCH   1   2
HETATM    2  C7  UNL     1     -33.711   6.182   5.702  1.00 20.00    -0.002 C 
HETATM    3  C1  UNL     1     -33.659   7.274   6.781  1.00 20.00     0.011 C 
BRANCH   2   4
HETATM    4  C6  UNL     1     -34.741   5.102   6.069  1.00 20.00     0.119 C 
HETATM    5 CL10 UNL     1     -35.170   4.033   4.713  1.00 20.00    -0.130 Cl
ENDBRANCH   2   4
ENDBRANCH   1   2
BRANCH   1   6
HETATM    6  C8  UNL     1     -32.684   6.845   3.354  1.00 20.00     0.053 C 
HETATM    7  C2  UNL     1     -31.505   7.564   4.020  1.00 20.00     0.045 C 
HETATM    8  C3  UNL     1     -32.256   5.436   2.943  1.00 20.00     0.045 C 
BRANCH   6   9
HETATM    9  O9  UNL     1     -32.996   7.566   2.162  1.00 20.00    -0.386 OA
HETATM   10  C4  UNL     1     -31.932   8.425   1.786  1.00 20.00     0.202 C 
ENDBRANCH   6   9
ENDBRANCH   1   6
TORSDOF 4
ENDMDL
MODEL 7
REMARK VINA RESULT:      -3.6     11.079     11.989
REMARK  4 active torsions:
REMARK  status: ('A' for Active; 'I' for Inactive)
REMARK    1  A    between atoms: C5_5  and  C7_7 
REMARK    2  A    between atoms: C5_5  and  C8_8 
REMARK    3  A    between atoms: C6_6  and  C7_7 
REMARK    4  A    between atoms: C8_8  and  O9_9 
ROOT
HETATM    1  C5  UNL     1     -32.808   6.007   3.430  1.00 20.00     0.042 C 
ENDROOT
BRANCH   1   2
HETATM    2  C7  UNL     1     -32.367   7.484   3.281  1.00 20.00    -0.002 C 
HETATM    3  C1  UNL     1     -31.100   7.721   4.116  1.00 20.00     0.011 C 
BRANCH   2   4
HETATM    4  C6  UNL     1     -32.170   7.978   1.839  1.00 20.00     0.119 C 
HETATM    5 CL10 UNL     1     -32.508   9.712   1.626  1.00 20.00    -0.130 Cl
ENDBRANCH   2   4
ENDBRANCH   1   2
BRANCH   1   6
HETATM    6  C8  UNL     1     -34.012   5.710   4.356  1.00 20.00     0.053 C 
HETATM    7  C2  UNL     1     -34.001   6.687   5.538  1.00 20.00     0.045 C 
HETATM    8  C3  UNL     1     -35.353   5.803   3.628  1.00 20.00     0.045 C 
BRANCH   6   9
HETATM    9  O9  UNL     1     -33.906   4.394   4.899  1.00 20.00    -0.386 OA
HETATM   10  C4  UNL     1     -34.936   4.141   5.840  1.00 20.00     0.202 C 
ENDBRANCH   6   9
ENDBRANCH   1   6
TORSDOF 4
ENDMDL
MODEL 8
REMARK VINA RESULT:      -3.6      1.555      2.280
REMARK  4 active torsions:
REMARK  status: ('A' for Active; 'I' for Inactive)
REMARK    1  A    between atoms: C5_5  and  C7_7 
REMARK    2  A    between atoms: C5_5  and  C8_8 
REMARK    3  A    between atoms: C6_6  and  C7_7 
REMARK    4  A    between atoms: C8_8  and  O9_9 
ROOT
HETATM    1  C5  UNL     1     -33.601  16.045  -2.636  1.00 20.00     0.042 C 
ENDROOT
BRANCH   1   2
HETATM    2  C7  UNL     1     -34.326  17.229  -1.951  1.00 20.00    -0.002 C 
HETATM    3  C1  UNL     1     -34.678  16.841  -0.507  1.00 20.00     0.011 C 
BRANCH   2   4
HETATM    4  C6  UNL     1     -33.584  18.574  -1.987  1.00 20.00     0.119 C 
HETATM    5 CL10 UNL     1     -32.660  18.921  -0.505  1.00 20.00    -0.130 Cl
ENDBRANCH   2   4
ENDBRANCH   1   2
BRANCH   1   6
HETATM    6  C8  UNL     1     -34.164  15.548  -3.989  1.00 20.00     0.053 C 
HETATM    7  C2  UNL     1     -33.460  16.284  -5.136  1.00 20.00     0.045 C 
HETATM    8  C3  UNL     1     -34.003  14.039  -4.176  1.00 20.00     0.045 C 
BRANCH   6   9
HETATM    9  O9  UNL     1     -35.555  15.849  -4.088  1.00 20.00    -0.386 OA
HETATM   10  C4  UNL     1     -36.350  14.701  -3.840  1.00 20.00     0.202 C 
ENDBRANCH   6   9
ENDBRANCH   1   6
TORSDOF 4
ENDMDL
MODEL 9
REMARK VINA RESULT:      -3.6      2.770      4.207
REMARK  4 active torsions:
REMARK  status: ('A' for Active; 'I' for Inactive)
REMARK    1  A    between atoms: C5_5  and  C7_7 
REMARK    2  A    between atoms: C5_5  and  C8_8 
REMARK    3  A    between atoms: C6_6  and  C7_7 
REMARK    4  A    between atoms: C8_8  and  O9_9 
ROOT
HETATM    1  C5  UNL     1     -33.582  16.099  -5.031  1.00 20.00     0.042 C 
ENDROOT
BRANCH   1   2
HETATM    2  C7  UNL     1     -34.558  15.043  -5.603  1.00 20.00    -0.002 C 
HETATM    3  C1  UNL     1     -34.410  14.988  -7.130  1.00 20.00     0.011 C 
BRANCH   2   4
HETATM    4  C6  UNL     1     -34.447  13.635  -4.995  1.00 20.00     0.119 C 
HETATM    5 CL10 UNL     1     -33.196  13.496  -3.737  1.00 20.00    -0.130 Cl
ENDBRANCH   2   4
ENDBRANCH   1   2
BRANCH   1   6
HETATM    6  C8  UNL     1     -34.124  17.064  -3.949  1.00 20.00     0.053 C 
HETATM    7  C2  UNL     1     -33.655  18.491  -4.256  1.00 20.00     0.045 C 
HETATM    8  C3  UNL     1     -35.649  17.038  -3.848  1.00 20.00     0.045 C 
BRANCH   6   9
HETATM    9  O9  UNL     1     -33.600  16.716  -2.668  1.00 20.00    -0.386 OA
HETATM   10  C4  UNL     1     -34.624  16.261  -1.799  1.00 20.00     0.202 C 
ENDBRANCH   6   9
ENDBRANCH   1   6
TORSDOF 4
ENDMDL
