MODEL 1
REMARK VINA RESULT:      -5.1      0.000      0.000
REMARK  2 active torsions:
REMARK  status: ('A' for Active; 'I' for Inactive)
REMARK    1  A    between atoms: C1_1  and  C7_7 
REMARK    2  A    between atoms: C8_8  and  C11_11 
ROOT
HETATM    1  C2  UNL     1     -36.269  16.264  -3.742  1.00 20.00     0.001 C 
HETATM    2  C3  UNL     1     -35.973  14.799  -3.428  1.00 20.00     0.011 C 
HETATM    3  C4  UNL     1     -33.481  15.575  -3.474  1.00 20.00     0.012 C 
HETATM    4  C5  UNL     1     -35.907  17.258  -2.630  1.00 20.00     0.005 C 
HETATM    5  C6  UNL     1     -33.475  16.492  -2.252  1.00 20.00     0.005 C 
HETATM    6  C7  UNL     1     -34.480  14.416  -3.414  1.00 20.00     0.047 C 
HETATM    7  C8  UNL     1     -34.837  16.813  -1.623  1.00 20.00    -0.011 C 
ENDROOT
BRANCH   7   8
HETATM    8  C11 UNL     1     -34.662  17.889  -0.544  1.00 20.00    -0.019 C 
HETATM    9  C9  UNL     1     -35.193  17.389   0.794  1.00 20.00     0.010 C 
HETATM   10  C10 UNL     1     -33.196  18.291  -0.431  1.00 20.00     0.010 C 
ENDBRANCH   7   8
BRANCH   6  11
HETATM   11  C1  UNL     1     -34.212  13.515  -4.586  1.00 20.00     0.235 C 
HETATM   12  O12 UNL     1     -34.904  12.541  -4.864  1.00 20.00    -0.306 OA
ENDBRANCH   6  11
TORSDOF 2
ENDMDL
MODEL 2
REMARK VINA RESULT:      -5.0      0.513      1.084
REMARK  2 active torsions:
REMARK  status: ('A' for Active; 'I' for Inactive)
REMARK    1  A    between atoms: C1_1  and  C7_7 
REMARK    2  A    between atoms: C8_8  and  C11_11 
ROOT
HETATM    1  C2  UNL     1     -36.465  16.415  -3.495  1.00 20.00     0.001 C 
HETATM    2  C3  UNL     1     -36.248  14.904  -3.439  1.00 20.00     0.011 C 
HETATM    3  C4  UNL     1     -33.717  15.538  -3.511  1.00 20.00     0.012 C 
HETATM    4  C5  UNL     1     -35.983  17.191  -2.263  1.00 20.00     0.005 C 
HETATM    5  C6  UNL     1     -33.589  16.241  -2.161  1.00 20.00     0.005 C 
HETATM    6  C7  UNL     1     -34.785  14.441  -3.577  1.00 20.00     0.047 C 
HETATM    7  C8  UNL     1     -34.894  16.529  -1.407  1.00 20.00    -0.011 C 
ENDROOT
BRANCH   7   8
HETATM    8  C11 UNL     1     -34.595  17.402  -0.182  1.00 20.00    -0.019 C 
HETATM    9  C9  UNL     1     -33.332  18.223  -0.413  1.00 20.00     0.010 C 
HETATM   10  C10 UNL     1     -35.782  18.307   0.126  1.00 20.00     0.010 C 
ENDBRANCH   7   8
BRANCH   6  11
HETATM   11  C1  UNL     1     -34.635  13.731  -4.893  1.00 20.00     0.235 C 
HETATM   12  O12 UNL     1     -34.742  12.516  -5.022  1.00 20.00    -0.306 OA
ENDBRANCH   6  11
TORSDOF 2
ENDMDL
MODEL 3
REMARK VINA RESULT:      -4.8      1.829      2.410
REMARK  2 active torsions:
REMARK  status: ('A' for Active; 'I' for Inactive)
REMARK    1  A    between atoms: C1_1  and  C7_7 
REMARK    2  A    between atoms: C8_8  and  C11_11 
ROOT
HETATM    1  C2  UNL     1     -35.567  14.465  -3.846  1.00 20.00     0.001 C 
HETATM    2  C3  UNL     1     -34.458  14.150  -4.846  1.00 20.00     0.011 C 
HETATM    3  C4  UNL     1     -34.608  16.695  -5.402  1.00 20.00     0.012 C 
HETATM    4  C5  UNL     1     -35.160  15.379  -2.683  1.00 20.00     0.005 C 
HETATM    5  C6  UNL     1     -34.114  17.277  -4.079  1.00 20.00     0.005 C 
HETATM    6  C7  UNL     1     -34.042  15.318  -5.761  1.00 20.00     0.047 C 
HETATM    7  C8  UNL     1     -33.949  16.295  -2.912  1.00 20.00    -0.011 C 
ENDROOT
BRANCH   7   8
HETATM    8  C11 UNL     1     -33.638  17.074  -1.628  1.00 20.00    -0.019 C 
HETATM    9  C9  UNL     1     -33.573  18.569  -1.917  1.00 20.00     0.010 C 
HETATM   10  C10 UNL     1     -34.683  16.772  -0.560  1.00 20.00     0.010 C 
ENDBRANCH   7   8
BRANCH   6  11
HETATM   11  C1  UNL     1     -34.471  14.996  -7.165  1.00 20.00     0.235 C 
HETATM   12  O12 UNL     1     -35.379  14.216  -7.433  1.00 20.00    -0.306 OA
ENDBRANCH   6  11
TORSDOF 2
ENDMDL
MODEL 4
REMARK VINA RESULT:      -4.8      1.698      2.231
REMARK  2 active torsions:
REMARK  status: ('A' for Active; 'I' for Inactive)
REMARK    1  A    between atoms: C1_1  and  C7_7 
REMARK    2  A    between atoms: C8_8  and  C11_11 
ROOT
HETATM    1  C2  UNL     1     -34.802  15.689  -2.247  1.00 20.00     0.001 C 
HETATM    2  C3  UNL     1     -33.618  15.539  -3.200  1.00 20.00     0.011 C 
HETATM    3  C4  UNL     1     -34.204  17.990  -3.880  1.00 20.00     0.012 C 
HETATM    4  C5  UNL     1     -34.609  16.710  -1.118  1.00 20.00     0.005 C 
HETATM    5  C6  UNL     1     -33.871  18.707  -2.573  1.00 20.00     0.005 C 
HETATM    6  C7  UNL     1     -33.386  16.724  -4.157  1.00 20.00     0.047 C 
HETATM    7  C8  UNL     1     -33.575  17.820  -1.356  1.00 20.00    -0.011 C 
ENDROOT
BRANCH   7   8
HETATM    8  C11 UNL     1     -33.457  18.695  -0.102  1.00 20.00    -0.019 C 
HETATM    9  C9  UNL     1     -34.295  18.115   1.031  1.00 20.00     0.010 C 
HETATM   10  C10 UNL     1     -31.997  18.827   0.316  1.00 20.00     0.010 C 
ENDBRANCH   7   8
BRANCH   6  11
HETATM   11  C1  UNL     1     -33.698  16.271  -5.556  1.00 20.00     0.235 C 
HETATM   12  O12 UNL     1     -34.196  15.181  -5.818  1.00 20.00    -0.306 OA
ENDBRANCH   6  11
TORSDOF 2
ENDMDL
MODEL 5
REMARK VINA RESULT:      -4.8      2.790      5.110
REMARK  2 active torsions:
REMARK  status: ('A' for Active; 'I' for Inactive)
REMARK    1  A    between atoms: C1_1  and  C7_7 
REMARK    2  A    between atoms: C8_8  and  C11_11 
ROOT
HETATM    1  C2  UNL     1     -34.541  13.850  -3.739  1.00 20.00     0.001 C 
HETATM    2  C3  UNL     1     -35.247  14.978  -2.989  1.00 20.00     0.011 C 
HETATM    3  C4  UNL     1     -33.249  16.427  -3.838  1.00 20.00     0.012 C 
HETATM    4  C5  UNL     1     -34.492  14.009  -5.265  1.00 20.00     0.005 C 
HETATM    5  C6  UNL     1     -33.530  16.399  -5.339  1.00 20.00     0.005 C 
HETATM    6  C7  UNL     1     -34.486  16.317  -2.940  1.00 20.00     0.047 C 
HETATM    7  C8  UNL     1     -34.623  15.435  -5.819  1.00 20.00    -0.011 C 
ENDROOT
BRANCH   7   8
HETATM    8  C11 UNL     1     -34.634  15.396  -7.352  1.00 20.00    -0.019 C 
HETATM    9  C9  UNL     1     -35.686  14.412  -7.850  1.00 20.00     0.010 C 
HETATM   10  C10 UNL     1     -34.885  16.790  -7.915  1.00 20.00     0.010 C 
ENDBRANCH   7   8
BRANCH   6  11
HETATM   11  C1  UNL     1     -34.049  16.562  -1.523  1.00 20.00     0.235 C 
HETATM   12  O12 UNL     1     -34.809  16.503  -0.562  1.00 20.00    -0.306 OA
ENDBRANCH   6  11
TORSDOF 2
ENDMDL
MODEL 6
REMARK VINA RESULT:      -4.7      3.119      5.317
REMARK  2 active torsions:
REMARK  status: ('A' for Active; 'I' for Inactive)
REMARK    1  A    between atoms: C1_1  and  C7_7 
REMARK    2  A    between atoms: C8_8  and  C11_11 
ROOT
HETATM    1  C2  UNL     1     -33.630  19.262  -1.954  1.00 20.00     0.001 C 
HETATM    2  C3  UNL     1     -32.853  19.045  -0.658  1.00 20.00     0.011 C 
HETATM    3  C4  UNL     1     -34.877  17.528  -0.017  1.00 20.00     0.012 C 
HETATM    4  C5  UNL     1     -33.781  18.020  -2.843  1.00 20.00     0.005 C 
HETATM    5  C6  UNL     1     -34.701  16.414  -1.048  1.00 20.00     0.005 C 
HETATM    6  C7  UNL     1     -33.584  18.223   0.421  1.00 20.00     0.047 C 
HETATM    7  C8  UNL     1     -33.662  16.654  -2.151  1.00 20.00    -0.011 C 
ENDROOT
BRANCH   7   8
HETATM    8  C11 UNL     1     -33.757  15.535  -3.196  1.00 20.00    -0.019 C 
HETATM    9  C9  UNL     1     -35.181  14.996  -3.266  1.00 20.00     0.010 C 
HETATM   10  C10 UNL     1     -33.301  16.042  -4.559  1.00 20.00     0.010 C 
ENDBRANCH   7   8
BRANCH   6  11
HETATM   11  C1  UNL     1     -33.918  19.135   1.568  1.00 20.00     0.235 C 
HETATM   12  O12 UNL     1     -33.588  18.910   2.728  1.00 20.00    -0.306 OA
ENDBRANCH   6  11
TORSDOF 2
ENDMDL
MODEL 7
REMARK VINA RESULT:      -4.5      2.860      4.974
REMARK  2 active torsions:
REMARK  status: ('A' for Active; 'I' for Inactive)
REMARK    1  A    between atoms: C1_1  and  C7_7 
REMARK    2  A    between atoms: C8_8  and  C11_11 
ROOT
HETATM    1  C2  UNL     1     -34.230  18.833  -2.955  1.00 20.00     0.001 C 
HETATM    2  C3  UNL     1     -33.315  18.838  -1.731  1.00 20.00     0.011 C 
HETATM    3  C4  UNL     1     -34.811  16.849  -0.944  1.00 20.00     0.012 C 
HETATM    4  C5  UNL     1     -34.127  17.588  -3.845  1.00 20.00     0.005 C 
HETATM    5  C6  UNL     1     -34.439  15.812  -2.002  1.00 20.00     0.005 C 
HETATM    6  C7  UNL     1     -33.712  17.861  -0.607  1.00 20.00     0.047 C 
HETATM    7  C8  UNL     1     -33.597  16.306  -3.186  1.00 20.00    -0.011 C 
ENDROOT
BRANCH   7   8
HETATM    8  C11 UNL     1     -33.486  15.192  -4.234  1.00 20.00    -0.019 C 
HETATM    9  C9  UNL     1     -34.092  13.899  -3.701  1.00 20.00     0.010 C 
HETATM   10  C10 UNL     1     -34.165  15.616  -5.531  1.00 20.00     0.010 C 
ENDBRANCH   7   8
BRANCH   6  11
HETATM   11  C1  UNL     1     -34.172  18.664   0.577  1.00 20.00     0.235 C 
HETATM   12  O12 UNL     1     -34.282  18.200   1.707  1.00 20.00    -0.306 OA
ENDBRANCH   6  11
TORSDOF 2
ENDMDL
MODEL 8
REMARK VINA RESULT:      -4.3      1.640      2.523
REMARK  2 active torsions:
REMARK  status: ('A' for Active; 'I' for Inactive)
REMARK    1  A    between atoms: C1_1  and  C7_7 
REMARK    2  A    between atoms: C8_8  and  C11_11 
ROOT
HETATM    1  C2  UNL     1     -33.119  15.444  -3.933  1.00 20.00     0.001 C 
HETATM    2  C3  UNL     1     -33.802  15.775  -5.258  1.00 20.00     0.011 C 
HETATM    3  C4  UNL     1     -35.840  14.529  -4.208  1.00 20.00     0.012 C 
HETATM    4  C5  UNL     1     -33.707  16.144  -2.700  1.00 20.00     0.005 C 
HETATM    5  C6  UNL     1     -36.174  15.493  -3.071  1.00 20.00     0.005 C 
HETATM    6  C7  UNL     1     -35.207  15.172  -5.445  1.00 20.00     0.047 C 
HETATM    7  C8  UNL     1     -35.165  16.617  -2.801  1.00 20.00    -0.011 C 
ENDROOT
BRANCH   7   8
HETATM    8  C11 UNL     1     -35.558  17.360  -1.518  1.00 20.00    -0.019 C 
HETATM    9  C9  UNL     1     -34.655  16.940  -0.365  1.00 20.00     0.010 C 
HETATM   10  C10 UNL     1     -35.493  18.867  -1.738  1.00 20.00     0.010 C 
ENDBRANCH   7   8
BRANCH   6  11
HETATM   11  C1  UNL     1     -35.134  14.126  -6.522  1.00 20.00     0.235 C 
HETATM   12  O12 UNL     1     -35.324  14.365  -7.710  1.00 20.00    -0.306 OA
ENDBRANCH   6  11
TORSDOF 2
ENDMDL
MODEL 9
REMARK VINA RESULT:      -4.3      2.750      4.409
REMARK  2 active torsions:
REMARK  status: ('A' for Active; 'I' for Inactive)
REMARK    1  A    between atoms: C1_1  and  C7_7 
REMARK    2  A    between atoms: C8_8  and  C11_11 
ROOT
HETATM    1  C2  UNL     1     -32.162  18.812   0.023  1.00 20.00     0.001 C 
HETATM    2  C3  UNL     1     -33.058  19.263  -1.129  1.00 20.00     0.011 C 
HETATM    3  C4  UNL     1     -34.370  17.068  -0.609  1.00 20.00     0.012 C 
HETATM    4  C5  UNL     1     -32.828  18.799   1.405  1.00 20.00     0.005 C 
HETATM    5  C6  UNL     1     -34.909  17.412   0.778  1.00 20.00     0.005 C 
HETATM    6  C7  UNL     1     -34.156  18.264  -1.541  1.00 20.00     0.047 C 
HETATM    7  C8  UNL     1     -34.360  18.685   1.436  1.00 20.00    -0.011 C 
ENDROOT
BRANCH   7   8
HETATM    8  C11 UNL     1     -34.856  18.767   2.884  1.00 20.00    -0.019 C 
HETATM    9  C9  UNL     1     -36.230  18.120   3.012  1.00 20.00     0.010 C 
HETATM   10  C10 UNL     1     -33.855  18.107   3.826  1.00 20.00     0.010 C 
ENDBRANCH   7   8
BRANCH   6  11
HETATM   11  C1  UNL     1     -33.822  17.730  -2.906  1.00 20.00     0.235 C 
HETATM   12  O12 UNL     1     -33.626  16.541  -3.137  1.00 20.00    -0.306 OA
ENDBRANCH   6  11
TORSDOF 2
ENDMDL
