MODEL 1
REMARK VINA RESULT:      -4.9      0.000      0.000
REMARK  2 active torsions:
REMARK  status: ('A' for Active; 'I' for Inactive)
REMARK    1  A    between atoms: C4_4  and  C7_7 
REMARK    2  A    between atoms: C5_5  and  C8_8 
ROOT
HETATM    1  C1  UNL     1     -34.598   5.483   3.527  1.00 20.00     0.005 C 
HETATM    2  C2  UNL     1     -33.525   5.635   2.443  1.00 20.00     0.006 C 
HETATM    3  C3  UNL     1     -32.605   6.413   4.522  1.00 20.00     0.010 C 
HETATM    4  C4  UNL     1     -34.113   6.290   4.733  1.00 20.00    -0.014 C 
HETATM    5  C5  UNL     1     -32.461   6.580   3.009  1.00 20.00    -0.000 C 
ENDROOT
BRANCH   4   6
HETATM    6  C7  UNL     1     -34.476   5.652   6.065  1.00 20.00     0.000 C 
HETATM    7  C6  UNL     1     -34.929   4.235   5.901  1.00 20.00     0.005 C 
ENDBRANCH   4   6
BRANCH   5   8
HETATM    8  C8  UNL     1     -32.683   8.022   2.555  1.00 20.00     0.119 C 
HETATM    9 CL9  UNL     1     -31.694   8.378   1.126  1.00 20.00    -0.130 Cl
ENDBRANCH   5   8
TORSDOF 2
ENDMDL
MODEL 2
REMARK VINA RESULT:      -4.8      2.439      4.005
REMARK  2 active torsions:
REMARK  status: ('A' for Active; 'I' for Inactive)
REMARK    1  A    between atoms: C4_4  and  C7_7 
REMARK    2  A    between atoms: C5_5  and  C8_8 
ROOT
HETATM    1  C1  UNL     1     -32.954   5.490   2.482  1.00 20.00     0.005 C 
HETATM    2  C2  UNL     1     -34.418   5.043   2.564  1.00 20.00     0.006 C 
HETATM    3  C3  UNL     1     -34.090   6.824   4.143  1.00 20.00     0.010 C 
HETATM    4  C4  UNL     1     -32.699   6.363   3.713  1.00 20.00    -0.014 C 
HETATM    5  C5  UNL     1     -34.977   5.608   3.872  1.00 20.00    -0.000 C 
ENDROOT
BRANCH   4   6
HETATM    6  C7  UNL     1     -31.748   7.518   3.440  1.00 20.00     0.000 C 
HETATM    7  C6  UNL     1     -32.032   8.177   2.127  1.00 20.00     0.005 C 
ENDBRANCH   4   6
BRANCH   5   8
HETATM    8  C8  UNL     1     -34.924   4.582   5.003  1.00 20.00     0.119 C 
HETATM    9 CL9  UNL     1     -34.625   5.388   6.554  1.00 20.00    -0.130 Cl
ENDBRANCH   5   8
TORSDOF 2
ENDMDL
MODEL 3
REMARK VINA RESULT:      -4.1     11.383     12.028
REMARK  2 active torsions:
REMARK  status: ('A' for Active; 'I' for Inactive)
REMARK    1  A    between atoms: C4_4  and  C7_7 
REMARK    2  A    between atoms: C5_5  and  C8_8 
ROOT
HETATM    1  C1  UNL     1     -33.518  15.975  -2.848  1.00 20.00     0.005 C 
HETATM    2  C2  UNL     1     -34.022  15.802  -4.285  1.00 20.00     0.006 C 
HETATM    3  C3  UNL     1     -35.919  16.221  -2.872  1.00 20.00     0.010 C 
HETATM    4  C4  UNL     1     -34.751  15.896  -1.944  1.00 20.00    -0.014 C 
HETATM    5  C5  UNL     1     -35.531  15.560  -4.194  1.00 20.00    -0.000 C 
ENDROOT
BRANCH   4   6
HETATM    6  C7  UNL     1     -34.671  16.822  -0.741  1.00 20.00     0.000 C 
HETATM    7  C6  UNL     1     -33.511  17.762  -0.834  1.00 20.00     0.005 C 
ENDBRANCH   4   6
BRANCH   5   8
HETATM    8  C8  UNL     1     -35.870  14.071  -4.225  1.00 20.00     0.119 C 
HETATM    9 CL9  UNL     1     -34.494  13.137  -4.841  1.00 20.00    -0.130 Cl
ENDBRANCH   5   8
TORSDOF 2
ENDMDL
MODEL 4
REMARK VINA RESULT:      -4.1     11.604     12.063
REMARK  2 active torsions:
REMARK  status: ('A' for Active; 'I' for Inactive)
REMARK    1  A    between atoms: C4_4  and  C7_7 
REMARK    2  A    between atoms: C5_5  and  C8_8 
ROOT
HETATM    1  C1  UNL     1     -35.637  15.419  -3.071  1.00 20.00     0.005 C 
HETATM    2  C2  UNL     1     -35.648  14.162  -3.947  1.00 20.00     0.006 C 
HETATM    3  C3  UNL     1     -33.377  14.924  -3.761  1.00 20.00     0.010 C 
HETATM    4  C4  UNL     1     -34.260  16.062  -3.254  1.00 20.00    -0.014 C 
HETATM    5  C5  UNL     1     -34.303  14.124  -4.678  1.00 20.00    -0.000 C 
ENDROOT
BRANCH   4   6
HETATM    6  C7  UNL     1     -33.727  16.707  -1.984  1.00 20.00     0.000 C 
HETATM    7  C6  UNL     1     -34.693  16.584  -0.848  1.00 20.00     0.005 C 
ENDBRANCH   4   6
BRANCH   5   8
HETATM    8  C8  UNL     1     -34.400  14.725  -6.079  1.00 20.00     0.119 C 
HETATM    9 CL9  UNL     1     -36.086  14.738  -6.630  1.00 20.00    -0.130 Cl
ENDBRANCH   5   8
TORSDOF 2
ENDMDL
MODEL 5
REMARK VINA RESULT:      -4.0     11.499     12.192
REMARK  2 active torsions:
REMARK  status: ('A' for Active; 'I' for Inactive)
REMARK    1  A    between atoms: C4_4  and  C7_7 
REMARK    2  A    between atoms: C5_5  and  C8_8 
ROOT
HETATM    1  C1  UNL     1     -33.731  18.042  -2.158  1.00 20.00     0.005 C 
HETATM    2  C2  UNL     1     -33.846  17.630  -3.630  1.00 20.00     0.006 C 
HETATM    3  C3  UNL     1     -34.871  15.918  -2.292  1.00 20.00     0.010 C 
HETATM    4  C4  UNL     1     -34.073  16.799  -1.333  1.00 20.00    -0.014 C 
HETATM    5  C5  UNL     1     -34.190  16.139  -3.643  1.00 20.00    -0.000 C 
ENDROOT
BRANCH   4   6
HETATM    6  C7  UNL     1     -34.829  17.120  -0.053  1.00 20.00     0.000 C 
HETATM    7  C6  UNL     1     -34.162  18.205   0.733  1.00 20.00     0.005 C 
ENDBRANCH   4   6
BRANCH   5   8
HETATM    8  C8  UNL     1     -32.945  15.270  -3.818  1.00 20.00     0.119 C 
HETATM    9 CL9  UNL     1     -33.381  13.551  -3.779  1.00 20.00    -0.130 Cl
ENDBRANCH   5   8
TORSDOF 2
ENDMDL
MODEL 6
REMARK VINA RESULT:      -4.0     11.732     12.172
REMARK  2 active torsions:
REMARK  status: ('A' for Active; 'I' for Inactive)
REMARK    1  A    between atoms: C4_4  and  C7_7 
REMARK    2  A    between atoms: C5_5  and  C8_8 
ROOT
HETATM    1  C1  UNL     1     -35.804  15.184  -3.060  1.00 20.00     0.005 C 
HETATM    2  C2  UNL     1     -35.263  14.325  -4.208  1.00 20.00     0.006 C 
HETATM    3  C3  UNL     1     -33.421  15.523  -3.236  1.00 20.00     0.010 C 
HETATM    4  C4  UNL     1     -34.694  16.172  -2.698  1.00 20.00    -0.014 C 
HETATM    5  C5  UNL     1     -33.870  14.866  -4.542  1.00 20.00    -0.000 C 
ENDROOT
BRANCH   4   6
HETATM    6  C7  UNL     1     -34.623  16.474  -1.209  1.00 20.00     0.000 C 
HETATM    7  C6  UNL     1     -33.640  17.560  -0.904  1.00 20.00     0.005 C 
ENDBRANCH   4   6
BRANCH   5   8
HETATM    8  C8  UNL     1     -33.909  15.851  -5.709  1.00 20.00     0.119 C 
HETATM    9 CL9  UNL     1     -34.315  15.007  -7.216  1.00 20.00    -0.130 Cl
ENDBRANCH   5   8
TORSDOF 2
ENDMDL
MODEL 7
REMARK VINA RESULT:      -4.0     11.401     12.975
REMARK  2 active torsions:
REMARK  status: ('A' for Active; 'I' for Inactive)
REMARK    1  A    between atoms: C4_4  and  C7_7 
REMARK    2  A    between atoms: C5_5  and  C8_8 
ROOT
HETATM    1  C1  UNL     1     -33.189  16.186  -5.150  1.00 20.00     0.005 C 
HETATM    2  C2  UNL     1     -33.017  15.636  -3.730  1.00 20.00     0.006 C 
HETATM    3  C3  UNL     1     -34.645  14.281  -4.865  1.00 20.00     0.010 C 
HETATM    4  C4  UNL     1     -34.453  15.534  -5.716  1.00 20.00    -0.014 C 
HETATM    5  C5  UNL     1     -34.216  14.722  -3.465  1.00 20.00    -0.000 C 
ENDROOT
BRANCH   4   6
HETATM    6  C7  UNL     1     -34.356  15.233  -7.204  1.00 20.00     0.000 C 
HETATM    7  C6  UNL     1     -35.530  14.446  -7.693  1.00 20.00     0.005 C 
ENDBRANCH   4   6
BRANCH   5   8
HETATM    8  C8  UNL     1     -35.330  15.450  -2.715  1.00 20.00     0.119 C 
HETATM    9 CL9  UNL     1     -34.671  16.300  -1.304  1.00 20.00    -0.130 Cl
ENDBRANCH   5   8
TORSDOF 2
ENDMDL
MODEL 8
REMARK VINA RESULT:      -3.9     11.209     11.986
REMARK  2 active torsions:
REMARK  status: ('A' for Active; 'I' for Inactive)
REMARK    1  A    between atoms: C4_4  and  C7_7 
REMARK    2  A    between atoms: C5_5  and  C8_8 
ROOT
HETATM    1  C1  UNL     1     -35.943  15.253  -3.467  1.00 20.00     0.005 C 
HETATM    2  C2  UNL     1     -35.880  16.693  -2.945  1.00 20.00     0.006 C 
HETATM    3  C3  UNL     1     -33.651  15.795  -2.937  1.00 20.00     0.010 C 
HETATM    4  C4  UNL     1     -34.596  14.611  -3.129  1.00 20.00    -0.014 C 
HETATM    5  C5  UNL     1     -34.522  16.850  -2.255  1.00 20.00    -0.000 C 
ENDROOT
BRANCH   4   6
HETATM    6  C7  UNL     1     -34.116  13.634  -4.191  1.00 20.00     0.000 C 
HETATM    7  C6  UNL     1     -34.868  13.790  -5.475  1.00 20.00     0.005 C 
ENDBRANCH   4   6
BRANCH   5   8
HETATM    8  C8  UNL     1     -34.625  16.637  -0.745  1.00 20.00     0.119 C 
HETATM    9 CL9  UNL     1     -33.844  17.973   0.121  1.00 20.00    -0.130 Cl
ENDBRANCH   5   8
TORSDOF 2
ENDMDL
MODEL 9
REMARK VINA RESULT:      -3.8     11.374     12.294
REMARK  2 active torsions:
REMARK  status: ('A' for Active; 'I' for Inactive)
REMARK    1  A    between atoms: C4_4  and  C7_7 
REMARK    2  A    between atoms: C5_5  and  C8_8 
ROOT
HETATM    1  C1  UNL     1     -34.570  17.891  -3.282  1.00 20.00     0.005 C 
HETATM    2  C2  UNL     1     -35.434  17.010  -4.192  1.00 20.00     0.006 C 
HETATM    3  C3  UNL     1     -34.717  15.680  -2.324  1.00 20.00     0.010 C 
HETATM    4  C4  UNL     1     -33.861  16.945  -2.310  1.00 20.00    -0.014 C 
HETATM    5  C5  UNL     1     -35.167  15.560  -3.780  1.00 20.00    -0.000 C 
ENDROOT
BRANCH   4   6
HETATM    6  C7  UNL     1     -33.693  17.533  -0.918  1.00 20.00     0.000 C 
HETATM    7  C6  UNL     1     -34.831  17.172  -0.017  1.00 20.00     0.005 C 
ENDBRANCH   4   6
BRANCH   5   8
HETATM    8  C8  UNL     1     -34.111  14.902  -4.667  1.00 20.00     0.119 C 
HETATM    9 CL9  UNL     1     -33.242  13.647  -3.764  1.00 20.00    -0.130 Cl
ENDBRANCH   5   8
TORSDOF 2
ENDMDL
