MODEL 1
REMARK VINA RESULT:      -5.0      0.000      0.000
REMARK  2 active torsions:
REMARK  status: ('A' for Active; 'I' for Inactive)
REMARK    1  A    between atoms: C1_1  and  C7_7 
REMARK    2  A    between atoms: C8_8  and  C10_10 
ROOT
HETATM    1  C2  UNL     1     -33.544  17.286  -4.490  1.00 20.00     0.001 C 
HETATM    2  C3  UNL     1     -33.248  15.836  -4.864  1.00 20.00     0.011 C 
HETATM    3  C4  UNL     1     -35.754  15.420  -4.265  1.00 20.00     0.012 C 
HETATM    4  C5  UNL     1     -33.916  17.522  -3.020  1.00 20.00     0.004 C 
HETATM    5  C6  UNL     1     -35.661  15.643  -2.755  1.00 20.00     0.005 C 
HETATM    6  C7  UNL     1     -34.489  14.939  -4.982  1.00 20.00     0.047 C 
HETATM    7  C8  UNL     1     -34.381  16.296  -2.220  1.00 20.00    -0.015 C 
ENDROOT
BRANCH   6   8
HETATM    8  C1  UNL     1     -34.147  13.542  -4.551  1.00 20.00     0.235 C 
HETATM    9  O11 UNL     1     -34.970  12.636  -4.479  1.00 20.00    -0.306 OA
ENDBRANCH   6   8
BRANCH   7  10
HETATM   10  C10 UNL     1     -34.583  16.684  -0.749  1.00 20.00     0.000 C 
HETATM   11  C9  UNL     1     -33.765  17.876  -0.382  1.00 20.00     0.005 C 
ENDBRANCH   7  10
TORSDOF 2
ENDMDL
MODEL 2
REMARK VINA RESULT:      -4.8      1.637      2.472
REMARK  2 active torsions:
REMARK  status: ('A' for Active; 'I' for Inactive)
REMARK    1  A    between atoms: C1_1  and  C7_7 
REMARK    2  A    between atoms: C8_8  and  C10_10 
ROOT
HETATM    1  C2  UNL     1     -33.976  13.870  -4.206  1.00 20.00     0.001 C 
HETATM    2  C3  UNL     1     -35.491  13.689  -4.232  1.00 20.00     0.011 C 
HETATM    3  C4  UNL     1     -35.533  16.154  -5.087  1.00 20.00     0.012 C 
HETATM    4  C5  UNL     1     -33.457  14.918  -3.213  1.00 20.00     0.004 C 
HETATM    5  C6  UNL     1     -35.070  16.842  -3.802  1.00 20.00     0.005 C 
HETATM    6  C7  UNL     1     -36.260  14.814  -4.941  1.00 20.00     0.047 C 
HETATM    7  C8  UNL     1     -34.474  15.951  -2.705  1.00 20.00    -0.015 C 
ENDROOT
BRANCH   6   8
HETATM    8  C1  UNL     1     -37.592  15.013  -4.279  1.00 20.00     0.235 C 
HETATM    9  O11 UNL     1     -38.245  14.099  -3.788  1.00 20.00    -0.306 OA
ENDBRANCH   6   8
BRANCH   7  10
HETATM   10  C10 UNL     1     -33.824  16.832  -1.629  1.00 20.00     0.000 C 
HETATM   11  C9  UNL     1     -34.682  16.930  -0.413  1.00 20.00     0.005 C 
ENDBRANCH   7  10
TORSDOF 2
ENDMDL
MODEL 3
REMARK VINA RESULT:      -4.8      0.890      1.006
REMARK  2 active torsions:
REMARK  status: ('A' for Active; 'I' for Inactive)
REMARK    1  A    between atoms: C1_1  and  C7_7 
REMARK    2  A    between atoms: C8_8  and  C10_10 
ROOT
HETATM    1  C2  UNL     1     -34.112  16.900  -5.416  1.00 20.00     0.001 C 
HETATM    2  C3  UNL     1     -34.034  15.385  -5.583  1.00 20.00     0.011 C 
HETATM    3  C4  UNL     1     -36.133  15.344  -4.034  1.00 20.00     0.012 C 
HETATM    4  C5  UNL     1     -33.885  17.415  -3.988  1.00 20.00     0.004 C 
HETATM    5  C6  UNL     1     -35.462  15.803  -2.739  1.00 20.00     0.005 C 
HETATM    6  C7  UNL     1     -35.256  14.618  -5.059  1.00 20.00     0.047 C 
HETATM    7  C8  UNL     1     -34.052  16.396  -2.852  1.00 20.00    -0.015 C 
ENDROOT
BRANCH   6   8
HETATM    8  C1  UNL     1     -34.825  13.284  -4.523  1.00 20.00     0.235 C 
HETATM    9  O11 UNL     1     -33.684  13.044  -4.145  1.00 20.00    -0.306 OA
ENDBRANCH   6   8
BRANCH   7  10
HETATM   10  C10 UNL     1     -33.663  17.042  -1.515  1.00 20.00     0.000 C 
HETATM   11  C9  UNL     1     -34.718  16.836  -0.482  1.00 20.00     0.005 C 
ENDBRANCH   7  10
TORSDOF 2
ENDMDL
MODEL 4
REMARK VINA RESULT:      -4.7      1.212      3.222
REMARK  2 active torsions:
REMARK  status: ('A' for Active; 'I' for Inactive)
REMARK    1  A    between atoms: C1_1  and  C7_7 
REMARK    2  A    between atoms: C8_8  and  C10_10 
ROOT
HETATM    1  C2  UNL     1     -34.136  16.745  -1.857  1.00 20.00     0.001 C 
HETATM    2  C3  UNL     1     -34.975  15.545  -2.291  1.00 20.00     0.011 C 
HETATM    3  C4  UNL     1     -32.925  14.957  -3.795  1.00 20.00     0.012 C 
HETATM    4  C5  UNL     1     -33.821  17.759  -2.964  1.00 20.00     0.004 C 
HETATM    5  C6  UNL     1     -33.040  16.113  -4.789  1.00 20.00     0.005 C 
HETATM    6  C7  UNL     1     -34.213  14.492  -3.109  1.00 20.00     0.047 C 
HETATM    7  C8  UNL     1     -33.973  17.272  -4.412  1.00 20.00    -0.015 C 
ENDROOT
BRANCH   6   8
HETATM    8  C1  UNL     1     -35.137  13.861  -4.109  1.00 20.00     0.235 C 
HETATM    9  O11 UNL     1     -35.046  12.693  -4.471  1.00 20.00    -0.306 OA
ENDBRANCH   6   8
BRANCH   7  10
HETATM   10  C10 UNL     1     -33.748  18.441  -5.379  1.00 20.00     0.000 C 
HETATM   11  C9  UNL     1     -34.170  18.091  -6.767  1.00 20.00     0.005 C 
ENDBRANCH   7  10
TORSDOF 2
ENDMDL
MODEL 5
REMARK VINA RESULT:      -4.7      1.798      2.790
REMARK  2 active torsions:
REMARK  status: ('A' for Active; 'I' for Inactive)
REMARK    1  A    between atoms: C1_1  and  C7_7 
REMARK    2  A    between atoms: C8_8  and  C10_10 
ROOT
HETATM    1  C2  UNL     1     -36.832  14.794  -4.096  1.00 20.00     0.001 C 
HETATM    2  C3  UNL     1     -36.368  15.031  -5.531  1.00 20.00     0.011 C 
HETATM    3  C4  UNL     1     -34.316  13.566  -4.856  1.00 20.00     0.012 C 
HETATM    4  C5  UNL     1     -35.930  15.390  -3.008  1.00 20.00     0.004 C 
HETATM    5  C6  UNL     1     -33.657  14.543  -3.882  1.00 20.00     0.005 C 
HETATM    6  C7  UNL     1     -35.179  14.163  -5.971  1.00 20.00     0.047 C 
HETATM    7  C8  UNL     1     -34.493  15.743  -3.419  1.00 20.00    -0.015 C 
ENDROOT
BRANCH   6   8
HETATM    8  C1  UNL     1     -34.324  14.929  -6.938  1.00 20.00     0.235 C 
HETATM    9  O11 UNL     1     -34.310  16.153  -7.004  1.00 20.00    -0.306 OA
ENDBRANCH   6   8
BRANCH   7  10
HETATM   10  C10 UNL     1     -33.779  16.443  -2.255  1.00 20.00     0.000 C 
HETATM   11  C9  UNL     1     -34.651  16.524  -1.048  1.00 20.00     0.005 C 
ENDBRANCH   7  10
TORSDOF 2
ENDMDL
MODEL 6
REMARK VINA RESULT:      -4.5      1.802      2.768
REMARK  2 active torsions:
REMARK  status: ('A' for Active; 'I' for Inactive)
REMARK    1  A    between atoms: C1_1  and  C7_7 
REMARK    2  A    between atoms: C8_8  and  C10_10 
ROOT
HETATM    1  C2  UNL     1     -34.059  13.661  -4.537  1.00 20.00     0.001 C 
HETATM    2  C3  UNL     1     -34.838  14.386  -5.632  1.00 20.00     0.011 C 
HETATM    3  C4  UNL     1     -33.174  16.347  -5.186  1.00 20.00     0.012 C 
HETATM    4  C5  UNL     1     -34.146  14.292  -3.142  1.00 20.00     0.004 C 
HETATM    5  C6  UNL     1     -33.663  16.740  -3.792  1.00 20.00     0.005 C 
HETATM    6  C7  UNL     1     -34.190  15.688  -6.125  1.00 20.00     0.047 C 
HETATM    7  C8  UNL     1     -34.598  15.758  -3.073  1.00 20.00    -0.015 C 
ENDROOT
BRANCH   6   8
HETATM    8  C1  UNL     1     -35.257  16.671  -6.510  1.00 20.00     0.235 C 
HETATM    9  O11 UNL     1     -36.410  16.612  -6.098  1.00 20.00    -0.306 OA
ENDBRANCH   6   8
BRANCH   7  10
HETATM   10  C10 UNL     1     -34.755  16.184  -1.608  1.00 20.00     0.000 C 
HETATM   11  C9  UNL     1     -33.769  17.240  -1.238  1.00 20.00     0.005 C 
ENDBRANCH   7  10
TORSDOF 2
ENDMDL
MODEL 7
REMARK VINA RESULT:      -4.4      2.109      4.268
REMARK  2 active torsions:
REMARK  status: ('A' for Active; 'I' for Inactive)
REMARK    1  A    between atoms: C1_1  and  C7_7 
REMARK    2  A    between atoms: C8_8  and  C10_10 
ROOT
HETATM    1  C2  UNL     1     -33.399  17.356  -5.257  1.00 20.00     0.001 C 
HETATM    2  C3  UNL     1     -34.011  17.460  -3.862  1.00 20.00     0.011 C 
HETATM    3  C4  UNL     1     -33.054  15.056  -3.523  1.00 20.00     0.012 C 
HETATM    4  C5  UNL     1     -34.006  16.274  -6.161  1.00 20.00     0.004 C 
HETATM    5  C6  UNL     1     -33.977  14.312  -4.489  1.00 20.00     0.005 C 
HETATM    6  C7  UNL     1     -33.591  16.345  -2.894  1.00 20.00     0.047 C 
HETATM    7  C8  UNL     1     -34.802  15.160  -5.465  1.00 20.00    -0.015 C 
ENDROOT
BRANCH   6   8
HETATM    8  C1  UNL     1     -34.722  16.035  -1.958  1.00 20.00     0.235 C 
HETATM    9  O11 UNL     1     -34.732  16.366  -0.777  1.00 20.00    -0.306 OA
ENDBRANCH   6   8
BRANCH   7  10
HETATM   10  C10 UNL     1     -35.442  14.246  -6.519  1.00 20.00     0.000 C 
HETATM   11  C9  UNL     1     -35.164  14.729  -7.902  1.00 20.00     0.005 C 
ENDBRANCH   7  10
TORSDOF 2
ENDMDL
MODEL 8
REMARK VINA RESULT:      -4.4      2.106      4.408
REMARK  2 active torsions:
REMARK  status: ('A' for Active; 'I' for Inactive)
REMARK    1  A    between atoms: C1_1  and  C7_7 
REMARK    2  A    between atoms: C8_8  and  C10_10 
ROOT
HETATM    1  C2  UNL     1     -33.563  13.702  -3.937  1.00 20.00     0.001 C 
HETATM    2  C3  UNL     1     -33.025  15.087  -3.587  1.00 20.00     0.011 C 
HETATM    3  C4  UNL     1     -35.471  15.583  -2.824  1.00 20.00     0.012 C 
HETATM    4  C5  UNL     1     -34.617  13.670  -5.051  1.00 20.00     0.004 C 
HETATM    5  C6  UNL     1     -36.139  15.569  -4.200  1.00 20.00     0.005 C 
HETATM    6  C7  UNL     1     -33.988  15.961  -2.769  1.00 20.00     0.047 C 
HETATM    7  C8  UNL     1     -35.328  14.993  -5.368  1.00 20.00    -0.015 C 
ENDROOT
BRANCH   6   8
HETATM    8  C1  UNL     1     -33.804  17.403  -3.143  1.00 20.00     0.235 C 
HETATM    9  O11 UNL     1     -33.433  17.772  -4.252  1.00 20.00    -0.306 OA
ENDBRANCH   6   8
BRANCH   7  10
HETATM   10  C10 UNL     1     -36.246  14.811  -6.584  1.00 20.00     0.000 C 
HETATM   11  C9  UNL     1     -35.464  14.492  -7.814  1.00 20.00     0.005 C 
ENDBRANCH   7  10
TORSDOF 2
ENDMDL
MODEL 9
REMARK VINA RESULT:      -4.3     11.679     13.421
REMARK  2 active torsions:
REMARK  status: ('A' for Active; 'I' for Inactive)
REMARK    1  A    between atoms: C1_1  and  C7_7 
REMARK    2  A    between atoms: C8_8  and  C10_10 
ROOT
HETATM    1  C2  UNL     1     -40.585   5.994  -0.091  1.00 20.00     0.001 C 
HETATM    2  C3  UNL     1     -41.089   7.199  -0.883  1.00 20.00     0.011 C 
HETATM    3  C4  UNL     1     -43.417   6.032  -0.720  1.00 20.00     0.012 C 
HETATM    4  C5  UNL     1     -40.695   4.644  -0.810  1.00 20.00     0.004 C 
HETATM    5  C6  UNL     1     -43.131   4.838  -1.631  1.00 20.00     0.005 C 
HETATM    6  C7  UNL     1     -42.618   7.313  -0.972  1.00 20.00     0.047 C 
HETATM    7  C8  UNL     1     -41.666   4.570  -1.997  1.00 20.00    -0.015 C 
ENDROOT
BRANCH   6   8
HETATM    8  C1  UNL     1     -43.004   7.917  -2.291  1.00 20.00     0.235 C 
HETATM    9  O11 UNL     1     -42.292   7.872  -3.288  1.00 20.00    -0.306 OA
ENDBRANCH   6   8
BRANCH   7  10
HETATM   10  C10 UNL     1     -41.552   3.198  -2.675  1.00 20.00     0.000 C 
HETATM   11  C9  UNL     1     -42.855   2.472  -2.657  1.00 20.00     0.005 C 
ENDBRANCH   7  10
TORSDOF 2
ENDMDL
