MODEL 1
REMARK VINA RESULT:      -4.6      0.000      0.000
REMARK  1 active torsions:
REMARK  status: ('A' for Active; 'I' for Inactive)
REMARK    1  A    between atoms: C1_1  and  C7_7 
ROOT
HETATM    1  C2  UNL     1     -33.811  16.523  -2.210  1.00 20.00     0.001 C 
HETATM    2  C3  UNL     1     -34.743  15.414  -2.678  1.00 20.00     0.011 C 
HETATM    3  C4  UNL     1     -34.185  15.466  -5.192  1.00 20.00     0.012 C 
HETATM    4  C5  UNL     1     -34.032  17.886  -2.862  1.00 20.00     0.008 C 
HETATM    5  C6  UNL     1     -33.412  16.787  -5.144  1.00 20.00     0.009 C 
HETATM    6  C7  UNL     1     -34.197  14.665  -3.893  1.00 20.00     0.047 C 
HETATM    7  C8  UNL     1     -34.088  17.974  -4.411  1.00 20.00    -0.048 C 
HETATM    8  C9  UNL     1     -33.332  19.263  -4.829  1.00 20.00     0.015 C 
HETATM    9  C10 UNL     1     -35.550  18.156  -4.870  1.00 20.00     0.015 C 
ENDROOT
BRANCH   6  10
HETATM   10  C1  UNL     1     -35.030  13.434  -4.102  1.00 20.00     0.235 C 
HETATM   11  O11 UNL     1     -34.710  12.522  -4.858  1.00 20.00    -0.306 OA
ENDBRANCH   6  10
TORSDOF 1
ENDMDL
MODEL 2
REMARK VINA RESULT:      -4.6      2.411      3.865
REMARK  1 active torsions:
REMARK  status: ('A' for Active; 'I' for Inactive)
REMARK    1  A    between atoms: C1_1  and  C7_7 
ROOT
HETATM    1  C2  UNL     1     -34.883  13.398  -4.139  1.00 20.00     0.001 C 
HETATM    2  C3  UNL     1     -34.153  14.438  -3.299  1.00 20.00     0.011 C 
HETATM    3  C4  UNL     1     -35.506  16.519  -3.987  1.00 20.00     0.012 C 
HETATM    4  C5  UNL     1     -34.892  13.657  -5.643  1.00 20.00     0.008 C 
HETATM    5  C6  UNL     1     -36.224  15.846  -5.161  1.00 20.00     0.009 C 
HETATM    6  C7  UNL     1     -35.066  15.584  -2.864  1.00 20.00     0.047 C 
HETATM    7  C8  UNL     1     -35.349  15.049  -6.161  1.00 20.00    -0.048 C 
HETATM    8  C9  UNL     1     -36.203  14.812  -7.433  1.00 20.00     0.015 C 
HETATM    9  C10 UNL     1     -34.119  15.868  -6.605  1.00 20.00     0.015 C 
ENDROOT
BRANCH   6  10
HETATM   10  C1  UNL     1     -34.344  16.394  -1.827  1.00 20.00     0.235 C 
HETATM   11  O11 UNL     1     -34.692  16.449  -0.652  1.00 20.00    -0.306 OA
ENDBRANCH   6  10
TORSDOF 1
ENDMDL
MODEL 3
REMARK VINA RESULT:      -4.6      1.281      2.543
REMARK  1 active torsions:
REMARK  status: ('A' for Active; 'I' for Inactive)
REMARK    1  A    between atoms: C1_1  and  C7_7 
ROOT
HETATM    1  C2  UNL     1     -33.519  17.261  -4.306  1.00 20.00     0.001 C 
HETATM    2  C3  UNL     1     -33.261  15.766  -4.181  1.00 20.00     0.011 C 
HETATM    3  C4  UNL     1     -35.564  15.042  -3.284  1.00 20.00     0.012 C 
HETATM    4  C5  UNL     1     -33.927  17.967  -3.015  1.00 20.00     0.008 C 
HETATM    5  C6  UNL     1     -36.054  16.460  -2.976  1.00 20.00     0.009 C 
HETATM    6  C7  UNL     1     -34.524  14.934  -4.396  1.00 20.00     0.047 C 
HETATM    7  C8  UNL     1     -35.096  17.381  -2.178  1.00 20.00    -0.048 C 
HETATM    8  C9  UNL     1     -35.936  18.575  -1.655  1.00 20.00     0.015 C 
HETATM    9  C10 UNL     1     -34.535  16.662  -0.933  1.00 20.00     0.015 C 
ENDROOT
BRANCH   6  10
HETATM   10  C1  UNL     1     -34.123  13.494  -4.534  1.00 20.00     0.235 C 
HETATM   11  O11 UNL     1     -34.930  12.576  -4.637  1.00 20.00    -0.306 OA
ENDBRANCH   6  10
TORSDOF 1
ENDMDL
MODEL 4
REMARK VINA RESULT:      -4.5      1.876      3.067
REMARK  1 active torsions:
REMARK  status: ('A' for Active; 'I' for Inactive)
REMARK    1  A    between atoms: C1_1  and  C7_7 
ROOT
HETATM    1  C2  UNL     1     -34.109  13.544  -4.412  1.00 20.00     0.001 C 
HETATM    2  C3  UNL     1     -34.981  13.794  -5.635  1.00 20.00     0.011 C 
HETATM    3  C4  UNL     1     -34.404  16.272  -6.031  1.00 20.00     0.012 C 
HETATM    4  C5  UNL     1     -34.391  14.442  -3.210  1.00 20.00     0.008 C 
HETATM    5  C6  UNL     1     -33.697  16.475  -4.688  1.00 20.00     0.009 C 
HETATM    6  C7  UNL     1     -34.388  14.846  -6.572  1.00 20.00     0.047 C 
HETATM    7  C8  UNL     1     -34.436  15.980  -3.418  1.00 20.00    -0.048 C 
HETATM    8  C9  UNL     1     -33.741  16.634  -2.196  1.00 20.00     0.015 C 
HETATM    9  C10 UNL     1     -35.902  16.464  -3.399  1.00 20.00     0.015 C 
ENDROOT
BRANCH   6  10
HETATM   10  C1  UNL     1     -35.158  14.817  -7.860  1.00 20.00     0.235 C 
HETATM   11  O11 UNL     1     -36.375  14.681  -7.917  1.00 20.00    -0.306 OA
ENDBRANCH   6  10
TORSDOF 1
ENDMDL
MODEL 5
REMARK VINA RESULT:      -4.4      2.324      3.654
REMARK  1 active torsions:
REMARK  status: ('A' for Active; 'I' for Inactive)
REMARK    1  A    between atoms: C1_1  and  C7_7 
ROOT
HETATM    1  C2  UNL     1     -33.250  16.728  -5.074  1.00 20.00     0.001 C 
HETATM    2  C3  UNL     1     -33.975  17.041  -3.772  1.00 20.00     0.011 C 
HETATM    3  C4  UNL     1     -35.185  14.792  -3.444  1.00 20.00     0.012 C 
HETATM    4  C5  UNL     1     -34.146  16.333  -6.246  1.00 20.00     0.008 C 
HETATM    5  C6  UNL     1     -34.895  14.261  -4.850  1.00 20.00     0.009 C 
HETATM    6  C7  UNL     1     -34.177  15.801  -2.902  1.00 20.00     0.047 C 
HETATM    7  C8  UNL     1     -35.198  15.209  -6.039  1.00 20.00    -0.048 C 
HETATM    8  C9  UNL     1     -35.211  14.344  -7.326  1.00 20.00     0.015 C 
HETATM    9  C10 UNL     1     -36.605  15.830  -5.915  1.00 20.00     0.015 C 
ENDROOT
BRANCH   6  10
HETATM   10  C1  UNL     1     -34.634  16.248  -1.544  1.00 20.00     0.235 C 
HETATM   11  O11 UNL     1     -33.987  17.007  -0.829  1.00 20.00    -0.306 OA
ENDBRANCH   6  10
TORSDOF 1
ENDMDL
MODEL 6
REMARK VINA RESULT:      -4.3      2.395      3.774
REMARK  1 active torsions:
REMARK  status: ('A' for Active; 'I' for Inactive)
REMARK    1  A    between atoms: C1_1  and  C7_7 
ROOT
HETATM    1  C2  UNL     1     -36.514  16.381  -4.311  1.00 20.00     0.001 C 
HETATM    2  C3  UNL     1     -35.841  16.161  -2.963  1.00 20.00     0.011 C 
HETATM    3  C4  UNL     1     -33.392  16.077  -3.755  1.00 20.00     0.012 C 
HETATM    4  C5  UNL     1     -36.243  15.308  -5.363  1.00 20.00     0.008 C 
HETATM    5  C6  UNL     1     -33.723  15.966  -5.246  1.00 20.00     0.009 C 
HETATM    6  C7  UNL     1     -34.443  16.776  -2.899  1.00 20.00     0.047 C 
HETATM    7  C8  UNL     1     -34.773  14.903  -5.659  1.00 20.00    -0.048 C 
HETATM    8  C9  UNL     1     -34.648  14.703  -7.192  1.00 20.00     0.015 C 
HETATM    9  C10 UNL     1     -34.470  13.535  -5.013  1.00 20.00     0.015 C 
ENDROOT
BRANCH   6  10
HETATM   10  C1  UNL     1     -33.984  16.757  -1.471  1.00 20.00     0.235 C 
HETATM   11  O11 UNL     1     -34.730  16.528  -0.524  1.00 20.00    -0.306 OA
ENDBRANCH   6  10
TORSDOF 1
ENDMDL
MODEL 7
REMARK VINA RESULT:      -4.3      2.394      4.089
REMARK  1 active torsions:
REMARK  status: ('A' for Active; 'I' for Inactive)
REMARK    1  A    between atoms: C1_1  and  C7_7 
ROOT
HETATM    1  C2  UNL     1     -35.821  18.908  -2.275  1.00 20.00     0.001 C 
HETATM    2  C3  UNL     1     -34.704  18.633  -3.272  1.00 20.00     0.011 C 
HETATM    3  C4  UNL     1     -33.850  16.405  -2.302  1.00 20.00     0.012 C 
HETATM    4  C5  UNL     1     -35.389  18.997  -0.813  1.00 20.00     0.008 C 
HETATM    5  C6  UNL     1     -34.626  16.510  -0.987  1.00 20.00     0.009 C 
HETATM    6  C7  UNL     1     -34.468  17.139  -3.489  1.00 20.00     0.047 C 
HETATM    7  C8  UNL     1     -34.530  17.851  -0.215  1.00 20.00    -0.048 C 
HETATM    8  C9  UNL     1     -35.042  17.591   1.226  1.00 20.00     0.015 C 
HETATM    9  C10 UNL     1     -33.064  18.315  -0.081  1.00 20.00     0.015 C 
ENDROOT
BRANCH   6  10
HETATM   10  C1  UNL     1     -33.563  16.971  -4.675  1.00 20.00     0.235 C 
HETATM   11  O11 UNL     1     -32.657  16.146  -4.722  1.00 20.00    -0.306 OA
ENDBRANCH   6  10
TORSDOF 1
ENDMDL
MODEL 8
REMARK VINA RESULT:      -4.2      2.217      3.238
REMARK  1 active torsions:
REMARK  status: ('A' for Active; 'I' for Inactive)
REMARK    1  A    between atoms: C1_1  and  C7_7 
ROOT
HETATM    1  C2  UNL     1     -34.270  15.571  -3.687  1.00 20.00     0.001 C 
HETATM    2  C3  UNL     1     -35.662  15.038  -3.381  1.00 20.00     0.011 C 
HETATM    3  C4  UNL     1     -36.789  17.249  -2.694  1.00 20.00     0.012 C 
HETATM    4  C5  UNL     1     -33.572  16.286  -2.532  1.00 20.00     0.008 C 
HETATM    5  C6  UNL     1     -35.489  18.051  -2.593  1.00 20.00     0.009 C 
HETATM    6  C7  UNL     1     -36.758  16.066  -3.658  1.00 20.00     0.047 C 
HETATM    7  C8  UNL     1     -34.329  17.417  -1.785  1.00 20.00    -0.048 C 
HETATM    8  C9  UNL     1     -33.304  18.543  -1.489  1.00 20.00     0.015 C 
HETATM    9  C10 UNL     1     -34.817  16.899  -0.415  1.00 20.00     0.015 C 
ENDROOT
BRANCH   6  10
HETATM   10  C1  UNL     1     -38.085  15.369  -3.600  1.00 20.00     0.235 C 
HETATM   11  O11 UNL     1     -38.221  14.160  -3.758  1.00 20.00    -0.306 OA
ENDBRANCH   6  10
TORSDOF 1
ENDMDL
MODEL 9
REMARK VINA RESULT:      -4.2      1.245      2.017
REMARK  1 active torsions:
REMARK  status: ('A' for Active; 'I' for Inactive)
REMARK    1  A    between atoms: C1_1  and  C7_7 
ROOT
HETATM    1  C2  UNL     1     -36.531  16.441  -3.233  1.00 20.00     0.001 C 
HETATM    2  C3  UNL     1     -35.822  15.439  -4.133  1.00 20.00     0.011 C 
HETATM    3  C4  UNL     1     -33.471  15.567  -3.091  1.00 20.00     0.012 C 
HETATM    4  C5  UNL     1     -35.937  17.848  -3.221  1.00 20.00     0.008 C 
HETATM    5  C6  UNL     1     -33.751  16.813  -2.248  1.00 20.00     0.009 C 
HETATM    6  C7  UNL     1     -34.688  14.707  -3.416  1.00 20.00     0.047 C 
HETATM    7  C8  UNL     1     -34.415  18.016  -2.965  1.00 20.00    -0.048 C 
HETATM    8  C9  UNL     1     -34.234  19.256  -2.050  1.00 20.00     0.015 C 
HETATM    9  C10 UNL     1     -33.697  18.343  -4.292  1.00 20.00     0.015 C 
ENDROOT
BRANCH   6  10
HETATM   10  C1  UNL     1     -34.246  13.562  -4.280  1.00 20.00     0.235 C 
HETATM   11  O11 UNL     1     -34.978  12.628  -4.591  1.00 20.00    -0.306 OA
ENDBRANCH   6  10
TORSDOF 1
ENDMDL
