MODEL 1
REMARK VINA RESULT:      -4.7      0.000      0.000
REMARK  2 active torsions:
REMARK  status: ('A' for Active; 'I' for Inactive)
REMARK    1  A    between atoms: C1_1  and  C5_5 
REMARK    2  A    between atoms: C6_6  and  C8_8 
ROOT
HETATM    1  C2  UNL     1     -34.107   6.275   6.253  1.00 20.00     0.012 C 
HETATM    2  C3  UNL     1     -33.201   7.005   5.265  1.00 20.00     0.005 C 
HETATM    3  C4  UNL     1     -34.656   5.657   3.948  1.00 20.00     0.016 C 
HETATM    4  C5  UNL     1     -35.089   5.471   5.400  1.00 20.00     0.047 C 
HETATM    5  C6  UNL     1     -33.196   6.103   4.036  1.00 20.00    -0.014 C 
ENDROOT
BRANCH   4   6
HETATM    6  C1  UNL     1     -34.973   4.001   5.759  1.00 20.00     0.235 C 
HETATM    7  O9  UNL     1     -34.918   3.103   4.926  1.00 20.00    -0.306 OA
ENDBRANCH   4   6
BRANCH   5   8
HETATM    8  C8  UNL     1     -32.708   6.804   2.781  1.00 20.00     0.000 C 
HETATM    9  C7  UNL     1     -31.624   7.793   3.079  1.00 20.00     0.005 C 
ENDBRANCH   5   8
TORSDOF 2
ENDMDL
MODEL 2
REMARK VINA RESULT:      -4.7      2.521      4.137
REMARK  2 active torsions:
REMARK  status: ('A' for Active; 'I' for Inactive)
REMARK    1  A    between atoms: C1_1  and  C5_5 
REMARK    2  A    between atoms: C6_6  and  C8_8 
ROOT
HETATM    1  C2  UNL     1     -32.387   7.283   4.616  1.00 20.00     0.012 C 
HETATM    2  C3  UNL     1     -33.503   6.445   5.234  1.00 20.00     0.005 C 
HETATM    3  C4  UNL     1     -33.353   5.762   2.957  1.00 20.00     0.016 C 
HETATM    4  C5  UNL     1     -32.243   6.787   3.176  1.00 20.00     0.047 C 
HETATM    5  C6  UNL     1     -34.382   6.071   4.045  1.00 20.00    -0.014 C 
ENDROOT
BRANCH   4   6
HETATM    6  C1  UNL     1     -32.458   7.950   2.225  1.00 20.00     0.235 C 
HETATM    7  O9  UNL     1     -31.623   8.317   1.405  1.00 20.00    -0.306 OA
ENDBRANCH   4   6
BRANCH   5   8
HETATM    8  C8  UNL     1     -35.316   4.909   4.333  1.00 20.00     0.000 C 
HETATM    9  C7  UNL     1     -34.975   4.224   5.620  1.00 20.00     0.005 C 
ENDBRANCH   5   8
TORSDOF 2
ENDMDL
MODEL 3
REMARK VINA RESULT:      -4.4     11.827     12.577
REMARK  2 active torsions:
REMARK  status: ('A' for Active; 'I' for Inactive)
REMARK    1  A    between atoms: C1_1  and  C5_5 
REMARK    2  A    between atoms: C6_6  and  C8_8 
ROOT
HETATM    1  C2  UNL     1     -35.837  15.260  -4.016  1.00 20.00     0.012 C 
HETATM    2  C3  UNL     1     -35.778  16.249  -2.855  1.00 20.00     0.005 C 
HETATM    3  C4  UNL     1     -33.520  15.668  -3.338  1.00 20.00     0.016 C 
HETATM    4  C5  UNL     1     -34.383  14.950  -4.372  1.00 20.00     0.047 C 
HETATM    5  C6  UNL     1     -34.461  15.920  -2.160  1.00 20.00    -0.014 C 
ENDROOT
BRANCH   4   6
HETATM    6  C1  UNL     1     -34.147  13.456  -4.251  1.00 20.00     0.235 C 
HETATM    7  O9  UNL     1     -35.003  12.613  -4.502  1.00 20.00    -0.306 OA
ENDBRANCH   4   6
BRANCH   5   8
HETATM    8  C8  UNL     1     -33.981  17.024  -1.235  1.00 20.00     0.000 C 
HETATM    9  C7  UNL     1     -34.857  17.164  -0.029  1.00 20.00     0.005 C 
ENDBRANCH   5   8
TORSDOF 2
ENDMDL
MODEL 4
REMARK VINA RESULT:      -4.1      1.718      2.221
REMARK  2 active torsions:
REMARK  status: ('A' for Active; 'I' for Inactive)
REMARK    1  A    between atoms: C1_1  and  C5_5 
REMARK    2  A    between atoms: C6_6  and  C8_8 
ROOT
HETATM    1  C2  UNL     1     -35.353   5.087   4.249  1.00 20.00     0.012 C 
HETATM    2  C3  UNL     1     -34.625   5.586   3.004  1.00 20.00     0.005 C 
HETATM    3  C4  UNL     1     -32.985   5.488   4.728  1.00 20.00     0.016 C 
HETATM    4  C5  UNL     1     -34.281   4.952   5.332  1.00 20.00     0.047 C 
HETATM    5  C6  UNL     1     -33.439   6.365   3.561  1.00 20.00    -0.014 C 
ENDROOT
BRANCH   4   6
HETATM    6  C1  UNL     1     -34.660   5.818   6.519  1.00 20.00     0.235 C 
HETATM    7  O9  UNL     1     -34.099   6.873   6.794  1.00 20.00    -0.306 OA
ENDBRANCH   4   6
BRANCH   5   8
HETATM    8  C8  UNL     1     -32.346   6.606   2.534  1.00 20.00     0.000 C 
HETATM    9  C7  UNL     1     -32.137   8.066   2.273  1.00 20.00     0.005 C 
ENDBRANCH   5   8
TORSDOF 2
ENDMDL
MODEL 5
REMARK VINA RESULT:      -4.1     11.913     12.893
REMARK  2 active torsions:
REMARK  status: ('A' for Active; 'I' for Inactive)
REMARK    1  A    between atoms: C1_1  and  C5_5 
REMARK    2  A    between atoms: C6_6  and  C8_8 
ROOT
HETATM    1  C2  UNL     1     -33.133  15.994  -4.576  1.00 20.00     0.012 C 
HETATM    2  C3  UNL     1     -33.715  17.080  -3.674  1.00 20.00     0.005 C 
HETATM    3  C4  UNL     1     -34.435  15.005  -2.753  1.00 20.00     0.016 C 
HETATM    4  C5  UNL     1     -33.534  14.664  -3.937  1.00 20.00     0.047 C 
HETATM    5  C6  UNL     1     -34.937  16.419  -3.047  1.00 20.00    -0.014 C 
ENDROOT
BRANCH   4   6
HETATM    6  C1  UNL     1     -34.332  13.850  -4.939  1.00 20.00     0.235 C 
HETATM    7  O9  UNL     1     -34.690  12.694  -4.739  1.00 20.00    -0.306 OA
ENDBRANCH   4   6
BRANCH   5   8
HETATM    8  C8  UNL     1     -35.442  17.144  -1.811  1.00 20.00     0.000 C 
HETATM    9  C7  UNL     1     -34.692  16.739  -0.580  1.00 20.00     0.005 C 
ENDBRANCH   5   8
TORSDOF 2
ENDMDL
MODEL 6
REMARK VINA RESULT:      -4.0     11.790     13.393
REMARK  2 active torsions:
REMARK  status: ('A' for Active; 'I' for Inactive)
REMARK    1  A    between atoms: C1_1  and  C5_5 
REMARK    2  A    between atoms: C6_6  and  C8_8 
ROOT
HETATM    1  C2  UNL     1     -34.228  14.011  -3.436  1.00 20.00     0.012 C 
HETATM    2  C3  UNL     1     -34.410  13.768  -4.932  1.00 20.00     0.005 C 
HETATM    3  C4  UNL     1     -33.457  15.941  -4.732  1.00 20.00     0.016 C 
HETATM    4  C5  UNL     1     -33.546  15.374  -3.317  1.00 20.00     0.047 C 
HETATM    5  C6  UNL     1     -34.515  15.170  -5.521  1.00 20.00    -0.014 C 
ENDROOT
BRANCH   4   6
HETATM    6  C1  UNL     1     -34.412  16.294  -2.477  1.00 20.00     0.235 C 
HETATM    7  O9  UNL     1     -34.529  16.189  -1.260  1.00 20.00    -0.306 OA
ENDBRANCH   4   6
BRANCH   5   8
HETATM    8  C8  UNL     1     -34.288  15.208  -7.022  1.00 20.00     0.000 C 
HETATM    9  C7  UNL     1     -35.385  14.517  -7.772  1.00 20.00     0.005 C 
ENDBRANCH   5   8
TORSDOF 2
ENDMDL
MODEL 7
REMARK VINA RESULT:      -3.9     12.221     12.946
REMARK  2 active torsions:
REMARK  status: ('A' for Active; 'I' for Inactive)
REMARK    1  A    between atoms: C1_1  and  C5_5 
REMARK    2  A    between atoms: C6_6  and  C8_8 
ROOT
HETATM    1  C2  UNL     1     -35.037  13.605  -4.376  1.00 20.00     0.012 C 
HETATM    2  C3  UNL     1     -33.984  14.242  -3.474  1.00 20.00     0.005 C 
HETATM    3  C4  UNL     1     -35.956  15.550  -3.204  1.00 20.00     0.016 C 
HETATM    4  C5  UNL     1     -36.322  14.401  -4.141  1.00 20.00     0.047 C 
HETATM    5  C6  UNL     1     -34.440  15.691  -3.344  1.00 20.00    -0.014 C 
ENDROOT
BRANCH   4   6
HETATM    6  C1  UNL     1     -36.798  14.980  -5.460  1.00 20.00     0.235 C 
HETATM    7  O9  UNL     1     -36.199  14.833  -6.520  1.00 20.00    -0.306 OA
ENDBRANCH   4   6
BRANCH   5   8
HETATM    8  C8  UNL     1     -33.797  16.419  -2.177  1.00 20.00     0.000 C 
HETATM    9  C7  UNL     1     -34.719  16.514  -1.001  1.00 20.00     0.005 C 
ENDBRANCH   5   8
TORSDOF 2
ENDMDL
MODEL 8
REMARK VINA RESULT:      -3.9      2.202      4.179
REMARK  2 active torsions:
REMARK  status: ('A' for Active; 'I' for Inactive)
REMARK    1  A    between atoms: C1_1  and  C5_5 
REMARK    2  A    between atoms: C6_6  and  C8_8 
ROOT
HETATM    1  C2  UNL     1     -34.109   5.528   2.756  1.00 20.00     0.012 C 
HETATM    2  C3  UNL     1     -34.797   4.929   3.979  1.00 20.00     0.005 C 
HETATM    3  C4  UNL     1     -33.744   6.927   4.732  1.00 20.00     0.016 C 
HETATM    4  C5  UNL     1     -33.500   6.849   3.227  1.00 20.00     0.047 C 
HETATM    5  C6  UNL     1     -34.000   5.481   5.156  1.00 20.00    -0.014 C 
ENDROOT
BRANCH   4   6
HETATM    6  C1  UNL     1     -32.003   6.825   2.977  1.00 20.00     0.235 C 
HETATM    7  O9  UNL     1     -31.215   7.599   3.510  1.00 20.00    -0.306 OA
ENDBRANCH   4   6
BRANCH   5   8
HETATM    8  C8  UNL     1     -34.732   5.366   6.481  1.00 20.00     0.000 C 
HETATM    9  C7  UNL     1     -35.405   4.037   6.635  1.00 20.00     0.005 C 
ENDBRANCH   5   8
TORSDOF 2
ENDMDL
MODEL 9
REMARK VINA RESULT:      -3.9     12.615     13.537
REMARK  2 active torsions:
REMARK  status: ('A' for Active; 'I' for Inactive)
REMARK    1  A    between atoms: C1_1  and  C5_5 
REMARK    2  A    between atoms: C6_6  and  C8_8 
ROOT
HETATM    1  C2  UNL     1     -34.905  15.915  -2.052  1.00 20.00     0.012 C 
HETATM    2  C3  UNL     1     -34.653  16.706  -0.770  1.00 20.00     0.005 C 
HETATM    3  C4  UNL     1     -33.765  18.026  -2.542  1.00 20.00     0.016 C 
HETATM    4  C5  UNL     1     -34.403  16.801  -3.192  1.00 20.00     0.047 C 
HETATM    5  C6  UNL     1     -33.455  17.584  -1.112  1.00 20.00    -0.014 C 
ENDROOT
BRANCH   4   6
HETATM    6  C1  UNL     1     -33.337  16.053  -3.972  1.00 20.00     0.235 C 
HETATM    7  O9  UNL     1     -32.814  16.489  -4.993  1.00 20.00    -0.306 OA
ENDBRANCH   4   6
BRANCH   5   8
HETATM    8  C8  UNL     1     -33.273  18.747  -0.152  1.00 20.00     0.000 C 
HETATM    9  C7  UNL     1     -33.768  18.421   1.223  1.00 20.00     0.005 C 
ENDBRANCH   5   8
TORSDOF 2
ENDMDL
