MODEL 1
REMARK VINA RESULT:      -3.9      0.000      0.000
REMARK  5 active torsions:
REMARK  status: ('A' for Active; 'I' for Inactive)
REMARK    1  A    between atoms: C3_3  and  C7_7 
REMARK    2  A    between atoms: C5_5  and  C6_6 
REMARK    3  A    between atoms: C5_5  and  C7_7 
REMARK    4  A    between atoms: C6_6  and  S9_9 
REMARK    5  A    between atoms: C7_7  and  O8_8 
ROOT
HETATM    1  C7  UNL     1     -34.470  13.470  -4.877  1.00 20.00     0.122 C 
ENDROOT
BRANCH   1   2
HETATM    2  C3  UNL     1     -35.242  14.370  -5.797  1.00 20.00     0.014 A 
HETATM    3  C1  UNL     1     -34.550  15.499  -6.510  1.00 20.00     0.007 A 
HETATM    4  C2  UNL     1     -35.022  14.300  -7.283  1.00 20.00     0.007 A 
ENDBRANCH   1   2
BRANCH   1   5
HETATM    5  C5  UNL     1     -33.744  14.227  -3.755  1.00 20.00     0.042 C 
BRANCH   5   6
HETATM    6  C6  UNL     1     -34.626  15.067  -2.831  1.00 20.00     0.076 C 
BRANCH   6   7
HETATM    7  S9  UNL     1     -33.890  16.673  -2.407  1.00 20.00    -0.173 SA
HETATM    8  C4  UNL     1     -34.533  16.819  -0.725  1.00 20.00     0.089 C 
ENDBRANCH   6   7
ENDBRANCH   5   6
ENDBRANCH   1   5
BRANCH   1   9
HETATM    9  O8  UNL     1     -35.376  12.543  -4.274  1.00 20.00    -0.395 OA
HETATM   10  H23 UNL     1     -35.850  13.034  -3.586  1.00 20.00     0.210 HD
ENDBRANCH   1   9
TORSDOF 5
ENDMDL
MODEL 2
REMARK VINA RESULT:      -3.8     10.876     12.041
REMARK  5 active torsions:
REMARK  status: ('A' for Active; 'I' for Inactive)
REMARK    1  A    between atoms: C3_3  and  C7_7 
REMARK    2  A    between atoms: C5_5  and  C6_6 
REMARK    3  A    between atoms: C5_5  and  C7_7 
REMARK    4  A    between atoms: C6_6  and  S9_9 
REMARK    5  A    between atoms: C7_7  and  O8_8 
ROOT
HETATM    1  C7  UNL     1     -33.993   6.121   3.866  1.00 20.00     0.122 C 
ENDROOT
BRANCH   1   2
HETATM    2  C3  UNL     1     -33.737   5.595   5.248  1.00 20.00     0.014 A 
HETATM    3  C1  UNL     1     -33.997   6.462   6.449  1.00 20.00     0.007 A 
HETATM    4  C2  UNL     1     -34.888   5.285   6.164  1.00 20.00     0.007 A 
ENDBRANCH   1   2
BRANCH   1   5
HETATM    5  C5  UNL     1     -32.719   6.255   3.020  1.00 20.00     0.042 C 
BRANCH   5   6
HETATM    6  C6  UNL     1     -32.045   7.628   3.032  1.00 20.00     0.076 C 
BRANCH   6   7
HETATM    7  S9  UNL     1     -31.854   8.343   1.373  1.00 20.00    -0.173 SA
HETATM    8  C4  UNL     1     -32.622   9.948   1.691  1.00 20.00     0.089 C 
ENDBRANCH   6   7
ENDBRANCH   5   6
ENDBRANCH   1   5
BRANCH   1   9
HETATM    9  O8  UNL     1     -34.883   5.227   3.191  1.00 20.00    -0.395 OA
HETATM   10  H23 UNL     1     -35.101   5.648   2.346  1.00 20.00     0.210 HD
ENDBRANCH   1   9
TORSDOF 5
ENDMDL
MODEL 3
REMARK VINA RESULT:      -3.8      2.359      4.161
REMARK  5 active torsions:
REMARK  status: ('A' for Active; 'I' for Inactive)
REMARK    1  A    between atoms: C3_3  and  C7_7 
REMARK    2  A    between atoms: C5_5  and  C6_6 
REMARK    3  A    between atoms: C5_5  and  C7_7 
REMARK    4  A    between atoms: C6_6  and  S9_9 
REMARK    5  A    between atoms: C7_7  and  O8_8 
ROOT
HETATM    1  C7  UNL     1     -33.175  15.358  -3.417  1.00 20.00     0.122 C 
ENDROOT
BRANCH   1   2
HETATM    2  C3  UNL     1     -33.977  16.480  -2.826  1.00 20.00     0.014 A 
HETATM    3  C1  UNL     1     -34.765  16.265  -1.564  1.00 20.00     0.007 A 
HETATM    4  C2  UNL     1     -33.536  17.131  -1.543  1.00 20.00     0.007 A 
ENDBRANCH   1   2
BRANCH   1   5
HETATM    5  C5  UNL     1     -34.013  14.110  -3.728  1.00 20.00     0.042 C 
BRANCH   5   6
HETATM    6  C6  UNL     1     -34.455  13.943  -5.183  1.00 20.00     0.076 C 
BRANCH   6   7
HETATM    7  S9  UNL     1     -35.969  14.865  -5.579  1.00 20.00    -0.173 SA
HETATM    8  C4  UNL     1     -36.896  14.507  -4.069  1.00 20.00     0.089 C 
ENDBRANCH   6   7
ENDBRANCH   5   6
ENDBRANCH   1   5
BRANCH   1   9
HETATM    9  O8  UNL     1     -32.580  15.810  -4.636  1.00 20.00    -0.395 OA
HETATM   10  H23 UNL     1     -31.953  16.507  -4.389  1.00 20.00     0.210 HD
ENDBRANCH   1   9
TORSDOF 5
ENDMDL
MODEL 4
REMARK VINA RESULT:      -3.7     11.917     13.001
REMARK  5 active torsions:
REMARK  status: ('A' for Active; 'I' for Inactive)
REMARK    1  A    between atoms: C3_3  and  C7_7 
REMARK    2  A    between atoms: C5_5  and  C6_6 
REMARK    3  A    between atoms: C5_5  and  C7_7 
REMARK    4  A    between atoms: C6_6  and  S9_9 
REMARK    5  A    between atoms: C7_7  and  O8_8 
ROOT
HETATM    1  C7  UNL     1     -33.811   6.151   5.667  1.00 20.00     0.122 C 
ENDROOT
BRANCH   1   2
HETATM    2  C3  UNL     1     -34.872   5.133   5.965  1.00 20.00     0.014 A 
HETATM    3  C1  UNL     1     -35.411   4.256   4.869  1.00 20.00     0.007 A 
HETATM    4  C2  UNL     1     -34.540   3.667   5.943  1.00 20.00     0.007 A 
ENDBRANCH   1   2
BRANCH   1   5
HETATM    5  C5  UNL     1     -33.929   6.759   4.262  1.00 20.00     0.042 C 
BRANCH   5   6
HETATM    6  C6  UNL     1     -32.855   6.344   3.257  1.00 20.00     0.076 C 
BRANCH   6   7
HETATM    7  S9  UNL     1     -31.491   7.538   3.135  1.00 20.00    -0.173 SA
HETATM    8  C4  UNL     1     -32.079   8.460   1.697  1.00 20.00     0.089 C 
ENDBRANCH   6   7
ENDBRANCH   5   6
ENDBRANCH   1   5
BRANCH   1   9
HETATM    9  O8  UNL     1     -33.910   7.212   6.621  1.00 20.00    -0.395 OA
HETATM   10  H23 UNL     1     -33.005   7.403   6.909  1.00 20.00     0.210 HD
ENDBRANCH   1   9
TORSDOF 5
ENDMDL
MODEL 5
REMARK VINA RESULT:      -3.7      2.300      3.127
REMARK  5 active torsions:
REMARK  status: ('A' for Active; 'I' for Inactive)
REMARK    1  A    between atoms: C3_3  and  C7_7 
REMARK    2  A    between atoms: C5_5  and  C6_6 
REMARK    3  A    between atoms: C5_5  and  C7_7 
REMARK    4  A    between atoms: C6_6  and  S9_9 
REMARK    5  A    between atoms: C7_7  and  O8_8 
ROOT
HETATM    1  C7  UNL     1     -33.242  15.018  -3.837  1.00 20.00     0.122 C 
ENDROOT
BRANCH   1   2
HETATM    2  C3  UNL     1     -34.128  13.809  -3.771  1.00 20.00     0.014 A 
HETATM    3  C1  UNL     1     -35.603  13.935  -4.037  1.00 20.00     0.007 A 
HETATM    4  C2  UNL     1     -34.718  13.233  -5.029  1.00 20.00     0.007 A 
ENDBRANCH   1   2
BRANCH   1   5
HETATM    5  C5  UNL     1     -33.607  16.097  -2.807  1.00 20.00     0.042 C 
BRANCH   5   6
HETATM    6  C6  UNL     1     -33.835  17.504  -3.359  1.00 20.00     0.076 C 
BRANCH   6   7
HETATM    7  S9  UNL     1     -33.697  17.592  -5.168  1.00 20.00    -0.173 SA
HETATM    8  C4  UNL     1     -35.453  17.442  -5.571  1.00 20.00     0.089 C 
ENDBRANCH   6   7
ENDBRANCH   5   6
ENDBRANCH   1   5
BRANCH   1   9
HETATM    9  O8  UNL     1     -31.892  14.612  -3.597  1.00 20.00    -0.395 OA
HETATM   10  H23 UNL     1     -31.604  15.086  -2.803  1.00 20.00     0.210 HD
ENDBRANCH   1   9
TORSDOF 5
ENDMDL
MODEL 6
REMARK VINA RESULT:      -3.7      1.986      3.541
REMARK  5 active torsions:
REMARK  status: ('A' for Active; 'I' for Inactive)
REMARK    1  A    between atoms: C3_3  and  C7_7 
REMARK    2  A    between atoms: C5_5  and  C6_6 
REMARK    3  A    between atoms: C5_5  and  C7_7 
REMARK    4  A    between atoms: C6_6  and  S9_9 
REMARK    5  A    between atoms: C7_7  and  O8_8 
ROOT
HETATM    1  C7  UNL     1     -35.183  13.916  -4.344  1.00 20.00     0.122 C 
ENDROOT
BRANCH   1   2
HETATM    2  C3  UNL     1     -34.170  14.431  -3.365  1.00 20.00     0.014 A 
HETATM    3  C1  UNL     1     -33.455  15.728  -3.626  1.00 20.00     0.007 A 
HETATM    4  C2  UNL     1     -34.477  15.641  -2.526  1.00 20.00     0.007 A 
ENDBRANCH   1   2
BRANCH   1   5
HETATM    5  C5  UNL     1     -34.771  14.120  -5.809  1.00 20.00     0.042 C 
BRANCH   5   6
HETATM    6  C6  UNL     1     -35.770  14.871  -6.690  1.00 20.00     0.076 C 
BRANCH   6   7
HETATM    7  S9  UNL     1     -37.100  15.666  -5.743  1.00 20.00    -0.173 SA
HETATM    8  C4  UNL     1     -36.332  17.288  -5.524  1.00 20.00     0.089 C 
ENDBRANCH   6   7
ENDBRANCH   5   6
ENDBRANCH   1   5
BRANCH   1   9
HETATM    9  O8  UNL     1     -35.363  12.514  -4.124  1.00 20.00    -0.395 OA
HETATM   10  H23 UNL     1     -35.108  12.075  -4.949  1.00 20.00     0.210 HD
ENDBRANCH   1   9
TORSDOF 5
ENDMDL
MODEL 7
REMARK VINA RESULT:      -3.5      2.310      4.442
REMARK  5 active torsions:
REMARK  status: ('A' for Active; 'I' for Inactive)
REMARK    1  A    between atoms: C3_3  and  C7_7 
REMARK    2  A    between atoms: C5_5  and  C6_6 
REMARK    3  A    between atoms: C5_5  and  C7_7 
REMARK    4  A    between atoms: C6_6  and  S9_9 
REMARK    5  A    between atoms: C7_7  and  O8_8 
ROOT
HETATM    1  C7  UNL     1     -36.143  16.182  -2.982  1.00 20.00     0.122 C 
ENDROOT
BRANCH   1   2
HETATM    2  C3  UNL     1     -34.928  15.844  -2.170  1.00 20.00     0.014 A 
HETATM    3  C1  UNL     1     -33.764  16.795  -2.116  1.00 20.00     0.007 A 
HETATM    4  C2  UNL     1     -34.630  16.599  -0.904  1.00 20.00     0.007 A 
ENDBRANCH   1   2
BRANCH   1   5
HETATM    5  C5  UNL     1     -35.830  16.457  -4.459  1.00 20.00     0.042 C 
BRANCH   5   6
HETATM    6  C6  UNL     1     -36.274  15.383  -5.452  1.00 20.00     0.076 C 
BRANCH   6   7
HETATM    7  S9  UNL     1     -34.887  14.449  -6.161  1.00 20.00    -0.173 SA
HETATM    8  C4  UNL     1     -34.699  13.222  -4.847  1.00 20.00     0.089 C 
ENDBRANCH   6   7
ENDBRANCH   5   6
ENDBRANCH   1   5
BRANCH   1   9
HETATM    9  O8  UNL     1     -37.059  15.085  -2.918  1.00 20.00    -0.395 OA
HETATM   10  H23 UNL     1     -36.774  14.537  -2.171  1.00 20.00     0.210 HD
ENDBRANCH   1   9
TORSDOF 5
ENDMDL
MODEL 8
REMARK VINA RESULT:      -3.4     11.275     12.429
REMARK  5 active torsions:
REMARK  status: ('A' for Active; 'I' for Inactive)
REMARK    1  A    between atoms: C3_3  and  C7_7 
REMARK    2  A    between atoms: C5_5  and  C6_6 
REMARK    3  A    between atoms: C5_5  and  C7_7 
REMARK    4  A    between atoms: C6_6  and  S9_9 
REMARK    5  A    between atoms: C7_7  and  O8_8 
ROOT
HETATM    1  C7  UNL     1     -34.525   5.877   3.778  1.00 20.00     0.122 C 
ENDROOT
BRANCH   1   2
HETATM    2  C3  UNL     1     -35.196   5.079   4.858  1.00 20.00     0.014 A 
HETATM    3  C1  UNL     1     -34.428   4.029   5.612  1.00 20.00     0.007 A 
HETATM    4  C2  UNL     1     -34.832   5.303   6.300  1.00 20.00     0.007 A 
ENDBRANCH   1   2
BRANCH   1   5
HETATM    5  C5  UNL     1     -33.074   6.252   4.112  1.00 20.00     0.042 C 
BRANCH   5   6
HETATM    6  C6  UNL     1     -32.203   6.682   2.932  1.00 20.00     0.076 C 
BRANCH   6   7
HETATM    7  S9  UNL     1     -32.259   8.471   2.617  1.00 20.00    -0.173 SA
HETATM    8  C4  UNL     1     -31.757   8.447   0.881  1.00 20.00     0.089 C 
ENDBRANCH   6   7
ENDBRANCH   5   6
ENDBRANCH   1   5
BRANCH   1   9
HETATM    9  O8  UNL     1     -34.520   5.107   2.573  1.00 20.00    -0.395 OA
HETATM   10  H23 UNL     1     -34.731   4.197   2.832  1.00 20.00     0.210 HD
ENDBRANCH   1   9
TORSDOF 5
ENDMDL
MODEL 9
REMARK VINA RESULT:      -3.4      1.911      2.806
REMARK  5 active torsions:
REMARK  status: ('A' for Active; 'I' for Inactive)
REMARK    1  A    between atoms: C3_3  and  C7_7 
REMARK    2  A    between atoms: C5_5  and  C6_6 
REMARK    3  A    between atoms: C5_5  and  C7_7 
REMARK    4  A    between atoms: C6_6  and  S9_9 
REMARK    5  A    between atoms: C7_7  and  O8_8 
ROOT
HETATM    1  C7  UNL     1     -35.404  13.975  -4.270  1.00 20.00     0.122 C 
ENDROOT
BRANCH   1   2
HETATM    2  C3  UNL     1     -36.807  14.440  -4.009  1.00 20.00     0.014 A 
HETATM    3  C1  UNL     1     -37.072  15.870  -3.626  1.00 20.00     0.007 A 
HETATM    4  C2  UNL     1     -37.490  15.364  -4.978  1.00 20.00     0.007 A 
ENDBRANCH   1   2
BRANCH   1   5
HETATM    5  C5  UNL     1     -34.369  14.603  -3.326  1.00 20.00     0.042 C 
BRANCH   5   6
HETATM    6  C6  UNL     1     -33.239  15.388  -3.993  1.00 20.00     0.076 C 
BRANCH   6   7
HETATM    7  S9  UNL     1     -33.656  17.133  -4.281  1.00 20.00    -0.173 SA
HETATM    8  C4  UNL     1     -34.069  17.016  -6.037  1.00 20.00     0.089 C 
ENDBRANCH   6   7
ENDBRANCH   5   6
ENDBRANCH   1   5
BRANCH   1   9
HETATM    9  O8  UNL     1     -35.353  12.555  -4.107  1.00 20.00    -0.395 OA
HETATM   10  H23 UNL     1     -35.510  12.176  -4.984  1.00 20.00     0.210 HD
ENDBRANCH   1   9
TORSDOF 5
ENDMDL
