MODEL 1
REMARK VINA RESULT:      -4.9      0.000      0.000
REMARK  2 active torsions:
REMARK  status: ('A' for Active; 'I' for Inactive)
REMARK    1  A    between atoms: C1_1  and  C5_5 
REMARK    2  A    between atoms: C6_6  and  C8_8 
ROOT
HETATM    1  C2  UNL     1     -34.051   5.724   2.818  1.00 20.00     0.012 C 
HETATM    2  C3  UNL     1     -35.088   5.286   3.848  1.00 20.00     0.005 C 
HETATM    3  C4  UNL     1     -33.520   6.894   4.823  1.00 20.00     0.016 C 
HETATM    4  C5  UNL     1     -32.855   6.155   3.660  1.00 20.00     0.047 C 
HETATM    5  C6  UNL     1     -34.787   6.094   5.111  1.00 20.00    -0.014 C 
ENDROOT
BRANCH   4   6
HETATM    6  C1  UNL     1     -31.862   7.012   2.895  1.00 20.00     0.235 C 
HETATM    7  O9  UNL     1     -32.188   7.976   2.210  1.00 20.00    -0.306 OA
ENDBRANCH   4   6
BRANCH   5   8
HETATM    8  C8  UNL     1     -34.512   5.143   6.261  1.00 20.00     0.000 C 
HETATM    9  C7  UNL     1     -34.777   3.720   5.887  1.00 20.00     0.005 C 
ENDBRANCH   5   8
TORSDOF 2
ENDMDL
MODEL 2
REMARK VINA RESULT:      -4.4     11.489     12.172
REMARK  2 active torsions:
REMARK  status: ('A' for Active; 'I' for Inactive)
REMARK    1  A    between atoms: C1_1  and  C5_5 
REMARK    2  A    between atoms: C6_6  and  C8_8 
ROOT
HETATM    1  C2  UNL     1     -35.796  15.105  -3.435  1.00 20.00     0.012 C 
HETATM    2  C3  UNL     1     -35.741  16.413  -2.651  1.00 20.00     0.005 C 
HETATM    3  C4  UNL     1     -33.516  15.792  -3.463  1.00 20.00     0.016 C 
HETATM    4  C5  UNL     1     -34.385  14.542  -3.310  1.00 20.00     0.047 C 
HETATM    5  C6  UNL     1     -34.290  16.887  -2.735  1.00 20.00    -0.014 C 
ENDROOT
BRANCH   4   6
HETATM    6  C1  UNL     1     -34.075  13.469  -4.339  1.00 20.00     0.235 C 
HETATM    7  O9  UNL     1     -34.872  12.596  -4.666  1.00 20.00    -0.306 OA
ENDBRANCH   4   6
BRANCH   5   8
HETATM    8  C8  UNL     1     -33.727  17.030  -1.332  1.00 20.00     0.000 C 
HETATM    9  C7  UNL     1     -34.804  17.016  -0.293  1.00 20.00     0.005 C 
ENDBRANCH   5   8
TORSDOF 2
ENDMDL
MODEL 3
REMARK VINA RESULT:      -4.2     11.534     12.523
REMARK  2 active torsions:
REMARK  status: ('A' for Active; 'I' for Inactive)
REMARK    1  A    between atoms: C1_1  and  C5_5 
REMARK    2  A    between atoms: C6_6  and  C8_8 
ROOT
HETATM    1  C2  UNL     1     -33.908  16.080  -4.992  1.00 20.00     0.012 C 
HETATM    2  C3  UNL     1     -33.706  16.984  -3.779  1.00 20.00     0.005 C 
HETATM    3  C4  UNL     1     -34.228  14.696  -3.081  1.00 20.00     0.016 C 
HETATM    4  C5  UNL     1     -34.805  14.963  -4.472  1.00 20.00     0.047 C 
HETATM    5  C6  UNL     1     -33.840  16.076  -2.556  1.00 20.00    -0.014 C 
ENDROOT
BRANCH   4   6
HETATM    6  C1  UNL     1     -34.808  13.734  -5.364  1.00 20.00     0.235 C 
HETATM    7  O9  UNL     1     -34.784  12.586  -4.934  1.00 20.00    -0.306 OA
ENDBRANCH   4   6
BRANCH   5   8
HETATM    8  C8  UNL     1     -34.957  16.591  -1.669  1.00 20.00     0.000 C 
HETATM    9  C7  UNL     1     -34.436  17.168  -0.390  1.00 20.00     0.005 C 
ENDBRANCH   5   8
TORSDOF 2
ENDMDL
MODEL 4
REMARK VINA RESULT:      -4.2      2.243      4.059
REMARK  2 active torsions:
REMARK  status: ('A' for Active; 'I' for Inactive)
REMARK    1  A    between atoms: C1_1  and  C5_5 
REMARK    2  A    between atoms: C6_6  and  C8_8 
ROOT
HETATM    1  C2  UNL     1     -34.744   5.212   3.580  1.00 20.00     0.012 C 
HETATM    2  C3  UNL     1     -33.921   5.827   2.451  1.00 20.00     0.005 C 
HETATM    3  C4  UNL     1     -32.855   6.222   4.620  1.00 20.00     0.016 C 
HETATM    4  C5  UNL     1     -34.362   6.036   4.804  1.00 20.00     0.047 C 
HETATM    5  C6  UNL     1     -32.674   6.409   3.116  1.00 20.00    -0.014 C 
ENDROOT
BRANCH   4   6
HETATM    6  C1  UNL     1     -34.726   5.362   6.116  1.00 20.00     0.235 C 
HETATM    7  O9  UNL     1     -35.118   4.203   6.195  1.00 20.00    -0.306 OA
ENDBRANCH   4   6
BRANCH   5   8
HETATM    8  C8  UNL     1     -32.594   7.895   2.817  1.00 20.00     0.000 C 
HETATM    9  C7  UNL     1     -31.870   8.170   1.537  1.00 20.00     0.005 C 
ENDBRANCH   5   8
TORSDOF 2
ENDMDL
MODEL 5
REMARK VINA RESULT:      -4.0     11.502     12.754
REMARK  2 active torsions:
REMARK  status: ('A' for Active; 'I' for Inactive)
REMARK    1  A    between atoms: C1_1  and  C5_5 
REMARK    2  A    between atoms: C6_6  and  C8_8 
ROOT
HETATM    1  C2  UNL     1     -34.386  13.558  -4.994  1.00 20.00     0.012 C 
HETATM    2  C3  UNL     1     -34.394  13.788  -3.485  1.00 20.00     0.005 C 
HETATM    3  C4  UNL     1     -35.275  15.743  -4.668  1.00 20.00     0.016 C 
HETATM    4  C5  UNL     1     -34.326  14.964  -5.580  1.00 20.00     0.047 C 
HETATM    5  C6  UNL     1     -35.033  15.161  -3.278  1.00 20.00    -0.014 C 
ENDROOT
BRANCH   4   6
HETATM    6  C1  UNL     1     -34.723  15.019  -7.045  1.00 20.00     0.235 C 
HETATM    7  O9  UNL     1     -35.421  14.171  -7.589  1.00 20.00    -0.306 OA
ENDBRANCH   4   6
BRANCH   5   8
HETATM    8  C8  UNL     1     -34.060  16.060  -2.537  1.00 20.00     0.000 C 
HETATM    9  C7  UNL     1     -34.588  16.475  -1.200  1.00 20.00     0.005 C 
ENDBRANCH   5   8
TORSDOF 2
ENDMDL
MODEL 6
REMARK VINA RESULT:      -4.0      2.478      4.276
REMARK  2 active torsions:
REMARK  status: ('A' for Active; 'I' for Inactive)
REMARK    1  A    between atoms: C1_1  and  C5_5 
REMARK    2  A    between atoms: C6_6  and  C8_8 
ROOT
HETATM    1  C2  UNL     1     -34.020   6.168   6.094  1.00 20.00     0.012 C 
HETATM    2  C3  UNL     1     -33.307   7.223   5.253  1.00 20.00     0.005 C 
HETATM    3  C4  UNL     1     -34.475   5.614   3.823  1.00 20.00     0.016 C 
HETATM    4  C5  UNL     1     -34.126   4.965   5.163  1.00 20.00     0.047 C 
HETATM    5  C6  UNL     1     -33.662   6.906   3.800  1.00 20.00    -0.014 C 
ENDROOT
BRANCH   4   6
HETATM    6  C1  UNL     1     -35.153   3.944   5.619  1.00 20.00     0.235 C 
HETATM    7  O9  UNL     1     -35.659   3.945   6.736  1.00 20.00    -0.306 OA
ENDBRANCH   4   6
BRANCH   5   8
HETATM    8  C8  UNL     1     -32.387   6.664   3.013  1.00 20.00     0.000 C 
HETATM    9  C7  UNL     1     -31.956   7.882   2.258  1.00 20.00     0.005 C 
ENDBRANCH   5   8
TORSDOF 2
ENDMDL
MODEL 7
REMARK VINA RESULT:      -3.9      0.967      1.076
REMARK  2 active torsions:
REMARK  status: ('A' for Active; 'I' for Inactive)
REMARK    1  A    between atoms: C1_1  and  C5_5 
REMARK    2  A    between atoms: C6_6  and  C8_8 
ROOT
HETATM    1  C2  UNL     1     -32.797   5.527   2.410  1.00 20.00     0.012 C 
HETATM    2  C3  UNL     1     -33.826   4.794   3.267  1.00 20.00     0.005 C 
HETATM    3  C4  UNL     1     -33.870   7.199   3.722  1.00 20.00     0.016 C 
HETATM    4  C5  UNL     1     -32.490   6.791   3.206  1.00 20.00     0.047 C 
HETATM    5  C6  UNL     1     -34.562   5.879   4.053  1.00 20.00    -0.014 C 
ENDROOT
BRANCH   4   6
HETATM    6  C1  UNL     1     -31.817   7.871   2.377  1.00 20.00     0.235 C 
HETATM    7  O9  UNL     1     -32.381   8.900   2.022  1.00 20.00    -0.306 OA
ENDBRANCH   4   6
BRANCH   5   8
HETATM    8  C8  UNL     1     -34.413   5.610   5.539  1.00 20.00     0.000 C 
HETATM    9  C7  UNL     1     -35.011   4.297   5.933  1.00 20.00     0.005 C 
ENDBRANCH   5   8
TORSDOF 2
ENDMDL
MODEL 8
REMARK VINA RESULT:      -3.9     11.449     12.655
REMARK  2 active torsions:
REMARK  status: ('A' for Active; 'I' for Inactive)
REMARK    1  A    between atoms: C1_1  and  C5_5 
REMARK    2  A    between atoms: C6_6  and  C8_8 
ROOT
HETATM    1  C2  UNL     1     -35.704  15.793  -5.139  1.00 20.00     0.012 C 
HETATM    2  C3  UNL     1     -34.310  15.222  -5.383  1.00 20.00     0.005 C 
HETATM    3  C4  UNL     1     -35.707  13.618  -4.169  1.00 20.00     0.016 C 
HETATM    4  C5  UNL     1     -36.199  15.043  -3.908  1.00 20.00     0.047 C 
HETATM    5  C6  UNL     1     -34.341  13.799  -4.823  1.00 20.00    -0.014 C 
ENDROOT
BRANCH   4   6
HETATM    6  C1  UNL     1     -37.703  15.131  -3.717  1.00 20.00     0.235 C 
HETATM    7  O9  UNL     1     -38.455  14.167  -3.812  1.00 20.00    -0.306 OA
ENDBRANCH   4   6
BRANCH   5   8
HETATM    8  C8  UNL     1     -33.269  13.656  -3.759  1.00 20.00     0.000 C 
HETATM    9  C7  UNL     1     -32.454  14.902  -3.613  1.00 20.00     0.005 C 
ENDBRANCH   5   8
TORSDOF 2
ENDMDL
MODEL 9
REMARK VINA RESULT:      -3.8     11.455     12.411
REMARK  2 active torsions:
REMARK  status: ('A' for Active; 'I' for Inactive)
REMARK    1  A    between atoms: C1_1  and  C5_5 
REMARK    2  A    between atoms: C6_6  and  C8_8 
ROOT
HETATM    1  C2  UNL     1     -36.237  15.512  -3.065  1.00 20.00     0.012 C 
HETATM    2  C3  UNL     1     -36.530  14.474  -4.146  1.00 20.00     0.005 C 
HETATM    3  C4  UNL     1     -34.218  14.284  -3.361  1.00 20.00     0.016 C 
HETATM    4  C5  UNL     1     -34.727  15.710  -3.146  1.00 20.00     0.047 C 
HETATM    5  C6  UNL     1     -35.254  13.642  -4.279  1.00 20.00    -0.014 C 
ENDROOT
BRANCH   4   6
HETATM    6  C1  UNL     1     -34.144  16.374  -1.911  1.00 20.00     0.235 C 
HETATM    7  O9  UNL     1     -34.700  16.375  -0.817  1.00 20.00    -0.306 OA
ENDBRANCH   4   6
BRANCH   5   8
HETATM    8  C8  UNL     1     -34.752  13.720  -5.710  1.00 20.00     0.000 C 
HETATM    9  C7  UNL     1     -35.655  14.541  -6.575  1.00 20.00     0.005 C 
ENDBRANCH   5   8
TORSDOF 2
ENDMDL
