MODEL 1
REMARK VINA RESULT:      -5.2      0.000      0.000
REMARK  2 active torsions:
REMARK  status: ('A' for Active; 'I' for Inactive)
REMARK    1  A    between atoms: C1_1  and  C7_7 
REMARK    2  A    between atoms: C8_8  and  C12_12 
ROOT
HETATM    1  C2  UNL     1     -33.735  17.349  -4.518  1.00 20.00     0.001 C 
HETATM    2  C3  UNL     1     -33.330  15.881  -4.594  1.00 20.00     0.011 C 
HETATM    3  C4  UNL     1     -34.851  14.886  -2.764  1.00 20.00     0.012 C 
HETATM    4  C5  UNL     1     -33.612  17.992  -3.139  1.00 20.00     0.005 C 
HETATM    5  C6  UNL     1     -35.194  16.233  -2.124  1.00 20.00     0.006 C 
HETATM    6  C7  UNL     1     -34.483  14.937  -4.246  1.00 20.00     0.047 C 
HETATM    7  C8  UNL     1     -33.960  17.125  -1.919  1.00 20.00    -0.007 C 
ENDROOT
BRANCH   7   8
HETATM    8  C12 UNL     1     -34.162  18.036  -0.702  1.00 20.00    -0.048 C 
HETATM    9  C9  UNL     1     -34.993  19.262  -1.110  1.00 20.00     0.015 C 
HETATM   10  C10 UNL     1     -32.796  18.498  -0.174  1.00 20.00     0.015 C 
HETATM   11  C11 UNL     1     -34.900  17.264   0.402  1.00 20.00     0.015 C 
ENDBRANCH   7   8
BRANCH   6  12
HETATM   12  C1  UNL     1     -34.114  13.548  -4.679  1.00 20.00     0.235 C 
HETATM   13  O13 UNL     1     -34.894  12.602  -4.657  1.00 20.00    -0.306 OA
ENDBRANCH   6  12
TORSDOF 2
ENDMDL
MODEL 2
REMARK VINA RESULT:      -4.7      2.615      4.963
REMARK  2 active torsions:
REMARK  status: ('A' for Active; 'I' for Inactive)
REMARK    1  A    between atoms: C1_1  and  C7_7 
REMARK    2  A    between atoms: C8_8  and  C12_12 
ROOT
HETATM    1  C2  UNL     1     -36.162  17.985  -3.335  1.00 20.00     0.001 C 
HETATM    2  C3  UNL     1     -36.571  17.844  -1.873  1.00 20.00     0.011 C 
HETATM    3  C4  UNL     1     -34.492  16.649  -0.924  1.00 20.00     0.012 C 
HETATM    4  C5  UNL     1     -35.772  16.686  -4.035  1.00 20.00     0.005 C 
HETATM    5  C6  UNL     1     -33.935  16.238  -2.289  1.00 20.00     0.006 C 
HETATM    6  C7  UNL     1     -35.373  17.898  -0.922  1.00 20.00     0.047 C 
HETATM    7  C8  UNL     1     -35.007  15.639  -3.211  1.00 20.00    -0.007 C 
ENDROOT
BRANCH   7   8
HETATM    8  C12 UNL     1     -34.373  14.619  -4.166  1.00 20.00    -0.048 C 
HETATM    9  C9  UNL     1     -32.991  14.209  -3.636  1.00 20.00     0.015 C 
HETATM   10  C10 UNL     1     -34.221  15.246  -5.560  1.00 20.00     0.015 C 
HETATM   11  C11 UNL     1     -35.272  13.377  -4.261  1.00 20.00     0.015 C 
ENDBRANCH   7   8
BRANCH   6  12
HETATM   12  C1  UNL     1     -35.879  18.106   0.476  1.00 20.00     0.235 C 
HETATM   13  O13 UNL     1     -35.497  17.450   1.439  1.00 20.00    -0.306 OA
ENDBRANCH   6  12
TORSDOF 2
ENDMDL
MODEL 3
REMARK VINA RESULT:      -4.7      2.614      4.958
REMARK  2 active torsions:
REMARK  status: ('A' for Active; 'I' for Inactive)
REMARK    1  A    between atoms: C1_1  and  C7_7 
REMARK    2  A    between atoms: C8_8  and  C12_12 
ROOT
HETATM    1  C2  UNL     1     -36.082  18.043  -3.313  1.00 20.00     0.001 C 
HETATM    2  C3  UNL     1     -36.523  17.892  -1.861  1.00 20.00     0.011 C 
HETATM    3  C4  UNL     1     -34.490  16.636  -0.889  1.00 20.00     0.012 C 
HETATM    4  C5  UNL     1     -35.710  16.744  -4.024  1.00 20.00     0.005 C 
HETATM    5  C6  UNL     1     -33.918  16.230  -2.249  1.00 20.00     0.006 C 
HETATM    6  C7  UNL     1     -35.343  17.904  -0.887  1.00 20.00     0.047 C 
HETATM    7  C8  UNL     1     -34.985  15.668  -3.200  1.00 20.00    -0.007 C 
ENDROOT
BRANCH   7   8
HETATM    8  C12 UNL     1     -34.357  14.647  -4.157  1.00 20.00    -0.048 C 
HETATM    9  C9  UNL     1     -34.212  15.272  -5.552  1.00 20.00     0.015 C 
HETATM   10  C10 UNL     1     -35.257  13.405  -4.245  1.00 20.00     0.015 C 
HETATM   11  C11 UNL     1     -32.972  14.237  -3.635  1.00 20.00     0.015 C 
ENDBRANCH   7   8
BRANCH   6  12
HETATM   12  C1  UNL     1     -35.870  18.105   0.504  1.00 20.00     0.235 C 
HETATM   13  O13 UNL     1     -35.495  17.452   1.472  1.00 20.00    -0.306 OA
ENDBRANCH   6  12
TORSDOF 2
ENDMDL
MODEL 4
REMARK VINA RESULT:      -4.7      1.884      2.901
REMARK  2 active torsions:
REMARK  status: ('A' for Active; 'I' for Inactive)
REMARK    1  A    between atoms: C1_1  and  C7_7 
REMARK    2  A    between atoms: C8_8  and  C12_12 
ROOT
HETATM    1  C2  UNL     1     -34.108  13.944  -4.084  1.00 20.00     0.001 C 
HETATM    2  C3  UNL     1     -34.877  14.046  -5.397  1.00 20.00     0.011 C 
HETATM    3  C4  UNL     1     -34.450  16.518  -5.994  1.00 20.00     0.012 C 
HETATM    4  C5  UNL     1     -34.503  14.958  -3.013  1.00 20.00     0.005 C 
HETATM    5  C6  UNL     1     -33.966  16.915  -4.597  1.00 20.00     0.006 C 
HETATM    6  C7  UNL     1     -34.250  15.050  -6.367  1.00 20.00     0.047 C 
HETATM    7  C8  UNL     1     -34.871  16.375  -3.480  1.00 20.00    -0.007 C 
ENDROOT
BRANCH   7   8
HETATM    8  C12 UNL     1     -34.843  17.320  -2.272  1.00 20.00    -0.048 C 
HETATM    9  C9  UNL     1     -33.706  18.339  -2.445  1.00 20.00     0.015 C 
HETATM   10  C10 UNL     1     -34.611  16.508  -0.989  1.00 20.00     0.015 C 
HETATM   11  C11 UNL     1     -36.182  18.064  -2.170  1.00 20.00     0.015 C 
ENDBRANCH   7   8
BRANCH   6  12
HETATM   12  C1  UNL     1     -34.840  14.834  -7.730  1.00 20.00     0.235 C 
HETATM   13  O13 UNL     1     -35.989  14.448  -7.918  1.00 20.00    -0.306 OA
ENDBRANCH   6  12
TORSDOF 2
ENDMDL
MODEL 5
REMARK VINA RESULT:      -4.6      2.603      5.342
REMARK  2 active torsions:
REMARK  status: ('A' for Active; 'I' for Inactive)
REMARK    1  A    between atoms: C1_1  and  C7_7 
REMARK    2  A    between atoms: C8_8  and  C12_12 
ROOT
HETATM    1  C2  UNL     1     -34.810  15.773  -1.974  1.00 20.00     0.001 C 
HETATM    2  C3  UNL     1     -33.738  16.857  -1.928  1.00 20.00     0.011 C 
HETATM    3  C4  UNL     1     -34.324  18.176  -4.066  1.00 20.00     0.012 C 
HETATM    4  C5  UNL     1     -34.858  14.953  -3.261  1.00 20.00     0.005 C 
HETATM    5  C6  UNL     1     -35.212  17.083  -4.662  1.00 20.00     0.006 C 
HETATM    6  C7  UNL     1     -34.214  18.176  -2.541  1.00 20.00     0.047 C 
HETATM    7  C8  UNL     1     -34.575  15.688  -4.580  1.00 20.00    -0.007 C 
ENDROOT
BRANCH   7   8
HETATM    8  C12 UNL     1     -35.054  14.817  -5.748  1.00 20.00    -0.048 C 
HETATM    9  C9  UNL     1     -34.242  15.155  -7.007  1.00 20.00     0.015 C 
HETATM   10  C10 UNL     1     -36.543  15.086  -6.013  1.00 20.00     0.015 C 
HETATM   11  C11 UNL     1     -34.858  13.334  -5.399  1.00 20.00     0.015 C 
ENDBRANCH   7   8
BRANCH   6  12
HETATM   12  C1  UNL     1     -33.257  19.263  -2.146  1.00 20.00     0.235 C 
HETATM   13  O13 UNL     1     -32.536  19.203  -1.156  1.00 20.00    -0.306 OA
ENDBRANCH   6  12
TORSDOF 2
ENDMDL
MODEL 6
REMARK VINA RESULT:      -4.6      2.352      4.874
REMARK  2 active torsions:
REMARK  status: ('A' for Active; 'I' for Inactive)
REMARK    1  A    between atoms: C1_1  and  C7_7 
REMARK    2  A    between atoms: C8_8  and  C12_12 
ROOT
HETATM    1  C2  UNL     1     -33.678  18.203  -3.876  1.00 20.00     0.001 C 
HETATM    2  C3  UNL     1     -34.361  18.469  -2.539  1.00 20.00     0.011 C 
HETATM    3  C4  UNL     1     -34.556  16.062  -1.633  1.00 20.00     0.012 C 
HETATM    4  C5  UNL     1     -34.391  17.210  -4.791  1.00 20.00     0.005 C 
HETATM    5  C6  UNL     1     -34.284  15.386  -2.979  1.00 20.00     0.006 C 
HETATM    6  C7  UNL     1     -33.957  17.457  -1.464  1.00 20.00     0.047 C 
HETATM    7  C8  UNL     1     -35.086  16.010  -4.130  1.00 20.00    -0.007 C 
ENDROOT
BRANCH   7   8
HETATM    8  C12 UNL     1     -35.382  14.954  -5.202  1.00 20.00    -0.048 C 
HETATM    9  C9  UNL     1     -36.823  15.126  -5.708  1.00 20.00     0.015 C 
HETATM   10  C10 UNL     1     -35.216  13.551  -4.601  1.00 20.00     0.015 C 
HETATM   11  C11 UNL     1     -34.407  15.124  -6.376  1.00 20.00     0.015 C 
ENDBRANCH   7   8
BRANCH   6  12
HETATM   12  C1  UNL     1     -34.382  17.984  -0.124  1.00 20.00     0.235 C 
HETATM   13  O13 UNL     1     -35.038  17.335   0.682  1.00 20.00    -0.306 OA
ENDBRANCH   6  12
TORSDOF 2
ENDMDL
MODEL 7
REMARK VINA RESULT:      -4.6      2.819      5.320
REMARK  2 active torsions:
REMARK  status: ('A' for Active; 'I' for Inactive)
REMARK    1  A    between atoms: C1_1  and  C7_7 
REMARK    2  A    between atoms: C8_8  and  C12_12 
ROOT
HETATM    1  C2  UNL     1     -33.924  14.099  -4.003  1.00 20.00     0.001 C 
HETATM    2  C3  UNL     1     -33.582  15.289  -3.113  1.00 20.00     0.011 C 
HETATM    3  C4  UNL     1     -35.782  16.626  -3.262  1.00 20.00     0.012 C 
HETATM    4  C5  UNL     1     -34.388  14.449  -5.415  1.00 20.00     0.005 C 
HETATM    5  C6  UNL     1     -36.318  15.873  -4.481  1.00 20.00     0.006 C 
HETATM    6  C7  UNL     1     -34.806  15.846  -2.382  1.00 20.00     0.047 C 
HETATM    7  C8  UNL     1     -35.263  15.700  -5.583  1.00 20.00    -0.007 C 
ENDROOT
BRANCH   7   8
HETATM    8  C12 UNL     1     -35.938  15.654  -6.960  1.00 20.00    -0.048 C 
HETATM    9  C9  UNL     1     -35.425  14.436  -7.743  1.00 20.00     0.015 C 
HETATM   10  C10 UNL     1     -35.609  16.937  -7.737  1.00 20.00     0.015 C 
HETATM   11  C11 UNL     1     -37.459  15.542  -6.783  1.00 20.00     0.015 C 
ENDBRANCH   7   8
BRANCH   6  12
HETATM   12  C1  UNL     1     -34.339  16.758  -1.286  1.00 20.00     0.235 C 
HETATM   13  O13 UNL     1     -34.796  16.740  -0.149  1.00 20.00    -0.306 OA
ENDBRANCH   6  12
TORSDOF 2
ENDMDL
MODEL 8
REMARK VINA RESULT:      -4.4      3.649      6.213
REMARK  2 active torsions:
REMARK  status: ('A' for Active; 'I' for Inactive)
REMARK    1  A    between atoms: C1_1  and  C7_7 
REMARK    2  A    between atoms: C8_8  and  C12_12 
ROOT
HETATM    1  C2  UNL     1     -34.934  18.614   2.019  1.00 20.00     0.001 C 
HETATM    2  C3  UNL     1     -33.603  18.272   2.680  1.00 20.00     0.011 C 
HETATM    3  C4  UNL     1     -31.970  18.888   0.781  1.00 20.00     0.012 C 
HETATM    4  C5  UNL     1     -35.194  17.930   0.679  1.00 20.00     0.005 C 
HETATM    5  C6  UNL     1     -33.042  18.938  -0.310  1.00 20.00     0.006 C 
HETATM    6  C7  UNL     1     -32.461  19.172   2.200  1.00 20.00     0.047 C 
HETATM    7  C8  UNL     1     -33.995  17.735  -0.262  1.00 20.00    -0.007 C 
ENDROOT
BRANCH   7   8
HETATM    8  C12 UNL     1     -34.514  17.414  -1.670  1.00 20.00    -0.048 C 
HETATM    9  C9  UNL     1     -35.979  17.860  -1.791  1.00 20.00     0.015 C 
HETATM   10  C10 UNL     1     -34.417  15.902  -1.921  1.00 20.00     0.015 C 
HETATM   11  C11 UNL     1     -33.667  18.159  -2.712  1.00 20.00     0.015 C 
ENDBRANCH   7   8
BRANCH   6  12
HETATM   12  C1  UNL     1     -31.298  19.012   3.134  1.00 20.00     0.235 C 
HETATM   13  O13 UNL     1     -31.413  18.929   4.352  1.00 20.00    -0.306 OA
ENDBRANCH   6  12
TORSDOF 2
ENDMDL
MODEL 9
REMARK VINA RESULT:      -4.4      3.287      4.706
REMARK  2 active torsions:
REMARK  status: ('A' for Active; 'I' for Inactive)
REMARK    1  A    between atoms: C1_1  and  C7_7 
REMARK    2  A    between atoms: C8_8  and  C12_12 
ROOT
HETATM    1  C2  UNL     1     -35.058  15.165  -7.848  1.00 20.00     0.001 C 
HETATM    2  C3  UNL     1     -36.518  14.730  -7.917  1.00 20.00     0.011 C 
HETATM    3  C4  UNL     1     -37.457  15.929  -5.835  1.00 20.00     0.012 C 
HETATM    4  C5  UNL     1     -34.344  14.858  -6.534  1.00 20.00     0.005 C 
HETATM    5  C6  UNL     1     -36.088  16.214  -5.213  1.00 20.00     0.006 C 
HETATM    6  C7  UNL     1     -37.472  15.788  -7.357  1.00 20.00     0.047 C 
HETATM    7  C8  UNL     1     -35.157  14.993  -5.238  1.00 20.00    -0.007 C 
ENDROOT
BRANCH   7   8
HETATM    8  C12 UNL     1     -34.192  15.039  -4.047  1.00 20.00    -0.048 C 
HETATM    9  C9  UNL     1     -34.963  15.428  -2.776  1.00 20.00     0.015 C 
HETATM   10  C10 UNL     1     -33.093  16.077  -4.316  1.00 20.00     0.015 C 
HETATM   11  C11 UNL     1     -33.551  13.657  -3.851  1.00 20.00     0.015 C 
ENDBRANCH   7   8
BRANCH   6  12
HETATM   12  C1  UNL     1     -38.871  15.445  -7.777  1.00 20.00     0.235 C 
HETATM   13  O13 UNL     1     -39.301  14.298  -7.826  1.00 20.00    -0.306 OA
ENDBRANCH   6  12
TORSDOF 2
ENDMDL
