MODEL 1
REMARK VINA RESULT:      -3.8      0.000      0.000
REMARK  4 active torsions:
REMARK  status: ('A' for Active; 'I' for Inactive)
REMARK    1  A    between atoms: C3_3  and  C6_6 
REMARK    2  A    between atoms: C4_4  and  C6_6 
REMARK    3  A    between atoms: C4_4  and  O7_7 
REMARK    4  A    between atoms: C5_5  and  C6_6 
ROOT
HETATM    1  C6  UNL     1     -34.163   6.189   4.292  1.00 20.00     0.023 C 
ENDROOT
BRANCH   1   2
HETATM    2  C3  UNL     1     -33.340   6.222   5.600  1.00 20.00     0.003 C 
HETATM    3  C1  UNL     1     -33.949   7.099   6.685  1.00 20.00     0.005 C 
ENDBRANCH   1   2
BRANCH   1   4
HETATM    4  C4  UNL     1     -33.232   6.116   3.070  1.00 20.00     0.172 C 
BRANCH   4   5
HETATM    5  O7  UNL     1     -32.106   6.963   3.268  1.00 20.00    -0.396 OA
HETATM    6  C2  UNL     1     -32.059   8.001   2.298  1.00 20.00     0.201 C 
ENDBRANCH   4   5
ENDBRANCH   1   4
BRANCH   1   7
HETATM    7  C5  UNL     1     -35.225   5.080   4.244  1.00 20.00     0.121 C 
HETATM    8 CL8  UNL     1     -35.029   3.850   5.515  1.00 20.00    -0.130 Cl
ENDBRANCH   1   7
TORSDOF 4
ENDMDL
MODEL 2
REMARK VINA RESULT:      -3.5      1.449      2.251
REMARK  4 active torsions:
REMARK  status: ('A' for Active; 'I' for Inactive)
REMARK    1  A    between atoms: C3_3  and  C6_6 
REMARK    2  A    between atoms: C4_4  and  C6_6 
REMARK    3  A    between atoms: C4_4  and  O7_7 
REMARK    4  A    between atoms: C5_5  and  C6_6 
ROOT
HETATM    1  C6  UNL     1     -33.329   5.919   4.118  1.00 20.00     0.023 C 
ENDROOT
BRANCH   1   2
HETATM    2  C3  UNL     1     -34.761   5.459   3.766  1.00 20.00     0.003 C 
HETATM    3  C1  UNL     1     -35.278   4.333   4.652  1.00 20.00     0.005 C 
ENDBRANCH   1   2
BRANCH   1   4
HETATM    4  C4  UNL     1     -32.548   6.277   2.842  1.00 20.00     0.172 C 
BRANCH   4   5
HETATM    5  O7  UNL     1     -31.902   7.534   3.006  1.00 20.00    -0.396 OA
HETATM    6  C2  UNL     1     -32.038   8.344   1.847  1.00 20.00     0.201 C 
ENDBRANCH   4   5
ENDBRANCH   1   4
BRANCH   1   7
HETATM    7  C5  UNL     1     -33.268   7.064   5.141  1.00 20.00     0.121 C 
HETATM    8 CL8  UNL     1     -34.020   6.663   6.704  1.00 20.00    -0.130 Cl
ENDBRANCH   1   7
TORSDOF 4
ENDMDL
MODEL 3
REMARK VINA RESULT:      -3.5     12.031     12.546
REMARK  4 active torsions:
REMARK  status: ('A' for Active; 'I' for Inactive)
REMARK    1  A    between atoms: C3_3  and  C6_6 
REMARK    2  A    between atoms: C4_4  and  C6_6 
REMARK    3  A    between atoms: C4_4  and  O7_7 
REMARK    4  A    between atoms: C5_5  and  C6_6 
ROOT
HETATM    1  C6  UNL     1     -33.563  16.039  -3.003  1.00 20.00     0.023 C 
ENDROOT
BRANCH   1   2
HETATM    2  C3  UNL     1     -34.772  15.933  -2.047  1.00 20.00     0.003 C 
HETATM    3  C1  UNL     1     -34.594  16.702  -0.745  1.00 20.00     0.005 C 
ENDBRANCH   1   2
BRANCH   1   4
HETATM    4  C4  UNL     1     -33.271  14.677  -3.656  1.00 20.00     0.172 C 
BRANCH   4   5
HETATM    5  O7  UNL     1     -34.368  13.795  -3.449  1.00 20.00    -0.396 OA
HETATM    6  C2  UNL     1     -34.832  13.245  -4.674  1.00 20.00     0.201 C 
ENDBRANCH   4   5
ENDBRANCH   1   4
BRANCH   1   7
HETATM    7  C5  UNL     1     -33.692  17.143  -4.064  1.00 20.00     0.121 C 
HETATM    8 CL8  UNL     1     -33.577  16.541  -5.735  1.00 20.00    -0.130 Cl
ENDBRANCH   1   7
TORSDOF 4
ENDMDL
MODEL 4
REMARK VINA RESULT:      -3.4     11.812     12.787
REMARK  4 active torsions:
REMARK  status: ('A' for Active; 'I' for Inactive)
REMARK    1  A    between atoms: C3_3  and  C6_6 
REMARK    2  A    between atoms: C4_4  and  C6_6 
REMARK    3  A    between atoms: C4_4  and  O7_7 
REMARK    4  A    between atoms: C5_5  and  C6_6 
ROOT
HETATM    1  C6  UNL     1     -33.587  15.284  -3.348  1.00 20.00     0.023 C 
ENDROOT
BRANCH   1   2
HETATM    2  C3  UNL     1     -33.597  13.806  -3.797  1.00 20.00     0.003 C 
HETATM    3  C1  UNL     1     -34.954  13.325  -4.293  1.00 20.00     0.005 C 
ENDBRANCH   1   2
BRANCH   1   4
HETATM    4  C4  UNL     1     -33.248  16.206  -4.531  1.00 20.00     0.172 C 
BRANCH   4   5
HETATM    5  O7  UNL     1     -33.574  17.552  -4.206  1.00 20.00    -0.396 OA
HETATM    6  C2  UNL     1     -33.575  18.381  -5.360  1.00 20.00     0.201 C 
ENDBRANCH   4   5
ENDBRANCH   1   4
BRANCH   1   7
HETATM    7  C5  UNL     1     -34.877  15.738  -2.647  1.00 20.00     0.121 C 
HETATM    8 CL8  UNL     1     -34.605  16.413  -1.022  1.00 20.00    -0.130 Cl
ENDBRANCH   1   7
TORSDOF 4
ENDMDL
MODEL 5
REMARK VINA RESULT:      -3.4      2.707      3.546
REMARK  4 active torsions:
REMARK  status: ('A' for Active; 'I' for Inactive)
REMARK    1  A    between atoms: C3_3  and  C6_6 
REMARK    2  A    between atoms: C4_4  and  C6_6 
REMARK    3  A    between atoms: C4_4  and  O7_7 
REMARK    4  A    between atoms: C5_5  and  C6_6 
ROOT
HETATM    1  C6  UNL     1     -33.442   5.891   4.177  1.00 20.00     0.023 C 
ENDROOT
BRANCH   1   2
HETATM    2  C3  UNL     1     -33.699   7.137   5.053  1.00 20.00     0.003 C 
HETATM    3  C1  UNL     1     -33.685   6.849   6.548  1.00 20.00     0.005 C 
ENDBRANCH   1   2
BRANCH   1   4
HETATM    4  C4  UNL     1     -34.746   5.423   3.509  1.00 20.00     0.172 C 
BRANCH   4   5
HETATM    5  O7  UNL     1     -35.630   4.894   4.490  1.00 20.00    -0.396 OA
HETATM    6  C2  UNL     1     -35.016   3.853   5.237  1.00 20.00     0.201 C 
ENDBRANCH   4   5
ENDBRANCH   1   4
BRANCH   1   7
HETATM    7  C5  UNL     1     -32.324   6.070   3.138  1.00 20.00     0.121 C 
HETATM    8 CL8  UNL     1     -32.153   7.744   2.557  1.00 20.00    -0.130 Cl
ENDBRANCH   1   7
TORSDOF 4
ENDMDL
MODEL 6
REMARK VINA RESULT:      -3.3     12.022     12.495
REMARK  4 active torsions:
REMARK  status: ('A' for Active; 'I' for Inactive)
REMARK    1  A    between atoms: C3_3  and  C6_6 
REMARK    2  A    between atoms: C4_4  and  C6_6 
REMARK    3  A    between atoms: C4_4  and  O7_7 
REMARK    4  A    between atoms: C5_5  and  C6_6 
ROOT
HETATM    1  C6  UNL     1     -34.836  14.176  -3.653  1.00 20.00     0.023 C 
ENDROOT
BRANCH   1   2
HETATM    2  C3  UNL     1     -33.633  15.128  -3.464  1.00 20.00     0.003 C 
HETATM    3  C1  UNL     1     -33.900  16.267  -2.490  1.00 20.00     0.005 C 
ENDBRANCH   1   2
BRANCH   1   4
HETATM    4  C4  UNL     1     -36.160  14.943  -3.504  1.00 20.00     0.172 C 
BRANCH   4   5
HETATM    5  O7  UNL     1     -37.255  14.080  -3.790  1.00 20.00    -0.396 OA
HETATM    6  C2  UNL     1     -38.438  14.815  -4.070  1.00 20.00     0.201 C 
ENDBRANCH   4   5
ENDBRANCH   1   4
BRANCH   1   7
HETATM    7  C5  UNL     1     -34.806  13.376  -4.964  1.00 20.00     0.121 C 
HETATM    8 CL8  UNL     1     -34.840  14.397  -6.422  1.00 20.00    -0.130 Cl
ENDBRANCH   1   7
TORSDOF 4
ENDMDL
MODEL 7
REMARK VINA RESULT:      -3.3     11.505     12.730
REMARK  4 active torsions:
REMARK  status: ('A' for Active; 'I' for Inactive)
REMARK    1  A    between atoms: C3_3  and  C6_6 
REMARK    2  A    between atoms: C4_4  and  C6_6 
REMARK    3  A    between atoms: C4_4  and  O7_7 
REMARK    4  A    between atoms: C5_5  and  C6_6 
ROOT
HETATM    1  C6  UNL     1     -33.741  15.709  -3.881  1.00 20.00     0.023 C 
ENDROOT
BRANCH   1   2
HETATM    2  C3  UNL     1     -33.237  16.414  -5.160  1.00 20.00     0.003 C 
HETATM    3  C1  UNL     1     -34.191  16.296  -6.341  1.00 20.00     0.005 C 
ENDBRANCH   1   2
BRANCH   1   4
HETATM    4  C4  UNL     1     -33.092  14.321  -3.739  1.00 20.00     0.172 C 
BRANCH   4   5
HETATM    5  O7  UNL     1     -34.079  13.359  -3.388  1.00 20.00    -0.396 OA
HETATM    6  C2  UNL     1     -35.164  13.369  -4.305  1.00 20.00     0.201 C 
ENDBRANCH   4   5
ENDBRANCH   1   4
BRANCH   1   7
HETATM    7  C5  UNL     1     -33.567  16.533  -2.596  1.00 20.00     0.121 C 
HETATM    8 CL8  UNL     1     -34.793  16.183  -1.353  1.00 20.00    -0.130 Cl
ENDBRANCH   1   7
TORSDOF 4
ENDMDL
MODEL 8
REMARK VINA RESULT:      -3.3     11.984     12.439
REMARK  4 active torsions:
REMARK  status: ('A' for Active; 'I' for Inactive)
REMARK    1  A    between atoms: C3_3  and  C6_6 
REMARK    2  A    between atoms: C4_4  and  C6_6 
REMARK    3  A    between atoms: C4_4  and  O7_7 
REMARK    4  A    between atoms: C5_5  and  C6_6 
ROOT
HETATM    1  C6  UNL     1     -34.612  15.896  -3.147  1.00 20.00     0.023 C 
ENDROOT
BRANCH   1   2
HETATM    2  C3  UNL     1     -34.710  16.215  -1.639  1.00 20.00     0.003 C 
HETATM    3  C1  UNL     1     -33.738  17.292  -1.176  1.00 20.00     0.005 C 
ENDBRANCH   1   2
BRANCH   1   4
HETATM    4  C4  UNL     1     -33.156  15.597  -3.542  1.00 20.00     0.172 C 
BRANCH   4   5
HETATM    5  O7  UNL     1     -32.849  16.232  -4.778  1.00 20.00    -0.396 OA
HETATM    6  C2  UNL     1     -33.501  17.489  -4.892  1.00 20.00     0.201 C 
ENDBRANCH   4   5
ENDBRANCH   1   4
BRANCH   1   7
HETATM    7  C5  UNL     1     -35.552  14.775  -3.617  1.00 20.00     0.121 C 
HETATM    8 CL8  UNL     1     -34.697  13.318  -4.179  1.00 20.00    -0.130 Cl
ENDBRANCH   1   7
TORSDOF 4
ENDMDL
MODEL 9
REMARK VINA RESULT:      -3.3     12.066     13.046
REMARK  4 active torsions:
REMARK  status: ('A' for Active; 'I' for Inactive)
REMARK    1  A    between atoms: C3_3  and  C6_6 
REMARK    2  A    between atoms: C4_4  and  C6_6 
REMARK    3  A    between atoms: C4_4  and  O7_7 
REMARK    4  A    between atoms: C5_5  and  C6_6 
ROOT
HETATM    1  C6  UNL     1     -35.742  14.441  -4.903  1.00 20.00     0.023 C 
ENDROOT
BRANCH   1   2
HETATM    2  C3  UNL     1     -34.865  13.278  -4.387  1.00 20.00     0.003 C 
HETATM    3  C1  UNL     1     -33.516  13.723  -3.840  1.00 20.00     0.005 C 
ENDBRANCH   1   2
BRANCH   1   4
HETATM    4  C4  UNL     1     -36.656  14.965  -3.783  1.00 20.00     0.172 C 
BRANCH   4   5
HETATM    5  O7  UNL     1     -37.834  14.170  -3.707  1.00 20.00    -0.396 OA
HETATM    6  C2  UNL     1     -39.002  14.949  -3.922  1.00 20.00     0.201 C 
ENDBRANCH   4   5
ENDBRANCH   1   4
BRANCH   1   7
HETATM    7  C5  UNL     1     -34.950  15.588  -5.550  1.00 20.00     0.121 C 
HETATM    8 CL8  UNL     1     -34.207  15.150  -7.107  1.00 20.00    -0.130 Cl
ENDBRANCH   1   7
TORSDOF 4
ENDMDL
