MODEL 1
REMARK VINA RESULT:      -5.1      0.000      0.000
REMARK  3 active torsions:
REMARK  status: ('A' for Active; 'I' for Inactive)
REMARK    1  A    between atoms: C6_6  and  C9_9 
REMARK    2  A    between atoms: C7_7  and  C10_10 
REMARK    3  A    between atoms: C9_9  and  C11_11 
ROOT
HETATM    1  C1  UNL     1     -32.931  14.495  -3.691  1.00 20.00     0.001 C 
HETATM    2  C2  UNL     1     -33.454  15.741  -2.977  1.00 20.00     0.005 C 
HETATM    3  C3  UNL     1     -33.936  13.450  -4.163  1.00 20.00     0.005 C 
HETATM    4  C4  UNL     1     -35.990  15.701  -3.194  1.00 20.00     0.005 C 
HETATM    5  C5  UNL     1     -36.275  14.447  -4.017  1.00 20.00     0.006 C 
HETATM    6  C6  UNL     1     -34.791  15.599  -2.237  1.00 20.00    -0.014 C 
HETATM    7  C7  UNL     1     -35.161  13.943  -4.941  1.00 20.00    -0.001 C 
ENDROOT
BRANCH   6   8
HETATM    8  C9  UNL     1     -34.900  16.717  -1.189  1.00 20.00     0.004 C 
BRANCH   8   9
HETATM    9  C11 UNL     1     -33.613  17.528  -1.120  1.00 20.00    -0.004 C 
HETATM   10  C8  UNL     1     -33.535  18.315   0.179  1.00 20.00     0.005 C 
ENDBRANCH   8   9
ENDBRANCH   6   8
BRANCH   7  11
HETATM   11  C10 UNL     1     -34.823  14.925  -6.062  1.00 20.00     0.119 C 
HETATM   12 CL12 UNL     1     -35.477  14.335  -7.598  1.00 20.00    -0.130 Cl
ENDBRANCH   7  11
TORSDOF 3
ENDMDL
MODEL 2
REMARK VINA RESULT:      -5.0      2.632      5.148
REMARK  3 active torsions:
REMARK  status: ('A' for Active; 'I' for Inactive)
REMARK    1  A    between atoms: C6_6  and  C9_9 
REMARK    2  A    between atoms: C7_7  and  C10_10 
REMARK    3  A    between atoms: C9_9  and  C11_11 
ROOT
HETATM    1  C1  UNL     1     -34.542  13.216  -4.464  1.00 20.00     0.001 C 
HETATM    2  C2  UNL     1     -35.193  13.939  -5.642  1.00 20.00     0.005 C 
HETATM    3  C3  UNL     1     -33.369  13.886  -3.756  1.00 20.00     0.005 C 
HETATM    4  C4  UNL     1     -34.188  16.276  -5.715  1.00 20.00     0.005 C 
HETATM    5  C5  UNL     1     -33.233  16.310  -4.526  1.00 20.00     0.006 C 
HETATM    6  C6  UNL     1     -34.306  14.916  -6.424  1.00 20.00    -0.014 C 
HETATM    7  C7  UNL     1     -33.526  15.358  -3.360  1.00 20.00    -0.001 C 
ENDROOT
BRANCH   6   8
HETATM    8  C9  UNL     1     -34.917  15.138  -7.816  1.00 20.00     0.004 C 
BRANCH   8   9
HETATM    9  C11 UNL     1     -36.402  14.798  -7.821  1.00 20.00    -0.004 C 
HETATM   10  C8  UNL     1     -37.248  16.057  -7.918  1.00 20.00     0.005 C 
ENDBRANCH   8   9
ENDBRANCH   6   8
BRANCH   7  11
HETATM   11  C10 UNL     1     -34.843  15.667  -2.651  1.00 20.00     0.119 C 
HETATM   12 CL12 UNL     1     -34.522  16.440  -1.091  1.00 20.00    -0.130 Cl
ENDBRANCH   7  11
TORSDOF 3
ENDMDL
MODEL 3
REMARK VINA RESULT:      -4.7      1.332      1.817
REMARK  3 active torsions:
REMARK  status: ('A' for Active; 'I' for Inactive)
REMARK    1  A    between atoms: C6_6  and  C9_9 
REMARK    2  A    between atoms: C7_7  and  C10_10 
REMARK    3  A    between atoms: C9_9  and  C11_11 
ROOT
HETATM    1  C1  UNL     1     -34.019  16.658  -5.798  1.00 20.00     0.001 C 
HETATM    2  C2  UNL     1     -34.228  17.149  -4.367  1.00 20.00     0.005 C 
HETATM    3  C3  UNL     1     -34.134  15.164  -6.081  1.00 20.00     0.005 C 
HETATM    4  C4  UNL     1     -35.076  15.159  -3.025  1.00 20.00     0.005 C 
HETATM    5  C5  UNL     1     -35.171  14.031  -4.050  1.00 20.00     0.006 C 
HETATM    6  C6  UNL     1     -33.919  16.149  -3.245  1.00 20.00    -0.014 C 
HETATM    7  C7  UNL     1     -35.355  14.428  -5.519  1.00 20.00    -0.001 C 
ENDROOT
BRANCH   6   8
HETATM    8  C9  UNL     1     -33.679  16.923  -1.941  1.00 20.00     0.004 C 
BRANCH   8   9
HETATM    9  C11 UNL     1     -34.709  16.546  -0.884  1.00 20.00    -0.004 C 
HETATM   10  C8  UNL     1     -34.668  17.515   0.287  1.00 20.00     0.005 C 
ENDBRANCH   8   9
ENDBRANCH   6   8
BRANCH   7  11
HETATM   11  C10 UNL     1     -36.680  15.140  -5.786  1.00 20.00     0.119 C 
HETATM   12 CL12 UNL     1     -37.040  15.116  -7.518  1.00 20.00    -0.130 Cl
ENDBRANCH   7  11
TORSDOF 3
ENDMDL
MODEL 4
REMARK VINA RESULT:      -4.7      1.765      2.640
REMARK  3 active torsions:
REMARK  status: ('A' for Active; 'I' for Inactive)
REMARK    1  A    between atoms: C6_6  and  C9_9 
REMARK    2  A    between atoms: C7_7  and  C10_10 
REMARK    3  A    between atoms: C9_9  and  C11_11 
ROOT
HETATM    1  C1  UNL     1     -34.739  18.494  -4.184  1.00 20.00     0.001 C 
HETATM    2  C2  UNL     1     -35.207  17.739  -2.941  1.00 20.00     0.005 C 
HETATM    3  C3  UNL     1     -33.520  17.972  -4.938  1.00 20.00     0.005 C 
HETATM    4  C4  UNL     1     -33.861  15.581  -2.842  1.00 20.00     0.005 C 
HETATM    5  C5  UNL     1     -32.980  15.633  -4.087  1.00 20.00     0.006 C 
HETATM    6  C6  UNL     1     -34.141  16.940  -2.179  1.00 20.00    -0.014 C 
HETATM    7  C7  UNL     1     -33.477  16.476  -5.268  1.00 20.00    -0.001 C 
ENDROOT
BRANCH   6   8
HETATM    8  C9  UNL     1     -34.633  16.696  -0.745  1.00 20.00     0.004 C 
BRANCH   8   9
HETATM    9  C11 UNL     1     -34.250  17.853   0.168  1.00 20.00    -0.004 C 
HETATM   10  C8  UNL     1     -32.895  18.425  -0.216  1.00 20.00     0.005 C 
ENDBRANCH   8   9
ENDBRANCH   6   8
BRANCH   7  11
HETATM   11  C10 UNL     1     -34.771  15.943  -5.881  1.00 20.00     0.119 C 
HETATM   12 CL12 UNL     1     -34.713  14.176  -5.971  1.00 20.00    -0.130 Cl
ENDBRANCH   7  11
TORSDOF 3
ENDMDL
MODEL 5
REMARK VINA RESULT:      -4.6      1.607      2.085
REMARK  3 active torsions:
REMARK  status: ('A' for Active; 'I' for Inactive)
REMARK    1  A    between atoms: C6_6  and  C9_9 
REMARK    2  A    between atoms: C7_7  and  C10_10 
REMARK    3  A    between atoms: C9_9  and  C11_11 
ROOT
HETATM    1  C1  UNL     1     -33.669  17.690  -4.899  1.00 20.00     0.001 C 
HETATM    2  C2  UNL     1     -34.165  17.978  -3.483  1.00 20.00     0.005 C 
HETATM    3  C3  UNL     1     -33.296  16.257  -5.264  1.00 20.00     0.005 C 
HETATM    4  C4  UNL     1     -34.503  15.723  -2.351  1.00 20.00     0.005 C 
HETATM    5  C5  UNL     1     -34.145  14.706  -3.431  1.00 20.00     0.006 C 
HETATM    6  C6  UNL     1     -33.686  17.026  -2.380  1.00 20.00    -0.014 C 
HETATM    7  C7  UNL     1     -34.287  15.149  -4.892  1.00 20.00    -0.001 C 
ENDROOT
BRANCH   6   8
HETATM    8  C9  UNL     1     -33.829  17.727  -1.021  1.00 20.00     0.004 C 
BRANCH   8   9
HETATM    9  C11 UNL     1     -34.827  16.997  -0.132  1.00 20.00    -0.004 C 
HETATM   10  C8  UNL     1     -35.063  17.759   1.162  1.00 20.00     0.005 C 
ENDBRANCH   8   9
ENDBRANCH   6   8
BRANCH   7  11
HETATM   11  C10 UNL     1     -35.730  15.457  -5.286  1.00 20.00     0.119 C 
HETATM   12 CL12 UNL     1     -36.062  14.823  -6.906  1.00 20.00    -0.130 Cl
ENDBRANCH   7  11
TORSDOF 3
ENDMDL
MODEL 6
REMARK VINA RESULT:      -4.5      1.940      2.648
REMARK  3 active torsions:
REMARK  status: ('A' for Active; 'I' for Inactive)
REMARK    1  A    between atoms: C6_6  and  C9_9 
REMARK    2  A    between atoms: C7_7  and  C10_10 
REMARK    3  A    between atoms: C9_9  and  C11_11 
ROOT
HETATM    1  C1  UNL     1     -34.731  17.906  -5.022  1.00 20.00     0.001 C 
HETATM    2  C2  UNL     1     -35.005  17.938  -3.520  1.00 20.00     0.005 C 
HETATM    3  C3  UNL     1     -33.701  16.915  -5.555  1.00 20.00     0.005 C 
HETATM    4  C4  UNL     1     -33.784  15.947  -2.508  1.00 20.00     0.005 C 
HETATM    5  C5  UNL     1     -33.143  15.253  -3.707  1.00 20.00     0.006 C 
HETATM    6  C6  UNL     1     -33.864  17.480  -2.603  1.00 20.00    -0.014 C 
HETATM    7  C7  UNL     1     -33.801  15.463  -5.077  1.00 20.00    -0.001 C 
ENDROOT
BRANCH   6   8
HETATM    8  C9  UNL     1     -34.098  18.049  -1.195  1.00 20.00     0.004 C 
BRANCH   8   9
HETATM    9  C11 UNL     1     -34.660  16.985  -0.262  1.00 20.00    -0.004 C 
HETATM   10  C8  UNL     1     -35.311  17.618   0.957  1.00 20.00     0.005 C 
ENDBRANCH   8   9
ENDBRANCH   6   8
BRANCH   7  11
HETATM   11  C10 UNL     1     -35.212  14.884  -5.158  1.00 20.00     0.119 C 
HETATM   12 CL12 UNL     1     -35.262  13.302  -4.363  1.00 20.00    -0.130 Cl
ENDBRANCH   7  11
TORSDOF 3
ENDMDL
MODEL 7
REMARK VINA RESULT:      -4.4     11.004     12.873
REMARK  3 active torsions:
REMARK  status: ('A' for Active; 'I' for Inactive)
REMARK    1  A    between atoms: C6_6  and  C9_9 
REMARK    2  A    between atoms: C7_7  and  C10_10 
REMARK    3  A    between atoms: C9_9  and  C11_11 
ROOT
HETATM    1  C1  UNL     1     -42.620   4.426  -2.898  1.00 20.00     0.001 C 
HETATM    2  C2  UNL     1     -43.150   5.855  -3.006  1.00 20.00     0.005 C 
HETATM    3  C3  UNL     1     -41.526   4.129  -1.878  1.00 20.00     0.005 C 
HETATM    4  C4  UNL     1     -42.147   7.159  -1.064  1.00 20.00     0.005 C 
HETATM    5  C5  UNL     1     -41.317   6.124  -0.308  1.00 20.00     0.006 C 
HETATM    6  C6  UNL     1     -42.190   6.977  -2.590  1.00 20.00    -0.014 C 
HETATM    7  C7  UNL     1     -41.725   4.653  -0.451  1.00 20.00    -0.001 C 
ENDROOT
BRANCH   6   8
HETATM    8  C9  UNL     1     -42.658   8.293  -3.230  1.00 20.00     0.004 C 
BRANCH   8   9
HETATM    9  C11 UNL     1     -42.723   8.171  -4.746  1.00 20.00    -0.004 C 
HETATM   10  C8  UNL     1     -41.771   9.151  -5.413  1.00 20.00     0.005 C 
ENDBRANCH   8   9
ENDBRANCH   6   8
BRANCH   7  11
HETATM   11  C10 UNL     1     -43.108   4.356   0.126  1.00 20.00     0.119 C 
HETATM   12 CL12 UNL     1     -43.375   5.327   1.582  1.00 20.00    -0.130 Cl
ENDBRANCH   7  11
TORSDOF 3
ENDMDL
MODEL 8
REMARK VINA RESULT:      -4.3      2.789      5.219
REMARK  3 active torsions:
REMARK  status: ('A' for Active; 'I' for Inactive)
REMARK    1  A    between atoms: C6_6  and  C9_9 
REMARK    2  A    between atoms: C7_7  and  C10_10 
REMARK    3  A    between atoms: C9_9  and  C11_11 
ROOT
HETATM    1  C1  UNL     1     -36.308  16.812  -3.533  1.00 20.00     0.001 C 
HETATM    2  C2  UNL     1     -35.520  17.411  -4.696  1.00 20.00     0.005 C 
HETATM    3  C3  UNL     1     -35.716  15.621  -2.787  1.00 20.00     0.005 C 
HETATM    4  C4  UNL     1     -33.229  16.301  -4.678  1.00 20.00     0.005 C 
HETATM    5  C5  UNL     1     -33.277  15.364  -3.475  1.00 20.00     0.006 C 
HETATM    6  C6  UNL     1     -34.559  16.469  -5.433  1.00 20.00    -0.014 C 
HETATM    7  C7  UNL     1     -34.252  15.717  -2.345  1.00 20.00    -0.001 C 
ENDROOT
BRANCH   6   8
HETATM    8  C9  UNL     1     -34.265  17.048  -6.825  1.00 20.00     0.004 C 
BRANCH   8   9
HETATM    9  C11 UNL     1     -35.081  16.336  -7.896  1.00 20.00    -0.004 C 
HETATM   10  C8  UNL     1     -35.042  14.829  -7.698  1.00 20.00     0.005 C 
ENDBRANCH   8   9
ENDBRANCH   6   8
BRANCH   7  11
HETATM   11  C10 UNL     1     -33.906  17.030  -1.645  1.00 20.00     0.119 C 
HETATM   12 CL12 UNL     1     -34.659  17.076  -0.044  1.00 20.00    -0.130 Cl
ENDBRANCH   7  11
TORSDOF 3
ENDMDL
MODEL 9
REMARK VINA RESULT:      -4.3      2.727      5.148
REMARK  3 active torsions:
REMARK  status: ('A' for Active; 'I' for Inactive)
REMARK    1  A    between atoms: C6_6  and  C9_9 
REMARK    2  A    between atoms: C7_7  and  C10_10 
REMARK    3  A    between atoms: C9_9  and  C11_11 
ROOT
HETATM    1  C1  UNL     1     -34.206  13.589  -4.098  1.00 20.00     0.001 C 
HETATM    2  C2  UNL     1     -35.338  13.953  -5.057  1.00 20.00     0.005 C 
HETATM    3  C3  UNL     1     -33.224  14.680  -3.681  1.00 20.00     0.005 C 
HETATM    4  C4  UNL     1     -35.304  16.486  -5.305  1.00 20.00     0.005 C 
HETATM    5  C5  UNL     1     -34.171  16.936  -4.386  1.00 20.00     0.006 C 
HETATM    6  C6  UNL     1     -35.084  15.134  -6.003  1.00 20.00    -0.014 C 
HETATM    7  C7  UNL     1     -33.807  16.018  -3.214  1.00 20.00    -0.001 C 
ENDROOT
BRANCH   6   8
HETATM    8  C9  UNL     1     -36.049  15.032  -7.194  1.00 20.00     0.004 C 
BRANCH   8   9
HETATM    9  C11 UNL     1     -37.484  15.297  -6.759  1.00 20.00    -0.004 C 
HETATM   10  C8  UNL     1     -38.450  15.093  -7.915  1.00 20.00     0.005 C 
ENDBRANCH   8   9
ENDBRANCH   6   8
BRANCH   7  11
HETATM   11  C10 UNL     1     -34.935  15.875  -2.193  1.00 20.00     0.119 C 
HETATM   12 CL12 UNL     1     -34.509  16.726  -0.700  1.00 20.00    -0.130 Cl
ENDBRANCH   7  11
TORSDOF 3
ENDMDL
