MODEL 1
REMARK VINA RESULT:      -4.6      0.000      0.000
REMARK  1 active torsions:
REMARK  status: ('A' for Active; 'I' for Inactive)
REMARK    1  A    between atoms: C6_6  and  C10_10 
ROOT
HETATM    1  C1  UNL     1     -35.121  13.490  -4.490  1.00 20.00     0.001 C 
HETATM    2  C2  UNL     1     -34.337  14.248  -3.421  1.00 20.00     0.005 C 
HETATM    3  C3  UNL     1     -35.848  16.318  -3.857  1.00 20.00     0.006 C 
HETATM    4  C4  UNL     1     -34.847  14.019  -5.899  1.00 20.00     0.008 C 
HETATM    5  C5  UNL     1     -35.206  16.494  -5.235  1.00 20.00     0.009 C 
HETATM    6  C6  UNL     1     -35.050  15.479  -2.848  1.00 20.00    -0.001 C 
HETATM    7  C7  UNL     1     -35.485  15.376  -6.275  1.00 20.00    -0.048 C 
HETATM    8  C8  UNL     1     -34.863  15.827  -7.618  1.00 20.00     0.015 C 
HETATM    9  C9  UNL     1     -36.999  15.198  -6.515  1.00 20.00     0.015 C 
ENDROOT
BRANCH   6  10
HETATM   10  C10 UNL     1     -34.037  16.349  -2.093  1.00 20.00     0.119 C 
HETATM   11 CL11 UNL     1     -34.652  16.724  -0.477  1.00 20.00    -0.130 Cl
ENDBRANCH   6  10
TORSDOF 1
ENDMDL
MODEL 2
REMARK VINA RESULT:      -4.5      1.980      3.364
REMARK  1 active torsions:
REMARK  status: ('A' for Active; 'I' for Inactive)
REMARK    1  A    between atoms: C6_6  and  C10_10 
ROOT
HETATM    1  C1  UNL     1     -33.264  16.719  -5.110  1.00 20.00     0.001 C 
HETATM    2  C2  UNL     1     -33.994  17.853  -4.395  1.00 20.00     0.005 C 
HETATM    3  C3  UNL     1     -33.824  16.497  -2.183  1.00 20.00     0.006 C 
HETATM    4  C4  UNL     1     -34.123  15.458  -5.231  1.00 20.00     0.008 C 
HETATM    5  C5  UNL     1     -34.817  15.472  -2.738  1.00 20.00     0.009 C 
HETATM    6  C6  UNL     1     -33.825  17.871  -2.871  1.00 20.00    -0.001 C 
HETATM    7  C7  UNL     1     -34.332  14.625  -3.945  1.00 20.00    -0.048 C 
HETATM    8  C8  UNL     1     -35.429  13.575  -4.243  1.00 20.00     0.015 C 
HETATM    9  C9  UNL     1     -33.042  13.849  -3.605  1.00 20.00     0.015 C 
ENDROOT
BRANCH   6  10
HETATM   10  C10 UNL     1     -34.884  18.792  -2.252  1.00 20.00     0.119 C 
HETATM   11 CL11 UNL     1     -36.349  18.776  -3.243  1.00 20.00    -0.130 Cl
ENDBRANCH   6  10
TORSDOF 1
ENDMDL
MODEL 3
REMARK VINA RESULT:      -4.5      2.476      4.296
REMARK  1 active torsions:
REMARK  status: ('A' for Active; 'I' for Inactive)
REMARK    1  A    between atoms: C6_6  and  C10_10 
ROOT
HETATM    1  C1  UNL     1     -36.796  15.987  -3.318  1.00 20.00     0.001 C 
HETATM    2  C2  UNL     1     -36.348  15.156  -4.517  1.00 20.00     0.005 C 
HETATM    3  C3  UNL     1     -34.286  14.376  -3.140  1.00 20.00     0.006 C 
HETATM    4  C4  UNL     1     -35.881  17.188  -3.067  1.00 20.00     0.008 C 
HETATM    5  C5  UNL     1     -33.708  15.792  -3.209  1.00 20.00     0.009 C 
HETATM    6  C6  UNL     1     -35.352  14.036  -4.192  1.00 20.00    -0.001 C 
HETATM    7  C7  UNL     1     -34.493  16.896  -2.452  1.00 20.00    -0.048 C 
HETATM    8  C8  UNL     1     -33.662  18.198  -2.540  1.00 20.00     0.015 C 
HETATM    9  C9  UNL     1     -34.641  16.554  -0.955  1.00 20.00     0.015 C 
ENDROOT
BRANCH   6  10
HETATM   10  C10 UNL     1     -34.702  13.540  -5.490  1.00 20.00     0.119 C 
HETATM   11 CL11 UNL     1     -34.478  14.894  -6.606  1.00 20.00    -0.130 Cl
ENDBRANCH   6  10
TORSDOF 1
ENDMDL
MODEL 4
REMARK VINA RESULT:      -4.4      1.119      2.188
REMARK  1 active torsions:
REMARK  status: ('A' for Active; 'I' for Inactive)
REMARK    1  A    between atoms: C6_6  and  C10_10 
ROOT
HETATM    1  C1  UNL     1     -33.419  16.733  -5.073  1.00 20.00     0.001 C 
HETATM    2  C2  UNL     1     -33.696  17.108  -3.619  1.00 20.00     0.005 C 
HETATM    3  C3  UNL     1     -34.750  14.758  -3.268  1.00 20.00     0.006 C 
HETATM    4  C4  UNL     1     -34.701  16.632  -5.903  1.00 20.00     0.008 C 
HETATM    5  C5  UNL     1     -35.924  15.152  -4.168  1.00 20.00     0.009 C 
HETATM    6  C6  UNL     1     -33.937  15.920  -2.679  1.00 20.00    -0.001 C 
HETATM    7  C7  UNL     1     -35.595  15.393  -5.665  1.00 20.00    -0.048 C 
HETATM    8  C8  UNL     1     -36.935  15.638  -6.399  1.00 20.00     0.015 C 
HETATM    9  C9  UNL     1     -34.949  14.146  -6.306  1.00 20.00     0.015 C 
ENDROOT
BRANCH   6  10
HETATM   10  C10 UNL     1     -34.566  16.423  -1.374  1.00 20.00     0.119 C 
HETATM   11 CL11 UNL     1     -33.546  17.678  -0.659  1.00 20.00    -0.130 Cl
ENDBRANCH   6  10
TORSDOF 1
ENDMDL
MODEL 5
REMARK VINA RESULT:      -4.4      2.351      4.173
REMARK  1 active torsions:
REMARK  status: ('A' for Active; 'I' for Inactive)
REMARK    1  A    between atoms: C6_6  and  C10_10 
ROOT
HETATM    1  C1  UNL     1     -34.805  13.451  -5.314  1.00 20.00     0.001 C 
HETATM    2  C2  UNL     1     -35.559  14.283  -6.349  1.00 20.00     0.005 C 
HETATM    3  C3  UNL     1     -33.776  16.153  -6.069  1.00 20.00     0.006 C 
HETATM    4  C4  UNL     1     -34.913  14.037  -3.905  1.00 20.00     0.008 C 
HETATM    5  C5  UNL     1     -34.295  16.434  -4.657  1.00 20.00     0.009 C 
HETATM    6  C6  UNL     1     -34.739  15.403  -7.001  1.00 20.00    -0.001 C 
HETATM    7  C7  UNL     1     -34.087  15.309  -3.608  1.00 20.00    -0.048 C 
HETATM    8  C8  UNL     1     -34.555  15.860  -2.240  1.00 20.00     0.015 C 
HETATM    9  C9  UNL     1     -32.594  14.947  -3.463  1.00 20.00     0.015 C 
ENDROOT
BRANCH   6  10
HETATM   10  C10 UNL     1     -35.685  16.379  -7.711  1.00 20.00     0.119 C 
HETATM   11 CL11 UNL     1     -37.248  16.413  -6.882  1.00 20.00    -0.130 Cl
ENDBRANCH   6  10
TORSDOF 1
ENDMDL
MODEL 6
REMARK VINA RESULT:      -4.4      1.313      2.481
REMARK  1 active torsions:
REMARK  status: ('A' for Active; 'I' for Inactive)
REMARK    1  A    between atoms: C6_6  and  C10_10 
ROOT
HETATM    1  C1  UNL     1     -36.409  16.552  -4.379  1.00 20.00     0.001 C 
HETATM    2  C2  UNL     1     -35.806  17.042  -3.065  1.00 20.00     0.005 C 
HETATM    3  C3  UNL     1     -33.439  16.721  -4.091  1.00 20.00     0.006 C 
HETATM    4  C4  UNL     1     -36.164  15.059  -4.612  1.00 20.00     0.008 C 
HETATM    5  C5  UNL     1     -33.638  15.203  -4.070  1.00 20.00     0.009 C 
HETATM    6  C6  UNL     1     -34.355  17.530  -3.161  1.00 20.00    -0.001 C 
HETATM    7  C7  UNL     1     -34.732  14.637  -5.014  1.00 20.00    -0.048 C 
HETATM    8  C8  UNL     1     -34.661  13.094  -4.931  1.00 20.00     0.015 C 
HETATM    9  C9  UNL     1     -34.461  15.024  -6.483  1.00 20.00     0.015 C 
ENDROOT
BRANCH   6  10
HETATM   10  C10 UNL     1     -33.757  17.628  -1.752  1.00 20.00     0.119 C 
HETATM   11 CL11 UNL     1     -34.663  16.592  -0.641  1.00 20.00    -0.130 Cl
ENDBRANCH   6  10
TORSDOF 1
ENDMDL
MODEL 7
REMARK VINA RESULT:      -4.3      2.197      4.312
REMARK  1 active torsions:
REMARK  status: ('A' for Active; 'I' for Inactive)
REMARK    1  A    between atoms: C6_6  and  C10_10 
ROOT
HETATM    1  C1  UNL     1     -33.795  17.498  -4.301  1.00 20.00     0.001 C 
HETATM    2  C2  UNL     1     -33.511  16.059  -4.725  1.00 20.00     0.005 C 
HETATM    3  C3  UNL     1     -35.780  15.355  -3.670  1.00 20.00     0.006 C 
HETATM    4  C4  UNL     1     -33.720  17.684  -2.784  1.00 20.00     0.008 C 
HETATM    5  C5  UNL     1     -35.216  15.636  -2.275  1.00 20.00     0.009 C 
HETATM    6  C6  UNL     1     -34.742  15.147  -4.783  1.00 20.00    -0.001 C 
HETATM    7  C7  UNL     1     -34.890  17.118  -1.948  1.00 20.00    -0.048 C 
HETATM    8  C8  UNL     1     -34.473  17.182  -0.459  1.00 20.00     0.015 C 
HETATM    9  C9  UNL     1     -36.135  18.016  -2.107  1.00 20.00     0.015 C 
ENDROOT
BRANCH   6  10
HETATM   10  C10 UNL     1     -34.288  13.683  -4.841  1.00 20.00     0.119 C 
HETATM   11 CL11 UNL     1     -32.984  13.410  -3.677  1.00 20.00    -0.130 Cl
ENDBRANCH   6  10
TORSDOF 1
ENDMDL
MODEL 8
REMARK VINA RESULT:      -4.1      2.310      3.425
REMARK  1 active torsions:
REMARK  status: ('A' for Active; 'I' for Inactive)
REMARK    1  A    between atoms: C6_6  and  C10_10 
ROOT
HETATM    1  C1  UNL     1     -34.486  15.195  -6.755  1.00 20.00     0.001 C 
HETATM    2  C2  UNL     1     -34.215  16.690  -6.607  1.00 20.00     0.005 C 
HETATM    3  C3  UNL     1     -33.690  16.293  -4.093  1.00 20.00     0.006 C 
HETATM    4  C4  UNL     1     -35.768  14.763  -6.040  1.00 20.00     0.008 C 
HETATM    5  C5  UNL     1     -35.166  15.978  -3.837  1.00 20.00     0.009 C 
HETATM    6  C6  UNL     1     -33.385  17.078  -5.377  1.00 20.00    -0.001 C 
HETATM    7  C7  UNL     1     -35.720  14.687  -4.497  1.00 20.00    -0.048 C 
HETATM    8  C8  UNL     1     -37.171  14.497  -3.994  1.00 20.00     0.015 C 
HETATM    9  C9  UNL     1     -34.922  13.442  -4.055  1.00 20.00     0.015 C 
ENDROOT
BRANCH   6  10
HETATM   10  C10 UNL     1     -33.506  18.588  -5.137  1.00 20.00     0.119 C 
HETATM   11 CL11 UNL     1     -35.117  19.146  -5.613  1.00 20.00    -0.130 Cl
ENDBRANCH   6  10
TORSDOF 1
ENDMDL
MODEL 9
REMARK VINA RESULT:      -4.1      2.645      4.406
REMARK  1 active torsions:
REMARK  status: ('A' for Active; 'I' for Inactive)
REMARK    1  A    between atoms: C6_6  and  C10_10 
ROOT
HETATM    1  C1  UNL     1     -34.272  17.293  -5.247  1.00 20.00     0.001 C 
HETATM    2  C2  UNL     1     -35.114  16.689  -6.368  1.00 20.00     0.005 C 
HETATM    3  C3  UNL     1     -36.386  15.288  -4.586  1.00 20.00     0.006 C 
HETATM    4  C4  UNL     1     -33.308  16.277  -4.630  1.00 20.00     0.008 C 
HETATM    5  C5  UNL     1     -35.124  14.457  -4.342  1.00 20.00     0.009 C 
HETATM    6  C6  UNL     1     -36.436  16.057  -5.914  1.00 20.00    -0.001 C 
HETATM    7  C7  UNL     1     -33.920  15.201  -3.704  1.00 20.00    -0.048 C 
HETATM    8  C8  UNL     1     -32.821  14.148  -3.424  1.00 20.00     0.015 C 
HETATM    9  C9  UNL     1     -34.302  15.829  -2.347  1.00 20.00     0.015 C 
ENDROOT
BRANCH   6  10
HETATM   10  C10 UNL     1     -36.988  15.172  -7.039  1.00 20.00     0.119 C 
HETATM   11 CL11 UNL     1     -35.654  14.413  -7.918  1.00 20.00    -0.130 Cl
ENDBRANCH   6  10
TORSDOF 1
ENDMDL
