MODEL 1
REMARK VINA RESULT:      -4.5      0.000      0.000
REMARK  2 active torsions:
REMARK  status: ('A' for Active; 'I' for Inactive)
REMARK    1  A    between atoms: C4_4  and  C8_8 
REMARK    2  A    between atoms: C5_5  and  C9_9 
ROOT
HETATM    1  C1  UNL     1     -33.581  17.410  -4.010  1.00 20.00     0.032 C 
HETATM    2  C2  UNL     1     -34.712  15.581  -2.730  1.00 20.00     0.043 C 
HETATM    3  C3  UNL     1     -33.381  16.415  -5.144  1.00 20.00     0.169 C 
HETATM    4  C4  UNL     1     -33.654  16.690  -2.662  1.00 20.00     0.004 C 
HETATM    5  C5  UNL     1     -34.514  14.651  -3.943  1.00 20.00     0.057 C 
HETATM    6  C6  UNL     1     -33.303  13.722  -3.772  1.00 20.00     0.046 C 
HETATM    7  O10 UNL     1     -34.401  15.419  -5.150  1.00 20.00    -0.381 OA
ENDROOT
BRANCH   5   8
HETATM    8  C9  UNL     1     -35.767  13.779  -4.116  1.00 20.00     0.033 C 
HETATM    9  C7  UNL     1     -37.013  14.587  -3.989  1.00 20.00     0.008 C 
ENDBRANCH   5   8
BRANCH   4  10
HETATM   10  C8  UNL     1     -33.962  17.672  -1.534  1.00 20.00     0.119 C 
HETATM   11 CL11 UNL     1     -34.799  16.839  -0.212  1.00 20.00    -0.130 Cl
ENDBRANCH   4  10
TORSDOF 2
ENDMDL
MODEL 2
REMARK VINA RESULT:      -4.2      1.696      3.061
REMARK  2 active torsions:
REMARK  status: ('A' for Active; 'I' for Inactive)
REMARK    1  A    between atoms: C4_4  and  C8_8 
REMARK    2  A    between atoms: C5_5  and  C9_9 
ROOT
HETATM    1  C1  UNL     1     -34.209  13.989  -3.491  1.00 20.00     0.032 C 
HETATM    2  C2  UNL     1     -34.506  16.026  -4.914  1.00 20.00     0.043 C 
HETATM    3  C3  UNL     1     -34.975  13.208  -4.550  1.00 20.00     0.169 C 
HETATM    4  C4  UNL     1     -34.629  15.461  -3.493  1.00 20.00     0.004 C 
HETATM    5  C5  UNL     1     -35.228  15.153  -5.960  1.00 20.00     0.057 C 
HETATM    6  C6  UNL     1     -36.756  15.269  -5.860  1.00 20.00     0.046 C 
HETATM    7  O10 UNL     1     -34.812  13.785  -5.843  1.00 20.00    -0.381 OA
ENDROOT
BRANCH   5   8
HETATM    8  C9  UNL     1     -34.803  15.602  -7.366  1.00 20.00     0.033 C 
HETATM    9  C7  UNL     1     -34.543  17.069  -7.414  1.00 20.00     0.008 C 
ENDBRANCH   5   8
BRANCH   4  10
HETATM   10  C8  UNL     1     -33.788  16.270  -2.508  1.00 20.00     0.119 C 
HETATM   11 CL11 UNL     1     -34.649  16.441  -0.968  1.00 20.00    -0.130 Cl
ENDBRANCH   4  10
TORSDOF 2
ENDMDL
MODEL 3
REMARK VINA RESULT:      -4.2      1.319      1.552
REMARK  2 active torsions:
REMARK  status: ('A' for Active; 'I' for Inactive)
REMARK    1  A    between atoms: C4_4  and  C8_8 
REMARK    2  A    between atoms: C5_5  and  C9_9 
ROOT
HETATM    1  C1  UNL     1     -33.987  18.189  -2.881  1.00 20.00     0.032 C 
HETATM    2  C2  UNL     1     -34.500  15.880  -2.063  1.00 20.00     0.043 C 
HETATM    3  C3  UNL     1     -33.709  17.581  -4.248  1.00 20.00     0.169 C 
HETATM    4  C4  UNL     1     -33.723  17.171  -1.770  1.00 20.00     0.004 C 
HETATM    5  C5  UNL     1     -34.248  15.352  -3.489  1.00 20.00     0.057 C 
HETATM    6  C6  UNL     1     -32.844  14.748  -3.646  1.00 20.00     0.046 C 
HETATM    7  O10 UNL     1     -34.466  16.391  -4.454  1.00 20.00    -0.381 OA
ENDROOT
BRANCH   5   8
HETATM    8  C9  UNL     1     -35.279  14.260  -3.809  1.00 20.00     0.033 C 
HETATM    9  C7  UNL     1     -34.725  13.248  -4.754  1.00 20.00     0.008 C 
ENDBRANCH   5   8
BRANCH   4  10
HETATM   10  C8  UNL     1     -34.104  17.740  -0.405  1.00 20.00     0.119 C 
HETATM   11 CL11 UNL     1     -32.715  18.569   0.319  1.00 20.00    -0.130 Cl
ENDBRANCH   4  10
TORSDOF 2
ENDMDL
MODEL 4
REMARK VINA RESULT:      -4.2      1.458      1.961
REMARK  2 active torsions:
REMARK  status: ('A' for Active; 'I' for Inactive)
REMARK    1  A    between atoms: C4_4  and  C8_8 
REMARK    2  A    between atoms: C5_5  and  C9_9 
ROOT
HETATM    1  C1  UNL     1     -33.464  16.187  -2.763  1.00 20.00     0.032 C 
HETATM    2  C2  UNL     1     -35.695  15.776  -3.820  1.00 20.00     0.043 C 
HETATM    3  C3  UNL     1     -32.891  15.127  -3.693  1.00 20.00     0.169 C 
HETATM    4  C4  UNL     1     -34.946  15.926  -2.489  1.00 20.00     0.004 C 
HETATM    5  C5  UNL     1     -35.027  14.751  -4.759  1.00 20.00     0.057 C 
HETATM    6  C6  UNL     1     -35.231  13.306  -4.282  1.00 20.00     0.046 C 
HETATM    7  O10 UNL     1     -33.630  15.046  -4.909  1.00 20.00    -0.381 OA
ENDROOT
BRANCH   5   8
HETATM    8  C9  UNL     1     -35.637  14.885  -6.162  1.00 20.00     0.033 C 
HETATM    9  C7  UNL     1     -34.580  14.964  -7.210  1.00 20.00     0.008 C 
ENDBRANCH   5   8
BRANCH   4  10
HETATM   10  C8  UNL     1     -35.551  17.045  -1.644  1.00 20.00     0.119 C 
HETATM   11 CL11 UNL     1     -34.837  17.040  -0.022  1.00 20.00    -0.130 Cl
ENDBRANCH   4  10
TORSDOF 2
ENDMDL
MODEL 5
REMARK VINA RESULT:      -4.2      2.280      3.921
REMARK  2 active torsions:
REMARK  status: ('A' for Active; 'I' for Inactive)
REMARK    1  A    between atoms: C4_4  and  C8_8 
REMARK    2  A    between atoms: C5_5  and  C9_9 
ROOT
HETATM    1  C1  UNL     1     -35.455  13.632  -4.175  1.00 20.00     0.032 C 
HETATM    2  C2  UNL     1     -35.705  15.898  -3.143  1.00 20.00     0.043 C 
HETATM    3  C3  UNL     1     -33.958  13.898  -4.259  1.00 20.00     0.169 C 
HETATM    4  C4  UNL     1     -36.243  14.943  -4.217  1.00 20.00     0.004 C 
HETATM    5  C5  UNL     1     -34.174  16.068  -3.219  1.00 20.00     0.057 C 
HETATM    6  C6  UNL     1     -33.741  16.908  -4.430  1.00 20.00     0.046 C 
HETATM    7  O10 UNL     1     -33.528  14.787  -3.231  1.00 20.00    -0.381 OA
ENDROOT
BRANCH   5   8
HETATM    8  C9  UNL     1     -33.684  16.773  -1.946  1.00 20.00     0.033 C 
HETATM    9  C7  UNL     1     -34.656  16.613  -0.827  1.00 20.00     0.008 C 
ENDBRANCH   5   8
BRANCH   4  10
HETATM   10  C8  UNL     1     -37.736  14.689  -4.024  1.00 20.00     0.119 C 
HETATM   11 CL11 UNL     1     -38.630  15.180  -5.474  1.00 20.00    -0.130 Cl
ENDBRANCH   4  10
TORSDOF 2
ENDMDL
MODEL 6
REMARK VINA RESULT:      -4.2      2.538      3.865
REMARK  2 active torsions:
REMARK  status: ('A' for Active; 'I' for Inactive)
REMARK    1  A    between atoms: C4_4  and  C8_8 
REMARK    2  A    between atoms: C5_5  and  C9_9 
ROOT
HETATM    1  C1  UNL     1     -35.110  14.178  -6.228  1.00 20.00     0.032 C 
HETATM    2  C2  UNL     1     -34.434  16.109  -4.787  1.00 20.00     0.043 C 
HETATM    3  C3  UNL     1     -34.796  13.264  -5.051  1.00 20.00     0.169 C 
HETATM    4  C4  UNL     1     -34.267  15.453  -6.164  1.00 20.00     0.004 C 
HETATM    5  C5  UNL     1     -34.187  15.120  -3.630  1.00 20.00     0.057 C 
HETATM    6  C6  UNL     1     -32.700  14.766  -3.474  1.00 20.00     0.046 C 
HETATM    7  O10 UNL     1     -34.977  13.935  -3.807  1.00 20.00    -0.381 OA
ENDROOT
BRANCH   5   8
HETATM    8  C9  UNL     1     -34.670  15.754  -2.317  1.00 20.00     0.033 C 
HETATM    9  C7  UNL     1     -33.814  16.909  -1.923  1.00 20.00     0.008 C 
ENDBRANCH   5   8
BRANCH   4  10
HETATM   10  C8  UNL     1     -34.655  16.421  -7.280  1.00 20.00     0.119 C 
HETATM   11 CL11 UNL     1     -34.132  18.064  -6.873  1.00 20.00    -0.130 Cl
ENDBRANCH   4  10
TORSDOF 2
ENDMDL
MODEL 7
REMARK VINA RESULT:      -4.1      2.453      3.939
REMARK  2 active torsions:
REMARK  status: ('A' for Active; 'I' for Inactive)
REMARK    1  A    between atoms: C4_4  and  C8_8 
REMARK    2  A    between atoms: C5_5  and  C9_9 
ROOT
HETATM    1  C1  UNL     1     -33.232  16.263  -4.662  1.00 20.00     0.032 C 
HETATM    2  C2  UNL     1     -34.112  15.925  -2.343  1.00 20.00     0.043 C 
HETATM    3  C3  UNL     1     -33.620  17.730  -4.534  1.00 20.00     0.169 C 
HETATM    4  C4  UNL     1     -34.124  15.387  -3.780  1.00 20.00     0.004 C 
HETATM    5  C5  UNL     1     -34.428  17.433  -2.276  1.00 20.00     0.057 C 
HETATM    6  C6  UNL     1     -35.908  17.729  -2.559  1.00 20.00     0.046 C 
HETATM    7  O10 UNL     1     -33.581  18.163  -3.176  1.00 20.00    -0.381 OA
ENDROOT
BRANCH   5   8
HETATM    8  C9  UNL     1     -34.094  17.953  -0.871  1.00 20.00     0.033 C 
HETATM    9  C7  UNL     1     -34.852  17.213   0.179  1.00 20.00     0.008 C 
ENDBRANCH   5   8
BRANCH   4  10
HETATM   10  C8  UNL     1     -33.670  13.929  -3.822  1.00 20.00     0.119 C 
HETATM   11 CL11 UNL     1     -34.703  13.000  -4.922  1.00 20.00    -0.130 Cl
ENDBRANCH   4  10
TORSDOF 2
ENDMDL
MODEL 8
REMARK VINA RESULT:      -4.1     11.554     13.065
REMARK  2 active torsions:
REMARK  status: ('A' for Active; 'I' for Inactive)
REMARK    1  A    between atoms: C4_4  and  C8_8 
REMARK    2  A    between atoms: C5_5  and  C9_9 
ROOT
HETATM    1  C1  UNL     1     -41.163   7.107  -1.188  1.00 20.00     0.032 C 
HETATM    2  C2  UNL     1     -42.619   5.573  -2.526  1.00 20.00     0.043 C 
HETATM    3  C3  UNL     1     -40.634   5.878  -0.462  1.00 20.00     0.169 C 
HETATM    4  C4  UNL     1     -42.585   6.865  -1.699  1.00 20.00     0.004 C 
HETATM    5  C5  UNL     1     -41.995   4.378  -1.778  1.00 20.00     0.057 C 
HETATM    6  C6  UNL     1     -42.891   3.875  -0.636  1.00 20.00     0.046 C 
HETATM    7  O10 UNL     1     -40.690   4.719  -1.289  1.00 20.00    -0.381 OA
ENDROOT
BRANCH   5   8
HETATM    8  C9  UNL     1     -41.784   3.222  -2.767  1.00 20.00     0.033 C 
HETATM    9  C7  UNL     1     -42.976   3.029  -3.642  1.00 20.00     0.008 C 
ENDBRANCH   5   8
BRANCH   4  10
HETATM   10  C8  UNL     1     -43.080   8.053  -2.521  1.00 20.00     0.119 C 
HETATM   11 CL11 UNL     1     -42.381   8.001  -4.149  1.00 20.00    -0.130 Cl
ENDBRANCH   4  10
TORSDOF 2
ENDMDL
MODEL 9
REMARK VINA RESULT:      -4.0      1.231      1.882
REMARK  2 active torsions:
REMARK  status: ('A' for Active; 'I' for Inactive)
REMARK    1  A    between atoms: C4_4  and  C8_8 
REMARK    2  A    between atoms: C5_5  and  C9_9 
ROOT
HETATM    1  C1  UNL     1     -35.730  17.711  -2.802  1.00 20.00     0.032 C 
HETATM    2  C2  UNL     1     -33.723  16.234  -2.574  1.00 20.00     0.043 C 
HETATM    3  C3  UNL     1     -35.934  17.123  -4.192  1.00 20.00     0.169 C 
HETATM    4  C4  UNL     1     -34.254  17.663  -2.404  1.00 20.00     0.004 C 
HETATM    5  C5  UNL     1     -34.029  15.654  -3.970  1.00 20.00     0.057 C 
HETATM    6  C6  UNL     1     -33.163  16.292  -5.067  1.00 20.00     0.046 C 
HETATM    7  O10 UNL     1     -35.424  15.795  -4.276  1.00 20.00    -0.381 OA
ENDROOT
BRANCH   5   8
HETATM    8  C9  UNL     1     -33.752  14.144  -3.957  1.00 20.00     0.033 C 
HETATM    9  C7  UNL     1     -34.998  13.360  -4.196  1.00 20.00     0.008 C 
ENDBRANCH   5   8
BRANCH   4  10
HETATM   10  C8  UNL     1     -34.059  18.152  -0.970  1.00 20.00     0.119 C 
HETATM   11 CL11 UNL     1     -34.881  17.063   0.162  1.00 20.00    -0.130 Cl
ENDBRANCH   4  10
TORSDOF 2
ENDMDL
