MODEL 1
REMARK VINA RESULT:      -4.7      0.000      0.000
REMARK  2 active torsions:
REMARK  status: ('A' for Active; 'I' for Inactive)
REMARK    1  A    between atoms: C1_1  and  C7_7 
REMARK    2  A    between atoms: C8_8  and  C10_10 
ROOT
HETATM    1  C2  UNL     1     -36.071  17.119  -4.141  1.00 20.00     0.001 C 
HETATM    2  C3  UNL     1     -36.064  15.706  -4.725  1.00 20.00     0.011 C 
HETATM    3  C4  UNL     1     -34.138  14.873  -3.217  1.00 20.00     0.012 C 
HETATM    4  C5  UNL     1     -36.030  17.127  -2.617  1.00 20.00     0.004 C 
HETATM    5  C6  UNL     1     -33.599  16.213  -2.718  1.00 20.00     0.005 C 
HETATM    6  C7  UNL     1     -34.730  14.962  -4.630  1.00 20.00     0.047 C 
HETATM    7  C8  UNL     1     -34.621  17.112  -2.006  1.00 20.00    -0.015 C 
ENDROOT
BRANCH   6   8
HETATM    8  C1  UNL     1     -34.917  13.572  -5.174  1.00 20.00     0.235 C 
HETATM    9  O11 UNL     1     -34.991  12.573  -4.465  1.00 20.00    -0.306 OA
ENDBRANCH   6   8
BRANCH   7  10
HETATM   10  C10 UNL     1     -34.714  16.762  -0.517  1.00 20.00     0.000 C 
HETATM   11  C9  UNL     1     -34.282  17.903   0.340  1.00 20.00     0.005 C 
ENDBRANCH   7  10
TORSDOF 2
ENDMDL
MODEL 2
REMARK VINA RESULT:      -4.6      1.870      2.309
REMARK  2 active torsions:
REMARK  status: ('A' for Active; 'I' for Inactive)
REMARK    1  A    between atoms: C1_1  and  C7_7 
REMARK    2  A    between atoms: C8_8  and  C10_10 
ROOT
HETATM    1  C2  UNL     1     -33.279  16.909  -5.244  1.00 20.00     0.001 C 
HETATM    2  C3  UNL     1     -34.194  16.281  -6.295  1.00 20.00     0.011 C 
HETATM    3  C4  UNL     1     -35.028  14.395  -4.739  1.00 20.00     0.012 C 
HETATM    4  C5  UNL     1     -33.962  17.071  -3.890  1.00 20.00     0.004 C 
HETATM    5  C6  UNL     1     -33.977  14.485  -3.633  1.00 20.00     0.005 C 
HETATM    6  C7  UNL     1     -34.476  14.787  -6.115  1.00 20.00     0.047 C 
HETATM    7  C8  UNL     1     -33.846  15.858  -2.956  1.00 20.00    -0.015 C 
ENDROOT
BRANCH   6   8
HETATM    8  C1  UNL     1     -35.446  14.351  -7.178  1.00 20.00     0.235 C 
HETATM    9  O11 UNL     1     -36.585  14.796  -7.278  1.00 20.00    -0.306 OA
ENDBRANCH   6   8
BRANCH   7  10
HETATM   10  C10 UNL     1     -34.852  15.999  -1.809  1.00 20.00     0.000 C 
HETATM   11  C9  UNL     1     -34.360  16.943  -0.765  1.00 20.00     0.005 C 
ENDBRANCH   7  10
TORSDOF 2
ENDMDL
MODEL 3
REMARK VINA RESULT:      -4.6      1.205      1.419
REMARK  2 active torsions:
REMARK  status: ('A' for Active; 'I' for Inactive)
REMARK    1  A    between atoms: C1_1  and  C7_7 
REMARK    2  A    between atoms: C8_8  and  C10_10 
ROOT
HETATM    1  C2  UNL     1     -33.563  17.315  -5.104  1.00 20.00     0.001 C 
HETATM    2  C3  UNL     1     -34.200  16.023  -5.614  1.00 20.00     0.011 C 
HETATM    3  C4  UNL     1     -34.528  15.013  -3.258  1.00 20.00     0.012 C 
HETATM    4  C5  UNL     1     -34.333  17.932  -3.941  1.00 20.00     0.004 C 
HETATM    5  C6  UNL     1     -33.608  15.928  -2.452  1.00 20.00     0.005 C 
HETATM    6  C7  UNL     1     -34.044  14.806  -4.699  1.00 20.00     0.047 C 
HETATM    7  C8  UNL     1     -33.917  17.430  -2.550  1.00 20.00    -0.015 C 
ENDROOT
BRANCH   6   8
HETATM    8  C1  UNL     1     -34.789  13.649  -5.308  1.00 20.00     0.235 C 
HETATM    9  O11 UNL     1     -34.912  12.560  -4.758  1.00 20.00    -0.306 OA
ENDBRANCH   6   8
BRANCH   7  10
HETATM   10  C10 UNL     1     -34.979  17.837  -1.522  1.00 20.00     0.000 C 
HETATM   11  C9  UNL     1     -34.785  17.126  -0.226  1.00 20.00     0.005 C 
ENDBRANCH   7  10
TORSDOF 2
ENDMDL
MODEL 4
REMARK VINA RESULT:      -4.5      1.692      2.810
REMARK  2 active torsions:
REMARK  status: ('A' for Active; 'I' for Inactive)
REMARK    1  A    between atoms: C1_1  and  C7_7 
REMARK    2  A    between atoms: C8_8  and  C10_10 
ROOT
HETATM    1  C2  UNL     1     -34.104  13.533  -4.454  1.00 20.00     0.001 C 
HETATM    2  C3  UNL     1     -34.798  14.017  -5.726  1.00 20.00     0.011 C 
HETATM    3  C4  UNL     1     -36.110  15.900  -4.540  1.00 20.00     0.012 C 
HETATM    4  C5  UNL     1     -33.523  14.676  -3.628  1.00 20.00     0.004 C 
HETATM    5  C6  UNL     1     -35.941  15.460  -3.086  1.00 20.00     0.005 C 
HETATM    6  C7  UNL     1     -36.142  14.718  -5.517  1.00 20.00     0.047 C 
HETATM    7  C8  UNL     1     -34.490  15.297  -2.609  1.00 20.00    -0.015 C 
ENDROOT
BRANCH   6   8
HETATM    8  C1  UNL     1     -36.647  15.196  -6.851  1.00 20.00     0.235 C 
HETATM    9  O11 UNL     1     -36.344  14.670  -7.917  1.00 20.00    -0.306 OA
ENDBRANCH   6   8
BRANCH   7  10
HETATM   10  C10 UNL     1     -33.924  16.633  -2.116  1.00 20.00     0.000 C 
HETATM   11  C9  UNL     1     -34.396  16.951  -0.738  1.00 20.00     0.005 C 
ENDBRANCH   7  10
TORSDOF 2
ENDMDL
MODEL 5
REMARK VINA RESULT:      -4.5      2.148      4.721
REMARK  2 active torsions:
REMARK  status: ('A' for Active; 'I' for Inactive)
REMARK    1  A    between atoms: C1_1  and  C7_7 
REMARK    2  A    between atoms: C8_8  and  C10_10 
ROOT
HETATM    1  C2  UNL     1     -34.024  13.580  -4.417  1.00 20.00     0.001 C 
HETATM    2  C3  UNL     1     -34.201  14.471  -3.188  1.00 20.00     0.011 C 
HETATM    3  C4  UNL     1     -34.231  16.674  -4.537  1.00 20.00     0.012 C 
HETATM    4  C5  UNL     1     -34.974  13.947  -5.552  1.00 20.00     0.004 C 
HETATM    5  C6  UNL     1     -33.671  16.174  -5.867  1.00 20.00     0.005 C 
HETATM    6  C7  UNL     1     -33.678  15.902  -3.332  1.00 20.00     0.047 C 
HETATM    7  C8  UNL     1     -34.445  15.018  -6.518  1.00 20.00    -0.015 C 
ENDROOT
BRANCH   6   8
HETATM    8  C1  UNL     1     -33.998  16.659  -2.072  1.00 20.00     0.235 C 
HETATM    9  O11 UNL     1     -34.672  16.196  -1.159  1.00 20.00    -0.306 OA
ENDBRANCH   6   8
BRANCH   7  10
HETATM   10  C10 UNL     1     -35.602  15.549  -7.373  1.00 20.00     0.000 C 
HETATM   11  C9  UNL     1     -36.923  15.242  -6.755  1.00 20.00     0.005 C 
ENDBRANCH   7  10
TORSDOF 2
ENDMDL
MODEL 6
REMARK VINA RESULT:      -4.4      2.229      4.454
REMARK  2 active torsions:
REMARK  status: ('A' for Active; 'I' for Inactive)
REMARK    1  A    between atoms: C1_1  and  C7_7 
REMARK    2  A    between atoms: C8_8  and  C10_10 
ROOT
HETATM    1  C2  UNL     1     -36.885  14.835  -4.029  1.00 20.00     0.001 C 
HETATM    2  C3  UNL     1     -36.240  15.758  -2.996  1.00 20.00     0.011 C 
HETATM    3  C4  UNL     1     -33.828  15.328  -3.816  1.00 20.00     0.012 C 
HETATM    4  C5  UNL     1     -36.342  15.056  -5.437  1.00 20.00     0.004 C 
HETATM    5  C6  UNL     1     -34.060  14.079  -4.666  1.00 20.00     0.005 C 
HETATM    6  C7  UNL     1     -34.792  15.423  -2.627  1.00 20.00     0.047 C 
HETATM    7  C8  UNL     1     -35.098  14.227  -5.789  1.00 20.00    -0.015 C 
ENDROOT
BRANCH   6   8
HETATM    8  C1  UNL     1     -34.289  16.466  -1.667  1.00 20.00     0.235 C 
HETATM    9  O11 UNL     1     -34.670  16.555  -0.505  1.00 20.00    -0.306 OA
ENDBRANCH   6   8
BRANCH   7  10
HETATM   10  C10 UNL     1     -34.451  14.792  -7.059  1.00 20.00     0.000 C 
HETATM   11  C9  UNL     1     -34.832  16.217  -7.278  1.00 20.00     0.005 C 
ENDBRANCH   7  10
TORSDOF 2
ENDMDL
MODEL 7
REMARK VINA RESULT:      -4.2      3.788      6.327
REMARK  2 active torsions:
REMARK  status: ('A' for Active; 'I' for Inactive)
REMARK    1  A    between atoms: C1_1  and  C7_7 
REMARK    2  A    between atoms: C8_8  and  C10_10 
ROOT
HETATM    1  C2  UNL     1     -32.882  19.120   0.299  1.00 20.00     0.001 C 
HETATM    2  C3  UNL     1     -33.013  18.777   1.783  1.00 20.00     0.011 C 
HETATM    3  C4  UNL     1     -35.232  17.486   1.500  1.00 20.00     0.012 C 
HETATM    4  C5  UNL     1     -33.136  17.920  -0.607  1.00 20.00     0.004 C 
HETATM    5  C6  UNL     1     -35.636  17.963   0.105  1.00 20.00     0.005 C 
HETATM    6  C7  UNL     1     -34.440  18.542   2.281  1.00 20.00     0.047 C 
HETATM    7  C8  UNL     1     -34.605  17.708  -1.005  1.00 20.00    -0.015 C 
ENDROOT
BRANCH   6   8
HETATM    8  C1  UNL     1     -34.383  18.142   3.730  1.00 20.00     0.235 C 
HETATM    9  O11 UNL     1     -33.336  18.025   4.358  1.00 20.00    -0.306 OA
ENDBRANCH   6   8
BRANCH   7  10
HETATM   10  C10 UNL     1     -34.775  16.304  -1.596  1.00 20.00     0.000 C 
HETATM   11  C9  UNL     1     -33.749  16.024  -2.641  1.00 20.00     0.005 C 
ENDBRANCH   7  10
TORSDOF 2
ENDMDL
MODEL 8
REMARK VINA RESULT:      -4.2      2.564      4.258
REMARK  2 active torsions:
REMARK  status: ('A' for Active; 'I' for Inactive)
REMARK    1  A    between atoms: C1_1  and  C7_7 
REMARK    2  A    between atoms: C8_8  and  C10_10 
ROOT
HETATM    1  C2  UNL     1     -35.446  16.298  -2.500  1.00 20.00     0.001 C 
HETATM    2  C3  UNL     1     -35.132  17.528  -3.351  1.00 20.00     0.011 C 
HETATM    3  C4  UNL     1     -33.207  16.393  -4.648  1.00 20.00     0.012 C 
HETATM    4  C5  UNL     1     -35.525  15.016  -3.324  1.00 20.00     0.004 C 
HETATM    5  C6  UNL     1     -32.966  15.181  -3.749  1.00 20.00     0.005 C 
HETATM    6  C7  UNL     1     -33.695  17.621  -3.868  1.00 20.00     0.047 C 
HETATM    7  C8  UNL     1     -34.188  14.283  -3.510  1.00 20.00    -0.015 C 
ENDROOT
BRANCH   6   8
HETATM    8  C1  UNL     1     -33.578  18.839  -4.744  1.00 20.00     0.235 C 
HETATM    9  O11 UNL     1     -33.446  18.785  -5.962  1.00 20.00    -0.306 OA
ENDBRANCH   6   8
BRANCH   7  10
HETATM   10  C10 UNL     1     -34.329  13.242  -4.627  1.00 20.00     0.000 C 
HETATM   11  C9  UNL     1     -35.159  13.759  -5.752  1.00 20.00     0.005 C 
ENDBRANCH   7  10
TORSDOF 2
ENDMDL
MODEL 9
REMARK VINA RESULT:      -4.0     11.422     12.814
REMARK  2 active torsions:
REMARK  status: ('A' for Active; 'I' for Inactive)
REMARK    1  A    between atoms: C1_1  and  C7_7 
REMARK    2  A    between atoms: C8_8  and  C10_10 
ROOT
HETATM    1  C2  UNL     1     -40.794   6.918  -0.795  1.00 20.00     0.001 C 
HETATM    2  C3  UNL     1     -41.678   7.721  -1.749  1.00 20.00     0.011 C 
HETATM    3  C4  UNL     1     -43.076   5.680  -2.496  1.00 20.00     0.012 C 
HETATM    4  C5  UNL     1     -41.595   5.978   0.100  1.00 20.00     0.004 C 
HETATM    5  C6  UNL     1     -42.179   4.550  -1.992  1.00 20.00     0.005 C 
HETATM    6  C7  UNL     1     -42.283   6.927  -2.909  1.00 20.00     0.047 C 
HETATM    7  C8  UNL     1     -41.853   4.584  -0.492  1.00 20.00    -0.015 C 
ENDROOT
BRANCH   6   8
HETATM    8  C1  UNL     1     -43.180   7.841  -3.699  1.00 20.00     0.235 C 
HETATM    9  O11 UNL     1     -43.402   7.701  -4.897  1.00 20.00    -0.306 OA
ENDBRANCH   6   8
BRANCH   7  10
HETATM   10  C10 UNL     1     -42.946   3.880   0.320  1.00 20.00     0.000 C 
HETATM   11  C9  UNL     1     -43.417   4.728   1.452  1.00 20.00     0.005 C 
ENDBRANCH   7  10
TORSDOF 2
ENDMDL
