MODEL 1
REMARK VINA RESULT:      -4.9      0.000      0.000
REMARK  2 active torsions:
REMARK  status: ('A' for Active; 'I' for Inactive)
REMARK    1  A    between atoms: C1_1  and  C7_7 
REMARK    2  A    between atoms: C8_8  and  C12_12 
ROOT
HETATM    1  C2  UNL     1     -33.942  13.774  -4.094  1.00 20.00     0.001 C 
HETATM    2  C3  UNL     1     -34.860  13.711  -5.310  1.00 20.00     0.011 C 
HETATM    3  C4  UNL     1     -33.986  16.048  -6.065  1.00 20.00     0.012 C 
HETATM    4  C5  UNL     1     -34.359  14.849  -3.092  1.00 20.00     0.005 C 
HETATM    5  C6  UNL     1     -34.693  16.687  -4.869  1.00 20.00     0.006 C 
HETATM    6  C7  UNL     1     -34.472  14.649  -6.453  1.00 20.00     0.047 C 
HETATM    7  C8  UNL     1     -34.073  16.294  -3.518  1.00 20.00    -0.007 C 
ENDROOT
BRANCH   7   8
HETATM    8  C12 UNL     1     -34.576  17.247  -2.426  1.00 20.00    -0.048 C 
HETATM    9  C9  UNL     1     -34.587  16.520  -1.074  1.00 20.00     0.015 C 
HETATM   10  C10 UNL     1     -36.000  17.712  -2.767  1.00 20.00     0.015 C 
HETATM   11  C11 UNL     1     -33.649  18.468  -2.342  1.00 20.00     0.015 C 
ENDBRANCH   7   8
BRANCH   6  12
HETATM   12  C1  UNL     1     -35.640  14.780  -7.389  1.00 20.00     0.235 C 
HETATM   13  O13 UNL     1     -36.804  14.861  -7.011  1.00 20.00    -0.306 OA
ENDBRANCH   6  12
TORSDOF 2
ENDMDL
MODEL 2
REMARK VINA RESULT:      -4.9      0.034      1.202
REMARK  2 active torsions:
REMARK  status: ('A' for Active; 'I' for Inactive)
REMARK    1  A    between atoms: C1_1  and  C7_7 
REMARK    2  A    between atoms: C8_8  and  C12_12 
ROOT
HETATM    1  C2  UNL     1     -34.007  13.761  -4.086  1.00 20.00     0.001 C 
HETATM    2  C3  UNL     1     -34.909  13.720  -5.315  1.00 20.00     0.011 C 
HETATM    3  C4  UNL     1     -33.974  16.038  -6.054  1.00 20.00     0.012 C 
HETATM    4  C5  UNL     1     -34.414  14.843  -3.088  1.00 20.00     0.005 C 
HETATM    5  C6  UNL     1     -34.683  16.691  -4.866  1.00 20.00     0.006 C 
HETATM    6  C7  UNL     1     -34.486  14.651  -6.451  1.00 20.00     0.047 C 
HETATM    7  C8  UNL     1     -34.091  16.283  -3.507  1.00 20.00    -0.007 C 
ENDROOT
BRANCH   7   8
HETATM    8  C12 UNL     1     -34.588  17.245  -2.421  1.00 20.00    -0.048 C 
HETATM    9  C9  UNL     1     -36.015  17.705  -2.755  1.00 20.00     0.015 C 
HETATM   10  C10 UNL     1     -33.660  18.466  -2.354  1.00 20.00     0.015 C 
HETATM   11  C11 UNL     1     -34.588  16.529  -1.062  1.00 20.00     0.015 C 
ENDBRANCH   7   8
BRANCH   6  12
HETATM   12  C1  UNL     1     -35.637  14.809  -7.402  1.00 20.00     0.235 C 
HETATM   13  O13 UNL     1     -36.807  14.885  -7.042  1.00 20.00    -0.306 OA
ENDBRANCH   6  12
TORSDOF 2
ENDMDL
MODEL 3
REMARK VINA RESULT:      -4.8      1.776      2.668
REMARK  2 active torsions:
REMARK  status: ('A' for Active; 'I' for Inactive)
REMARK    1  A    between atoms: C1_1  and  C7_7 
REMARK    2  A    between atoms: C8_8  and  C12_12 
ROOT
HETATM    1  C2  UNL     1     -33.719  17.318  -4.817  1.00 20.00     0.001 C 
HETATM    2  C3  UNL     1     -33.404  15.826  -4.872  1.00 20.00     0.011 C 
HETATM    3  C4  UNL     1     -35.638  15.330  -3.624  1.00 20.00     0.012 C 
HETATM    4  C5  UNL     1     -33.673  17.881  -3.398  1.00 20.00     0.005 C 
HETATM    5  C6  UNL     1     -35.062  15.972  -2.361  1.00 20.00     0.006 C 
HETATM    6  C7  UNL     1     -34.612  14.911  -4.680  1.00 20.00     0.047 C 
HETATM    7  C8  UNL     1     -34.850  17.489  -2.495  1.00 20.00    -0.007 C 
ENDROOT
BRANCH   7   8
HETATM    8  C12 UNL     1     -34.640  18.103  -1.105  1.00 20.00    -0.048 C 
HETATM    9  C9  UNL     1     -34.792  17.013  -0.033  1.00 20.00     0.015 C 
HETATM   10  C10 UNL     1     -35.686  19.202  -0.867  1.00 20.00     0.015 C 
HETATM   11  C11 UNL     1     -33.233  18.711  -1.019  1.00 20.00     0.015 C 
ENDBRANCH   7   8
BRANCH   6  12
HETATM   12  C1  UNL     1     -34.124  13.525  -4.364  1.00 20.00     0.235 C 
HETATM   13  O13 UNL     1     -34.791  12.513  -4.555  1.00 20.00    -0.306 OA
ENDBRANCH   6  12
TORSDOF 2
ENDMDL
MODEL 4
REMARK VINA RESULT:      -4.7      2.741      5.297
REMARK  2 active torsions:
REMARK  status: ('A' for Active; 'I' for Inactive)
REMARK    1  A    between atoms: C1_1  and  C7_7 
REMARK    2  A    between atoms: C8_8  and  C12_12 
ROOT
HETATM    1  C2  UNL     1     -33.720  18.640  -2.985  1.00 20.00     0.001 C 
HETATM    2  C3  UNL     1     -34.887  18.998  -2.071  1.00 20.00     0.011 C 
HETATM    3  C4  UNL     1     -34.414  16.856  -0.662  1.00 20.00     0.012 C 
HETATM    4  C5  UNL     1     -33.982  17.386  -3.817  1.00 20.00     0.005 C 
HETATM    5  C6  UNL     1     -34.875  15.994  -1.838  1.00 20.00     0.006 C 
HETATM    6  C7  UNL     1     -34.857  18.321  -0.701  1.00 20.00     0.047 C 
HETATM    7  C8  UNL     1     -33.927  16.060  -3.047  1.00 20.00    -0.007 C 
ENDROOT
BRANCH   7   8
HETATM    8  C12 UNL     1     -34.241  14.908  -4.010  1.00 20.00    -0.048 C 
HETATM    9  C9  UNL     1     -34.049  15.382  -5.458  1.00 20.00     0.015 C 
HETATM   10  C10 UNL     1     -35.694  14.454  -3.809  1.00 20.00     0.015 C 
HETATM   11  C11 UNL     1     -33.296  13.731  -3.728  1.00 20.00     0.015 C 
ENDBRANCH   7   8
BRANCH   6  12
HETATM   12  C1  UNL     1     -36.218  18.436  -0.074  1.00 20.00     0.235 C 
HETATM   13  O13 UNL     1     -36.482  18.022   1.050  1.00 20.00    -0.306 OA
ENDBRANCH   6  12
TORSDOF 2
ENDMDL
MODEL 5
REMARK VINA RESULT:      -4.6      2.726      5.281
REMARK  2 active torsions:
REMARK  status: ('A' for Active; 'I' for Inactive)
REMARK    1  A    between atoms: C1_1  and  C7_7 
REMARK    2  A    between atoms: C8_8  and  C12_12 
ROOT
HETATM    1  C2  UNL     1     -33.737  18.615  -3.012  1.00 20.00     0.001 C 
HETATM    2  C3  UNL     1     -34.900  18.976  -2.094  1.00 20.00     0.011 C 
HETATM    3  C4  UNL     1     -34.430  16.833  -0.688  1.00 20.00     0.012 C 
HETATM    4  C5  UNL     1     -34.005  17.362  -3.843  1.00 20.00     0.005 C 
HETATM    5  C6  UNL     1     -34.897  15.972  -1.863  1.00 20.00     0.006 C 
HETATM    6  C7  UNL     1     -34.868  18.299  -0.724  1.00 20.00     0.047 C 
HETATM    7  C8  UNL     1     -33.952  16.036  -3.074  1.00 20.00    -0.007 C 
ENDROOT
BRANCH   7   8
HETATM    8  C12 UNL     1     -34.272  14.885  -4.036  1.00 20.00    -0.048 C 
HETATM    9  C9  UNL     1     -35.731  14.445  -3.843  1.00 20.00     0.015 C 
HETATM   10  C10 UNL     1     -33.339  13.700  -3.747  1.00 20.00     0.015 C 
HETATM   11  C11 UNL     1     -34.068  15.354  -5.484  1.00 20.00     0.015 C 
ENDBRANCH   7   8
BRANCH   6  12
HETATM   12  C1  UNL     1     -36.227  18.419  -0.093  1.00 20.00     0.235 C 
HETATM   13  O13 UNL     1     -36.489  18.006   1.031  1.00 20.00    -0.306 OA
ENDBRANCH   6  12
TORSDOF 2
ENDMDL
MODEL 6
REMARK VINA RESULT:      -4.5      2.388      4.728
REMARK  2 active torsions:
REMARK  status: ('A' for Active; 'I' for Inactive)
REMARK    1  A    between atoms: C1_1  and  C7_7 
REMARK    2  A    between atoms: C8_8  and  C12_12 
ROOT
HETATM    1  C2  UNL     1     -34.092  13.713  -4.125  1.00 20.00     0.001 C 
HETATM    2  C3  UNL     1     -33.571  14.824  -3.219  1.00 20.00     0.011 C 
HETATM    3  C4  UNL     1     -35.978  15.816  -3.087  1.00 20.00     0.012 C 
HETATM    4  C5  UNL     1     -34.533  14.225  -5.495  1.00 20.00     0.005 C 
HETATM    5  C6  UNL     1     -35.884  16.213  -4.561  1.00 20.00     0.006 C 
HETATM    6  C7  UNL     1     -34.645  15.529  -2.391  1.00 20.00     0.047 C 
HETATM    7  C8  UNL     1     -35.854  15.007  -5.513  1.00 20.00    -0.007 C 
ENDROOT
BRANCH   7   8
HETATM    8  C12 UNL     1     -36.139  15.476  -6.945  1.00 20.00    -0.048 C 
HETATM    9  C9  UNL     1     -35.186  14.765  -7.918  1.00 20.00     0.015 C 
HETATM   10  C10 UNL     1     -35.926  16.994  -7.039  1.00 20.00     0.015 C 
HETATM   11  C11 UNL     1     -37.590  15.140  -7.316  1.00 20.00     0.015 C 
ENDBRANCH   7   8
BRANCH   6  12
HETATM   12  C1  UNL     1     -34.081  16.819  -1.865  1.00 20.00     0.235 C 
HETATM   13  O13 UNL     1     -34.049  17.106  -0.673  1.00 20.00    -0.306 OA
ENDBRANCH   6  12
TORSDOF 2
ENDMDL
MODEL 7
REMARK VINA RESULT:      -4.4      2.043      3.849
REMARK  2 active torsions:
REMARK  status: ('A' for Active; 'I' for Inactive)
REMARK    1  A    between atoms: C1_1  and  C7_7 
REMARK    2  A    between atoms: C8_8  and  C12_12 
ROOT
HETATM    1  C2  UNL     1     -35.898  16.720  -3.256  1.00 20.00     0.001 C 
HETATM    2  C3  UNL     1     -35.649  15.216  -3.319  1.00 20.00     0.011 C 
HETATM    3  C4  UNL     1     -33.219  15.675  -4.143  1.00 20.00     0.012 C 
HETATM    4  C5  UNL     1     -35.918  17.375  -4.635  1.00 20.00     0.005 C 
HETATM    5  C6  UNL     1     -33.778  16.201  -5.466  1.00 20.00     0.006 C 
HETATM    6  C7  UNL     1     -34.175  14.812  -3.316  1.00 20.00     0.047 C 
HETATM    7  C8  UNL     1     -34.551  17.521  -5.315  1.00 20.00    -0.007 C 
ENDROOT
BRANCH   7   8
HETATM    8  C12 UNL     1     -34.744  18.163  -6.695  1.00 20.00    -0.048 C 
HETATM    9  C9  UNL     1     -36.130  18.821  -6.767  1.00 20.00     0.015 C 
HETATM   10  C10 UNL     1     -34.634  17.085  -7.783  1.00 20.00     0.015 C 
HETATM   11  C11 UNL     1     -33.662  19.229  -6.922  1.00 20.00     0.015 C 
ENDBRANCH   7   8
BRANCH   6  12
HETATM   12  C1  UNL     1     -34.063  13.385  -3.772  1.00 20.00     0.235 C 
HETATM   13  O13 UNL     1     -34.974  12.778  -4.326  1.00 20.00    -0.306 OA
ENDBRANCH   6  12
TORSDOF 2
ENDMDL
MODEL 8
REMARK VINA RESULT:      -4.1      2.170      4.446
REMARK  2 active torsions:
REMARK  status: ('A' for Active; 'I' for Inactive)
REMARK    1  A    between atoms: C1_1  and  C7_7 
REMARK    2  A    between atoms: C8_8  and  C12_12 
ROOT
HETATM    1  C2  UNL     1     -35.804  16.413  -3.248  1.00 20.00     0.001 C 
HETATM    2  C3  UNL     1     -34.699  15.408  -2.936  1.00 20.00     0.011 C 
HETATM    3  C4  UNL     1     -33.436  16.162  -5.088  1.00 20.00     0.012 C 
HETATM    4  C5  UNL     1     -36.606  16.044  -4.494  1.00 20.00     0.005 C 
HETATM    5  C6  UNL     1     -34.535  15.530  -5.942  1.00 20.00     0.006 C 
HETATM    6  C7  UNL     1     -33.368  15.684  -3.635  1.00 20.00     0.047 C 
HETATM    7  C8  UNL     1     -35.884  16.259  -5.830  1.00 20.00    -0.007 C 
ENDROOT
BRANCH   7   8
HETATM    8  C12 UNL     1     -36.805  15.815  -6.974  1.00 20.00    -0.048 C 
HETATM    9  C9  UNL     1     -36.116  14.709  -7.788  1.00 20.00     0.015 C 
HETATM   10  C10 UNL     1     -37.102  17.012  -7.888  1.00 20.00     0.015 C 
HETATM   11  C11 UNL     1     -38.121  15.277  -6.394  1.00 20.00     0.015 C 
ENDBRANCH   7   8
BRANCH   6  12
HETATM   12  C1  UNL     1     -32.519  14.446  -3.566  1.00 20.00     0.235 C 
HETATM   13  O13 UNL     1     -32.979  13.310  -3.579  1.00 20.00    -0.306 OA
ENDBRANCH   6  12
TORSDOF 2
ENDMDL
MODEL 9
REMARK VINA RESULT:      -4.1      2.681      4.613
REMARK  2 active torsions:
REMARK  status: ('A' for Active; 'I' for Inactive)
REMARK    1  A    between atoms: C1_1  and  C7_7 
REMARK    2  A    between atoms: C8_8  and  C12_12 
ROOT
HETATM    1  C2  UNL     1     -33.632  16.157  -5.524  1.00 20.00     0.001 C 
HETATM    2  C3  UNL     1     -33.455  16.801  -4.152  1.00 20.00     0.011 C 
HETATM    3  C4  UNL     1     -35.046  15.008  -3.128  1.00 20.00     0.012 C 
HETATM    4  C5  UNL     1     -35.047  16.322  -6.076  1.00 20.00     0.005 C 
HETATM    5  C6  UNL     1     -36.219  15.632  -3.886  1.00 20.00     0.006 C 
HETATM    6  C7  UNL     1     -33.810  15.897  -2.972  1.00 20.00     0.047 C 
HETATM    7  C8  UNL     1     -36.120  15.452  -5.410  1.00 20.00    -0.007 C 
ENDROOT
BRANCH   7   8
HETATM    8  C12 UNL     1     -37.480  15.756  -6.051  1.00 20.00    -0.048 C 
HETATM    9  C9  UNL     1     -38.600  15.143  -5.197  1.00 20.00     0.015 C 
HETATM   10  C10 UNL     1     -37.527  15.154  -7.463  1.00 20.00     0.015 C 
HETATM   11  C11 UNL     1     -37.679  17.276  -6.139  1.00 20.00     0.015 C 
ENDBRANCH   7   8
BRANCH   6  12
HETATM   12  C1  UNL     1     -33.972  16.747  -1.743  1.00 20.00     0.235 C 
HETATM   13  O13 UNL     1     -34.620  16.400  -0.762  1.00 20.00    -0.306 OA
ENDBRANCH   6  12
TORSDOF 2
ENDMDL
