MODEL 1
REMARK VINA RESULT:      -4.5      0.000      0.000
REMARK  2 active torsions:
REMARK  status: ('A' for Active; 'I' for Inactive)
REMARK    1  A    between atoms: C5_5  and  C8_8 
REMARK    2  A    between atoms: C6_6  and  C9_9 
ROOT
HETATM    1  C1  UNL     1     -34.217   5.460   2.428  1.00 20.00     0.001 C 
HETATM    2  C2  UNL     1     -34.577   5.241   3.895  1.00 20.00     0.005 C 
HETATM    3  C3  UNL     1     -32.717   5.671   2.240  1.00 20.00     0.005 C 
HETATM    4  C4  UNL     1     -32.551   6.584   4.592  1.00 20.00     0.010 C 
HETATM    5  C5  UNL     1     -34.062   6.379   4.785  1.00 20.00    -0.014 C 
HETATM    6  C6  UNL     1     -32.152   6.793   3.123  1.00 20.00    -0.000 C 
ENDROOT
BRANCH   5   7
HETATM    7  C8  UNL     1     -34.381   6.096   6.253  1.00 20.00     0.000 C 
HETATM    8  C7  UNL     1     -34.899   4.709   6.447  1.00 20.00     0.005 C 
ENDBRANCH   5   7
BRANCH   6   9
HETATM    9  C9  UNL     1     -32.564   8.176   2.613  1.00 20.00     0.119 C 
HETATM   10 CL10 UNL     1     -31.740   8.529   1.085  1.00 20.00    -0.130 Cl
ENDBRANCH   6   9
TORSDOF 2
ENDMDL
MODEL 2
REMARK VINA RESULT:      -4.4     11.504     11.976
REMARK  2 active torsions:
REMARK  status: ('A' for Active; 'I' for Inactive)
REMARK    1  A    between atoms: C5_5  and  C8_8 
REMARK    2  A    between atoms: C6_6  and  C9_9 
ROOT
HETATM    1  C1  UNL     1     -36.400  14.721  -3.784  1.00 20.00     0.001 C 
HETATM    2  C2  UNL     1     -35.738  15.470  -2.631  1.00 20.00     0.005 C 
HETATM    3  C3  UNL     1     -35.459  13.689  -4.401  1.00 20.00     0.005 C 
HETATM    4  C4  UNL     1     -33.469  15.070  -3.673  1.00 20.00     0.010 C 
HETATM    5  C5  UNL     1     -34.412  16.114  -3.054  1.00 20.00    -0.014 C 
HETATM    6  C6  UNL     1     -34.110  14.286  -4.828  1.00 20.00    -0.000 C 
ENDROOT
BRANCH   5   7
HETATM    7  C8  UNL     1     -33.744  16.798  -1.862  1.00 20.00     0.000 C 
HETATM    8  C7  UNL     1     -34.621  16.777  -0.653  1.00 20.00     0.005 C 
ENDBRANCH   5   7
BRANCH   6   9
HETATM    9  C9  UNL     1     -34.244  15.142  -6.091  1.00 20.00     0.119 C 
HETATM   10 CL10 UNL     1     -35.281  14.323  -7.271  1.00 20.00    -0.130 Cl
ENDBRANCH   6   9
TORSDOF 2
ENDMDL
MODEL 3
REMARK VINA RESULT:      -4.3     10.859     12.178
REMARK  2 active torsions:
REMARK  status: ('A' for Active; 'I' for Inactive)
REMARK    1  A    between atoms: C5_5  and  C8_8 
REMARK    2  A    between atoms: C6_6  and  C9_9 
ROOT
HETATM    1  C1  UNL     1     -33.861  17.027  -4.530  1.00 20.00     0.001 C 
HETATM    2  C2  UNL     1     -33.749  17.777  -3.206  1.00 20.00     0.005 C 
HETATM    3  C3  UNL     1     -35.093  16.127  -4.566  1.00 20.00     0.005 C 
HETATM    4  C4  UNL     1     -35.017  15.921  -2.048  1.00 20.00     0.010 C 
HETATM    5  C5  UNL     1     -33.774  16.823  -2.005  1.00 20.00    -0.014 C 
HETATM    6  C6  UNL     1     -35.169  15.162  -3.374  1.00 20.00    -0.000 C 
ENDROOT
BRANCH   5   7
HETATM    7  C8  UNL     1     -33.727  17.610  -0.695  1.00 20.00     0.000 C 
HETATM    8  C7  UNL     1     -34.886  17.281   0.187  1.00 20.00     0.005 C 
ENDBRANCH   5   7
BRANCH   6   9
HETATM    9  C9  UNL     1     -34.149  14.027  -3.500  1.00 20.00     0.119 C 
HETATM   10 CL10 UNL     1     -34.488  13.064  -4.947  1.00 20.00    -0.130 Cl
ENDBRANCH   6   9
TORSDOF 2
ENDMDL
MODEL 4
REMARK VINA RESULT:      -4.2     11.322     12.971
REMARK  2 active torsions:
REMARK  status: ('A' for Active; 'I' for Inactive)
REMARK    1  A    between atoms: C5_5  and  C8_8 
REMARK    2  A    between atoms: C6_6  and  C9_9 
ROOT
HETATM    1  C1  UNL     1     -33.235  16.506  -4.709  1.00 20.00     0.001 C 
HETATM    2  C2  UNL     1     -33.970  15.917  -5.910  1.00 20.00     0.005 C 
HETATM    3  C3  UNL     1     -33.129  15.502  -3.564  1.00 20.00     0.005 C 
HETATM    4  C4  UNL     1     -35.235  14.360  -4.371  1.00 20.00     0.010 C 
HETATM    5  C5  UNL     1     -35.350  15.370  -5.523  1.00 20.00    -0.014 C 
HETATM    6  C6  UNL     1     -34.487  14.916  -3.151  1.00 20.00    -0.000 C 
ENDROOT
BRANCH   5   7
HETATM    7  C8  UNL     1     -36.030  14.730  -6.733  1.00 20.00     0.000 C 
HETATM    8  C7  UNL     1     -35.121  14.687  -7.917  1.00 20.00     0.005 C 
ENDBRANCH   5   7
BRANCH   6   9
HETATM    9  C9  UNL     1     -35.332  15.934  -2.381  1.00 20.00     0.119 C 
HETATM   10 CL10 UNL     1     -34.439  16.518  -0.967  1.00 20.00    -0.130 Cl
ENDBRANCH   6   9
TORSDOF 2
ENDMDL
MODEL 5
REMARK VINA RESULT:      -4.2      2.577      4.173
REMARK  2 active torsions:
REMARK  status: ('A' for Active; 'I' for Inactive)
REMARK    1  A    between atoms: C5_5  and  C8_8 
REMARK    2  A    between atoms: C6_6  and  C9_9 
ROOT
HETATM    1  C1  UNL     1     -34.448   4.971   2.985  1.00 20.00     0.001 C 
HETATM    2  C2  UNL     1     -33.363   5.947   2.538  1.00 20.00     0.005 C 
HETATM    3  C3  UNL     1     -35.371   5.593   4.029  1.00 20.00     0.005 C 
HETATM    4  C4  UNL     1     -33.501   7.124   4.772  1.00 20.00     0.010 C 
HETATM    5  C5  UNL     1     -32.565   6.498   3.726  1.00 20.00    -0.014 C 
HETATM    6  C6  UNL     1     -34.615   6.172   5.233  1.00 20.00    -0.000 C 
ENDROOT
BRANCH   5   7
HETATM    7  C8  UNL     1     -31.533   7.521   3.250  1.00 20.00     0.000 C 
HETATM    8  C7  UNL     1     -31.982   8.220   2.009  1.00 20.00     0.005 C 
ENDBRANCH   5   7
BRANCH   6   9
HETATM    9  C9  UNL     1     -34.077   5.068   6.147  1.00 20.00     0.119 C 
HETATM   10 CL10 UNL     1     -35.107   3.631   6.033  1.00 20.00    -0.130 Cl
ENDBRANCH   6   9
TORSDOF 2
ENDMDL
MODEL 6
REMARK VINA RESULT:      -4.1     11.227     12.258
REMARK  2 active torsions:
REMARK  status: ('A' for Active; 'I' for Inactive)
REMARK    1  A    between atoms: C5_5  and  C8_8 
REMARK    2  A    between atoms: C6_6  and  C9_9 
ROOT
HETATM    1  C1  UNL     1     -34.687  13.278  -4.517  1.00 20.00     0.001 C 
HETATM    2  C2  UNL     1     -33.930  14.145  -3.515  1.00 20.00     0.005 C 
HETATM    3  C3  UNL     1     -35.043  14.057  -5.780  1.00 20.00     0.005 C 
HETATM    4  C4  UNL     1     -35.052  16.208  -4.452  1.00 20.00     0.010 C 
HETATM    5  C5  UNL     1     -34.697  15.429  -3.175  1.00 20.00    -0.014 C 
HETATM    6  C6  UNL     1     -35.802  15.360  -5.490  1.00 20.00    -0.000 C 
ENDROOT
BRANCH   5   7
HETATM    7  C8  UNL     1     -33.883  16.304  -2.222  1.00 20.00     0.000 C 
HETATM    8  C7  UNL     1     -34.634  16.594  -0.964  1.00 20.00     0.005 C 
ENDBRANCH   5   7
BRANCH   6   9
HETATM    9  C9  UNL     1     -37.248  15.090  -5.066  1.00 20.00     0.119 C 
HETATM   10 CL10 UNL     1     -37.909  16.505  -4.230  1.00 20.00    -0.130 Cl
ENDBRANCH   6   9
TORSDOF 2
ENDMDL
MODEL 7
REMARK VINA RESULT:      -4.1     11.084     13.063
REMARK  2 active torsions:
REMARK  status: ('A' for Active; 'I' for Inactive)
REMARK    1  A    between atoms: C5_5  and  C8_8 
REMARK    2  A    between atoms: C6_6  and  C9_9 
ROOT
HETATM    1  C1  UNL     1     -34.839  13.921  -3.777  1.00 20.00     0.001 C 
HETATM    2  C2  UNL     1     -34.838  13.847  -5.301  1.00 20.00     0.005 C 
HETATM    3  C3  UNL     1     -35.638  15.118  -3.270  1.00 20.00     0.005 C 
HETATM    4  C4  UNL     1     -35.153  16.354  -5.422  1.00 20.00     0.010 C 
HETATM    5  C5  UNL     1     -34.343  15.153  -5.936  1.00 20.00    -0.014 C 
HETATM    6  C6  UNL     1     -35.186  16.448  -3.889  1.00 20.00    -0.000 C 
ENDROOT
BRANCH   5   7
HETATM    7  C8  UNL     1     -34.418  15.069  -7.461  1.00 20.00     0.000 C 
HETATM    8  C7  UNL     1     -35.708  14.471  -7.917  1.00 20.00     0.005 C 
ENDBRANCH   5   7
BRANCH   6   9
HETATM    9  C9  UNL     1     -33.843  16.911  -3.319  1.00 20.00     0.119 C 
HETATM   10 CL10 UNL     1     -33.848  16.755  -1.554  1.00 20.00    -0.130 Cl
ENDBRANCH   6   9
TORSDOF 2
ENDMDL
MODEL 8
REMARK VINA RESULT:      -4.0     11.149     11.948
REMARK  2 active torsions:
REMARK  status: ('A' for Active; 'I' for Inactive)
REMARK    1  A    between atoms: C5_5  and  C8_8 
REMARK    2  A    between atoms: C6_6  and  C9_9 
ROOT
HETATM    1  C1  UNL     1     -34.440  13.335  -4.730  1.00 20.00     0.001 C 
HETATM    2  C2  UNL     1     -35.842  13.673  -4.232  1.00 20.00     0.005 C 
HETATM    3  C3  UNL     1     -33.364  13.835  -3.769  1.00 20.00     0.005 C 
HETATM    4  C4  UNL     1     -34.919  15.668  -2.983  1.00 20.00     0.010 C 
HETATM    5  C5  UNL     1     -36.004  15.172  -3.952  1.00 20.00    -0.014 C 
HETATM    6  C6  UNL     1     -33.494  15.331  -3.447  1.00 20.00    -0.000 C 
ENDROOT
BRANCH   5   7
HETATM    7  C8  UNL     1     -37.396  15.466  -3.394  1.00 20.00     0.000 C 
HETATM    8  C7  UNL     1     -38.452  14.691  -4.111  1.00 20.00     0.005 C 
ENDBRANCH   5   7
BRANCH   6   9
HETATM    9  C9  UNL     1     -33.059  16.203  -4.627  1.00 20.00     0.119 C 
HETATM   10 CL10 UNL     1     -33.614  17.868  -4.388  1.00 20.00    -0.130 Cl
ENDBRANCH   6   9
TORSDOF 2
ENDMDL
MODEL 9
REMARK VINA RESULT:      -4.0     11.268     12.358
REMARK  2 active torsions:
REMARK  status: ('A' for Active; 'I' for Inactive)
REMARK    1  A    between atoms: C5_5  and  C8_8 
REMARK    2  A    between atoms: C6_6  and  C9_9 
ROOT
HETATM    1  C1  UNL     1     -35.452  17.849  -3.605  1.00 20.00     0.001 C 
HETATM    2  C2  UNL     1     -35.821  16.563  -4.339  1.00 20.00     0.005 C 
HETATM    3  C3  UNL     1     -34.058  17.768  -2.989  1.00 20.00     0.005 C 
HETATM    4  C4  UNL     1     -34.279  15.255  -2.820  1.00 20.00     0.010 C 
HETATM    5  C5  UNL     1     -35.685  15.331  -3.436  1.00 20.00    -0.014 C 
HETATM    6  C6  UNL     1     -33.870  16.541  -2.086  1.00 20.00    -0.000 C 
ENDROOT
BRANCH   5   7
HETATM    7  C8  UNL     1     -35.997  14.056  -4.219  1.00 20.00     0.000 C 
HETATM    8  C7  UNL     1     -34.753  13.313  -4.580  1.00 20.00     0.005 C 
ENDBRANCH   5   7
BRANCH   6   9
HETATM    9  C9  UNL     1     -34.614  16.697  -0.757  1.00 20.00     0.119 C 
HETATM   10 CL10 UNL     1     -33.876  17.991   0.202  1.00 20.00    -0.130 Cl
ENDBRANCH   6   9
TORSDOF 2
ENDMDL
