MODEL 1
REMARK VINA RESULT:      -4.5      0.000      0.000
REMARK  2 active torsions:
REMARK  status: ('A' for Active; 'I' for Inactive)
REMARK    1  A    between atoms: C4_4  and  C8_8 
REMARK    2  A    between atoms: C5_5  and  C9_9 
ROOT
HETATM    1  C1  UNL     1     -36.092  15.806  -2.878  1.00 20.00     0.032 C 
HETATM    2  C2  UNL     1     -34.035  15.589  -4.285  1.00 20.00     0.043 C 
HETATM    3  C3  UNL     1     -36.773  14.826  -3.822  1.00 20.00     0.169 C 
HETATM    4  C4  UNL     1     -34.580  15.574  -2.852  1.00 20.00     0.004 C 
HETATM    5  C5  UNL     1     -34.811  14.641  -5.221  1.00 20.00     0.057 C 
HETATM    6  C6  UNL     1     -34.506  13.163  -4.935  1.00 20.00     0.046 C 
HETATM    7  O10 UNL     1     -36.222  14.897  -5.134  1.00 20.00    -0.381 OA
ENDROOT
BRANCH   5   8
HETATM    8  C9  UNL     1     -34.420  14.940  -6.676  1.00 20.00     0.033 C 
HETATM    9  C7  UNL     1     -35.455  14.451  -7.629  1.00 20.00     0.008 C 
ENDBRANCH   5   8
BRANCH   4  10
HETATM   10  C8  UNL     1     -33.881  16.623  -1.990  1.00 20.00     0.119 C 
HETATM   11 CL11 UNL     1     -34.682  16.752  -0.414  1.00 20.00    -0.130 Cl
ENDBRANCH   4  10
TORSDOF 2
ENDMDL
MODEL 2
REMARK VINA RESULT:      -4.2      1.408      2.927
REMARK  2 active torsions:
REMARK  status: ('A' for Active; 'I' for Inactive)
REMARK    1  A    between atoms: C4_4  and  C8_8 
REMARK    2  A    between atoms: C5_5  and  C9_9 
ROOT
HETATM    1  C1  UNL     1     -34.140  14.136  -3.464  1.00 20.00     0.032 C 
HETATM    2  C2  UNL     1     -36.043  15.744  -3.237  1.00 20.00     0.043 C 
HETATM    3  C3  UNL     1     -34.992  13.354  -4.452  1.00 20.00     0.169 C 
HETATM    4  C4  UNL     1     -34.531  15.615  -3.460  1.00 20.00     0.004 C 
HETATM    5  C5  UNL     1     -36.859  14.869  -4.208  1.00 20.00     0.057 C 
HETATM    6  C6  UNL     1     -36.848  15.424  -5.640  1.00 20.00     0.046 C 
HETATM    7  O10 UNL     1     -36.382  13.514  -4.183  1.00 20.00    -0.381 OA
ENDROOT
BRANCH   5   8
HETATM    8  C9  UNL     1     -38.317  14.810  -3.728  1.00 20.00     0.033 C 
HETATM    9  C7  UNL     1     -38.831  16.165  -3.383  1.00 20.00     0.008 C 
ENDBRANCH   5   8
BRANCH   4  10
HETATM   10  C8  UNL     1     -33.754  16.384  -2.394  1.00 20.00     0.119 C 
HETATM   11 CL11 UNL     1     -34.683  16.448  -0.887  1.00 20.00    -0.130 Cl
ENDBRANCH   4  10
TORSDOF 2
ENDMDL
MODEL 3
REMARK VINA RESULT:      -4.2      2.412      4.279
REMARK  2 active torsions:
REMARK  status: ('A' for Active; 'I' for Inactive)
REMARK    1  A    between atoms: C4_4  and  C8_8 
REMARK    2  A    between atoms: C5_5  and  C9_9 
ROOT
HETATM    1  C1  UNL     1     -34.737  13.654  -5.640  1.00 20.00     0.032 C 
HETATM    2  C2  UNL     1     -34.407  15.996  -4.827  1.00 20.00     0.043 C 
HETATM    3  C3  UNL     1     -35.124  13.275  -4.218  1.00 20.00     0.169 C 
HETATM    4  C4  UNL     1     -35.049  15.126  -5.913  1.00 20.00     0.004 C 
HETATM    5  C5  UNL     1     -34.762  15.521  -3.404  1.00 20.00     0.057 C 
HETATM    6  C6  UNL     1     -36.221  15.832  -3.035  1.00 20.00     0.046 C 
HETATM    7  O10 UNL     1     -34.488  14.119  -3.262  1.00 20.00    -0.381 OA
ENDROOT
BRANCH   5   8
HETATM    8  C9  UNL     1     -33.850  16.232  -2.394  1.00 20.00     0.033 C 
HETATM    9  C7  UNL     1     -34.575  16.540  -1.129  1.00 20.00     0.008 C 
ENDBRANCH   5   8
BRANCH   4  10
HETATM   10  C8  UNL     1     -34.565  15.539  -7.302  1.00 20.00     0.119 C 
HETATM   11 CL11 UNL     1     -34.436  17.304  -7.404  1.00 20.00    -0.130 Cl
ENDBRANCH   4  10
TORSDOF 2
ENDMDL
MODEL 4
REMARK VINA RESULT:      -4.2     11.456     12.713
REMARK  2 active torsions:
REMARK  status: ('A' for Active; 'I' for Inactive)
REMARK    1  A    between atoms: C4_4  and  C8_8 
REMARK    2  A    between atoms: C5_5  and  C9_9 
ROOT
HETATM    1  C1  UNL     1     -41.060   4.152  -1.514  1.00 20.00     0.032 C 
HETATM    2  C2  UNL     1     -42.699   5.462  -2.877  1.00 20.00     0.043 C 
HETATM    3  C3  UNL     1     -40.706   5.447  -0.798  1.00 20.00     0.169 C 
HETATM    4  C4  UNL     1     -42.497   4.195  -2.036  1.00 20.00     0.004 C 
HETATM    5  C5  UNL     1     -42.248   6.738  -2.138  1.00 20.00     0.057 C 
HETATM    6  C6  UNL     1     -43.212   7.125  -1.007  1.00 20.00     0.046 C 
HETATM    7  O10 UNL     1     -40.912   6.580  -1.637  1.00 20.00    -0.381 OA
ENDROOT
BRANCH   5   8
HETATM    8  C9  UNL     1     -42.188   7.902  -3.138  1.00 20.00     0.033 C 
HETATM    9  C7  UNL     1     -43.237   7.771  -4.188  1.00 20.00     0.008 C 
ENDBRANCH   5   8
BRANCH   4  10
HETATM   10  C8  UNL     1     -42.822   2.943  -2.848  1.00 20.00     0.119 C 
HETATM   11 CL11 UNL     1     -41.332   2.221  -3.480  1.00 20.00    -0.130 Cl
ENDBRANCH   4  10
TORSDOF 2
ENDMDL
MODEL 5
REMARK VINA RESULT:      -4.2      2.640      4.517
REMARK  2 active torsions:
REMARK  status: ('A' for Active; 'I' for Inactive)
REMARK    1  A    between atoms: C4_4  and  C8_8 
REMARK    2  A    between atoms: C5_5  and  C9_9 
ROOT
HETATM    1  C1  UNL     1     -34.333  16.599  -6.633  1.00 20.00     0.032 C 
HETATM    2  C2  UNL     1     -35.039  14.838  -5.002  1.00 20.00     0.043 C 
HETATM    3  C3  UNL     1     -33.538  17.243  -5.507  1.00 20.00     0.169 C 
HETATM    4  C4  UNL     1     -34.474  15.093  -6.405  1.00 20.00     0.004 C 
HETATM    5  C5  UNL     1     -34.250  15.579  -3.905  1.00 20.00     0.057 C 
HETATM    6  C6  UNL     1     -32.872  14.949  -3.654  1.00 20.00     0.046 C 
HETATM    7  O10 UNL     1     -34.121  16.971  -4.235  1.00 20.00    -0.381 OA
ENDROOT
BRANCH   5   8
HETATM    8  C9  UNL     1     -35.047  15.531  -2.593  1.00 20.00     0.033 C 
HETATM    9  C7  UNL     1     -34.438  16.409  -1.555  1.00 20.00     0.008 C 
ENDBRANCH   5   8
BRANCH   4  10
HETATM   10  C8  UNL     1     -35.361  14.459  -7.475  1.00 20.00     0.119 C 
HETATM   11 CL11 UNL     1     -37.008  15.103  -7.364  1.00 20.00    -0.130 Cl
ENDBRANCH   4  10
TORSDOF 2
ENDMDL
MODEL 6
REMARK VINA RESULT:      -4.1      1.856      2.677
REMARK  2 active torsions:
REMARK  status: ('A' for Active; 'I' for Inactive)
REMARK    1  A    between atoms: C4_4  and  C8_8 
REMARK    2  A    between atoms: C5_5  and  C9_9 
ROOT
HETATM    1  C1  UNL     1     -34.111  17.905  -3.232  1.00 20.00     0.032 C 
HETATM    2  C2  UNL     1     -34.658  15.663  -2.268  1.00 20.00     0.043 C 
HETATM    3  C3  UNL     1     -34.792  17.456  -4.517  1.00 20.00     0.169 C 
HETATM    4  C4  UNL     1     -34.698  17.176  -2.022  1.00 20.00     0.004 C 
HETATM    5  C5  UNL     1     -35.285  15.267  -3.619  1.00 20.00     0.057 C 
HETATM    6  C6  UNL     1     -36.815  15.401  -3.611  1.00 20.00     0.046 C 
HETATM    7  O10 UNL     1     -34.712  16.043  -4.683  1.00 20.00    -0.381 OA
ENDROOT
BRANCH   5   8
HETATM    8  C9  UNL     1     -34.932  13.805  -3.928  1.00 20.00     0.033 C 
HETATM    9  C7  UNL     1     -33.465  13.567  -3.828  1.00 20.00     0.008 C 
ENDBRANCH   5   8
BRANCH   4  10
HETATM   10  C8  UNL     1     -33.946  17.543  -0.745  1.00 20.00     0.119 C 
HETATM   11 CL11 UNL     1     -34.992  17.309   0.667  1.00 20.00    -0.130 Cl
ENDBRANCH   4  10
TORSDOF 2
ENDMDL
MODEL 7
REMARK VINA RESULT:      -4.1      1.302      2.129
REMARK  2 active torsions:
REMARK  status: ('A' for Active; 'I' for Inactive)
REMARK    1  A    between atoms: C4_4  and  C8_8 
REMARK    2  A    between atoms: C5_5  and  C9_9 
ROOT
HETATM    1  C1  UNL     1     -34.032  14.232  -3.508  1.00 20.00     0.032 C 
HETATM    2  C2  UNL     1     -35.061  16.080  -4.843  1.00 20.00     0.043 C 
HETATM    3  C3  UNL     1     -34.335  13.299  -4.671  1.00 20.00     0.169 C 
HETATM    4  C4  UNL     1     -33.849  15.669  -3.998  1.00 20.00     0.004 C 
HETATM    5  C5  UNL     1     -35.378  15.061  -5.955  1.00 20.00     0.057 C 
HETATM    6  C6  UNL     1     -34.350  15.106  -7.095  1.00 20.00     0.046 C 
HETATM    7  O10 UNL     1     -35.474  13.737  -5.408  1.00 20.00    -0.381 OA
ENDROOT
BRANCH   5   8
HETATM    8  C9  UNL     1     -36.761  15.373  -6.544  1.00 20.00     0.033 C 
HETATM    9  C7  UNL     1     -37.823  15.313  -5.500  1.00 20.00     0.008 C 
ENDBRANCH   5   8
BRANCH   4  10
HETATM   10  C8  UNL     1     -33.650  16.626  -2.825  1.00 20.00     0.119 C 
HETATM   11 CL11 UNL     1     -34.700  16.162  -1.474  1.00 20.00    -0.130 Cl
ENDBRANCH   4  10
TORSDOF 2
ENDMDL
MODEL 8
REMARK VINA RESULT:      -4.1      2.553      4.472
REMARK  2 active torsions:
REMARK  status: ('A' for Active; 'I' for Inactive)
REMARK    1  A    between atoms: C4_4  and  C8_8 
REMARK    2  A    between atoms: C5_5  and  C9_9 
ROOT
HETATM    1  C1  UNL     1     -36.628  15.463  -3.449  1.00 20.00     0.032 C 
HETATM    2  C2  UNL     1     -34.294  15.685  -2.576  1.00 20.00     0.043 C 
HETATM    3  C3  UNL     1     -36.844  16.924  -3.082  1.00 20.00     0.169 C 
HETATM    4  C4  UNL     1     -35.153  15.190  -3.746  1.00 20.00     0.004 C 
HETATM    5  C5  UNL     1     -34.609  17.143  -2.189  1.00 20.00     0.057 C 
HETATM    6  C6  UNL     1     -34.082  18.146  -3.226  1.00 20.00     0.046 C 
HETATM    7  O10 UNL     1     -36.021  17.313  -1.986  1.00 20.00    -0.381 OA
ENDROOT
BRANCH   5   8
HETATM    8  C9  UNL     1     -33.950  17.458  -0.838  1.00 20.00     0.033 C 
HETATM    9  C7  UNL     1     -34.912  17.296   0.288  1.00 20.00     0.008 C 
ENDBRANCH   5   8
BRANCH   4  10
HETATM   10  C8  UNL     1     -34.914  13.705  -4.010  1.00 20.00     0.119 C 
HETATM   11 CL11 UNL     1     -33.199  13.313  -3.789  1.00 20.00    -0.130 Cl
ENDBRANCH   4  10
TORSDOF 2
ENDMDL
MODEL 9
REMARK VINA RESULT:      -4.0      2.105      2.467
REMARK  2 active torsions:
REMARK  status: ('A' for Active; 'I' for Inactive)
REMARK    1  A    between atoms: C4_4  and  C8_8 
REMARK    2  A    between atoms: C5_5  and  C9_9 
ROOT
HETATM    1  C1  UNL     1     -36.087  17.521  -1.828  1.00 20.00     0.032 C 
HETATM    2  C2  UNL     1     -33.796  16.581  -2.180  1.00 20.00     0.043 C 
HETATM    3  C3  UNL     1     -36.501  16.850  -3.130  1.00 20.00     0.169 C 
HETATM    4  C4  UNL     1     -34.934  16.762  -1.169  1.00 20.00     0.004 C 
HETATM    5  C5  UNL     1     -34.281  15.976  -3.512  1.00 20.00     0.057 C 
HETATM    6  C6  UNL     1     -34.633  14.486  -3.380  1.00 20.00     0.046 C 
HETATM    7  O10 UNL     1     -35.398  16.720  -4.023  1.00 20.00    -0.381 OA
ENDROOT
BRANCH   5   8
HETATM    8  C9  UNL     1     -33.168  16.114  -4.562  1.00 20.00     0.033 C 
HETATM    9  C7  UNL     1     -33.488  17.178  -5.555  1.00 20.00     0.008 C 
ENDBRANCH   5   8
BRANCH   4  10
HETATM   10  C8  UNL     1     -34.445  17.489   0.081  1.00 20.00     0.119 C 
HETATM   11 CL11 UNL     1     -32.932  18.346  -0.263  1.00 20.00    -0.130 Cl
ENDBRANCH   4  10
TORSDOF 2
ENDMDL
