MODEL 1
REMARK VINA RESULT:      -3.8      0.000      0.000
REMARK  2 active torsions:
REMARK  status: ('A' for Active; 'I' for Inactive)
REMARK    1  A    between atoms: C5_5  and  C6_6 
REMARK    2  A    between atoms: C6_6  and  S8_8 
ROOT
HETATM    1  C1  UNL     1     -35.482   5.028   4.178  1.00 20.00     0.027 C 
HETATM    2  C2  UNL     1     -34.247   5.296   3.322  1.00 20.00     0.009 C 
HETATM    3  C3  UNL     1     -35.111   4.963   5.654  1.00 20.00     0.167 C 
HETATM    4  C4  UNL     1     -33.219   6.359   5.351  1.00 20.00     0.172 C 
HETATM    5  C5  UNL     1     -33.479   6.513   3.850  1.00 20.00     0.019 C 
HETATM    6  O7  UNL     1     -34.444   6.158   6.059  1.00 20.00    -0.391 OA
ENDROOT
BRANCH   5   7
HETATM    7  C6  UNL     1     -32.177   6.718   3.083  1.00 20.00     0.077 C 
BRANCH   7   8
HETATM    8  S8  UNL     1     -32.240   8.259   2.136  1.00 20.00    -0.182 SA
HETATM    9  H20 UNL     1     -33.443   8.653   2.577  1.00 20.00     0.101 HD
ENDBRANCH   7   8
ENDBRANCH   5   7
TORSDOF 2
ENDMDL
MODEL 2
REMARK VINA RESULT:      -3.7     11.584     11.828
REMARK  2 active torsions:
REMARK  status: ('A' for Active; 'I' for Inactive)
REMARK    1  A    between atoms: C5_5  and  C6_6 
REMARK    2  A    between atoms: C6_6  and  S8_8 
ROOT
HETATM    1  C1  UNL     1     -35.896  13.857  -4.213  1.00 20.00     0.027 C 
HETATM    2  C2  UNL     1     -35.565  15.235  -3.648  1.00 20.00     0.009 C 
HETATM    3  C3  UNL     1     -34.694  13.270  -4.941  1.00 20.00     0.167 C 
HETATM    4  C4  UNL     1     -33.159  14.521  -3.640  1.00 20.00     0.172 C 
HETATM    5  C5  UNL     1     -34.272  15.185  -2.826  1.00 20.00     0.019 C 
HETATM    6  O7  UNL     1     -33.557  13.222  -4.080  1.00 20.00    -0.391 OA
ENDROOT
BRANCH   5   7
HETATM    7  C6  UNL     1     -33.860  16.577  -2.361  1.00 20.00     0.077 C 
BRANCH   7   8
HETATM    8  S8  UNL     1     -34.587  16.940  -0.743  1.00 20.00    -0.182 SA
HETATM    9  H20 UNL     1     -33.526  16.562  -0.017  1.00 20.00     0.101 HD
ENDBRANCH   7   8
ENDBRANCH   5   7
TORSDOF 2
ENDMDL
MODEL 3
REMARK VINA RESULT:      -3.6      1.365      2.077
REMARK  2 active torsions:
REMARK  status: ('A' for Active; 'I' for Inactive)
REMARK    1  A    between atoms: C5_5  and  C6_6 
REMARK    2  A    between atoms: C6_6  and  S8_8 
ROOT
HETATM    1  C1  UNL     1     -34.214   5.069   6.591  1.00 20.00     0.027 C 
HETATM    2  C2  UNL     1     -33.968   6.289   5.708  1.00 20.00     0.009 C 
HETATM    3  C3  UNL     1     -35.350   4.222   6.034  1.00 20.00     0.167 C 
HETATM    4  C4  UNL     1     -34.973   4.975   3.819  1.00 20.00     0.172 C 
HETATM    5  C5  UNL     1     -33.805   5.870   4.242  1.00 20.00     0.019 C 
HETATM    6  O7  UNL     1     -35.083   3.844   4.684  1.00 20.00    -0.391 OA
ENDROOT
BRANCH   5   7
HETATM    7  C6  UNL     1     -33.684   7.087   3.331  1.00 20.00     0.077 C 
BRANCH   7   8
HETATM    8  S8  UNL     1     -31.955   7.359   2.870  1.00 20.00    -0.182 SA
HETATM    9  H20 UNL     1     -31.778   8.463   3.609  1.00 20.00     0.101 HD
ENDBRANCH   7   8
ENDBRANCH   5   7
TORSDOF 2
ENDMDL
MODEL 4
REMARK VINA RESULT:      -3.5     11.796     12.060
REMARK  2 active torsions:
REMARK  status: ('A' for Active; 'I' for Inactive)
REMARK    1  A    between atoms: C5_5  and  C6_6 
REMARK    2  A    between atoms: C6_6  and  S8_8 
ROOT
HETATM    1  C1  UNL     1     -35.901  13.865  -4.161  1.00 20.00     0.027 C 
HETATM    2  C2  UNL     1     -35.557  15.275  -3.688  1.00 20.00     0.009 C 
HETATM    3  C3  UNL     1     -34.708  13.226  -4.861  1.00 20.00     0.167 C 
HETATM    4  C4  UNL     1     -33.154  14.548  -3.655  1.00 20.00     0.172 C 
HETATM    5  C5  UNL     1     -34.256  15.268  -2.875  1.00 20.00     0.019 C 
HETATM    6  O7  UNL     1     -33.564  13.226  -4.008  1.00 20.00    -0.391 OA
ENDROOT
BRANCH   5   7
HETATM    7  C6  UNL     1     -33.833  16.685  -2.502  1.00 20.00     0.077 C 
BRANCH   7   8
HETATM    8  S8  UNL     1     -33.928  17.771  -3.947  1.00 20.00    -0.182 SA
HETATM    9  H20 UNL     1     -34.866  17.067  -4.597  1.00 20.00     0.101 HD
ENDBRANCH   7   8
ENDBRANCH   5   7
TORSDOF 2
ENDMDL
MODEL 5
REMARK VINA RESULT:      -3.3     11.995     13.012
REMARK  2 active torsions:
REMARK  status: ('A' for Active; 'I' for Inactive)
REMARK    1  A    between atoms: C5_5  and  C6_6 
REMARK    2  A    between atoms: C6_6  and  S8_8 
ROOT
HETATM    1  C1  UNL     1     -33.440  13.748  -3.804  1.00 20.00     0.027 C 
HETATM    2  C2  UNL     1     -33.331  15.264  -3.669  1.00 20.00     0.009 C 
HETATM    3  C3  UNL     1     -34.691  13.366  -4.584  1.00 20.00     0.167 C 
HETATM    4  C4  UNL     1     -34.729  15.429  -5.748  1.00 20.00     0.172 C 
HETATM    5  C5  UNL     1     -33.472  15.939  -5.039  1.00 20.00     0.019 C 
HETATM    6  O7  UNL     1     -34.706  14.006  -5.860  1.00 20.00    -0.391 OA
ENDROOT
BRANCH   5   7
HETATM    7  C6  UNL     1     -33.491  17.458  -4.905  1.00 20.00     0.077 C 
BRANCH   7   8
HETATM    8  S8  UNL     1     -34.005  17.936  -3.236  1.00 20.00    -0.182 SA
HETATM    9  H20 UNL     1     -35.321  17.951  -3.488  1.00 20.00     0.101 HD
ENDBRANCH   7   8
ENDBRANCH   5   7
TORSDOF 2
ENDMDL
MODEL 6
REMARK VINA RESULT:      -3.3     11.799     12.716
REMARK  2 active torsions:
REMARK  status: ('A' for Active; 'I' for Inactive)
REMARK    1  A    between atoms: C5_5  and  C6_6 
REMARK    2  A    between atoms: C6_6  and  S8_8 
ROOT
HETATM    1  C1  UNL     1     -34.452  13.581  -4.136  1.00 20.00     0.027 C 
HETATM    2  C2  UNL     1     -34.458  14.732  -3.134  1.00 20.00     0.009 C 
HETATM    3  C3  UNL     1     -34.903  14.061  -5.509  1.00 20.00     0.167 C 
HETATM    4  C4  UNL     1     -34.183  16.280  -5.092  1.00 20.00     0.172 C 
HETATM    5  C5  UNL     1     -33.682  15.934  -3.688  1.00 20.00     0.019 C 
HETATM    6  O7  UNL     1     -34.091  15.146  -5.956  1.00 20.00    -0.391 OA
ENDROOT
BRANCH   5   7
HETATM    7  C6  UNL     1     -33.785  17.134  -2.753  1.00 20.00     0.077 C 
BRANCH   7   8
HETATM    8  S8  UNL     1     -34.615  16.664  -1.215  1.00 20.00    -0.182 SA
HETATM    9  H20 UNL     1     -34.945  15.423  -1.600  1.00 20.00     0.101 HD
ENDBRANCH   7   8
ENDBRANCH   5   7
TORSDOF 2
ENDMDL
MODEL 7
REMARK VINA RESULT:      -3.2      9.624     10.522
REMARK  2 active torsions:
REMARK  status: ('A' for Active; 'I' for Inactive)
REMARK    1  A    between atoms: C5_5  and  C6_6 
REMARK    2  A    between atoms: C6_6  and  S8_8 
ROOT
HETATM    1  C1  UNL     1     -40.693   6.463  -0.432  1.00 20.00     0.027 C 
HETATM    2  C2  UNL     1     -41.707   7.362  -1.134  1.00 20.00     0.009 C 
HETATM    3  C3  UNL     1     -41.123   5.004  -0.508  1.00 20.00     0.167 C 
HETATM    4  C4  UNL     1     -42.357   5.358  -2.500  1.00 20.00     0.172 C 
HETATM    5  C5  UNL     1     -41.997   6.845  -2.549  1.00 20.00     0.019 C 
HETATM    6  O7  UNL     1     -41.322   4.607  -1.865  1.00 20.00    -0.391 OA
ENDROOT
BRANCH   5   7
HETATM    7  C6  UNL     1     -43.100   7.659  -3.216  1.00 20.00     0.077 C 
BRANCH   7   8
HETATM    8  S8  UNL     1     -42.426   8.624  -4.591  1.00 20.00    -0.182 SA
HETATM    9  H20 UNL     1     -42.703   9.829  -4.074  1.00 20.00     0.101 HD
ENDBRANCH   7   8
ENDBRANCH   5   7
TORSDOF 2
ENDMDL
MODEL 8
REMARK VINA RESULT:      -3.2      9.651     10.632
REMARK  2 active torsions:
REMARK  status: ('A' for Active; 'I' for Inactive)
REMARK    1  A    between atoms: C5_5  and  C6_6 
REMARK    2  A    between atoms: C6_6  and  S8_8 
ROOT
HETATM    1  C1  UNL     1     -41.889   6.988  -2.441  1.00 20.00     0.027 C 
HETATM    2  C2  UNL     1     -42.705   5.718  -2.662  1.00 20.00     0.009 C 
HETATM    3  C3  UNL     1     -41.220   6.966  -1.073  1.00 20.00     0.167 C 
HETATM    4  C4  UNL     1     -41.188   4.598  -1.004  1.00 20.00     0.172 C 
HETATM    5  C5  UNL     1     -41.855   4.474  -2.376  1.00 20.00     0.019 C 
HETATM    6  O7  UNL     1     -40.416   5.797  -0.922  1.00 20.00    -0.391 OA
ENDROOT
BRANCH   5   7
HETATM    7  C6  UNL     1     -42.690   3.202  -2.471  1.00 20.00     0.077 C 
BRANCH   7   8
HETATM    8  S8  UNL     1     -41.835   1.960  -3.472  1.00 20.00    -0.182 SA
HETATM    9  H20 UNL     1     -40.964   2.805  -4.042  1.00 20.00     0.101 HD
ENDBRANCH   7   8
ENDBRANCH   5   7
TORSDOF 2
ENDMDL
MODEL 9
REMARK VINA RESULT:      -3.2     12.006     13.045
REMARK  2 active torsions:
REMARK  status: ('A' for Active; 'I' for Inactive)
REMARK    1  A    between atoms: C5_5  and  C6_6 
REMARK    2  A    between atoms: C6_6  and  S8_8 
ROOT
HETATM    1  C1  UNL     1     -33.307  15.657  -4.330  1.00 20.00     0.027 C 
HETATM    2  C2  UNL     1     -34.342  15.781  -5.444  1.00 20.00     0.009 C 
HETATM    3  C3  UNL     1     -33.630  14.479  -3.422  1.00 20.00     0.167 C 
HETATM    4  C4  UNL     1     -34.780  13.327  -5.145  1.00 20.00     0.172 C 
HETATM    5  C5  UNL     1     -34.521  14.439  -6.165  1.00 20.00     0.019 C 
HETATM    6  O7  UNL     1     -33.730  13.272  -4.178  1.00 20.00    -0.391 OA
ENDROOT
BRANCH   5   7
HETATM    7  C6  UNL     1     -35.642  14.513  -7.196  1.00 20.00     0.077 C 
BRANCH   7   8
HETATM    8  S8  UNL     1     -37.050  15.436  -6.530  1.00 20.00    -0.182 SA
HETATM    9  H20 UNL     1     -37.537  14.438  -5.780  1.00 20.00     0.101 HD
ENDBRANCH   7   8
ENDBRANCH   5   7
TORSDOF 2
ENDMDL
