MODEL 1
REMARK VINA RESULT:      -4.3      0.000      0.000
REMARK  2 active torsions:
REMARK  status: ('A' for Active; 'I' for Inactive)
REMARK    1  A    between atoms: C5_5  and  C6_6 
REMARK    2  A    between atoms: C6_6  and  S8_8 
ROOT
HETATM    1  C1  UNL     1     -33.995   5.095   6.368  1.00 20.00     0.027 C 
HETATM    2  C2  UNL     1     -34.067   6.484   5.740  1.00 20.00     0.009 C 
HETATM    3  C3  UNL     1     -35.116   4.205   5.847  1.00 20.00     0.167 C 
HETATM    4  C4  UNL     1     -35.323   5.439   3.836  1.00 20.00     0.172 C 
HETATM    5  C5  UNL     1     -34.209   6.420   4.214  1.00 20.00     0.019 C 
HETATM    6  O7  UNL     1     -35.105   4.154   4.420  1.00 20.00    -0.391 OA
ENDROOT
BRANCH   5   7
HETATM    7  C6  UNL     1     -32.886   6.025   3.549  1.00 20.00     0.077 C 
BRANCH   7   8
HETATM    8  S8  UNL     1     -32.135   7.460   2.741  1.00 20.00    -0.182 SA
HETATM    9  H20 UNL     1     -32.047   8.219   3.842  1.00 20.00     0.101 HD
ENDBRANCH   7   8
ENDBRANCH   5   7
TORSDOF 2
ENDMDL
MODEL 2
REMARK VINA RESULT:      -3.4     12.434     12.942
REMARK  2 active torsions:
REMARK  status: ('A' for Active; 'I' for Inactive)
REMARK    1  A    between atoms: C5_5  and  C6_6 
REMARK    2  A    between atoms: C6_6  and  S8_8 
ROOT
HETATM    1  C1  UNL     1     -34.373  13.334  -4.694  1.00 20.00     0.027 C 
HETATM    2  C2  UNL     1     -33.297  13.888  -3.763  1.00 20.00     0.009 C 
HETATM    3  C3  UNL     1     -35.764  13.678  -4.180  1.00 20.00     0.167 C 
HETATM    4  C4  UNL     1     -34.988  15.573  -2.991  1.00 20.00     0.172 C 
HETATM    5  C5  UNL     1     -33.534  15.365  -3.424  1.00 20.00     0.019 C 
HETATM    6  O7  UNL     1     -35.900  15.084  -3.976  1.00 20.00    -0.391 OA
ENDROOT
BRANCH   5   7
HETATM    7  C6  UNL     1     -33.184  16.271  -4.610  1.00 20.00     0.077 C 
BRANCH   7   8
HETATM    8  S8  UNL     1     -33.774  17.955  -4.311  1.00 20.00    -0.182 SA
HETATM    9  H20 UNL     1     -34.290  18.149  -5.532  1.00 20.00     0.101 HD
ENDBRANCH   7   8
ENDBRANCH   5   7
TORSDOF 2
ENDMDL
MODEL 3
REMARK VINA RESULT:      -3.4     12.037     12.918
REMARK  2 active torsions:
REMARK  status: ('A' for Active; 'I' for Inactive)
REMARK    1  A    between atoms: C5_5  and  C6_6 
REMARK    2  A    between atoms: C6_6  and  S8_8 
ROOT
HETATM    1  C1  UNL     1     -35.216  14.641  -5.257  1.00 20.00     0.027 C 
HETATM    2  C2  UNL     1     -33.976  15.530  -5.201  1.00 20.00     0.009 C 
HETATM    3  C3  UNL     1     -34.876  13.211  -4.857  1.00 20.00     0.167 C 
HETATM    4  C4  UNL     1     -33.004  13.887  -3.574  1.00 20.00     0.172 C 
HETATM    5  C5  UNL     1     -33.213  15.373  -3.880  1.00 20.00     0.019 C 
HETATM    6  O7  UNL     1     -34.243  13.175  -3.579  1.00 20.00    -0.391 OA
ENDROOT
BRANCH   5   7
HETATM    7  C6  UNL     1     -33.946  16.068  -2.728  1.00 20.00     0.077 C 
BRANCH   7   8
HETATM    8  S8  UNL     1     -33.950  17.861  -2.976  1.00 20.00    -0.182 SA
HETATM    9  H20 UNL     1     -33.870  18.189  -1.680  1.00 20.00     0.101 HD
ENDBRANCH   7   8
ENDBRANCH   5   7
TORSDOF 2
ENDMDL
MODEL 4
REMARK VINA RESULT:      -3.3     11.743     12.757
REMARK  2 active torsions:
REMARK  status: ('A' for Active; 'I' for Inactive)
REMARK    1  A    between atoms: C5_5  and  C6_6 
REMARK    2  A    between atoms: C6_6  and  S8_8 
ROOT
HETATM    1  C1  UNL     1     -35.115  14.753  -5.735  1.00 20.00     0.027 C 
HETATM    2  C2  UNL     1     -34.084  15.597  -4.990  1.00 20.00     0.009 C 
HETATM    3  C3  UNL     1     -34.837  13.267  -5.547  1.00 20.00     0.167 C 
HETATM    4  C4  UNL     1     -33.699  13.616  -3.500  1.00 20.00     0.172 C 
HETATM    5  C5  UNL     1     -33.899  15.134  -3.540  1.00 20.00     0.019 C 
HETATM    6  O7  UNL     1     -34.765  12.933  -4.161  1.00 20.00    -0.391 OA
ENDROOT
BRANCH   5   7
HETATM    7  C6  UNL     1     -35.089  15.550  -2.668  1.00 20.00     0.077 C 
BRANCH   7   8
HETATM    8  S8  UNL     1     -34.537  16.623  -1.320  1.00 20.00    -0.182 SA
HETATM    9  H20 UNL     1     -33.255  16.693  -1.703  1.00 20.00     0.101 HD
ENDBRANCH   7   8
ENDBRANCH   5   7
TORSDOF 2
ENDMDL
MODEL 5
REMARK VINA RESULT:      -3.3     12.692     13.505
REMARK  2 active torsions:
REMARK  status: ('A' for Active; 'I' for Inactive)
REMARK    1  A    between atoms: C5_5  and  C6_6 
REMARK    2  A    between atoms: C6_6  and  S8_8 
ROOT
HETATM    1  C1  UNL     1     -33.633  13.735  -3.792  1.00 20.00     0.027 C 
HETATM    2  C2  UNL     1     -34.178  15.036  -3.209  1.00 20.00     0.009 C 
HETATM    3  C3  UNL     1     -34.551  13.205  -4.886  1.00 20.00     0.167 C 
HETATM    4  C4  UNL     1     -35.422  15.355  -5.364  1.00 20.00     0.172 C 
HETATM    5  C5  UNL     1     -34.559  16.042  -4.302  1.00 20.00     0.019 C 
HETATM    6  O7  UNL     1     -34.774  14.195  -5.890  1.00 20.00    -0.391 OA
ENDROOT
BRANCH   5   7
HETATM    7  C6  UNL     1     -33.315  16.673  -4.935  1.00 20.00     0.077 C 
BRANCH   7   8
HETATM    8  S8  UNL     1     -33.730  18.267  -5.686  1.00 20.00    -0.182 SA
HETATM    9  H20 UNL     1     -32.622  18.371  -6.433  1.00 20.00     0.101 HD
ENDBRANCH   7   8
ENDBRANCH   5   7
TORSDOF 2
ENDMDL
MODEL 6
REMARK VINA RESULT:      -3.2     12.399     13.273
REMARK  2 active torsions:
REMARK  status: ('A' for Active; 'I' for Inactive)
REMARK    1  A    between atoms: C5_5  and  C6_6 
REMARK    2  A    between atoms: C6_6  and  S8_8 
ROOT
HETATM    1  C1  UNL     1     -32.918  15.128  -3.857  1.00 20.00     0.027 C 
HETATM    2  C2  UNL     1     -34.207  15.860  -4.221  1.00 20.00     0.009 C 
HETATM    3  C3  UNL     1     -33.199  13.670  -3.519  1.00 20.00     0.167 C 
HETATM    4  C4  UNL     1     -35.179  13.625  -4.818  1.00 20.00     0.172 C 
HETATM    5  C5  UNL     1     -35.037  15.087  -5.253  1.00 20.00     0.019 C 
HETATM    6  O7  UNL     1     -33.903  13.027  -4.581  1.00 20.00    -0.391 OA
ENDROOT
BRANCH   5   7
HETATM    7  C6  UNL     1     -34.414  15.180  -6.650  1.00 20.00     0.077 C 
BRANCH   7   8
HETATM    8  S8  UNL     1     -35.584  14.597  -7.902  1.00 20.00    -0.182 SA
HETATM    9  H20 UNL     1     -36.647  15.262  -7.430  1.00 20.00     0.101 HD
ENDBRANCH   7   8
ENDBRANCH   5   7
TORSDOF 2
ENDMDL
MODEL 7
REMARK VINA RESULT:      -3.2     12.379     13.157
REMARK  2 active torsions:
REMARK  status: ('A' for Active; 'I' for Inactive)
REMARK    1  A    between atoms: C5_5  and  C6_6 
REMARK    2  A    between atoms: C6_6  and  S8_8 
ROOT
HETATM    1  C1  UNL     1     -34.765  14.350  -6.008  1.00 20.00     0.027 C 
HETATM    2  C2  UNL     1     -34.403  13.572  -4.745  1.00 20.00     0.009 C 
HETATM    3  C3  UNL     1     -36.175  14.916  -5.910  1.00 20.00     0.167 C 
HETATM    4  C4  UNL     1     -36.135  14.931  -3.542  1.00 20.00     0.172 C 
HETATM    5  C5  UNL     1     -34.713  14.366  -3.470  1.00 20.00     0.019 C 
HETATM    6  O7  UNL     1     -36.329  15.702  -4.729  1.00 20.00    -0.391 OA
ENDROOT
BRANCH   5   7
HETATM    7  C6  UNL     1     -33.692  15.488  -3.252  1.00 20.00     0.077 C 
BRANCH   7   8
HETATM    8  S8  UNL     1     -34.215  16.558  -1.889  1.00 20.00    -0.182 SA
HETATM    9  H20 UNL     1     -34.838  17.470  -2.649  1.00 20.00     0.101 HD
ENDBRANCH   7   8
ENDBRANCH   5   7
TORSDOF 2
ENDMDL
MODEL 8
REMARK VINA RESULT:      -3.1     12.678     13.112
REMARK  2 active torsions:
REMARK  status: ('A' for Active; 'I' for Inactive)
REMARK    1  A    between atoms: C5_5  and  C6_6 
REMARK    2  A    between atoms: C6_6  and  S8_8 
ROOT
HETATM    1  C1  UNL     1     -35.955  15.350  -3.335  1.00 20.00     0.027 C 
HETATM    2  C2  UNL     1     -35.723  14.085  -4.157  1.00 20.00     0.009 C 
HETATM    3  C3  UNL     1     -34.767  15.629  -2.424  1.00 20.00     0.167 C 
HETATM    4  C4  UNL     1     -33.264  14.446  -3.820  1.00 20.00     0.172 C 
HETATM    5  C5  UNL     1     -34.349  14.083  -4.838  1.00 20.00     0.019 C 
HETATM    6  O7  UNL     1     -33.553  15.686  -3.172  1.00 20.00    -0.391 OA
ENDROOT
BRANCH   5   7
HETATM    7  C6  UNL     1     -34.319  15.044  -6.032  1.00 20.00     0.077 C 
BRANCH   7   8
HETATM    8  S8  UNL     1     -35.501  14.513  -7.296  1.00 20.00    -0.182 SA
HETATM    9  H20 UNL     1     -36.595  14.623  -6.530  1.00 20.00     0.101 HD
ENDBRANCH   7   8
ENDBRANCH   5   7
TORSDOF 2
ENDMDL
MODEL 9
REMARK VINA RESULT:      -3.1      9.348     10.181
REMARK  2 active torsions:
REMARK  status: ('A' for Active; 'I' for Inactive)
REMARK    1  A    between atoms: C5_5  and  C6_6 
REMARK    2  A    between atoms: C6_6  and  S8_8 
ROOT
HETATM    1  C1  UNL     1     -42.876   7.015  -0.468  1.00 20.00     0.027 C 
HETATM    2  C2  UNL     1     -42.890   5.696   0.301  1.00 20.00     0.009 C 
HETATM    3  C3  UNL     1     -41.469   7.352  -0.941  1.00 20.00     0.167 C 
HETATM    4  C4  UNL     1     -40.790   5.084  -0.928  1.00 20.00     0.172 C 
HETATM    5  C5  UNL     1     -42.157   4.580  -0.454  1.00 20.00     0.019 C 
HETATM    6  O7  UNL     1     -40.914   6.279  -1.700  1.00 20.00    -0.391 OA
ENDROOT
BRANCH   5   7
HETATM    7  C6  UNL     1     -42.989   4.071  -1.636  1.00 20.00     0.077 C 
BRANCH   7   8
HETATM    8  S8  UNL     1     -41.963   3.071  -2.743  1.00 20.00    -0.182 SA
HETATM    9  H20 UNL     1     -40.920   3.911  -2.776  1.00 20.00     0.101 HD
ENDBRANCH   7   8
ENDBRANCH   5   7
TORSDOF 2
ENDMDL
