MODEL 1
REMARK VINA RESULT:      -4.2      0.000      0.000
REMARK  0 active torsions:
REMARK  status: ('A' for Active; 'I' for Inactive)
ROOT
HETATM    1  C1  UNL     1     -34.764  13.664  -3.913  1.00 20.00     0.066 C 
HETATM    2  C2  UNL     1     -33.355  16.180  -4.743  1.00 20.00     0.038 C 
HETATM    3  C3  UNL     1     -34.534  17.150  -4.814  1.00 20.00     0.273 C 
HETATM    4  C4  UNL     1     -35.794  15.847  -3.226  1.00 20.00     0.292 C 
HETATM    5  C5  UNL     1     -33.865  16.992  -2.603  1.00 20.00     0.278 C 
HETATM    6  C6  UNL     1     -34.659  14.832  -3.034  1.00 20.00     0.127 C 
HETATM    7  C7  UNL     1     -33.424  15.707  -3.285  1.00 20.00     0.035 C 
HETATM    8  N8  UNL     1     -34.846  12.739  -4.608  1.00 20.00    -0.197 NA
HETATM    9  N9  UNL     1     -35.091  17.149  -3.432  1.00 20.00     0.090 N 
ENDROOT
TORSDOF 0
ENDMDL
MODEL 2
REMARK VINA RESULT:      -4.1      1.941      2.569
REMARK  0 active torsions:
REMARK  status: ('A' for Active; 'I' for Inactive)
ROOT
HETATM    1  C1  UNL     1     -37.127  14.713  -3.629  1.00 20.00     0.066 C 
HETATM    2  C2  UNL     1     -34.837  13.430  -5.083  1.00 20.00     0.038 C 
HETATM    3  C3  UNL     1     -34.405  14.578  -5.994  1.00 20.00     0.273 C 
HETATM    4  C4  UNL     1     -35.303  16.217  -4.472  1.00 20.00     0.292 C 
HETATM    5  C5  UNL     1     -33.455  14.917  -3.909  1.00 20.00     0.278 C 
HETATM    6  C6  UNL     1     -35.740  15.154  -3.456  1.00 20.00     0.127 C 
HETATM    7  C7  UNL     1     -34.691  14.059  -3.692  1.00 20.00     0.035 C 
HETATM    8  N8  UNL     1     -38.225  14.365  -3.766  1.00 20.00    -0.197 NA
HETATM    9  N9  UNL     1     -34.038  15.672  -5.052  1.00 20.00     0.090 N 
ENDROOT
TORSDOF 0
ENDMDL
MODEL 3
REMARK VINA RESULT:      -3.9      0.977      2.090
REMARK  0 active torsions:
REMARK  status: ('A' for Active; 'I' for Inactive)
ROOT
HETATM    1  C1  UNL     1     -34.803  13.901  -4.680  1.00 20.00     0.066 C 
HETATM    2  C2  UNL     1     -35.167  15.847  -2.425  1.00 20.00     0.038 C 
HETATM    3  C3  UNL     1     -33.773  16.470  -2.365  1.00 20.00     0.273 C 
HETATM    4  C4  UNL     1     -33.369  15.960  -4.685  1.00 20.00     0.292 C 
HETATM    5  C5  UNL     1     -34.963  17.531  -4.044  1.00 20.00     0.278 C 
HETATM    6  C6  UNL     1     -34.763  15.352  -4.880  1.00 20.00     0.127 C 
HETATM    7  C7  UNL     1     -35.589  16.156  -3.866  1.00 20.00     0.035 C 
HETATM    8  N8  UNL     1     -34.835  12.752  -4.522  1.00 20.00    -0.197 NA
HETATM    9  N9  UNL     1     -33.585  17.074  -3.713  1.00 20.00     0.090 N 
ENDROOT
TORSDOF 0
ENDMDL
MODEL 4
REMARK VINA RESULT:      -3.9      2.631      3.211
REMARK  0 active torsions:
REMARK  status: ('A' for Active; 'I' for Inactive)
ROOT
HETATM    1  C1  UNL     1     -34.642  13.671  -4.979  1.00 20.00     0.066 C 
HETATM    2  C2  UNL     1     -35.604  14.433  -7.718  1.00 20.00     0.038 C 
HETATM    3  C3  UNL     1     -36.655  15.484  -7.363  1.00 20.00     0.273 C 
HETATM    4  C4  UNL     1     -35.548  15.992  -5.283  1.00 20.00     0.292 C 
HETATM    5  C5  UNL     1     -34.578  16.507  -7.336  1.00 20.00     0.278 C 
HETATM    6  C6  UNL     1     -34.409  14.999  -5.552  1.00 20.00     0.127 C 
HETATM    7  C7  UNL     1     -34.339  15.026  -7.085  1.00 20.00     0.035 C 
HETATM    8  N8  UNL     1     -34.827  12.620  -4.525  1.00 20.00    -0.197 NA
HETATM    9  N9  UNL     1     -35.890  16.534  -6.634  1.00 20.00     0.090 N 
ENDROOT
TORSDOF 0
ENDMDL
MODEL 5
REMARK VINA RESULT:      -3.8      1.329      3.376
REMARK  0 active torsions:
REMARK  status: ('A' for Active; 'I' for Inactive)
ROOT
HETATM    1  C1  UNL     1     -33.446  17.389  -4.865  1.00 20.00     0.066 C 
HETATM    2  C2  UNL     1     -34.573  15.619  -2.720  1.00 20.00     0.038 C 
HETATM    3  C3  UNL     1     -35.609  14.832  -3.522  1.00 20.00     0.273 C 
HETATM    4  C4  UNL     1     -34.384  15.171  -5.570  1.00 20.00     0.292 C 
HETATM    5  C5  UNL     1     -33.541  13.844  -3.854  1.00 20.00     0.278 C 
HETATM    6  C6  UNL     1     -33.257  15.936  -4.866  1.00 20.00     0.127 C 
HETATM    7  C7  UNL     1     -33.277  15.292  -3.473  1.00 20.00     0.035 C 
HETATM    8  N8  UNL     1     -33.596  18.539  -4.864  1.00 20.00    -0.197 NA
HETATM    9  N9  UNL     1     -34.810  14.142  -4.573  1.00 20.00     0.090 N 
ENDROOT
TORSDOF 0
ENDMDL
MODEL 6
REMARK VINA RESULT:      -3.8      1.464      3.036
REMARK  0 active torsions:
REMARK  status: ('A' for Active; 'I' for Inactive)
ROOT
HETATM    1  C1  UNL     1     -34.781  16.375  -1.828  1.00 20.00     0.066 C 
HETATM    2  C2  UNL     1     -32.813  14.931  -3.573  1.00 20.00     0.038 C 
HETATM    3  C3  UNL     1     -33.614  13.675  -3.918  1.00 20.00     0.273 C 
HETATM    4  C4  UNL     1     -35.703  14.828  -3.576  1.00 20.00     0.292 C 
HETATM    5  C5  UNL     1     -34.288  15.372  -5.343  1.00 20.00     0.278 C 
HETATM    6  C6  UNL     1     -35.011  16.160  -3.259  1.00 20.00     0.127 C 
HETATM    7  C7  UNL     1     -33.730  16.043  -4.097  1.00 20.00     0.035 C 
HETATM    8  N8  UNL     1     -34.600  16.546  -0.695  1.00 20.00    -0.197 NA
HETATM    9  N9  UNL     1     -34.827  14.195  -4.608  1.00 20.00     0.090 N 
ENDROOT
TORSDOF 0
ENDMDL
MODEL 7
REMARK VINA RESULT:      -3.8      1.752      2.425
REMARK  0 active torsions:
REMARK  status: ('A' for Active; 'I' for Inactive)
ROOT
HETATM    1  C1  UNL     1     -36.652  14.495  -4.104  1.00 20.00     0.066 C 
HETATM    2  C2  UNL     1     -35.026  16.885  -3.298  1.00 20.00     0.038 C 
HETATM    3  C3  UNL     1     -33.951  16.216  -2.442  1.00 20.00     0.273 C 
HETATM    4  C4  UNL     1     -34.219  14.127  -3.614  1.00 20.00     0.292 C 
HETATM    5  C5  UNL     1     -33.335  16.007  -4.665  1.00 20.00     0.278 C 
HETATM    6  C6  UNL     1     -35.277  14.701  -4.565  1.00 20.00     0.127 C 
HETATM    7  C7  UNL     1     -34.847  16.172  -4.644  1.00 20.00     0.035 C 
HETATM    8  N8  UNL     1     -37.741  14.332  -3.739  1.00 20.00    -0.197 NA
HETATM    9  N9  UNL     1     -33.281  15.266  -3.375  1.00 20.00     0.090 N 
ENDROOT
TORSDOF 0
ENDMDL
MODEL 8
REMARK VINA RESULT:      -3.8      1.613      3.219
REMARK  0 active torsions:
REMARK  status: ('A' for Active; 'I' for Inactive)
ROOT
HETATM    1  C1  UNL     1     -34.412  15.777  -2.274  1.00 20.00     0.066 C 
HETATM    2  C2  UNL     1     -36.378  14.411  -4.084  1.00 20.00     0.038 C 
HETATM    3  C3  UNL     1     -36.117  15.156  -5.393  1.00 20.00     0.273 C 
HETATM    4  C4  UNL     1     -33.865  15.690  -4.722  1.00 20.00     0.292 C 
HETATM    5  C5  UNL     1     -34.512  13.500  -5.174  1.00 20.00     0.278 C 
HETATM    6  C6  UNL     1     -33.992  14.931  -3.395  1.00 20.00     0.127 C 
HETATM    7  C7  UNL     1     -34.994  13.831  -3.770  1.00 20.00     0.035 C 
HETATM    8  N8  UNL     1     -34.745  16.446  -1.387  1.00 20.00    -0.197 NA
HETATM    9  N9  UNL     1     -34.680  14.889  -5.684  1.00 20.00     0.090 N 
ENDROOT
TORSDOF 0
ENDMDL
MODEL 9
REMARK VINA RESULT:      -3.7     11.808     13.106
REMARK  0 active torsions:
REMARK  status: ('A' for Active; 'I' for Inactive)
ROOT
HETATM    1  C1  UNL     1     -42.629   7.721  -0.914  1.00 20.00     0.066 C 
HETATM    2  C2  UNL     1     -42.415   5.055   0.448  1.00 20.00     0.038 C 
HETATM    3  C3  UNL     1     -42.860   4.127  -0.682  1.00 20.00     0.273 C 
HETATM    4  C4  UNL     1     -42.171   5.719  -2.356  1.00 20.00     0.292 C 
HETATM    5  C5  UNL     1     -40.622   4.628  -1.003  1.00 20.00     0.278 C 
HETATM    6  C6  UNL     1     -41.644   6.712  -1.312  1.00 20.00     0.127 C 
HETATM    7  C7  UNL     1     -41.211   5.766  -0.184  1.00 20.00     0.035 C 
HETATM    8  N8  UNL     1     -43.408   8.520  -0.598  1.00 20.00    -0.197 NA
HETATM    9  N9  UNL     1     -41.873   4.376  -1.769  1.00 20.00     0.090 N 
ENDROOT
TORSDOF 0
ENDMDL
