MODEL 1
REMARK VINA RESULT:      -5.1      0.000      0.000
REMARK  3 active torsions:
REMARK  status: ('A' for Active; 'I' for Inactive)
REMARK    1  A    between atoms: C3_3  and  N7_7 
REMARK    2  A    between atoms: C5_5  and  C6_6 
REMARK    3  A    between atoms: C5_5  and  N7_7 
ROOT
HETATM    1  N7  UNL     1     -32.444   6.492   2.973  1.00 20.00     0.093 N 
HETATM    2  H20 UNL     1     -32.547   6.110   2.033  1.00 20.00     0.316 HD
ENDROOT
BRANCH   1   3
HETATM    3  C3  UNL     1     -33.755   6.599   3.595  1.00 20.00     0.223 C 
HETATM    4  C1  UNL     1     -34.496   5.250   3.459  1.00 20.00     0.055 C 
HETATM    5  C4  UNL     1     -34.917   5.437   4.940  1.00 20.00     0.086 C 
HETATM    6  C2  UNL     1     -33.630   6.290   5.103  1.00 20.00     0.055 C 
HETATM    7 CL10 UNL     1     -35.125   3.992   5.964  1.00 20.00    -0.125 Cl
ENDBRANCH   1   3
BRANCH   1   8
HETATM    8  C5  UNL     1     -31.797   7.795   2.892  1.00 20.00     0.340 C 
BRANCH   8   9
HETATM    9  C6  UNL     1     -32.238   8.531   1.644  1.00 20.00     0.381 C 
HETATM   10  F8  UNL     1     -31.246   8.512   0.720  1.00 20.00    -0.213 F 
HETATM   11  F9  UNL     1     -32.453   9.837   1.951  1.00 20.00    -0.213 F 
ENDBRANCH   8   9
ENDBRANCH   1   8
TORSDOF 3
ENDMDL
MODEL 2
REMARK VINA RESULT:      -4.6      4.177      5.136
REMARK  3 active torsions:
REMARK  status: ('A' for Active; 'I' for Inactive)
REMARK    1  A    between atoms: C3_3  and  N7_7 
REMARK    2  A    between atoms: C5_5  and  C6_6 
REMARK    3  A    between atoms: C5_5  and  N7_7 
ROOT
HETATM    1  N7  UNL     1     -34.350   5.169   3.487  1.00 20.00     0.093 N 
HETATM    2  H20 UNL     1     -33.963   4.233   3.364  1.00 20.00     0.316 HD
ENDROOT
BRANCH   1   3
HETATM    3  C3  UNL     1     -33.276   6.089   3.835  1.00 20.00     0.223 C 
HETATM    4  C1  UNL     1     -32.172   6.016   2.757  1.00 20.00     0.055 C 
HETATM    5  C4  UNL     1     -32.131   7.565   2.827  1.00 20.00     0.086 C 
HETATM    6  C2  UNL     1     -33.611   7.493   3.287  1.00 20.00     0.055 C 
HETATM    7 CL10 UNL     1     -31.733   8.482   1.350  1.00 20.00    -0.125 Cl
ENDBRANCH   1   3
BRANCH   1   8
HETATM    8  C5  UNL     1     -35.366   5.135   4.528  1.00 20.00     0.340 C 
BRANCH   8   9
HETATM    9  C6  UNL     1     -34.742   4.822   5.872  1.00 20.00     0.381 C 
HETATM   10  F8  UNL     1     -35.419   3.813   6.473  1.00 20.00    -0.213 F 
HETATM   11  F9  UNL     1     -34.866   5.905   6.682  1.00 20.00    -0.213 F 
ENDBRANCH   8   9
ENDBRANCH   1   8
TORSDOF 3
ENDMDL
MODEL 3
REMARK VINA RESULT:      -4.3      1.393      1.966
REMARK  3 active torsions:
REMARK  status: ('A' for Active; 'I' for Inactive)
REMARK    1  A    between atoms: C3_3  and  N7_7 
REMARK    2  A    between atoms: C5_5  and  C6_6 
REMARK    3  A    between atoms: C5_5  and  N7_7 
ROOT
HETATM    1  N7  UNL     1     -31.883   7.910   3.086  1.00 20.00     0.093 N 
HETATM    2  H20 UNL     1     -30.918   8.121   3.341  1.00 20.00     0.316 HD
ENDROOT
BRANCH   1   3
HETATM    3  C3  UNL     1     -32.231   6.586   3.581  1.00 20.00     0.223 C 
HETATM    4  C1  UNL     1     -33.360   6.713   4.629  1.00 20.00     0.055 C 
HETATM    5  C4  UNL     1     -34.021   5.498   3.928  1.00 20.00     0.086 C 
HETATM    6  C2  UNL     1     -33.280   5.951   2.642  1.00 20.00     0.055 C 
HETATM    7 CL10 UNL     1     -35.801   5.384   3.900  1.00 20.00    -0.125 Cl
ENDBRANCH   1   3
BRANCH   1   8
HETATM    8  C5  UNL     1     -32.022   7.979   1.638  1.00 20.00     0.340 C 
BRANCH   8   9
HETATM    9  C6  UNL     1     -32.249   9.409   1.193  1.00 20.00     0.381 C 
HETATM   10  F8  UNL     1     -33.127  10.019   2.026  1.00 20.00    -0.213 F 
HETATM   11  F9  UNL     1     -32.825   9.405  -0.037  1.00 20.00    -0.213 F 
ENDBRANCH   8   9
ENDBRANCH   1   8
TORSDOF 3
ENDMDL
MODEL 4
REMARK VINA RESULT:      -4.1     11.132     11.796
REMARK  3 active torsions:
REMARK  status: ('A' for Active; 'I' for Inactive)
REMARK    1  A    between atoms: C3_3  and  N7_7 
REMARK    2  A    between atoms: C5_5  and  C6_6 
REMARK    3  A    between atoms: C5_5  and  N7_7 
ROOT
HETATM    1  N7  UNL     1     -33.653  15.230  -5.726  1.00 20.00     0.093 N 
HETATM    2  H20 UNL     1     -33.038  14.431  -5.570  1.00 20.00     0.316 HD
ENDROOT
BRANCH   1   3
HETATM    3  C3  UNL     1     -33.334  16.275  -4.764  1.00 20.00     0.223 C 
HETATM    4  C1  UNL     1     -34.634  16.752  -4.079  1.00 20.00     0.055 C 
HETATM    5  C4  UNL     1     -33.838  16.713  -2.749  1.00 20.00     0.086 C 
HETATM    6  C2  UNL     1     -32.952  15.627  -3.416  1.00 20.00     0.055 C 
HETATM    7 CL10 UNL     1     -34.701  16.312  -1.240  1.00 20.00    -0.125 Cl
ENDBRANCH   1   3
BRANCH   1   8
HETATM    8  C5  UNL     1     -35.038  14.803  -5.593  1.00 20.00     0.340 C 
BRANCH   8   9
HETATM    9  C6  UNL     1     -35.109  13.350  -5.175  1.00 20.00     0.381 C 
HETATM   10  F8  UNL     1     -35.844  13.230  -4.041  1.00 20.00    -0.213 F 
HETATM   11  F9  UNL     1     -33.860  12.913  -4.871  1.00 20.00    -0.213 F 
ENDBRANCH   8   9
ENDBRANCH   1   8
TORSDOF 3
ENDMDL
MODEL 5
REMARK VINA RESULT:      -4.0     10.771     11.430
REMARK  3 active torsions:
REMARK  status: ('A' for Active; 'I' for Inactive)
REMARK    1  A    between atoms: C3_3  and  N7_7 
REMARK    2  A    between atoms: C5_5  and  C6_6 
REMARK    3  A    between atoms: C5_5  and  N7_7 
ROOT
HETATM    1  N7  UNL     1     -34.963  15.624  -2.510  1.00 20.00     0.093 N 
HETATM    2  H20 UNL     1     -35.742  15.461  -3.147  1.00 20.00     0.316 HD
ENDROOT
BRANCH   1   3
HETATM    3  C3  UNL     1     -35.084  16.955  -1.933  1.00 20.00     0.223 C 
HETATM    4  C1  UNL     1     -34.640  16.913  -0.454  1.00 20.00     0.055 C 
HETATM    5  C4  UNL     1     -33.873  18.230  -0.743  1.00 20.00     0.086 C 
HETATM    6  C2  UNL     1     -33.792  17.753  -2.218  1.00 20.00     0.055 C 
HETATM    7 CL10 UNL     1     -32.357  18.554   0.139  1.00 20.00    -0.125 Cl
ENDBRANCH   1   3
BRANCH   1   8
HETATM    8  C5  UNL     1     -33.710  15.483  -3.238  1.00 20.00     0.340 C 
BRANCH   8   9
HETATM    9  C6  UNL     1     -33.630  14.123  -3.901  1.00 20.00     0.381 C 
HETATM   10  F8  UNL     1     -34.612  13.318  -3.426  1.00 20.00    -0.213 F 
HETATM   11  F9  UNL     1     -32.453  13.534  -3.565  1.00 20.00    -0.213 F 
ENDBRANCH   8   9
ENDBRANCH   1   8
TORSDOF 3
ENDMDL
MODEL 6
REMARK VINA RESULT:      -4.0     11.363     11.905
REMARK  3 active torsions:
REMARK  status: ('A' for Active; 'I' for Inactive)
REMARK    1  A    between atoms: C3_3  and  N7_7 
REMARK    2  A    between atoms: C5_5  and  C6_6 
REMARK    3  A    between atoms: C5_5  and  N7_7 
ROOT
HETATM    1  N7  UNL     1     -36.313  15.469  -2.642  1.00 20.00     0.093 N 
HETATM    2  H20 UNL     1     -35.764  14.796  -2.107  1.00 20.00     0.316 HD
ENDROOT
BRANCH   1   3
HETATM    3  C3  UNL     1     -36.675  14.881  -3.924  1.00 20.00     0.223 C 
HETATM    4  C1  UNL     1     -36.308  15.864  -5.058  1.00 20.00     0.055 C 
HETATM    5  C4  UNL     1     -35.747  14.633  -5.817  1.00 20.00     0.086 C 
HETATM    6  C2  UNL     1     -35.515  13.992  -4.423  1.00 20.00     0.055 C 
HETATM    7 CL10 UNL     1     -34.351  14.856  -6.904  1.00 20.00    -0.125 Cl
ENDBRANCH   1   3
BRANCH   1   8
HETATM    8  C5  UNL     1     -35.535  16.685  -2.827  1.00 20.00     0.340 C 
BRANCH   8   9
HETATM    9  C6  UNL     1     -34.302  16.667  -1.947  1.00 20.00     0.381 C 
HETATM   10  F8  UNL     1     -33.372  15.830  -2.470  1.00 20.00    -0.213 F 
HETATM   11  F9  UNL     1     -34.632  16.162  -0.730  1.00 20.00    -0.213 F 
ENDBRANCH   8   9
ENDBRANCH   1   8
TORSDOF 3
ENDMDL
MODEL 7
REMARK VINA RESULT:      -4.0     10.747     11.483
REMARK  3 active torsions:
REMARK  status: ('A' for Active; 'I' for Inactive)
REMARK    1  A    between atoms: C3_3  and  N7_7 
REMARK    2  A    between atoms: C5_5  and  C6_6 
REMARK    3  A    between atoms: C5_5  and  N7_7 
ROOT
HETATM    1  N7  UNL     1     -33.491  15.863  -3.903  1.00 20.00     0.093 N 
HETATM    2  H20 UNL     1     -32.976  15.300  -3.227  1.00 20.00     0.316 HD
ENDROOT
BRANCH   1   3
HETATM    3  C3  UNL     1     -34.488  16.661  -3.204  1.00 20.00     0.223 C 
HETATM    4  C1  UNL     1     -34.685  16.097  -1.779  1.00 20.00     0.055 C 
HETATM    5  C4  UNL     1     -34.664  17.570  -1.293  1.00 20.00     0.086 C 
HETATM    6  C2  UNL     1     -33.798  17.875  -2.544  1.00 20.00     0.055 C 
HETATM    7 CL10 UNL     1     -34.000  17.933   0.322  1.00 20.00    -0.125 Cl
ENDBRANCH   1   3
BRANCH   1   8
HETATM    8  C5  UNL     1     -34.118  14.985  -4.881  1.00 20.00     0.340 C 
BRANCH   8   9
HETATM    9  C6  UNL     1     -33.984  13.537  -4.458  1.00 20.00     0.381 C 
HETATM   10  F8  UNL     1     -35.037  13.183  -3.680  1.00 20.00    -0.213 F 
HETATM   11  F9  UNL     1     -32.873  13.399  -3.688  1.00 20.00    -0.213 F 
ENDBRANCH   8   9
ENDBRANCH   1   8
TORSDOF 3
ENDMDL
MODEL 8
REMARK VINA RESULT:      -3.9     11.316     11.757
REMARK  3 active torsions:
REMARK  status: ('A' for Active; 'I' for Inactive)
REMARK    1  A    between atoms: C3_3  and  N7_7 
REMARK    2  A    between atoms: C5_5  and  C6_6 
REMARK    3  A    between atoms: C5_5  and  N7_7 
ROOT
HETATM    1  N7  UNL     1     -36.026  15.724  -2.656  1.00 20.00     0.093 N 
HETATM    2  H20 UNL     1     -36.455  15.142  -1.936  1.00 20.00     0.316 HD
ENDROOT
BRANCH   1   3
HETATM    3  C3  UNL     1     -34.996  14.958  -3.342  1.00 20.00     0.223 C 
HETATM    4  C1  UNL     1     -35.664  13.964  -4.319  1.00 20.00     0.055 C 
HETATM    5  C4  UNL     1     -34.582  14.390  -5.346  1.00 20.00     0.086 C 
HETATM    6  C2  UNL     1     -34.521  15.741  -4.585  1.00 20.00     0.055 C 
HETATM    7 CL10 UNL     1     -34.997  14.397  -7.080  1.00 20.00    -0.125 Cl
ENDBRANCH   1   3
BRANCH   1   8
HETATM    8  C5  UNL     1     -35.464  16.916  -2.037  1.00 20.00     0.340 C 
BRANCH   8   9
HETATM    9  C6  UNL     1     -34.533  16.539  -0.904  1.00 20.00     0.381 C 
HETATM   10  F8  UNL     1     -35.072  16.915   0.283  1.00 20.00    -0.213 F 
HETATM   11  F9  UNL     1     -33.371  17.230  -1.035  1.00 20.00    -0.213 F 
ENDBRANCH   8   9
ENDBRANCH   1   8
TORSDOF 3
ENDMDL
MODEL 9
REMARK VINA RESULT:      -3.9     11.386     11.917
REMARK  3 active torsions:
REMARK  status: ('A' for Active; 'I' for Inactive)
REMARK    1  A    between atoms: C3_3  and  N7_7 
REMARK    2  A    between atoms: C5_5  and  C6_6 
REMARK    3  A    between atoms: C5_5  and  N7_7 
ROOT
HETATM    1  N7  UNL     1     -33.647  17.788  -3.260  1.00 20.00     0.093 N 
HETATM    2  H20 UNL     1     -33.615  18.743  -3.618  1.00 20.00     0.316 HD
ENDROOT
BRANCH   1   3
HETATM    3  C3  UNL     1     -33.640  16.857  -4.379  1.00 20.00     0.223 C 
HETATM    4  C1  UNL     1     -33.081  15.495  -3.906  1.00 20.00     0.055 C 
HETATM    5  C4  UNL     1     -34.240  14.846  -4.707  1.00 20.00     0.086 C 
HETATM    6  C2  UNL     1     -35.020  16.169  -4.477  1.00 20.00     0.055 C 
HETATM    7 CL10 UNL     1     -34.945  13.319  -4.115  1.00 20.00    -0.125 Cl
ENDBRANCH   1   3
BRANCH   1   8
HETATM    8  C5  UNL     1     -34.843  17.620  -2.448  1.00 20.00     0.340 C 
BRANCH   8   9
HETATM    9  C6  UNL     1     -34.472  17.316  -1.011  1.00 20.00     0.381 C 
HETATM   10  F8  UNL     1     -33.135  17.459  -0.838  1.00 20.00    -0.213 F 
HETATM   11  F9  UNL     1     -34.759  16.016  -0.743  1.00 20.00    -0.213 F 
ENDBRANCH   8   9
ENDBRANCH   1   8
TORSDOF 3
ENDMDL
