MODEL 1
REMARK VINA RESULT:      -4.4      0.000      0.000
REMARK  3 active torsions:
REMARK  status: ('A' for Active; 'I' for Inactive)
REMARK    1  A    between atoms: C6_6  and  C8_8 
REMARK    2  A    between atoms: C6_6  and  C9_9 
REMARK    3  A    between atoms: C7_7  and  C9_9 
ROOT
HETATM    1  C4  UNL     1     -35.892   5.910   3.557  1.00 20.00     0.015 C 
HETATM    2  C5  UNL     1     -33.846   4.739   2.784  1.00 20.00     0.015 C 
HETATM    3  C9  UNL     1     -34.368   5.775   3.805  1.00 20.00    -0.043 C 
ENDROOT
BRANCH   3   4
HETATM    4  C6  UNL     1     -33.748   7.186   3.514  1.00 20.00     0.029 C 
BRANCH   4   5
HETATM    5  C8  UNL     1     -32.349   7.265   2.871  1.00 20.00     0.079 C 
HETATM    6  C3  UNL     1     -31.288   7.550   3.933  1.00 20.00     0.026 C 
HETATM    7 CL10 UNL     1     -32.250   8.554   1.637  1.00 20.00    -0.125 Cl
ENDBRANCH   4   5
ENDBRANCH   3   4
BRANCH   3   8
HETATM    8  C7  UNL     1     -34.069   5.278   5.269  1.00 20.00    -0.015 C 
HETATM    9  C1  UNL     1     -34.076   6.399   6.321  1.00 20.00     0.010 C 
HETATM   10  C2  UNL     1     -35.005   4.159   5.755  1.00 20.00     0.010 C 
ENDBRANCH   3   8
TORSDOF 3
ENDMDL
MODEL 2
REMARK VINA RESULT:      -4.2     11.246     12.668
REMARK  3 active torsions:
REMARK  status: ('A' for Active; 'I' for Inactive)
REMARK    1  A    between atoms: C6_6  and  C8_8 
REMARK    2  A    between atoms: C6_6  and  C9_9 
REMARK    3  A    between atoms: C7_7  and  C9_9 
ROOT
HETATM    1  C4  UNL     1     -32.713  14.948  -3.642  1.00 20.00     0.015 C 
HETATM    2  C5  UNL     1     -34.715  13.522  -3.977  1.00 20.00     0.015 C 
HETATM    3  C9  UNL     1     -34.233  14.990  -3.943  1.00 20.00    -0.043 C 
ENDROOT
BRANCH   3   4
HETATM    4  C6  UNL     1     -34.899  15.753  -2.745  1.00 20.00     0.029 C 
BRANCH   4   5
HETATM    5  C8  UNL     1     -34.017  16.643  -1.847  1.00 20.00     0.079 C 
HETATM    6  C3  UNL     1     -34.658  16.817  -0.472  1.00 20.00     0.026 C 
HETATM    7 CL10 UNL     1     -33.772  18.269  -2.548  1.00 20.00    -0.125 Cl
ENDBRANCH   4   5
ENDBRANCH   3   4
BRANCH   3   8
HETATM    8  C7  UNL     1     -34.523  15.678  -5.329  1.00 20.00    -0.015 C 
HETATM    9  C1  UNL     1     -33.522  16.784  -5.697  1.00 20.00     0.010 C 
HETATM   10  C2  UNL     1     -34.610  14.697  -6.511  1.00 20.00     0.010 C 
ENDBRANCH   3   8
TORSDOF 3
ENDMDL
MODEL 3
REMARK VINA RESULT:      -4.1     11.293     12.641
REMARK  3 active torsions:
REMARK  status: ('A' for Active; 'I' for Inactive)
REMARK    1  A    between atoms: C6_6  and  C8_8 
REMARK    2  A    between atoms: C6_6  and  C9_9 
REMARK    3  A    between atoms: C7_7  and  C9_9 
ROOT
HETATM    1  C4  UNL     1     -32.718  14.771  -3.659  1.00 20.00     0.015 C 
HETATM    2  C5  UNL     1     -34.786  13.472  -4.098  1.00 20.00     0.015 C 
HETATM    3  C9  UNL     1     -34.230  14.909  -3.973  1.00 20.00    -0.043 C 
ENDROOT
BRANCH   3   4
HETATM    4  C6  UNL     1     -34.871  15.634  -2.739  1.00 20.00     0.029 C 
BRANCH   4   5
HETATM    5  C8  UNL     1     -33.994  16.575  -1.890  1.00 20.00     0.079 C 
HETATM    6  C3  UNL     1     -34.644  16.832  -0.532  1.00 20.00     0.026 C 
HETATM    7 CL10 UNL     1     -33.741  18.155  -2.685  1.00 20.00    -0.125 Cl
ENDBRANCH   4   5
ENDBRANCH   3   4
BRANCH   3   8
HETATM    8  C7  UNL     1     -34.466  15.691  -5.318  1.00 20.00    -0.015 C 
HETATM    9  C1  UNL     1     -34.512  14.791  -6.563  1.00 20.00     0.010 C 
HETATM   10  C2  UNL     1     -35.726  16.573  -5.318  1.00 20.00     0.010 C 
ENDBRANCH   3   8
TORSDOF 3
ENDMDL
MODEL 4
REMARK VINA RESULT:      -4.0     11.455     12.696
REMARK  3 active torsions:
REMARK  status: ('A' for Active; 'I' for Inactive)
REMARK    1  A    between atoms: C6_6  and  C8_8 
REMARK    2  A    between atoms: C6_6  and  C9_9 
REMARK    3  A    between atoms: C7_7  and  C9_9 
ROOT
HETATM    1  C4  UNL     1     -33.279  16.720  -5.213  1.00 20.00     0.015 C 
HETATM    2  C5  UNL     1     -32.695  14.853  -3.686  1.00 20.00     0.015 C 
HETATM    3  C9  UNL     1     -33.885  15.639  -4.281  1.00 20.00    -0.043 C 
ENDROOT
BRANCH   3   4
HETATM    4  C6  UNL     1     -34.646  16.412  -3.147  1.00 20.00     0.029 C 
BRANCH   4   5
HETATM    5  C8  UNL     1     -33.854  16.897  -1.916  1.00 20.00     0.079 C 
HETATM    6  C3  UNL     1     -34.675  16.701  -0.642  1.00 20.00     0.026 C 
HETATM    7 CL10 UNL     1     -33.426  18.628  -2.033  1.00 20.00    -0.125 Cl
ENDBRANCH   4   5
ENDBRANCH   3   4
BRANCH   3   8
HETATM    8  C7  UNL     1     -34.827  14.660  -5.076  1.00 20.00    -0.015 C 
HETATM    9  C1  UNL     1     -34.654  14.732  -6.602  1.00 20.00     0.010 C 
HETATM   10  C2  UNL     1     -34.705  13.188  -4.649  1.00 20.00     0.010 C 
ENDBRANCH   3   8
TORSDOF 3
ENDMDL
MODEL 5
REMARK VINA RESULT:      -4.0     11.533     12.892
REMARK  3 active torsions:
REMARK  status: ('A' for Active; 'I' for Inactive)
REMARK    1  A    between atoms: C6_6  and  C8_8 
REMARK    2  A    between atoms: C6_6  and  C9_9 
REMARK    3  A    between atoms: C7_7  and  C9_9 
ROOT
HETATM    1  C4  UNL     1     -32.937  15.143  -3.566  1.00 20.00     0.015 C 
HETATM    2  C5  UNL     1     -34.571  16.041  -1.930  1.00 20.00     0.015 C 
HETATM    3  C9  UNL     1     -34.417  15.568  -3.393  1.00 20.00    -0.043 C 
ENDROOT
BRANCH   3   4
HETATM    4  C6  UNL     1     -34.650  16.766  -4.379  1.00 20.00     0.029 C 
BRANCH   4   5
HETATM    5  C8  UNL     1     -33.698  16.937  -5.579  1.00 20.00     0.079 C 
HETATM    6  C3  UNL     1     -33.700  18.387  -6.060  1.00 20.00     0.026 C 
HETATM    7 CL10 UNL     1     -34.165  15.901  -6.959  1.00 20.00    -0.125 Cl
ENDBRANCH   4   5
ENDBRANCH   3   4
BRANCH   3   8
HETATM    8  C7  UNL     1     -35.394  14.364  -3.670  1.00 20.00    -0.015 C 
HETATM    9  C1  UNL     1     -36.733  14.780  -4.299  1.00 20.00     0.010 C 
HETATM   10  C2  UNL     1     -34.784  13.248  -4.535  1.00 20.00     0.010 C 
ENDBRANCH   3   8
TORSDOF 3
ENDMDL
MODEL 6
REMARK VINA RESULT:      -3.9     11.019     12.640
REMARK  3 active torsions:
REMARK  status: ('A' for Active; 'I' for Inactive)
REMARK    1  A    between atoms: C6_6  and  C8_8 
REMARK    2  A    between atoms: C6_6  and  C9_9 
REMARK    3  A    between atoms: C7_7  and  C9_9 
ROOT
HETATM    1  C4  UNL     1     -34.451  13.564  -3.738  1.00 20.00     0.015 C 
HETATM    2  C5  UNL     1     -36.358  15.119  -3.421  1.00 20.00     0.015 C 
HETATM    3  C9  UNL     1     -34.864  15.056  -3.812  1.00 20.00    -0.043 C 
ENDROOT
BRANCH   3   4
HETATM    4  C6  UNL     1     -33.991  15.808  -2.748  1.00 20.00     0.029 C 
BRANCH   4   5
HETATM    5  C8  UNL     1     -34.593  17.027  -2.020  1.00 20.00     0.079 C 
HETATM    6  C3  UNL     1     -33.707  18.256  -2.214  1.00 20.00     0.026 C 
HETATM    7 CL10 UNL     1     -34.759  16.743  -0.263  1.00 20.00    -0.125 Cl
ENDBRANCH   4   5
ENDBRANCH   3   4
BRANCH   3   8
HETATM    8  C7  UNL     1     -34.669  15.632  -5.264  1.00 20.00    -0.015 C 
HETATM    9  C1  UNL     1     -33.377  16.444  -5.444  1.00 20.00     0.010 C 
HETATM   10  C2  UNL     1     -34.724  14.568  -6.374  1.00 20.00     0.010 C 
ENDBRANCH   3   8
TORSDOF 3
ENDMDL
MODEL 7
REMARK VINA RESULT:      -3.8     11.431     12.783
REMARK  3 active torsions:
REMARK  status: ('A' for Active; 'I' for Inactive)
REMARK    1  A    between atoms: C6_6  and  C8_8 
REMARK    2  A    between atoms: C6_6  and  C9_9 
REMARK    3  A    between atoms: C7_7  and  C9_9 
ROOT
HETATM    1  C4  UNL     1     -35.210  17.487  -3.526  1.00 20.00     0.015 C 
HETATM    2  C5  UNL     1     -34.599  16.345  -1.410  1.00 20.00     0.015 C 
HETATM    3  C9  UNL     1     -34.803  16.117  -2.924  1.00 20.00    -0.043 C 
ENDROOT
BRANCH   3   4
HETATM    4  C6  UNL     1     -36.015  15.151  -3.170  1.00 20.00     0.029 C 
BRANCH   4   5
HETATM    5  C8  UNL     1     -37.012  15.480  -4.298  1.00 20.00     0.079 C 
HETATM    6  C3  UNL     1     -38.345  14.774  -4.056  1.00 20.00     0.026 C 
HETATM    7 CL10 UNL     1     -36.404  14.972  -5.900  1.00 20.00    -0.125 Cl
ENDBRANCH   4   5
ENDBRANCH   3   4
BRANCH   3   8
HETATM    8  C7  UNL     1     -33.470  15.583  -3.568  1.00 20.00    -0.015 C 
HETATM    9  C1  UNL     1     -33.444  14.061  -3.775  1.00 20.00     0.010 C 
HETATM   10  C2  UNL     1     -33.105  16.255  -4.903  1.00 20.00     0.010 C 
ENDBRANCH   3   8
TORSDOF 3
ENDMDL
MODEL 8
REMARK VINA RESULT:      -3.8     11.140     12.448
REMARK  3 active torsions:
REMARK  status: ('A' for Active; 'I' for Inactive)
REMARK    1  A    between atoms: C6_6  and  C8_8 
REMARK    2  A    between atoms: C6_6  and  C9_9 
REMARK    3  A    between atoms: C7_7  and  C9_9 
ROOT
HETATM    1  C4  UNL     1     -33.412  16.648  -4.775  1.00 20.00     0.015 C 
HETATM    2  C5  UNL     1     -32.604  14.617  -3.602  1.00 20.00     0.015 C 
HETATM    3  C9  UNL     1     -33.744  15.660  -3.628  1.00 20.00    -0.043 C 
ENDROOT
BRANCH   3   4
HETATM    4  C6  UNL     1     -33.741  16.503  -2.305  1.00 20.00     0.029 C 
BRANCH   4   5
HETATM    5  C8  UNL     1     -35.084  16.809  -1.614  1.00 20.00     0.079 C 
HETATM    6  C3  UNL     1     -35.703  18.082  -2.189  1.00 20.00     0.026 C 
HETATM    7 CL10 UNL     1     -34.895  17.039   0.148  1.00 20.00    -0.125 Cl
ENDBRANCH   4   5
ENDBRANCH   3   4
BRANCH   3   8
HETATM    8  C7  UNL     1     -35.121  14.938  -3.876  1.00 20.00    -0.015 C 
HETATM    9  C1  UNL     1     -35.940  15.537  -5.030  1.00 20.00     0.010 C 
HETATM   10  C2  UNL     1     -35.002  13.422  -4.109  1.00 20.00     0.010 C 
ENDBRANCH   3   8
TORSDOF 3
ENDMDL
MODEL 9
REMARK VINA RESULT:      -3.8     11.185     12.680
REMARK  3 active torsions:
REMARK  status: ('A' for Active; 'I' for Inactive)
REMARK    1  A    between atoms: C6_6  and  C8_8 
REMARK    2  A    between atoms: C6_6  and  C9_9 
REMARK    3  A    between atoms: C7_7  and  C9_9 
ROOT
HETATM    1  C4  UNL     1     -35.860  16.220  -4.830  1.00 20.00     0.015 C 
HETATM    2  C5  UNL     1     -33.908  16.113  -6.358  1.00 20.00     0.015 C 
HETATM    3  C9  UNL     1     -34.382  15.762  -4.930  1.00 20.00    -0.043 C 
ENDROOT
BRANCH   3   4
HETATM    4  C6  UNL     1     -33.588  16.603  -3.870  1.00 20.00     0.029 C 
BRANCH   4   5
HETATM    5  C8  UNL     1     -34.370  17.321  -2.752  1.00 20.00     0.079 C 
HETATM    6  C3  UNL     1     -33.603  18.549  -2.267  1.00 20.00     0.026 C 
HETATM    7 CL10 UNL     1     -34.652  16.259  -1.343  1.00 20.00    -0.125 Cl
ENDBRANCH   4   5
ENDBRANCH   3   4
BRANCH   3   8
HETATM    8  C7  UNL     1     -34.246  14.212  -4.689  1.00 20.00    -0.015 C 
HETATM    9  C1  UNL     1     -33.140  13.830  -3.693  1.00 20.00     0.010 C 
HETATM   10  C2  UNL     1     -35.551  13.530  -4.241  1.00 20.00     0.010 C 
ENDBRANCH   3   8
TORSDOF 3
ENDMDL
