MODEL 1
REMARK VINA RESULT:      -5.2      0.000      0.000
REMARK  0 active torsions:
REMARK  status: ('A' for Active; 'I' for Inactive)
ROOT
HETATM    1  C1  UNL     1     -33.402   6.184   4.075  1.00 20.00    -0.085 C 
HETATM    2  C2  UNL     1     -32.324   6.482   3.339  1.00 20.00     0.014 C 
HETATM    3  C3  UNL     1     -33.650   6.694   5.470  1.00 20.00     0.034 C 
HETATM    4  C4  UNL     1     -34.445   5.675   6.308  1.00 20.00     0.009 C 
HETATM    5  C5  UNL     1     -34.473   3.924   4.420  1.00 20.00     0.013 C 
HETATM    6  C6  UNL     1     -35.857   5.488   4.131  1.00 20.00     0.013 C 
HETATM    7  C7  UNL     1     -34.426   5.222   3.552  1.00 20.00     0.014 C 
HETATM    8  C8  UNL     1     -35.320   4.780   5.413  1.00 20.00    -0.013 C 
ENDROOT
TORSDOF 0
ENDMDL
MODEL 2
REMARK VINA RESULT:      -5.2      0.979      2.086
REMARK  0 active torsions:
REMARK  status: ('A' for Active; 'I' for Inactive)
ROOT
HETATM    1  C1  UNL     1     -34.191   6.303   5.933  1.00 20.00    -0.085 C 
HETATM    2  C2  UNL     1     -33.524   7.196   6.674  1.00 20.00     0.014 C 
HETATM    3  C3  UNL     1     -34.800   5.034   6.469  1.00 20.00     0.034 C 
HETATM    4  C4  UNL     1     -34.790   3.916   5.410  1.00 20.00     0.009 C 
HETATM    5  C5  UNL     1     -33.547   5.362   3.680  1.00 20.00     0.013 C 
HETATM    6  C6  UNL     1     -35.595   5.837   3.853  1.00 20.00     0.013 C 
HETATM    7  C7  UNL     1     -34.303   6.492   4.450  1.00 20.00     0.014 C 
HETATM    8  C8  UNL     1     -34.810   4.496   3.985  1.00 20.00    -0.013 C 
ENDROOT
TORSDOF 0
ENDMDL
MODEL 3
REMARK VINA RESULT:      -4.6      0.706      2.089
REMARK  0 active torsions:
REMARK  status: ('A' for Active; 'I' for Inactive)
ROOT
HETATM    1  C1  UNL     1     -33.309   5.974   3.933  1.00 20.00    -0.085 C 
HETATM    2  C2  UNL     1     -32.358   6.775   3.440  1.00 20.00     0.014 C 
HETATM    3  C3  UNL     1     -34.498   5.479   3.151  1.00 20.00     0.034 C 
HETATM    4  C4  UNL     1     -35.724   5.277   4.061  1.00 20.00     0.009 C 
HETATM    5  C5  UNL     1     -34.502   6.156   6.150  1.00 20.00     0.013 C 
HETATM    6  C6  UNL     1     -33.962   4.184   5.632  1.00 20.00     0.013 C 
HETATM    7  C7  UNL     1     -33.278   5.570   5.376  1.00 20.00     0.014 C 
HETATM    8  C8  UNL     1     -35.300   4.977   5.509  1.00 20.00    -0.013 C 
ENDROOT
TORSDOF 0
ENDMDL
MODEL 4
REMARK VINA RESULT:      -4.5      0.714      2.427
REMARK  0 active torsions:
REMARK  status: ('A' for Active; 'I' for Inactive)
ROOT
HETATM    1  C1  UNL     1     -33.905   6.226   5.518  1.00 20.00    -0.085 C 
HETATM    2  C2  UNL     1     -33.912   6.960   6.636  1.00 20.00     0.014 C 
HETATM    3  C3  UNL     1     -32.878   6.349   4.422  1.00 20.00     0.034 C 
HETATM    4  C4  UNL     1     -33.485   6.021   3.045  1.00 20.00     0.009 C 
HETATM    5  C5  UNL     1     -35.850   5.678   4.004  1.00 20.00     0.013 C 
HETATM    6  C6  UNL     1     -34.559   4.048   4.357  1.00 20.00     0.013 C 
HETATM    7  C7  UNL     1     -35.012   5.251   5.253  1.00 20.00     0.014 C 
HETATM    8  C8  UNL     1     -34.680   5.060   3.176  1.00 20.00    -0.013 C 
ENDROOT
TORSDOF 0
ENDMDL
MODEL 5
REMARK VINA RESULT:      -4.3     11.878     12.715
REMARK  0 active torsions:
REMARK  status: ('A' for Active; 'I' for Inactive)
ROOT
HETATM    1  C1  UNL     1     -34.732  15.700  -2.666  1.00 20.00    -0.085 C 
HETATM    2  C2  UNL     1     -34.596  16.276  -1.466  1.00 20.00     0.014 C 
HETATM    3  C3  UNL     1     -36.042  15.234  -3.246  1.00 20.00     0.034 C 
HETATM    4  C4  UNL     1     -35.846  14.010  -4.161  1.00 20.00     0.009 C 
HETATM    5  C5  UNL     1     -33.321  13.869  -3.681  1.00 20.00     0.013 C 
HETATM    6  C6  UNL     1     -33.830  15.403  -5.036  1.00 20.00     0.013 C 
HETATM    7  C7  UNL     1     -33.521  15.408  -3.500  1.00 20.00     0.014 C 
HETATM    8  C8  UNL     1     -34.433  13.989  -4.769  1.00 20.00    -0.013 C 
ENDROOT
TORSDOF 0
ENDMDL
MODEL 6
REMARK VINA RESULT:      -4.1     11.966     13.288
REMARK  0 active torsions:
REMARK  status: ('A' for Active; 'I' for Inactive)
ROOT
HETATM    1  C1  UNL     1     -34.317  15.490  -5.791  1.00 20.00    -0.085 C 
HETATM    2  C2  UNL     1     -34.341  15.819  -7.088  1.00 20.00     0.014 C 
HETATM    3  C3  UNL     1     -33.356  16.064  -4.783  1.00 20.00     0.034 C 
HETATM    4  C4  UNL     1     -33.025  15.042  -3.678  1.00 20.00     0.009 C 
HETATM    5  C5  UNL     1     -34.433  13.184  -4.769  1.00 20.00     0.013 C 
HETATM    6  C6  UNL     1     -35.591  14.626  -3.755  1.00 20.00     0.013 C 
HETATM    7  C7  UNL     1     -35.237  14.429  -5.268  1.00 20.00     0.014 C 
HETATM    8  C8  UNL     1     -34.172  14.036  -3.488  1.00 20.00    -0.013 C 
ENDROOT
TORSDOF 0
ENDMDL
MODEL 7
REMARK VINA RESULT:      -4.1     11.863     13.342
REMARK  0 active torsions:
REMARK  status: ('A' for Active; 'I' for Inactive)
ROOT
HETATM    1  C1  UNL     1     -33.709  15.970  -5.140  1.00 20.00    -0.085 C 
HETATM    2  C2  UNL     1     -33.482  17.241  -5.492  1.00 20.00     0.014 C 
HETATM    3  C3  UNL     1     -34.373  14.945  -6.022  1.00 20.00     0.034 C 
HETATM    4  C4  UNL     1     -35.166  13.918  -5.191  1.00 20.00     0.009 C 
HETATM    5  C5  UNL     1     -34.650  15.103  -2.964  1.00 20.00     0.013 C 
HETATM    6  C6  UNL     1     -33.032  13.971  -3.704  1.00 20.00     0.013 C 
HETATM    7  C7  UNL     1     -33.365  15.500  -3.759  1.00 20.00     0.014 C 
HETATM    8  C8  UNL     1     -34.577  13.772  -3.777  1.00 20.00    -0.013 C 
ENDROOT
TORSDOF 0
ENDMDL
MODEL 8
REMARK VINA RESULT:      -4.0     11.978     13.130
REMARK  0 active torsions:
REMARK  status: ('A' for Active; 'I' for Inactive)
ROOT
HETATM    1  C1  UNL     1     -34.007  15.638  -3.275  1.00 20.00    -0.085 C 
HETATM    2  C2  UNL     1     -34.044  16.310  -2.118  1.00 20.00     0.014 C 
HETATM    3  C3  UNL     1     -33.348  16.140  -4.533  1.00 20.00     0.034 C 
HETATM    4  C4  UNL     1     -34.070  15.621  -5.790  1.00 20.00     0.009 C 
HETATM    5  C5  UNL     1     -35.894  14.419  -4.427  1.00 20.00     0.013 C 
HETATM    6  C6  UNL     1     -34.058  13.381  -4.467  1.00 20.00     0.013 C 
HETATM    7  C7  UNL     1     -34.717  14.324  -3.403  1.00 20.00     0.014 C 
HETATM    8  C8  UNL     1     -34.781  14.285  -5.513  1.00 20.00    -0.013 C 
ENDROOT
TORSDOF 0
ENDMDL
MODEL 9
REMARK VINA RESULT:      -4.0     11.753     12.992
REMARK  0 active torsions:
REMARK  status: ('A' for Active; 'I' for Inactive)
ROOT
HETATM    1  C1  UNL     1     -35.637  14.714  -4.025  1.00 20.00    -0.085 C 
HETATM    2  C2  UNL     1     -36.961  14.701  -3.828  1.00 20.00     0.014 C 
HETATM    3  C3  UNL     1     -34.803  13.488  -4.292  1.00 20.00     0.034 C 
HETATM    4  C4  UNL     1     -33.378  13.645  -3.729  1.00 20.00     0.009 C 
HETATM    5  C5  UNL     1     -33.879  15.954  -2.705  1.00 20.00     0.013 C 
HETATM    6  C6  UNL     1     -33.577  16.011  -4.791  1.00 20.00     0.013 C 
HETATM    7  C7  UNL     1     -34.872  15.997  -3.910  1.00 20.00     0.014 C 
HETATM    8  C8  UNL     1     -32.965  15.126  -3.662  1.00 20.00    -0.013 C 
ENDROOT
TORSDOF 0
ENDMDL
