MODEL 1
REMARK VINA RESULT:      -5.1      0.000      0.000
REMARK  2 active torsions:
REMARK  status: ('A' for Active; 'I' for Inactive)
REMARK    1  A    between atoms: C5_5  and  C6_6 
REMARK    2  A    between atoms: C6_6  and  C7_7 
ROOT
HETATM    1  C1  UNL     1     -31.976   8.329   1.786  1.00 20.00     0.012 C 
HETATM    2  C2  UNL     1     -32.234   7.558   2.669  1.00 20.00    -0.117 C 
HETATM    3  C5  UNL     1     -32.544   6.609   3.751  1.00 20.00     0.098 C 
ENDROOT
BRANCH   3   4
HETATM    4  C6  UNL     1     -34.065   6.408   3.927  1.00 20.00     0.006 C 
HETATM    5  C3  UNL     1     -34.548   5.208   3.096  1.00 20.00     0.012 C 
BRANCH   4   6
HETATM    6  C7  UNL     1     -34.495   6.227   5.400  1.00 20.00     0.058 C 
HETATM    7  C4  UNL     1     -33.535   6.781   6.444  1.00 20.00     0.022 C 
HETATM    8 BR8  UNL     1     -34.783   4.316   5.778  1.00 20.00    -0.091 Br
ENDBRANCH   4   6
ENDBRANCH   3   4
TORSDOF 2
ENDMDL
MODEL 2
REMARK VINA RESULT:      -4.9      1.299      1.507
REMARK  2 active torsions:
REMARK  status: ('A' for Active; 'I' for Inactive)
REMARK    1  A    between atoms: C5_5  and  C6_6 
REMARK    2  A    between atoms: C6_6  and  C7_7 
ROOT
HETATM    1  C1  UNL     1     -32.099   8.650   1.728  1.00 20.00     0.012 C 
HETATM    2  C2  UNL     1     -32.175   7.702   2.461  1.00 20.00    -0.117 C 
HETATM    3  C5  UNL     1     -32.261   6.537   3.358  1.00 20.00     0.098 C 
ENDROOT
BRANCH   3   4
HETATM    4  C6  UNL     1     -33.722   6.201   3.731  1.00 20.00     0.006 C 
HETATM    5  C3  UNL     1     -34.358   5.305   2.655  1.00 20.00     0.012 C 
BRANCH   4   6
HETATM    6  C7  UNL     1     -33.863   5.530   5.116  1.00 20.00     0.058 C 
HETATM    7  C4  UNL     1     -35.121   4.699   5.325  1.00 20.00     0.022 C 
HETATM    8 BR8  UNL     1     -33.784   6.899   6.528  1.00 20.00    -0.091 Br
ENDBRANCH   4   6
ENDBRANCH   3   4
TORSDOF 2
ENDMDL
MODEL 3
REMARK VINA RESULT:      -4.6      1.564      1.777
REMARK  2 active torsions:
REMARK  status: ('A' for Active; 'I' for Inactive)
REMARK    1  A    between atoms: C5_5  and  C6_6 
REMARK    2  A    between atoms: C6_6  and  C7_7 
ROOT
HETATM    1  C1  UNL     1     -31.330   7.662   3.445  1.00 20.00     0.012 C 
HETATM    2  C2  UNL     1     -32.231   6.889   3.264  1.00 20.00    -0.117 C 
HETATM    3  C5  UNL     1     -33.334   5.941   3.033  1.00 20.00     0.098 C 
ENDROOT
BRANCH   3   4
HETATM    4  C6  UNL     1     -34.436   6.063   4.108  1.00 20.00     0.006 C 
HETATM    5  C3  UNL     1     -35.718   5.350   3.645  1.00 20.00     0.012 C 
BRANCH   4   6
HETATM    6  C7  UNL     1     -34.010   5.523   5.491  1.00 20.00     0.058 C 
HETATM    7  C4  UNL     1     -34.958   4.519   6.132  1.00 20.00     0.022 C 
HETATM    8 BR8  UNL     1     -33.758   7.021   6.741  1.00 20.00    -0.091 Br
ENDBRANCH   4   6
ENDBRANCH   3   4
TORSDOF 2
ENDMDL
MODEL 4
REMARK VINA RESULT:      -4.1     11.492     12.690
REMARK  2 active torsions:
REMARK  status: ('A' for Active; 'I' for Inactive)
REMARK    1  A    between atoms: C5_5  and  C6_6 
REMARK    2  A    between atoms: C6_6  and  C7_7 
ROOT
HETATM    1  C1  UNL     1     -34.500  16.979  -0.471  1.00 20.00     0.012 C 
HETATM    2  C2  UNL     1     -34.639  16.384  -1.505  1.00 20.00    -0.117 C 
HETATM    3  C5  UNL     1     -34.817  15.651  -2.769  1.00 20.00     0.098 C 
ENDROOT
BRANCH   3   4
HETATM    4  C6  UNL     1     -33.469  15.367  -3.469  1.00 20.00     0.006 C 
HETATM    5  C3  UNL     1     -33.322  13.864  -3.759  1.00 20.00     0.012 C 
BRANCH   4   6
HETATM    6  C7  UNL     1     -33.273  16.170  -4.773  1.00 20.00     0.058 C 
HETATM    7  C4  UNL     1     -33.561  17.662  -4.684  1.00 20.00     0.022 C 
HETATM    8 BR8  UNL     1     -34.396  15.408  -6.198  1.00 20.00    -0.091 Br
ENDBRANCH   4   6
ENDBRANCH   3   4
TORSDOF 2
ENDMDL
MODEL 5
REMARK VINA RESULT:      -4.0      2.368      3.659
REMARK  2 active torsions:
REMARK  status: ('A' for Active; 'I' for Inactive)
REMARK    1  A    between atoms: C5_5  and  C6_6 
REMARK    2  A    between atoms: C6_6  and  C7_7 
ROOT
HETATM    1  C1  UNL     1     -33.241   7.773   7.094  1.00 20.00     0.012 C 
HETATM    2  C2  UNL     1     -33.865   6.787   6.809  1.00 20.00    -0.117 C 
HETATM    3  C5  UNL     1     -34.630   5.576   6.469  1.00 20.00     0.098 C 
ENDROOT
BRANCH   3   4
HETATM    4  C6  UNL     1     -34.209   4.989   5.104  1.00 20.00     0.006 C 
HETATM    5  C3  UNL     1     -35.098   3.787   4.740  1.00 20.00     0.012 C 
BRANCH   4   6
HETATM    6  C7  UNL     1     -34.234   6.022   3.956  1.00 20.00     0.058 C 
HETATM    7  C4  UNL     1     -35.079   5.649   2.747  1.00 20.00     0.022 C 
HETATM    8 BR8  UNL     1     -32.398   6.376   3.342  1.00 20.00    -0.091 Br
ENDBRANCH   4   6
ENDBRANCH   3   4
TORSDOF 2
ENDMDL
MODEL 6
REMARK VINA RESULT:      -3.9     11.179     12.013
REMARK  2 active torsions:
REMARK  status: ('A' for Active; 'I' for Inactive)
REMARK    1  A    between atoms: C5_5  and  C6_6 
REMARK    2  A    between atoms: C6_6  and  C7_7 
ROOT
HETATM    1  C1  UNL     1     -34.837  17.107  -0.079  1.00 20.00     0.012 C 
HETATM    2  C2  UNL     1     -34.502  16.638  -1.132  1.00 20.00    -0.117 C 
HETATM    3  C5  UNL     1     -34.084  16.069  -2.424  1.00 20.00     0.098 C 
ENDROOT
BRANCH   3   4
HETATM    4  C6  UNL     1     -35.224  15.277  -3.103  1.00 20.00     0.006 C 
HETATM    5  C3  UNL     1     -36.023  16.190  -4.048  1.00 20.00     0.012 C 
BRANCH   4   6
HETATM    6  C7  UNL     1     -34.732  14.032  -3.875  1.00 20.00     0.058 C 
HETATM    7  C4  UNL     1     -33.263  13.678  -3.696  1.00 20.00     0.022 C 
HETATM    8 BR8  UNL     1     -35.082  14.263  -5.798  1.00 20.00    -0.091 Br
ENDBRANCH   4   6
ENDBRANCH   3   4
TORSDOF 2
ENDMDL
MODEL 7
REMARK VINA RESULT:      -3.9      1.067      1.359
REMARK  2 active torsions:
REMARK  status: ('A' for Active; 'I' for Inactive)
REMARK    1  A    between atoms: C5_5  and  C6_6 
REMARK    2  A    between atoms: C6_6  and  C7_7 
ROOT
HETATM    1  C1  UNL     1     -32.100   9.127   0.973  1.00 20.00     0.012 C 
HETATM    2  C2  UNL     1     -32.079   8.446   1.961  1.00 20.00    -0.117 C 
HETATM    3  C5  UNL     1     -32.044   7.612   3.174  1.00 20.00     0.098 C 
ENDROOT
BRANCH   3   4
HETATM    4  C6  UNL     1     -33.100   6.486   3.133  1.00 20.00     0.006 C 
HETATM    5  C3  UNL     1     -32.415   5.110   3.061  1.00 20.00     0.012 C 
BRANCH   4   6
HETATM    6  C7  UNL     1     -34.079   6.517   4.328  1.00 20.00     0.058 C 
HETATM    7  C4  UNL     1     -33.447   6.703   5.699  1.00 20.00     0.022 C 
HETATM    8 BR8  UNL     1     -35.145   4.862   4.357  1.00 20.00    -0.091 Br
ENDBRANCH   4   6
ENDBRANCH   3   4
TORSDOF 2
ENDMDL
MODEL 8
REMARK VINA RESULT:      -3.9      2.451      4.213
REMARK  2 active torsions:
REMARK  status: ('A' for Active; 'I' for Inactive)
REMARK    1  A    between atoms: C5_5  and  C6_6 
REMARK    2  A    between atoms: C6_6  and  C7_7 
ROOT
HETATM    1  C1  UNL     1     -35.082   3.983   5.931  1.00 20.00     0.012 C 
HETATM    2  C2  UNL     1     -35.121   4.676   4.951  1.00 20.00    -0.117 C 
HETATM    3  C5  UNL     1     -35.171   5.519   3.745  1.00 20.00     0.098 C 
ENDROOT
BRANCH   3   4
HETATM    4  C6  UNL     1     -34.109   6.640   3.777  1.00 20.00     0.006 C 
HETATM    5  C3  UNL     1     -33.520   6.780   5.191  1.00 20.00     0.012 C 
BRANCH   4   6
HETATM    6  C7  UNL     1     -32.968   6.435   2.756  1.00 20.00     0.058 C 
HETATM    7  C4  UNL     1     -31.839   5.515   3.198  1.00 20.00     0.022 C 
HETATM    8 BR8  UNL     1     -32.191   8.177   2.271  1.00 20.00    -0.091 Br
ENDBRANCH   4   6
ENDBRANCH   3   4
TORSDOF 2
ENDMDL
MODEL 9
REMARK VINA RESULT:      -3.8     11.733     12.750
REMARK  2 active torsions:
REMARK  status: ('A' for Active; 'I' for Inactive)
REMARK    1  A    between atoms: C5_5  and  C6_6 
REMARK    2  A    between atoms: C6_6  and  C7_7 
ROOT
HETATM    1  C1  UNL     1     -34.738  16.714  -0.787  1.00 20.00     0.012 C 
HETATM    2  C2  UNL     1     -34.231  16.276  -1.784  1.00 20.00    -0.117 C 
HETATM    3  C5  UNL     1     -33.603  15.738  -3.002  1.00 20.00     0.098 C 
ENDROOT
BRANCH   3   4
HETATM    4  C6  UNL     1     -34.383  16.128  -4.277  1.00 20.00     0.006 C 
HETATM    5  C3  UNL     1     -33.444  16.793  -5.297  1.00 20.00     0.012 C 
BRANCH   4   6
HETATM    6  C7  UNL     1     -35.112  14.938  -4.939  1.00 20.00     0.058 C 
HETATM    7  C4  UNL     1     -34.830  13.569  -4.337  1.00 20.00     0.022 C 
HETATM    8 BR8  UNL     1     -34.672  14.873  -6.856  1.00 20.00    -0.091 Br
ENDBRANCH   4   6
ENDBRANCH   3   4
TORSDOF 2
ENDMDL
