MODEL 1
REMARK VINA RESULT:      -4.5      0.000      0.000
REMARK  4 active torsions:
REMARK  status: ('A' for Active; 'I' for Inactive)
REMARK    1  A    between atoms: C5_5  and  C7_7 
REMARK    2  A    between atoms: C5_5  and  C8_8 
REMARK    3  A    between atoms: C6_6  and  C8_8 
REMARK    4  A    between atoms: C6_6  and  C9_9 
ROOT
HETATM    1  C3  UNL     1     -32.497   5.587   2.204  1.00 20.00     0.010 C 
HETATM    2  C8  UNL     1     -32.333   6.484   3.434  1.00 20.00    -0.017 C 
ENDROOT
BRANCH   2   3
HETATM    3  C5  UNL     1     -33.672   6.669   4.189  1.00 20.00     0.008 C 
BRANCH   3   4
HETATM    4  C7  UNL     1     -34.131   5.487   5.068  1.00 20.00    -0.023 C 
HETATM    5  C1  UNL     1     -35.393   4.811   4.531  1.00 20.00     0.009 C 
HETATM    6  C2  UNL     1     -34.379   5.978   6.499  1.00 20.00     0.009 C 
ENDBRANCH   3   4
ENDBRANCH   2   3
BRANCH   2   7
HETATM    7  C6  UNL     1     -31.789   7.884   3.053  1.00 20.00     0.024 C 
BRANCH   7   8
HETATM    8  C9  UNL     1     -32.405   8.537   1.805  1.00 20.00     0.078 C 
HETATM    9  C4  UNL     1     -32.764   9.995   2.075  1.00 20.00     0.026 C 
HETATM   10 CL10 UNL     1     -31.277   8.469   0.419  1.00 20.00    -0.125 Cl
ENDBRANCH   7   8
ENDBRANCH   2   7
TORSDOF 4
ENDMDL
MODEL 2
REMARK VINA RESULT:      -4.3      2.437      4.876
REMARK  4 active torsions:
REMARK  status: ('A' for Active; 'I' for Inactive)
REMARK    1  A    between atoms: C5_5  and  C7_7 
REMARK    2  A    between atoms: C5_5  and  C8_8 
REMARK    3  A    between atoms: C6_6  and  C8_8 
REMARK    4  A    between atoms: C6_6  and  C9_9 
ROOT
HETATM    1  C3  UNL     1     -31.942   5.376   3.139  1.00 20.00     0.010 C 
HETATM    2  C8  UNL     1     -32.929   6.502   2.821  1.00 20.00    -0.017 C 
ENDROOT
BRANCH   2   3
HETATM    3  C5  UNL     1     -32.227   7.881   2.771  1.00 20.00     0.008 C 
BRANCH   3   4
HETATM    4  C7  UNL     1     -32.513   8.751   1.529  1.00 20.00    -0.023 C 
HETATM    5  C1  UNL     1     -31.424   8.628   0.464  1.00 20.00     0.009 C 
HETATM    6  C2  UNL     1     -32.657  10.217   1.951  1.00 20.00     0.009 C 
ENDBRANCH   3   4
ENDBRANCH   2   3
BRANCH   2   7
HETATM    7  C6  UNL     1     -34.072   6.572   3.864  1.00 20.00     0.024 C 
BRANCH   7   8
HETATM    8  C9  UNL     1     -33.956   5.621   5.067  1.00 20.00     0.078 C 
HETATM    9  C4  UNL     1     -34.120   6.381   6.379  1.00 20.00     0.026 C 
HETATM   10 CL10 UNL     1     -35.193   4.332   4.990  1.00 20.00    -0.125 Cl
ENDBRANCH   7   8
ENDBRANCH   2   7
TORSDOF 4
ENDMDL
MODEL 3
REMARK VINA RESULT:      -4.3      1.373      1.831
REMARK  4 active torsions:
REMARK  status: ('A' for Active; 'I' for Inactive)
REMARK    1  A    between atoms: C5_5  and  C7_7 
REMARK    2  A    between atoms: C5_5  and  C8_8 
REMARK    3  A    between atoms: C6_6  and  C8_8 
REMARK    4  A    between atoms: C6_6  and  C9_9 
ROOT
HETATM    1  C3  UNL     1     -31.941   5.662   3.187  1.00 20.00     0.010 C 
HETATM    2  C8  UNL     1     -33.120   6.568   3.551  1.00 20.00    -0.017 C 
ENDROOT
BRANCH   2   3
HETATM    3  C5  UNL     1     -34.420   5.756   3.768  1.00 20.00     0.008 C 
BRANCH   3   4
HETATM    4  C7  UNL     1     -34.860   5.546   5.232  1.00 20.00    -0.023 C 
HETATM    5  C1  UNL     1     -34.015   6.351   6.220  1.00 20.00     0.009 C 
HETATM    6  C2  UNL     1     -34.783   4.057   5.583  1.00 20.00     0.009 C 
ENDBRANCH   3   4
ENDBRANCH   2   3
BRANCH   2   7
HETATM    7  C6  UNL     1     -33.385   7.630   2.455  1.00 20.00     0.024 C 
BRANCH   7   8
HETATM    8  C9  UNL     1     -32.220   8.580   2.131  1.00 20.00     0.078 C 
HETATM    9  C4  UNL     1     -31.671   8.312   0.734  1.00 20.00     0.026 C 
HETATM   10 CL10 UNL     1     -32.736  10.290   2.228  1.00 20.00    -0.125 Cl
ENDBRANCH   7   8
ENDBRANCH   2   7
TORSDOF 4
ENDMDL
MODEL 4
REMARK VINA RESULT:      -4.3      1.368      2.061
REMARK  4 active torsions:
REMARK  status: ('A' for Active; 'I' for Inactive)
REMARK    1  A    between atoms: C5_5  and  C7_7 
REMARK    2  A    between atoms: C5_5  and  C8_8 
REMARK    3  A    between atoms: C6_6  and  C8_8 
REMARK    4  A    between atoms: C6_6  and  C9_9 
ROOT
HETATM    1  C3  UNL     1     -34.492   4.990   2.180  1.00 20.00     0.010 C 
HETATM    2  C8  UNL     1     -33.669   5.399   3.403  1.00 20.00    -0.017 C 
ENDROOT
BRANCH   2   3
HETATM    3  C5  UNL     1     -34.424   6.425   4.284  1.00 20.00     0.008 C 
BRANCH   3   4
HETATM    4  C7  UNL     1     -34.602   6.051   5.770  1.00 20.00    -0.023 C 
HETATM    5  C1  UNL     1     -33.638   6.806   6.685  1.00 20.00     0.009 C 
HETATM    6  C2  UNL     1     -34.406   4.542   5.947  1.00 20.00     0.009 C 
ENDBRANCH   3   4
ENDBRANCH   2   3
BRANCH   2   7
HETATM    7  C6  UNL     1     -32.306   6.013   2.997  1.00 20.00     0.024 C 
BRANCH   7   8
HETATM    8  C9  UNL     1     -32.182   7.541   3.126  1.00 20.00     0.078 C 
HETATM    9  C4  UNL     1     -31.067   7.915   4.097  1.00 20.00     0.026 C 
HETATM   10 CL10 UNL     1     -31.843   8.296   1.541  1.00 20.00    -0.125 Cl
ENDBRANCH   7   8
ENDBRANCH   2   7
TORSDOF 4
ENDMDL
MODEL 5
REMARK VINA RESULT:      -4.2     10.580     11.828
REMARK  4 active torsions:
REMARK  status: ('A' for Active; 'I' for Inactive)
REMARK    1  A    between atoms: C5_5  and  C7_7 
REMARK    2  A    between atoms: C5_5  and  C8_8 
REMARK    3  A    between atoms: C6_6  and  C8_8 
REMARK    4  A    between atoms: C6_6  and  C9_9 
ROOT
HETATM    1  C3  UNL     1     -34.752  13.880  -3.703  1.00 20.00     0.010 C 
HETATM    2  C8  UNL     1     -33.897  15.042  -3.190  1.00 20.00    -0.017 C 
ENDROOT
BRANCH   2   3
HETATM    3  C5  UNL     1     -34.747  16.079  -2.416  1.00 20.00     0.008 C 
BRANCH   3   4
HETATM    4  C7  UNL     1     -34.006  16.911  -1.349  1.00 20.00    -0.023 C 
HETATM    5  C1  UNL     1     -34.806  17.050  -0.054  1.00 20.00     0.009 C 
HETATM    6  C2  UNL     1     -33.690  18.302  -1.910  1.00 20.00     0.009 C 
ENDBRANCH   3   4
ENDBRANCH   2   3
BRANCH   2   7
HETATM    7  C6  UNL     1     -33.169  15.771  -4.347  1.00 20.00     0.024 C 
BRANCH   7   8
HETATM    8  C9  UNL     1     -34.066  16.476  -5.378  1.00 20.00     0.078 C 
HETATM    9  C4  UNL     1     -33.584  17.900  -5.635  1.00 20.00     0.026 C 
HETATM   10 CL10 UNL     1     -34.087  15.587  -6.930  1.00 20.00    -0.125 Cl
ENDBRANCH   7   8
ENDBRANCH   2   7
TORSDOF 4
ENDMDL
MODEL 6
REMARK VINA RESULT:      -4.1     10.268     11.835
REMARK  4 active torsions:
REMARK  status: ('A' for Active; 'I' for Inactive)
REMARK    1  A    between atoms: C5_5  and  C7_7 
REMARK    2  A    between atoms: C5_5  and  C8_8 
REMARK    3  A    between atoms: C6_6  and  C8_8 
REMARK    4  A    between atoms: C6_6  and  C9_9 
ROOT
HETATM    1  C3  UNL     1     -32.972  13.944  -3.625  1.00 20.00     0.010 C 
HETATM    2  C8  UNL     1     -34.502  13.905  -3.627  1.00 20.00    -0.017 C 
ENDROOT
BRANCH   2   3
HETATM    3  C5  UNL     1     -35.069  13.742  -5.059  1.00 20.00     0.008 C 
BRANCH   3   4
HETATM    4  C7  UNL     1     -35.280  15.041  -5.863  1.00 20.00    -0.023 C 
HETATM    5  C1  UNL     1     -36.720  15.200  -6.353  1.00 20.00     0.009 C 
HETATM    6  C2  UNL     1     -34.324  15.065  -7.061  1.00 20.00     0.009 C 
ENDBRANCH   3   4
ENDBRANCH   2   3
BRANCH   2   7
HETATM    7  C6  UNL     1     -35.109  15.188  -3.005  1.00 20.00     0.024 C 
BRANCH   7   8
HETATM    8  C9  UNL     1     -34.113  16.171  -2.367  1.00 20.00     0.078 C 
HETATM    9  C4  UNL     1     -34.010  17.450  -3.190  1.00 20.00     0.026 C 
HETATM   10 CL10 UNL     1     -34.605  16.596  -0.701  1.00 20.00    -0.125 Cl
ENDBRANCH   7   8
ENDBRANCH   2   7
TORSDOF 4
ENDMDL
MODEL 7
REMARK VINA RESULT:      -4.1      2.360      4.923
REMARK  4 active torsions:
REMARK  status: ('A' for Active; 'I' for Inactive)
REMARK    1  A    between atoms: C5_5  and  C7_7 
REMARK    2  A    between atoms: C5_5  and  C8_8 
REMARK    3  A    between atoms: C6_6  and  C8_8 
REMARK    4  A    between atoms: C6_6  and  C9_9 
ROOT
HETATM    1  C3  UNL     1     -31.204   7.728   4.153  1.00 20.00     0.010 C 
HETATM    2  C8  UNL     1     -31.913   6.881   3.094  1.00 20.00    -0.017 C 
ENDROOT
BRANCH   2   3
HETATM    3  C5  UNL     1     -32.800   7.749   2.168  1.00 20.00     0.008 C 
BRANCH   3   4
HETATM    4  C7  UNL     1     -32.097   8.917   1.445  1.00 20.00    -0.023 C 
HETATM    5  C1  UNL     1     -32.664  10.280   1.843  1.00 20.00     0.009 C 
HETATM    6  C2  UNL     1     -32.221   8.731  -0.071  1.00 20.00     0.009 C 
ENDBRANCH   3   4
ENDBRANCH   2   3
BRANCH   2   7
HETATM    7  C6  UNL     1     -32.803   5.787   3.737  1.00 20.00     0.024 C 
BRANCH   7   8
HETATM    8  C9  UNL     1     -34.134   6.261   4.342  1.00 20.00     0.078 C 
HETATM    9  C4  UNL     1     -35.263   5.297   3.995  1.00 20.00     0.026 C 
HETATM   10 CL10 UNL     1     -34.021   6.398   6.121  1.00 20.00    -0.125 Cl
ENDBRANCH   7   8
ENDBRANCH   2   7
TORSDOF 4
ENDMDL
MODEL 8
REMARK VINA RESULT:      -4.1     10.268     11.657
REMARK  4 active torsions:
REMARK  status: ('A' for Active; 'I' for Inactive)
REMARK    1  A    between atoms: C5_5  and  C7_7 
REMARK    2  A    between atoms: C5_5  and  C8_8 
REMARK    3  A    between atoms: C6_6  and  C8_8 
REMARK    4  A    between atoms: C6_6  and  C9_9 
ROOT
HETATM    1  C3  UNL     1     -32.955  13.640  -3.593  1.00 20.00     0.010 C 
HETATM    2  C8  UNL     1     -34.058  14.570  -4.105  1.00 20.00    -0.017 C 
ENDROOT
BRANCH   2   3
HETATM    3  C5  UNL     1     -34.798  15.274  -2.942  1.00 20.00     0.008 C 
BRANCH   3   4
HETATM    4  C7  UNL     1     -33.997  16.339  -2.165  1.00 20.00    -0.023 C 
HETATM    5  C1  UNL     1     -34.614  16.662  -0.805  1.00 20.00     0.009 C 
HETATM    6  C2  UNL     1     -33.898  17.619  -3.003  1.00 20.00     0.009 C 
ENDBRANCH   3   4
ENDBRANCH   2   3
BRANCH   2   7
HETATM    7  C6  UNL     1     -35.102  13.806  -4.958  1.00 20.00     0.024 C 
BRANCH   7   8
HETATM    8  C9  UNL     1     -35.406  14.390  -6.347  1.00 20.00     0.078 C 
HETATM    9  C4  UNL     1     -36.689  15.215  -6.320  1.00 20.00     0.026 C 
HETATM   10 CL10 UNL     1     -34.067  15.429  -6.916  1.00 20.00    -0.125 Cl
ENDBRANCH   7   8
ENDBRANCH   2   7
TORSDOF 4
ENDMDL
MODEL 9
REMARK VINA RESULT:      -4.1     10.799     11.819
REMARK  4 active torsions:
REMARK  status: ('A' for Active; 'I' for Inactive)
REMARK    1  A    between atoms: C5_5  and  C7_7 
REMARK    2  A    between atoms: C5_5  and  C8_8 
REMARK    3  A    between atoms: C6_6  and  C8_8 
REMARK    4  A    between atoms: C6_6  and  C9_9 
ROOT
HETATM    1  C3  UNL     1     -38.131  14.772  -3.746  1.00 20.00     0.010 C 
HETATM    2  C8  UNL     1     -36.633  14.950  -4.010  1.00 20.00    -0.017 C 
ENDROOT
BRANCH   2   3
HETATM    3  C5  UNL     1     -36.031  16.085  -3.147  1.00 20.00     0.008 C 
BRANCH   3   4
HETATM    4  C7  UNL     1     -34.763  15.735  -2.342  1.00 20.00    -0.023 C 
HETATM    5  C1  UNL     1     -34.664  16.517  -1.032  1.00 20.00     0.009 C 
HETATM    6  C2  UNL     1     -33.521  16.005  -3.198  1.00 20.00     0.009 C 
ENDBRANCH   3   4
ENDBRANCH   2   3
BRANCH   2   7
HETATM    7  C6  UNL     1     -36.348  15.265  -5.500  1.00 20.00     0.024 C 
BRANCH   7   8
HETATM    8  C9  UNL     1     -35.387  14.309  -6.226  1.00 20.00     0.078 C 
HETATM    9  C4  UNL     1     -34.269  15.083  -6.917  1.00 20.00     0.026 C 
HETATM   10 CL10 UNL     1     -34.657  13.140  -5.086  1.00 20.00    -0.125 Cl
ENDBRANCH   7   8
ENDBRANCH   2   7
TORSDOF 4
ENDMDL
