MODEL 1
REMARK VINA RESULT:      -4.6      0.000      0.000
REMARK  4 active torsions:
REMARK  status: ('A' for Active; 'I' for Inactive)
REMARK    1  A    between atoms: C2_2  and  C8_8 
REMARK    2  A    between atoms: C5_5  and  C9_9 
REMARK    3  A    between atoms: C8_8  and  N10_10 
REMARK    4  A    between atoms: C9_9  and  N10_10 
ROOT
HETATM    1  C1  UNL     1     -32.175   8.745   1.229  1.00 20.00    -0.109 C 
HETATM    2  C2  UNL     1     -31.899   8.163   2.242  1.00 20.00    -0.077 C 
HETATM    3  C7  UNL     1     -32.512   9.454  -0.004  1.00 20.00     0.112 C 
ENDROOT
BRANCH   2   4
HETATM    4  C8  UNL     1     -31.568   7.453   3.483  1.00 20.00     0.362 C 
BRANCH   4   5
HETATM    5  N10 UNL     1     -32.142   6.104   3.482  1.00 20.00     0.094 N 
HETATM    6  H25 UNL     1     -32.156   5.766   4.454  1.00 20.00     0.317 HD
BRANCH   5   7
HETATM    7  C9  UNL     1     -33.456   6.083   2.921  1.00 20.00     0.275 C 
BRANCH   7   8
HETATM    8  C5  UNL     1     -34.495   6.043   4.023  1.00 20.00     0.018 C 
HETATM    9  C3  UNL     1     -35.174   4.672   4.292  1.00 20.00     0.041 C 
HETATM   10  C6  UNL     1     -35.174   5.055   5.791  1.00 20.00     0.161 C 
HETATM   11  C4  UNL     1     -33.963   5.967   5.481  1.00 20.00     0.041 C 
HETATM   12  O11 UNL     1     -34.862   3.984   6.640  1.00 20.00    -0.235 OA
ENDBRANCH   7   8
ENDBRANCH   5   7
ENDBRANCH   4   5
ENDBRANCH   2   4
TORSDOF 4
ENDMDL
MODEL 2
REMARK VINA RESULT:      -4.6     11.126     11.886
REMARK  4 active torsions:
REMARK  status: ('A' for Active; 'I' for Inactive)
REMARK    1  A    between atoms: C2_2  and  C8_8 
REMARK    2  A    between atoms: C5_5  and  C9_9 
REMARK    3  A    between atoms: C8_8  and  N10_10 
REMARK    4  A    between atoms: C9_9  and  N10_10 
ROOT
HETATM    1  C1  UNL     1     -32.981  18.556   0.352  1.00 20.00    -0.109 C 
HETATM    2  C2  UNL     1     -33.980  18.006  -0.026  1.00 20.00    -0.077 C 
HETATM    3  C7  UNL     1     -31.765  19.223   0.811  1.00 20.00     0.112 C 
ENDROOT
BRANCH   2   4
HETATM    4  C8  UNL     1     -35.202  17.334  -0.480  1.00 20.00     0.362 C 
BRANCH   4   5
HETATM    5  N10 UNL     1     -34.879  16.153  -1.289  1.00 20.00     0.094 N 
HETATM    6  H25 UNL     1     -35.745  15.841  -1.752  1.00 20.00     0.317 HD
BRANCH   5   7
HETATM    7  C9  UNL     1     -33.862  16.429  -2.253  1.00 20.00     0.275 C 
BRANCH   7   8
HETATM    8  C5  UNL     1     -34.190  15.753  -3.569  1.00 20.00     0.018 C 
HETATM    9  C3  UNL     1     -33.484  14.398  -3.851  1.00 20.00     0.041 C 
HETATM   10  C6  UNL     1     -34.797  13.948  -4.537  1.00 20.00     0.161 C 
HETATM   11  C4  UNL     1     -35.530  14.969  -3.634  1.00 20.00     0.041 C 
HETATM   12  O11 UNL     1     -35.140  12.617  -4.264  1.00 20.00    -0.235 OA
ENDBRANCH   7   8
ENDBRANCH   5   7
ENDBRANCH   4   5
ENDBRANCH   2   4
TORSDOF 4
ENDMDL
MODEL 3
REMARK VINA RESULT:      -4.5     11.029     11.997
REMARK  4 active torsions:
REMARK  status: ('A' for Active; 'I' for Inactive)
REMARK    1  A    between atoms: C2_2  and  C8_8 
REMARK    2  A    between atoms: C5_5  and  C9_9 
REMARK    3  A    between atoms: C8_8  and  N10_10 
REMARK    4  A    between atoms: C9_9  and  N10_10 
ROOT
HETATM    1  C1  UNL     1     -34.754  17.635   0.779  1.00 20.00    -0.109 C 
HETATM    2  C2  UNL     1     -34.863  17.150  -0.314  1.00 20.00    -0.077 C 
HETATM    3  C7  UNL     1     -34.620  18.226   2.109  1.00 20.00     0.112 C 
ENDROOT
BRANCH   2   4
HETATM    4  C8  UNL     1     -34.991  16.554  -1.648  1.00 20.00     0.362 C 
BRANCH   4   5
HETATM    5  N10 UNL     1     -33.674  16.369  -2.266  1.00 20.00     0.094 N 
HETATM    6  H25 UNL     1     -33.414  15.377  -2.166  1.00 20.00     0.317 HD
BRANCH   5   7
HETATM    7  C9  UNL     1     -33.670  16.756  -3.641  1.00 20.00     0.275 C 
BRANCH   7   8
HETATM    8  C5  UNL     1     -33.589  15.532  -4.530  1.00 20.00     0.018 C 
HETATM    9  C3  UNL     1     -33.347  14.170  -3.821  1.00 20.00     0.041 C 
HETATM   10  C6  UNL     1     -34.283  13.542  -4.882  1.00 20.00     0.161 C 
HETATM   11  C4  UNL     1     -34.938  14.937  -5.021  1.00 20.00     0.041 C 
HETATM   12  O11 UNL     1     -35.147  12.571  -4.358  1.00 20.00    -0.235 OA
ENDBRANCH   7   8
ENDBRANCH   5   7
ENDBRANCH   4   5
ENDBRANCH   2   4
TORSDOF 4
ENDMDL
MODEL 4
REMARK VINA RESULT:      -4.5     10.890     12.643
REMARK  4 active torsions:
REMARK  status: ('A' for Active; 'I' for Inactive)
REMARK    1  A    between atoms: C2_2  and  C8_8 
REMARK    2  A    between atoms: C5_5  and  C9_9 
REMARK    3  A    between atoms: C8_8  and  N10_10 
REMARK    4  A    between atoms: C9_9  and  N10_10 
ROOT
HETATM    1  C1  UNL     1     -35.051  15.539  -7.167  1.00 20.00    -0.109 C 
HETATM    2  C2  UNL     1     -34.628  16.478  -6.550  1.00 20.00    -0.077 C 
HETATM    3  C7  UNL     1     -35.565  14.395  -7.918  1.00 20.00     0.112 C 
ENDROOT
BRANCH   2   4
HETATM    4  C8  UNL     1     -34.115  17.631  -5.802  1.00 20.00     0.362 C 
BRANCH   4   5
HETATM    5  N10 UNL     1     -33.273  17.195  -4.683  1.00 20.00     0.094 N 
HETATM    6  H25 UNL     1     -32.501  17.869  -4.587  1.00 20.00     0.317 HD
BRANCH   5   7
HETATM    7  C9  UNL     1     -34.013  17.098  -3.464  1.00 20.00     0.275 C 
BRANCH   7   8
HETATM    8  C5  UNL     1     -34.064  15.657  -2.997  1.00 20.00     0.018 C 
HETATM    9  C3  UNL     1     -35.309  14.830  -3.424  1.00 20.00     0.041 C 
HETATM   10  C6  UNL     1     -34.357  13.617  -3.556  1.00 20.00     0.161 C 
HETATM   11  C4  UNL     1     -33.216  14.633  -3.800  1.00 20.00     0.041 C 
HETATM   12  O11 UNL     1     -34.633  12.811  -4.669  1.00 20.00    -0.235 OA
ENDBRANCH   7   8
ENDBRANCH   5   7
ENDBRANCH   4   5
ENDBRANCH   2   4
TORSDOF 4
ENDMDL
MODEL 5
REMARK VINA RESULT:      -4.4     11.783     12.854
REMARK  4 active torsions:
REMARK  status: ('A' for Active; 'I' for Inactive)
REMARK    1  A    between atoms: C2_2  and  C8_8 
REMARK    2  A    between atoms: C5_5  and  C9_9 
REMARK    3  A    between atoms: C8_8  and  N10_10 
REMARK    4  A    between atoms: C9_9  and  N10_10 
ROOT
HETATM    1  C1  UNL     1     -34.199  16.478  -1.653  1.00 20.00    -0.109 C 
HETATM    2  C2  UNL     1     -33.758  16.107  -2.707  1.00 20.00    -0.077 C 
HETATM    3  C7  UNL     1     -34.738  16.928  -0.371  1.00 20.00     0.112 C 
ENDROOT
BRANCH   2   4
HETATM    4  C8  UNL     1     -33.222  15.660  -3.997  1.00 20.00     0.362 C 
BRANCH   4   5
HETATM    5  N10 UNL     1     -33.234  14.196  -4.089  1.00 20.00     0.094 N 
HETATM    6  H25 UNL     1     -33.232  13.819  -3.130  1.00 20.00     0.317 HD
BRANCH   5   7
HETATM    7  C9  UNL     1     -34.364  13.715  -4.818  1.00 20.00     0.275 C 
BRANCH   7   8
HETATM    8  C5  UNL     1     -34.893  14.797  -5.737  1.00 20.00     0.018 C 
HETATM    9  C3  UNL     1     -35.100  14.406  -7.227  1.00 20.00     0.041 C 
HETATM   10  C6  UNL     1     -36.347  15.323  -7.211  1.00 20.00     0.161 C 
HETATM   11  C4  UNL     1     -36.422  15.068  -5.686  1.00 20.00     0.041 C 
HETATM   12  O11 UNL     1     -37.436  14.794  -7.918  1.00 20.00    -0.235 OA
ENDBRANCH   7   8
ENDBRANCH   5   7
ENDBRANCH   4   5
ENDBRANCH   2   4
TORSDOF 4
ENDMDL
MODEL 6
REMARK VINA RESULT:      -4.4     11.542     12.797
REMARK  4 active torsions:
REMARK  status: ('A' for Active; 'I' for Inactive)
REMARK    1  A    between atoms: C2_2  and  C8_8 
REMARK    2  A    between atoms: C5_5  and  C9_9 
REMARK    3  A    between atoms: C8_8  and  N10_10 
REMARK    4  A    between atoms: C9_9  and  N10_10 
ROOT
HETATM    1  C1  UNL     1     -34.243  17.402  -1.936  1.00 20.00    -0.109 C 
HETATM    2  C2  UNL     1     -33.984  17.957  -2.969  1.00 20.00    -0.077 C 
HETATM    3  C7  UNL     1     -34.558  16.725  -0.679  1.00 20.00     0.112 C 
ENDROOT
BRANCH   2   4
HETATM    4  C8  UNL     1     -33.676  18.637  -4.231  1.00 20.00     0.362 C 
BRANCH   4   5
HETATM    5  N10 UNL     1     -33.454  17.666  -5.308  1.00 20.00     0.094 N 
HETATM    6  H25 UNL     1     -32.623  17.108  -5.065  1.00 20.00     0.317 HD
BRANCH   5   7
HETATM    7  C9  UNL     1     -34.589  16.821  -5.506  1.00 20.00     0.275 C 
BRANCH   7   8
HETATM    8  C5  UNL     1     -34.150  15.377  -5.644  1.00 20.00     0.018 C 
HETATM    9  C3  UNL     1     -33.933  14.587  -4.324  1.00 20.00     0.041 C 
HETATM   10  C6  UNL     1     -34.499  13.351  -5.065  1.00 20.00     0.161 C 
HETATM   11  C4  UNL     1     -35.258  14.341  -5.980  1.00 20.00     0.041 C 
HETATM   12  O11 UNL     1     -35.346  12.566  -4.271  1.00 20.00    -0.235 OA
ENDBRANCH   7   8
ENDBRANCH   5   7
ENDBRANCH   4   5
ENDBRANCH   2   4
TORSDOF 4
ENDMDL
MODEL 7
REMARK VINA RESULT:      -4.3     11.592     12.541
REMARK  4 active torsions:
REMARK  status: ('A' for Active; 'I' for Inactive)
REMARK    1  A    between atoms: C2_2  and  C8_8 
REMARK    2  A    between atoms: C5_5  and  C9_9 
REMARK    3  A    between atoms: C8_8  and  N10_10 
REMARK    4  A    between atoms: C9_9  and  N10_10 
ROOT
HETATM    1  C1  UNL     1     -34.113  16.672  -2.278  1.00 20.00    -0.109 C 
HETATM    2  C2  UNL     1     -33.755  16.688  -3.424  1.00 20.00    -0.077 C 
HETATM    3  C7  UNL     1     -34.549  16.652  -0.883  1.00 20.00     0.112 C 
ENDROOT
BRANCH   2   4
HETATM    4  C8  UNL     1     -33.321  16.715  -4.825  1.00 20.00     0.362 C 
BRANCH   4   5
HETATM    5  N10 UNL     1     -33.435  15.385  -5.433  1.00 20.00     0.094 N 
HETATM    6  H25 UNL     1     -33.712  14.722  -4.695  1.00 20.00     0.317 HD
BRANCH   5   7
HETATM    7  C9  UNL     1     -34.377  15.368  -6.507  1.00 20.00     0.275 C 
BRANCH   7   8
HETATM    8  C5  UNL     1     -35.673  14.724  -6.057  1.00 20.00     0.018 C 
HETATM    9  C3  UNL     1     -35.642  13.972  -4.697  1.00 20.00     0.041 C 
HETATM   10  C6  UNL     1     -37.083  14.489  -4.470  1.00 20.00     0.161 C 
HETATM   11  C4  UNL     1     -36.731  15.663  -5.414  1.00 20.00     0.041 C 
HETATM   12  O11 UNL     1     -37.329  14.890  -3.149  1.00 20.00    -0.235 OA
ENDBRANCH   7   8
ENDBRANCH   5   7
ENDBRANCH   4   5
ENDBRANCH   2   4
TORSDOF 4
ENDMDL
MODEL 8
REMARK VINA RESULT:      -4.3     11.249     12.717
REMARK  4 active torsions:
REMARK  status: ('A' for Active; 'I' for Inactive)
REMARK    1  A    between atoms: C2_2  and  C8_8 
REMARK    2  A    between atoms: C5_5  and  C9_9 
REMARK    3  A    between atoms: C8_8  and  N10_10 
REMARK    4  A    between atoms: C9_9  and  N10_10 
ROOT
HETATM    1  C1  UNL     1     -34.324  17.051  -6.718  1.00 20.00    -0.109 C 
HETATM    2  C2  UNL     1     -34.616  15.887  -6.774  1.00 20.00    -0.077 C 
HETATM    3  C7  UNL     1     -33.970  18.467  -6.649  1.00 20.00     0.112 C 
ENDROOT
BRANCH   2   4
HETATM    4  C8  UNL     1     -34.979  14.468  -6.845  1.00 20.00     0.362 C 
BRANCH   4   5
HETATM    5  N10 UNL     1     -35.465  13.986  -5.547  1.00 20.00     0.094 N 
HETATM    6  H25 UNL     1     -36.261  13.357  -5.721  1.00 20.00     0.317 HD
BRANCH   5   7
HETATM    7  C9  UNL     1     -34.442  13.314  -4.811  1.00 20.00     0.275 C 
BRANCH   7   8
HETATM    8  C5  UNL     1     -34.105  14.090  -3.554  1.00 20.00     0.018 C 
HETATM    9  C3  UNL     1     -32.957  15.131  -3.664  1.00 20.00     0.041 C 
HETATM   10  C6  UNL     1     -33.772  16.015  -2.690  1.00 20.00     0.161 C 
HETATM   11  C4  UNL     1     -35.036  15.284  -3.202  1.00 20.00     0.041 C 
HETATM   12  O11 UNL     1     -33.745  17.377  -3.018  1.00 20.00    -0.235 OA
ENDBRANCH   7   8
ENDBRANCH   5   7
ENDBRANCH   4   5
ENDBRANCH   2   4
TORSDOF 4
ENDMDL
MODEL 9
REMARK VINA RESULT:      -4.2     11.198     12.184
REMARK  4 active torsions:
REMARK  status: ('A' for Active; 'I' for Inactive)
REMARK    1  A    between atoms: C2_2  and  C8_8 
REMARK    2  A    between atoms: C5_5  and  C9_9 
REMARK    3  A    between atoms: C8_8  and  N10_10 
REMARK    4  A    between atoms: C9_9  and  N10_10 
ROOT
HETATM    1  C1  UNL     1     -35.095  14.247  -6.420  1.00 20.00    -0.109 C 
HETATM    2  C2  UNL     1     -34.520  13.992  -5.396  1.00 20.00    -0.077 C 
HETATM    3  C7  UNL     1     -35.794  14.558  -7.665  1.00 20.00     0.112 C 
ENDROOT
BRANCH   2   4
HETATM    4  C8  UNL     1     -33.825  13.680  -4.143  1.00 20.00     0.362 C 
BRANCH   4   5
HETATM    5  N10 UNL     1     -32.794  14.681  -3.853  1.00 20.00     0.094 N 
HETATM    6  H25 UNL     1     -32.132  14.691  -4.642  1.00 20.00     0.317 HD
BRANCH   5   7
HETATM    7  C9  UNL     1     -33.353  15.980  -3.647  1.00 20.00     0.275 C 
BRANCH   7   8
HETATM    8  C5  UNL     1     -34.045  16.045  -2.301  1.00 20.00     0.018 C 
HETATM    9  C3  UNL     1     -33.664  17.235  -1.378  1.00 20.00     0.041 C 
HETATM   10  C6  UNL     1     -35.143  17.253  -0.924  1.00 20.00     0.161 C 
HETATM   11  C4  UNL     1     -35.492  16.611  -2.288  1.00 20.00     0.041 C 
HETATM   12  O11 UNL     1     -35.663  18.545  -0.768  1.00 20.00    -0.235 OA
ENDBRANCH   7   8
ENDBRANCH   5   7
ENDBRANCH   4   5
ENDBRANCH   2   4
TORSDOF 4
ENDMDL
