MODEL 1
REMARK VINA RESULT:      -4.8      0.000      0.000
REMARK  2 active torsions:
REMARK  status: ('A' for Active; 'I' for Inactive)
REMARK    1  A    between atoms: C8_8  and  C9_9 
REMARK    2  A    between atoms: C9_9  and  O11_11 
ROOT
HETATM    1  C1  UNL     1     -34.400  13.351  -4.814  1.00 20.00     0.003 C 
HETATM    2  C2  UNL     1     -34.589  14.477  -5.830  1.00 20.00     0.003 C 
HETATM    3  C3  UNL     1     -34.131  14.028  -3.472  1.00 20.00     0.038 C 
HETATM    4  C4  UNL     1     -34.400  15.784  -5.060  1.00 20.00     0.038 C 
HETATM    5  C9  UNL     1     -33.553  15.390  -3.852  1.00 20.00     0.063 C 
ENDROOT
BRANCH   5   6
HETATM    6  C8  UNL     1     -33.613  16.408  -2.724  1.00 20.00     0.046 C 
HETATM    7  C5  UNL     1     -34.686  16.130  -1.693  1.00 20.00     0.036 C 
HETATM    8  C6  UNL     1     -34.833  17.484  -1.032  1.00 20.00     0.168 C 
HETATM    9  O10 UNL     1     -34.551  18.471  -2.037  1.00 20.00    -0.391 OA
HETATM   10  C7  UNL     1     -33.991  17.807  -3.180  1.00 20.00     0.175 C 
ENDBRANCH   5   6
BRANCH   5  11
HETATM   11  O11 UNL     1     -32.198  15.240  -4.269  1.00 20.00    -0.389 OA
HETATM   12  H27 UNL     1     -31.827  16.133  -4.324  1.00 20.00     0.210 HD
ENDBRANCH   5  11
TORSDOF 2
ENDMDL
MODEL 2
REMARK VINA RESULT:      -4.6      1.460      1.890
REMARK  2 active torsions:
REMARK  status: ('A' for Active; 'I' for Inactive)
REMARK    1  A    between atoms: C8_8  and  C9_9 
REMARK    2  A    between atoms: C9_9  and  O11_11 
ROOT
HETATM    1  C1  UNL     1     -35.281  14.465  -5.591  1.00 20.00     0.003 C 
HETATM    2  C2  UNL     1     -34.911  13.270  -4.713  1.00 20.00     0.003 C 
HETATM    3  C3  UNL     1     -34.821  15.708  -4.832  1.00 20.00     0.038 C 
HETATM    4  C4  UNL     1     -34.268  13.847  -3.453  1.00 20.00     0.038 C 
HETATM    5  C9  UNL     1     -34.812  15.271  -3.369  1.00 20.00     0.063 C 
ENDROOT
BRANCH   5   6
HETATM    6  C8  UNL     1     -33.983  16.175  -2.471  1.00 20.00     0.046 C 
HETATM    7  C5  UNL     1     -34.617  16.464  -1.127  1.00 20.00     0.036 C 
HETATM    8  C6  UNL     1     -33.867  17.707  -0.696  1.00 20.00     0.168 C 
HETATM    9  O10 UNL     1     -33.531  18.426  -1.893  1.00 20.00    -0.391 OA
HETATM   10  C7  UNL     1     -33.794  17.579  -3.021  1.00 20.00     0.175 C 
ENDBRANCH   5   6
BRANCH   5  11
HETATM   11  O11 UNL     1     -36.148  15.224  -2.873  1.00 20.00    -0.389 OA
HETATM   12  H27 UNL     1     -36.727  15.422  -3.624  1.00 20.00     0.210 HD
ENDBRANCH   5  11
TORSDOF 2
ENDMDL
MODEL 3
REMARK VINA RESULT:      -4.5     12.850     14.637
REMARK  2 active torsions:
REMARK  status: ('A' for Active; 'I' for Inactive)
REMARK    1  A    between atoms: C8_8  and  C9_9 
REMARK    2  A    between atoms: C9_9  and  O11_11 
ROOT
HETATM    1  C1  UNL     1     -41.143   6.777  -0.844  1.00 20.00     0.003 C 
HETATM    2  C2  UNL     1     -41.488   5.991   0.421  1.00 20.00     0.003 C 
HETATM    3  C3  UNL     1     -41.587   5.909  -2.019  1.00 20.00     0.038 C 
HETATM    4  C4  UNL     1     -42.101   4.672  -0.049  1.00 20.00     0.038 C 
HETATM    5  C9  UNL     1     -41.558   4.486  -1.464  1.00 20.00     0.063 C 
ENDROOT
BRANCH   5   6
HETATM    6  C8  UNL     1     -42.367   3.498  -2.288  1.00 20.00     0.046 C 
HETATM    7  C5  UNL     1     -41.527   2.525  -3.089  1.00 20.00     0.036 C 
HETATM    8  C6  UNL     1     -42.521   2.045  -4.126  1.00 20.00     0.168 C 
HETATM    9  O10 UNL     1     -43.417   3.138  -4.380  1.00 20.00    -0.391 OA
HETATM   10  C7  UNL     1     -43.198   4.147  -3.383  1.00 20.00     0.175 C 
ENDBRANCH   5   6
BRANCH   5  11
HETATM   11  O11 UNL     1     -40.210   4.028  -1.382  1.00 20.00    -0.389 OA
HETATM   12  H27 UNL     1     -39.762   4.605  -0.746  1.00 20.00     0.210 HD
ENDBRANCH   5  11
TORSDOF 2
ENDMDL
MODEL 4
REMARK VINA RESULT:      -4.4      1.793      4.273
REMARK  2 active torsions:
REMARK  status: ('A' for Active; 'I' for Inactive)
REMARK    1  A    between atoms: C8_8  and  C9_9 
REMARK    2  A    between atoms: C9_9  and  O11_11 
ROOT
HETATM    1  C1  UNL     1     -33.749  17.248  -2.652  1.00 20.00     0.003 C 
HETATM    2  C2  UNL     1     -34.436  16.060  -1.978  1.00 20.00     0.003 C 
HETATM    3  C3  UNL     1     -33.695  16.918  -4.142  1.00 20.00     0.038 C 
HETATM    4  C4  UNL     1     -34.742  15.056  -3.089  1.00 20.00     0.038 C 
HETATM    5  C9  UNL     1     -33.738  15.392  -4.189  1.00 20.00     0.063 C 
ENDROOT
BRANCH   5   6
HETATM    6  C8  UNL     1     -34.134  14.839  -5.548  1.00 20.00     0.046 C 
HETATM    7  C5  UNL     1     -34.086  15.856  -6.669  1.00 20.00     0.036 C 
HETATM    8  C6  UNL     1     -34.961  15.198  -7.716  1.00 20.00     0.168 C 
HETATM    9  O10 UNL     1     -35.953  14.437  -7.010  1.00 20.00    -0.391 OA
HETATM   10  C7  UNL     1     -35.580  14.377  -5.625  1.00 20.00     0.175 C 
ENDBRANCH   5   6
BRANCH   5  11
HETATM   11  O11 UNL     1     -32.465  14.863  -3.826  1.00 20.00    -0.389 OA
HETATM   12  H27 UNL     1     -32.040  15.528  -3.265  1.00 20.00     0.210 HD
ENDBRANCH   5  11
TORSDOF 2
ENDMDL
MODEL 5
REMARK VINA RESULT:      -4.3     13.121     14.599
REMARK  2 active torsions:
REMARK  status: ('A' for Active; 'I' for Inactive)
REMARK    1  A    between atoms: C8_8  and  C9_9 
REMARK    2  A    between atoms: C9_9  and  O11_11 
ROOT
HETATM    1  C1  UNL     1     -43.174   2.099  -4.582  1.00 20.00     0.003 C 
HETATM    2  C2  UNL     1     -41.770   1.609  -4.230  1.00 20.00     0.003 C 
HETATM    3  C3  UNL     1     -43.417   3.341  -3.729  1.00 20.00     0.038 C 
HETATM    4  C4  UNL     1     -41.239   2.562  -3.161  1.00 20.00     0.038 C 
HETATM    5  C9  UNL     1     -42.495   3.154  -2.526  1.00 20.00     0.063 C 
ENDROOT
BRANCH   5   6
HETATM    6  C8  UNL     1     -42.229   4.440  -1.760  1.00 20.00     0.046 C 
HETATM    7  C5  UNL     1     -42.294   5.691  -2.610  1.00 20.00     0.036 C 
HETATM    8  C6  UNL     1     -41.534   6.683  -1.753  1.00 20.00     0.168 C 
HETATM    9  O10 UNL     1     -40.543   5.935  -1.031  1.00 20.00    -0.391 OA
HETATM   10  C7  UNL     1     -40.823   4.536  -1.193  1.00 20.00     0.175 C 
ENDBRANCH   5   6
BRANCH   5  11
HETATM   11  O11 UNL     1     -43.056   2.192  -1.634  1.00 20.00    -0.389 OA
HETATM   12  H27 UNL     1     -43.221   2.656  -0.799  1.00 20.00     0.210 HD
ENDBRANCH   5  11
TORSDOF 2
ENDMDL
MODEL 6
REMARK VINA RESULT:      -4.3      1.372      4.178
REMARK  2 active torsions:
REMARK  status: ('A' for Active; 'I' for Inactive)
REMARK    1  A    between atoms: C8_8  and  C9_9 
REMARK    2  A    between atoms: C9_9  and  O11_11 
ROOT
HETATM    1  C1  UNL     1     -34.268  17.593  -0.819  1.00 20.00     0.003 C 
HETATM    2  C2  UNL     1     -33.735  18.522  -1.909  1.00 20.00     0.003 C 
HETATM    3  C3  UNL     1     -34.531  16.250  -1.497  1.00 20.00     0.038 C 
HETATM    4  C4  UNL     1     -33.725  17.706  -3.201  1.00 20.00     0.038 C 
HETATM    5  C9  UNL     1     -34.761  16.610  -2.963  1.00 20.00     0.063 C 
ENDROOT
BRANCH   5   6
HETATM    6  C8  UNL     1     -34.609  15.429  -3.908  1.00 20.00     0.046 C 
HETATM    7  C5  UNL     1     -35.715  14.401  -3.799  1.00 20.00     0.036 C 
HETATM    8  C6  UNL     1     -35.069  13.188  -4.437  1.00 20.00     0.168 C 
HETATM    9  O10 UNL     1     -33.662  13.273  -4.162  1.00 20.00    -0.391 OA
HETATM   10  C7  UNL     1     -33.381  14.578  -3.633  1.00 20.00     0.175 C 
ENDBRANCH   5   6
BRANCH   5  11
HETATM   11  O11 UNL     1     -36.064  17.167  -3.124  1.00 20.00    -0.389 OA
HETATM   12  H27 UNL     1     -36.620  16.462  -3.489  1.00 20.00     0.210 HD
ENDBRANCH   5  11
TORSDOF 2
ENDMDL
MODEL 7
REMARK VINA RESULT:      -4.2      1.431      4.204
REMARK  2 active torsions:
REMARK  status: ('A' for Active; 'I' for Inactive)
REMARK    1  A    between atoms: C8_8  and  C9_9 
REMARK    2  A    between atoms: C9_9  and  O11_11 
ROOT
HETATM    1  C1  UNL     1     -36.065  18.063  -1.652  1.00 20.00     0.003 C 
HETATM    2  C2  UNL     1     -35.041  17.415  -0.721  1.00 20.00     0.003 C 
HETATM    3  C3  UNL     1     -36.041  17.249  -2.944  1.00 20.00     0.038 C 
HETATM    4  C4  UNL     1     -34.425  16.255  -1.503  1.00 20.00     0.038 C 
HETATM    5  C9  UNL     1     -34.645  16.628  -2.967  1.00 20.00     0.063 C 
ENDROOT
BRANCH   5   6
HETATM    6  C8  UNL     1     -34.526  15.442  -3.911  1.00 20.00     0.046 C 
HETATM    7  C5  UNL     1     -35.668  14.453  -3.810  1.00 20.00     0.036 C 
HETATM    8  C6  UNL     1     -35.061  13.218  -4.442  1.00 20.00     0.168 C 
HETATM    9  O10 UNL     1     -33.654  13.254  -4.155  1.00 20.00    -0.391 OA
HETATM   10  C7  UNL     1     -33.331  14.548  -3.625  1.00 20.00     0.175 C 
ENDBRANCH   5   6
BRANCH   5  11
HETATM   11  O11 UNL     1     -33.685  17.614  -3.340  1.00 20.00    -0.389 OA
HETATM   12  H27 UNL     1     -33.787  17.749  -4.294  1.00 20.00     0.210 HD
ENDBRANCH   5  11
TORSDOF 2
ENDMDL
MODEL 8
REMARK VINA RESULT:      -4.2      1.770      2.372
REMARK  2 active torsions:
REMARK  status: ('A' for Active; 'I' for Inactive)
REMARK    1  A    between atoms: C8_8  and  C9_9 
REMARK    2  A    between atoms: C9_9  and  O11_11 
ROOT
HETATM    1  C1  UNL     1     -36.270  14.794  -6.988  1.00 20.00     0.003 C 
HETATM    2  C2  UNL     1     -34.785  14.889  -7.339  1.00 20.00     0.003 C 
HETATM    3  C3  UNL     1     -36.352  14.874  -5.465  1.00 20.00     0.038 C 
HETATM    4  C4  UNL     1     -34.037  14.998  -6.011  1.00 20.00     0.038 C 
HETATM    5  C9  UNL     1     -34.988  14.378  -4.990  1.00 20.00     0.063 C 
ENDROOT
BRANCH   5   6
HETATM    6  C8  UNL     1     -34.666  14.771  -3.557  1.00 20.00     0.046 C 
HETATM    7  C5  UNL     1     -35.688  15.688  -2.921  1.00 20.00     0.036 C 
HETATM    8  C6  UNL     1     -34.897  16.278  -1.772  1.00 20.00     0.168 C 
HETATM    9  O10 UNL     1     -33.528  16.342  -2.200  1.00 20.00    -0.391 OA
HETATM   10  C7  UNL     1     -33.397  15.595  -3.418  1.00 20.00     0.175 C 
ENDBRANCH   5   6
BRANCH   5  11
HETATM   11  O11 UNL     1     -34.925  12.958  -5.106  1.00 20.00    -0.389 OA
HETATM   12  H27 UNL     1     -34.876  12.762  -6.054  1.00 20.00     0.210 HD
ENDBRANCH   5  11
TORSDOF 2
ENDMDL
MODEL 9
REMARK VINA RESULT:      -4.1      2.931      4.221
REMARK  2 active torsions:
REMARK  status: ('A' for Active; 'I' for Inactive)
REMARK    1  A    between atoms: C8_8  and  C9_9 
REMARK    2  A    between atoms: C9_9  and  O11_11 
ROOT
HETATM    1  C1  UNL     1     -38.151  16.993  -4.642  1.00 20.00     0.003 C 
HETATM    2  C2  UNL     1     -37.973  16.178  -5.922  1.00 20.00     0.003 C 
HETATM    3  C3  UNL     1     -37.091  16.488  -3.665  1.00 20.00     0.038 C 
HETATM    4  C4  UNL     1     -36.830  15.200  -5.651  1.00 20.00     0.038 C 
HETATM    5  C9  UNL     1     -36.803  15.063  -4.131  1.00 20.00     0.063 C 
ENDROOT
BRANCH   5   6
HETATM    6  C8  UNL     1     -35.489  14.508  -3.605  1.00 20.00     0.046 C 
HETATM    7  C5  UNL     1     -34.301  15.422  -3.816  1.00 20.00     0.036 C 
HETATM    8  C6  UNL     1     -33.143  14.456  -3.671  1.00 20.00     0.168 C 
HETATM    9  O10 UNL     1     -33.604  13.181  -4.143  1.00 20.00    -0.391 OA
HETATM   10  C7  UNL     1     -35.027  13.247  -4.315  1.00 20.00     0.175 C 
ENDBRANCH   5   6
BRANCH   5  11
HETATM   11  O11 UNL     1     -37.865  14.200  -3.728  1.00 20.00    -0.389 OA
HETATM   12  H27 UNL     1     -37.660  13.326  -4.091  1.00 20.00     0.210 HD
ENDBRANCH   5  11
TORSDOF 2
ENDMDL
