MODEL 1
REMARK VINA RESULT:      -4.4      0.000      0.000
REMARK  3 active torsions:
REMARK  status: ('A' for Active; 'I' for Inactive)
REMARK    1  A    between atoms: C5_5  and  S11_11 
REMARK    2  A    between atoms: C7_7  and  C8_8 
REMARK    3  A    between atoms: C8_8  and  S11_11 
ROOT
HETATM    1  C1  UNL     1     -33.904  16.713  -4.601  1.00 20.00     0.080 C 
HETATM    2  C2  UNL     1     -34.210  14.420  -3.529  1.00 20.00     0.071 C 
HETATM    3  C3  UNL     1     -35.468  14.797  -5.226  1.00 20.00     0.071 C 
HETATM    4  C4  UNL     1     -34.357  13.761  -4.924  1.00 20.00     0.165 C 
HETATM    5  C5  UNL     1     -34.832  15.705  -4.140  1.00 20.00     0.101 C 
HETATM    6  N9  UNL     1     -33.160  17.521  -4.972  1.00 20.00    -0.196 NA
HETATM    7  O10 UNL     1     -34.825  12.442  -4.870  1.00 20.00    -0.235 OA
ENDROOT
BRANCH   5   8
HETATM    8  S11 UNL     1     -36.088  16.452  -3.040  1.00 20.00    -0.144 SA
BRANCH   8   9
HETATM    9  C8  UNL     1     -34.973  17.447  -2.027  1.00 20.00     0.075 C 
BRANCH   9  10
HETATM   10  C7  UNL     1     -34.582  16.689  -0.762  1.00 20.00     0.006 C 
HETATM   11  C6  UNL     1     -35.017  17.445   0.485  1.00 20.00     0.006 C 
ENDBRANCH   9  10
ENDBRANCH   8   9
ENDBRANCH   5   8
TORSDOF 3
ENDMDL
MODEL 2
REMARK VINA RESULT:      -4.3      2.638      3.123
REMARK  3 active torsions:
REMARK  status: ('A' for Active; 'I' for Inactive)
REMARK    1  A    between atoms: C5_5  and  S11_11 
REMARK    2  A    between atoms: C7_7  and  C8_8 
REMARK    3  A    between atoms: C8_8  and  S11_11 
ROOT
HETATM    1  C1  UNL     1     -34.732  13.838  -4.775  1.00 20.00     0.080 C 
HETATM    2  C2  UNL     1     -36.023  15.899  -5.542  1.00 20.00     0.071 C 
HETATM    3  C3  UNL     1     -34.613  15.135  -6.969  1.00 20.00     0.071 C 
HETATM    4  C4  UNL     1     -36.152  15.315  -6.971  1.00 20.00     0.165 C 
HETATM    5  C5  UNL     1     -34.678  15.132  -5.418  1.00 20.00     0.101 C 
HETATM    6  N9  UNL     1     -34.775  12.800  -4.260  1.00 20.00    -0.196 NA
HETATM    7  O10 UNL     1     -36.602  16.248  -7.916  1.00 20.00    -0.235 OA
ENDROOT
BRANCH   5   8
HETATM    8  S11 UNL     1     -33.365  16.161  -4.668  1.00 20.00    -0.144 SA
BRANCH   8   9
HETATM    9  C8  UNL     1     -33.638  15.699  -2.945  1.00 20.00     0.075 C 
BRANCH   9  10
HETATM   10  C7  UNL     1     -33.859  16.941  -2.087  1.00 20.00     0.006 C 
HETATM   11  C6  UNL     1     -34.665  16.609  -0.841  1.00 20.00     0.006 C 
ENDBRANCH   9  10
ENDBRANCH   8   9
ENDBRANCH   5   8
TORSDOF 3
ENDMDL
MODEL 3
REMARK VINA RESULT:      -4.3      1.787      2.092
REMARK  3 active torsions:
REMARK  status: ('A' for Active; 'I' for Inactive)
REMARK    1  A    between atoms: C5_5  and  S11_11 
REMARK    2  A    between atoms: C7_7  and  C8_8 
REMARK    3  A    between atoms: C8_8  and  S11_11 
ROOT
HETATM    1  C1  UNL     1     -36.357  16.463  -3.794  1.00 20.00     0.080 C 
HETATM    2  C2  UNL     1     -35.135  14.903  -5.399  1.00 20.00     0.071 C 
HETATM    3  C3  UNL     1     -34.799  14.500  -3.318  1.00 20.00     0.071 C 
HETATM    4  C4  UNL     1     -35.427  13.690  -4.479  1.00 20.00     0.165 C 
HETATM    5  C5  UNL     1     -35.122  15.788  -4.123  1.00 20.00     0.101 C 
HETATM    6  N9  UNL     1     -37.348  17.004  -3.530  1.00 20.00    -0.196 NA
HETATM    7  O10 UNL     1     -34.695  12.545  -4.819  1.00 20.00    -0.235 OA
ENDROOT
BRANCH   5   8
HETATM    8  S11 UNL     1     -33.729  16.973  -4.121  1.00 20.00    -0.144 SA
BRANCH   8   9
HETATM    9  C8  UNL     1     -34.225  17.942  -2.681  1.00 20.00     0.075 C 
BRANCH   9  10
HETATM   10  C7  UNL     1     -33.618  17.357  -1.410  1.00 20.00     0.006 C 
HETATM   11  C6  UNL     1     -34.702  16.901  -0.445  1.00 20.00     0.006 C 
ENDBRANCH   9  10
ENDBRANCH   8   9
ENDBRANCH   5   8
TORSDOF 3
ENDMDL
MODEL 4
REMARK VINA RESULT:      -4.2      2.230      2.581
REMARK  3 active torsions:
REMARK  status: ('A' for Active; 'I' for Inactive)
REMARK    1  A    between atoms: C5_5  and  S11_11 
REMARK    2  A    between atoms: C7_7  and  C8_8 
REMARK    3  A    between atoms: C8_8  and  S11_11 
ROOT
HETATM    1  C1  UNL     1     -33.859  13.970  -4.130  1.00 20.00     0.080 C 
HETATM    2  C2  UNL     1     -35.570  14.677  -5.883  1.00 20.00     0.071 C 
HETATM    3  C3  UNL     1     -33.905  16.012  -5.658  1.00 20.00     0.071 C 
HETATM    4  C4  UNL     1     -34.439  15.151  -6.830  1.00 20.00     0.165 C 
HETATM    5  C5  UNL     1     -34.643  15.046  -4.693  1.00 20.00     0.101 C 
HETATM    6  N9  UNL     1     -33.229  13.107  -3.678  1.00 20.00    -0.196 NA
HETATM    7  O10 UNL     1     -34.900  15.910  -7.914  1.00 20.00    -0.235 OA
ENDROOT
BRANCH   5   8
HETATM    8  S11 UNL     1     -35.540  15.939  -3.373  1.00 20.00    -0.144 SA
BRANCH   8   9
HETATM    9  C8  UNL     1     -34.151  16.180  -2.245  1.00 20.00     0.075 C 
BRANCH   9  10
HETATM   10  C7  UNL     1     -34.650  16.603  -0.867  1.00 20.00     0.006 C 
HETATM   11  C6  UNL     1     -33.868  17.799  -0.345  1.00 20.00     0.006 C 
ENDBRANCH   9  10
ENDBRANCH   8   9
ENDBRANCH   5   8
TORSDOF 3
ENDMDL
MODEL 5
REMARK VINA RESULT:      -4.1      2.416      2.764
REMARK  3 active torsions:
REMARK  status: ('A' for Active; 'I' for Inactive)
REMARK    1  A    between atoms: C5_5  and  S11_11 
REMARK    2  A    between atoms: C7_7  and  C8_8 
REMARK    3  A    between atoms: C8_8  and  S11_11 
ROOT
HETATM    1  C1  UNL     1     -36.742  14.549  -4.016  1.00 20.00     0.080 C 
HETATM    2  C2  UNL     1     -35.311  15.810  -5.707  1.00 20.00     0.071 C 
HETATM    3  C3  UNL     1     -34.914  13.705  -5.583  1.00 20.00     0.071 C 
HETATM    4  C4  UNL     1     -35.422  14.637  -6.712  1.00 20.00     0.165 C 
HETATM    5  C5  UNL     1     -35.423  14.763  -4.566  1.00 20.00     0.101 C 
HETATM    6  N9  UNL     1     -37.800  14.377  -3.574  1.00 20.00    -0.196 NA
HETATM    7  O10 UNL     1     -34.533  14.740  -7.790  1.00 20.00    -0.235 OA
ENDROOT
BRANCH   5   8
HETATM    8  S11 UNL     1     -34.216  15.072  -3.228  1.00 20.00    -0.144 SA
BRANCH   8   9
HETATM    9  C8  UNL     1     -35.215  16.213  -2.249  1.00 20.00     0.075 C 
BRANCH   9  10
HETATM   10  C7  UNL     1     -34.471  16.621  -0.981  1.00 20.00     0.006 C 
HETATM   11  C6  UNL     1     -35.284  17.614  -0.165  1.00 20.00     0.006 C 
ENDBRANCH   9  10
ENDBRANCH   8   9
ENDBRANCH   5   8
TORSDOF 3
ENDMDL
MODEL 6
REMARK VINA RESULT:      -4.1      2.915      4.827
REMARK  3 active torsions:
REMARK  status: ('A' for Active; 'I' for Inactive)
REMARK    1  A    between atoms: C5_5  and  S11_11 
REMARK    2  A    between atoms: C7_7  and  C8_8 
REMARK    3  A    between atoms: C8_8  and  S11_11 
ROOT
HETATM    1  C1  UNL     1     -34.927  13.920  -4.274  1.00 20.00     0.080 C 
HETATM    2  C2  UNL     1     -33.578  15.911  -3.429  1.00 20.00     0.071 C 
HETATM    3  C3  UNL     1     -35.649  15.920  -2.865  1.00 20.00     0.071 C 
HETATM    4  C4  UNL     1     -34.320  15.867  -2.070  1.00 20.00     0.165 C 
HETATM    5  C5  UNL     1     -34.871  15.351  -4.082  1.00 20.00     0.101 C 
HETATM    6  N9  UNL     1     -34.973  12.771  -4.427  1.00 20.00    -0.196 NA
HETATM    7  O10 UNL     1     -34.100  17.002  -1.278  1.00 20.00    -0.235 OA
ENDROOT
BRANCH   5   8
HETATM    8  S11 UNL     1     -35.287  16.219  -5.637  1.00 20.00    -0.144 SA
BRANCH   8   9
HETATM    9  C8  UNL     1     -34.373  15.153  -6.771  1.00 20.00     0.075 C 
BRANCH   9  10
HETATM   10  C7  UNL     1     -35.295  14.621  -7.864  1.00 20.00     0.006 C 
HETATM   11  C6  UNL     1     -36.750  14.942  -7.556  1.00 20.00     0.006 C 
ENDBRANCH   9  10
ENDBRANCH   8   9
ENDBRANCH   5   8
TORSDOF 3
ENDMDL
MODEL 7
REMARK VINA RESULT:      -4.0      2.828      4.673
REMARK  3 active torsions:
REMARK  status: ('A' for Active; 'I' for Inactive)
REMARK    1  A    between atoms: C5_5  and  S11_11 
REMARK    2  A    between atoms: C7_7  and  C8_8 
REMARK    3  A    between atoms: C8_8  and  S11_11 
ROOT
HETATM    1  C1  UNL     1     -33.845  14.091  -3.690  1.00 20.00     0.080 C 
HETATM    2  C2  UNL     1     -33.642  16.631  -3.773  1.00 20.00     0.071 C 
HETATM    3  C3  UNL     1     -35.010  15.884  -2.299  1.00 20.00     0.071 C 
HETATM    4  C4  UNL     1     -33.702  16.710  -2.228  1.00 20.00     0.165 C 
HETATM    5  C5  UNL     1     -34.532  15.363  -3.681  1.00 20.00     0.101 C 
HETATM    6  N9  UNL     1     -33.294  13.071  -3.697  1.00 20.00    -0.196 NA
HETATM    7  O10 UNL     1     -33.891  18.012  -1.743  1.00 20.00    -0.235 OA
ENDROOT
BRANCH   5   8
HETATM    8  S11 UNL     1     -35.873  15.371  -4.925  1.00 20.00    -0.144 SA
BRANCH   8   9
HETATM    9  C8  UNL     1     -35.099  14.277  -6.135  1.00 20.00     0.075 C 
BRANCH   9  10
HETATM   10  C7  UNL     1     -34.350  15.089  -7.187  1.00 20.00     0.006 C 
HETATM   11  C6  UNL     1     -34.932  16.489  -7.313  1.00 20.00     0.006 C 
ENDBRANCH   9  10
ENDBRANCH   8   9
ENDBRANCH   5   8
TORSDOF 3
ENDMDL
MODEL 8
REMARK VINA RESULT:      -4.0      2.901      4.507
REMARK  3 active torsions:
REMARK  status: ('A' for Active; 'I' for Inactive)
REMARK    1  A    between atoms: C5_5  and  S11_11 
REMARK    2  A    between atoms: C7_7  and  C8_8 
REMARK    3  A    between atoms: C8_8  and  S11_11 
ROOT
HETATM    1  C1  UNL     1     -37.173  14.674  -3.970  1.00 20.00     0.080 C 
HETATM    2  C2  UNL     1     -34.963  14.065  -5.085  1.00 20.00     0.071 C 
HETATM    3  C3  UNL     1     -34.782  14.855  -3.098  1.00 20.00     0.071 C 
HETATM    4  C4  UNL     1     -34.418  13.498  -3.750  1.00 20.00     0.165 C 
HETATM    5  C5  UNL     1     -35.808  15.061  -4.245  1.00 20.00     0.101 C 
HETATM    6  N9  UNL     1     -38.268  14.365  -3.748  1.00 20.00    -0.196 NA
HETATM    7  O10 UNL     1     -33.040  13.243  -3.773  1.00 20.00    -0.235 OA
ENDROOT
BRANCH   5   8
HETATM    8  S11 UNL     1     -35.751  16.757  -4.927  1.00 20.00    -0.144 SA
BRANCH   8   9
HETATM    9  C8  UNL     1     -37.258  16.679  -5.918  1.00 20.00     0.075 C 
BRANCH   9  10
HETATM   10  C7  UNL     1     -36.926  16.344  -7.369  1.00 20.00     0.006 C 
HETATM   11  C6  UNL     1     -37.552  15.020  -7.782  1.00 20.00     0.006 C 
ENDBRANCH   9  10
ENDBRANCH   8   9
ENDBRANCH   5   8
TORSDOF 3
ENDMDL
MODEL 9
REMARK VINA RESULT:      -4.0      2.565      3.042
REMARK  3 active torsions:
REMARK  status: ('A' for Active; 'I' for Inactive)
REMARK    1  A    between atoms: C5_5  and  S11_11 
REMARK    2  A    between atoms: C7_7  and  C8_8 
REMARK    3  A    between atoms: C8_8  and  S11_11 
ROOT
HETATM    1  C1  UNL     1     -37.083  14.600  -4.030  1.00 20.00     0.080 C 
HETATM    2  C2  UNL     1     -34.944  13.765  -5.137  1.00 20.00     0.071 C 
HETATM    3  C3  UNL     1     -34.649  14.845  -3.307  1.00 20.00     0.071 C 
HETATM    4  C4  UNL     1     -34.347  13.394  -3.757  1.00 20.00     0.165 C 
HETATM    5  C5  UNL     1     -35.726  14.901  -4.424  1.00 20.00     0.101 C 
HETATM    6  N9  UNL     1     -38.173  14.360  -3.713  1.00 20.00    -0.196 NA
HETATM    7  O10 UNL     1     -32.977  13.100  -3.804  1.00 20.00    -0.235 OA
ENDROOT
BRANCH   5   8
HETATM    8  S11 UNL     1     -35.668  16.470  -5.363  1.00 20.00    -0.144 SA
BRANCH   8   9
HETATM    9  C8  UNL     1     -36.842  17.405  -4.360  1.00 20.00     0.075 C 
BRANCH   9  10
HETATM   10  C7  UNL     1     -36.104  18.308  -3.377  1.00 20.00     0.006 C 
HETATM   11  C6  UNL     1     -36.396  17.906  -1.939  1.00 20.00     0.006 C 
ENDBRANCH   9  10
ENDBRANCH   8   9
ENDBRANCH   5   8
TORSDOF 3
ENDMDL
