MODEL 1
REMARK VINA RESULT:      -5.3      0.000      0.000
REMARK  4 active torsions:
REMARK  status: ('A' for Active; 'I' for Inactive)
REMARK    1  A    between atoms: C2_2  and  C9_9 
REMARK    2  A    between atoms: C2_2  and  C10_10 
REMARK    3  A    between atoms: C3_3  and  C5_5 
REMARK    4  A    between atoms: C3_3  and  C9_9 
ROOT
HETATM    1  C3  UNL     1     -33.700   5.832   2.924  1.00 20.00     0.135 C 
HETATM    2  O11 UNL     1     -34.054   4.850   2.285  1.00 20.00    -0.297 OA
ENDROOT
BRANCH   1   3
HETATM    3  C5  UNL     1     -32.420   6.518   2.581  1.00 20.00     0.060 A 
HETATM    4  C4  UNL     1     -31.819   7.447   3.585  1.00 20.00     0.017 A 
HETATM    5  C6  UNL     1     -32.454   8.002   2.337  1.00 20.00    -0.007 A 
HETATM    6  C7  UNL     1     -31.607   8.587   1.261  1.00 20.00     0.011 C 
ENDBRANCH   1   3
BRANCH   1   7
HETATM    7  C9  UNL     1     -34.452   6.416   4.105  1.00 20.00     0.111 C 
BRANCH   7   8
HETATM    8  C2  UNL     1     -34.649   5.391   5.192  1.00 20.00    -0.083 C 
HETATM    9  C1  UNL     1     -35.110   4.161   4.911  1.00 20.00     0.014 C 
BRANCH   8  10
HETATM   10  C10 UNL     1     -34.318   5.794   6.610  1.00 20.00     0.029 C 
HETATM   11  C8  UNL     1     -33.623   7.147   6.688  1.00 20.00     0.010 C 
ENDBRANCH   8  10
ENDBRANCH   7   8
ENDBRANCH   1   7
TORSDOF 4
ENDMDL
MODEL 2
REMARK VINA RESULT:      -5.1      0.624      1.582
REMARK  4 active torsions:
REMARK  status: ('A' for Active; 'I' for Inactive)
REMARK    1  A    between atoms: C2_2  and  C9_9 
REMARK    2  A    between atoms: C2_2  and  C10_10 
REMARK    3  A    between atoms: C3_3  and  C5_5 
REMARK    4  A    between atoms: C3_3  and  C9_9 
ROOT
HETATM    1  C3  UNL     1     -33.625   6.015   3.080  1.00 20.00     0.135 C 
HETATM    2  O11 UNL     1     -33.959   4.907   2.680  1.00 20.00    -0.297 OA
ENDROOT
BRANCH   1   3
HETATM    3  C5  UNL     1     -32.364   6.636   2.579  1.00 20.00     0.060 A 
HETATM    4  C4  UNL     1     -31.612   7.553   3.487  1.00 20.00     0.017 A 
HETATM    5  C6  UNL     1     -32.360   8.115   2.308  1.00 20.00    -0.007 A 
HETATM    6  C7  UNL     1     -31.616   8.642   1.130  1.00 20.00     0.011 C 
ENDBRANCH   1   3
BRANCH   1   7
HETATM    7  C9  UNL     1     -34.385   6.832   4.109  1.00 20.00     0.111 C 
BRANCH   7   8
HETATM    8  C2  UNL     1     -34.372   6.164   5.460  1.00 20.00    -0.083 C 
HETATM    9  C1  UNL     1     -33.669   6.679   6.482  1.00 20.00     0.014 C 
BRANCH   8  10
HETATM   10  C10 UNL     1     -35.170   4.892   5.624  1.00 20.00     0.029 C 
HETATM   11  C8  UNL     1     -34.301   3.697   5.991  1.00 20.00     0.010 C 
ENDBRANCH   8  10
ENDBRANCH   7   8
ENDBRANCH   1   7
TORSDOF 4
ENDMDL
MODEL 3
REMARK VINA RESULT:      -5.1     11.094     12.352
REMARK  4 active torsions:
REMARK  status: ('A' for Active; 'I' for Inactive)
REMARK    1  A    between atoms: C2_2  and  C9_9 
REMARK    2  A    between atoms: C2_2  and  C10_10 
REMARK    3  A    between atoms: C3_3  and  C5_5 
REMARK    4  A    between atoms: C3_3  and  C9_9 
ROOT
HETATM    1  C3  UNL     1     -35.016  13.787  -4.765  1.00 20.00     0.135 C 
HETATM    2  O11 UNL     1     -34.717  12.632  -5.040  1.00 20.00    -0.297 OA
ENDROOT
BRANCH   1   3
HETATM    3  C5  UNL     1     -35.439  14.722  -5.848  1.00 20.00     0.060 A 
HETATM    4  C4  UNL     1     -35.371  14.250  -7.264  1.00 20.00     0.017 A 
HETATM    5  C6  UNL     1     -34.381  15.269  -6.767  1.00 20.00    -0.007 A 
HETATM    6  C7  UNL     1     -34.468  16.684  -7.224  1.00 20.00     0.011 C 
ENDBRANCH   1   3
BRANCH   1   7
HETATM    7  C9  UNL     1     -34.959  14.391  -3.374  1.00 20.00     0.111 C 
BRANCH   7   8
HETATM    8  C2  UNL     1     -33.722  15.233  -3.192  1.00 20.00    -0.083 C 
HETATM    9  C1  UNL     1     -32.520  14.799  -3.604  1.00 20.00     0.014 C 
BRANCH   8  10
HETATM   10  C10 UNL     1     -33.879  16.579  -2.524  1.00 20.00     0.029 C 
HETATM   11  C8  UNL     1     -34.598  16.490  -1.185  1.00 20.00     0.010 C 
ENDBRANCH   8  10
ENDBRANCH   7   8
ENDBRANCH   1   7
TORSDOF 4
ENDMDL
MODEL 4
REMARK VINA RESULT:      -5.0     11.257     12.482
REMARK  4 active torsions:
REMARK  status: ('A' for Active; 'I' for Inactive)
REMARK    1  A    between atoms: C2_2  and  C9_9 
REMARK    2  A    between atoms: C2_2  and  C10_10 
REMARK    3  A    between atoms: C3_3  and  C5_5 
REMARK    4  A    between atoms: C3_3  and  C9_9 
ROOT
HETATM    1  C3  UNL     1     -34.560  13.936  -4.600  1.00 20.00     0.135 C 
HETATM    2  O11 UNL     1     -34.908  12.780  -4.395  1.00 20.00    -0.297 OA
ENDROOT
BRANCH   1   3
HETATM    3  C5  UNL     1     -35.217  14.729  -5.680  1.00 20.00     0.060 A 
HETATM    4  C4  UNL     1     -35.320  14.127  -7.043  1.00 20.00     0.017 A 
HETATM    5  C6  UNL     1     -34.358  15.258  -6.795  1.00 20.00    -0.007 A 
HETATM    6  C7  UNL     1     -34.634  16.612  -7.352  1.00 20.00     0.011 C 
ENDBRANCH   1   3
BRANCH   1   7
HETATM    7  C9  UNL     1     -33.452  14.655  -3.852  1.00 20.00     0.111 C 
BRANCH   7   8
HETATM    8  C2  UNL     1     -33.956  15.920  -3.207  1.00 20.00    -0.083 C 
HETATM    9  C1  UNL     1     -33.542  17.126  -3.628  1.00 20.00     0.014 C 
BRANCH   8  10
HETATM   10  C10 UNL     1     -34.938  15.786  -2.066  1.00 20.00     0.029 C 
HETATM   11  C8  UNL     1     -34.582  16.670  -0.879  1.00 20.00     0.010 C 
ENDBRANCH   8  10
ENDBRANCH   7   8
ENDBRANCH   1   7
TORSDOF 4
ENDMDL
MODEL 5
REMARK VINA RESULT:      -4.9      1.609      1.906
REMARK  4 active torsions:
REMARK  status: ('A' for Active; 'I' for Inactive)
REMARK    1  A    between atoms: C2_2  and  C9_9 
REMARK    2  A    between atoms: C2_2  and  C10_10 
REMARK    3  A    between atoms: C3_3  and  C5_5 
REMARK    4  A    between atoms: C3_3  and  C9_9 
ROOT
HETATM    1  C3  UNL     1     -32.971   6.394   3.698  1.00 20.00     0.135 C 
HETATM    2  O11 UNL     1     -33.048   6.768   4.861  1.00 20.00    -0.297 OA
ENDROOT
BRANCH   1   3
HETATM    3  C5  UNL     1     -31.976   7.023   2.781  1.00 20.00     0.060 A 
HETATM    4  C4  UNL     1     -31.173   8.177   3.285  1.00 20.00     0.017 A 
HETATM    5  C6  UNL     1     -32.259   8.409   2.269  1.00 20.00    -0.007 A 
HETATM    6  C7  UNL     1     -31.910   8.755   0.863  1.00 20.00     0.011 C 
ENDBRANCH   1   3
BRANCH   1   7
HETATM    7  C9  UNL     1     -33.854   5.334   3.066  1.00 20.00     0.111 C 
BRANCH   7   8
HETATM    8  C2  UNL     1     -35.092   5.089   3.891  1.00 20.00    -0.083 C 
HETATM    9  C1  UNL     1     -36.209   5.808   3.696  1.00 20.00     0.014 C 
BRANCH   8  10
HETATM   10  C10 UNL     1     -35.032   4.011   4.948  1.00 20.00     0.029 C 
HETATM   11  C8  UNL     1     -35.042   4.574   6.362  1.00 20.00     0.010 C 
ENDBRANCH   8  10
ENDBRANCH   7   8
ENDBRANCH   1   7
TORSDOF 4
ENDMDL
MODEL 6
REMARK VINA RESULT:      -4.9      0.909      4.334
REMARK  4 active torsions:
REMARK  status: ('A' for Active; 'I' for Inactive)
REMARK    1  A    between atoms: C2_2  and  C9_9 
REMARK    2  A    between atoms: C2_2  and  C10_10 
REMARK    3  A    between atoms: C3_3  and  C5_5 
REMARK    4  A    between atoms: C3_3  and  C9_9 
ROOT
HETATM    1  C3  UNL     1     -33.864   5.657   3.562  1.00 20.00     0.135 C 
HETATM    2  O11 UNL     1     -34.998   5.508   3.125  1.00 20.00    -0.297 OA
ENDROOT
BRANCH   1   3
HETATM    3  C5  UNL     1     -33.622   5.600   5.033  1.00 20.00     0.060 A 
HETATM    4  C4  UNL     1     -34.755   5.213   5.926  1.00 20.00     0.017 A 
HETATM    5  C6  UNL     1     -34.276   6.640   5.901  1.00 20.00    -0.007 A 
HETATM    6  C7  UNL     1     -33.529   7.201   7.060  1.00 20.00     0.011 C 
ENDBRANCH   1   3
BRANCH   1   7
HETATM    7  C9  UNL     1     -32.639   5.943   2.714  1.00 20.00     0.111 C 
BRANCH   7   8
HETATM    8  C2  UNL     1     -32.140   7.350   2.927  1.00 20.00    -0.083 C 
HETATM    9  C1  UNL     1     -31.259   7.634   3.899  1.00 20.00     0.014 C 
BRANCH   8  10
HETATM   10  C10 UNL     1     -32.670   8.430   2.013  1.00 20.00     0.029 C 
HETATM   11  C8  UNL     1     -31.736   8.725   0.848  1.00 20.00     0.010 C 
ENDBRANCH   8  10
ENDBRANCH   7   8
ENDBRANCH   1   7
TORSDOF 4
ENDMDL
MODEL 7
REMARK VINA RESULT:      -4.7     11.253     12.774
REMARK  4 active torsions:
REMARK  status: ('A' for Active; 'I' for Inactive)
REMARK    1  A    between atoms: C2_2  and  C9_9 
REMARK    2  A    between atoms: C2_2  and  C10_10 
REMARK    3  A    between atoms: C3_3  and  C5_5 
REMARK    4  A    between atoms: C3_3  and  C9_9 
ROOT
HETATM    1  C3  UNL     1     -34.510  13.930  -4.589  1.00 20.00     0.135 C 
HETATM    2  O11 UNL     1     -34.828  12.757  -4.443  1.00 20.00    -0.297 OA
ENDROOT
BRANCH   1   3
HETATM    3  C5  UNL     1     -35.163  14.750  -5.650  1.00 20.00     0.060 A 
HETATM    4  C4  UNL     1     -35.277  14.176  -7.025  1.00 20.00     0.017 A 
HETATM    5  C6  UNL     1     -34.303  15.293  -6.759  1.00 20.00    -0.007 A 
HETATM    6  C7  UNL     1     -34.567  16.660  -7.287  1.00 20.00     0.011 C 
ENDBRANCH   1   3
BRANCH   1   7
HETATM    7  C9  UNL     1     -33.442  14.645  -3.783  1.00 20.00     0.111 C 
BRANCH   7   8
HETATM    8  C2  UNL     1     -33.993  15.879  -3.114  1.00 20.00    -0.083 C 
HETATM    9  C1  UNL     1     -34.808  15.785  -2.050  1.00 20.00     0.014 C 
BRANCH   8  10
HETATM   10  C10 UNL     1     -33.603  17.222  -3.683  1.00 20.00     0.029 C 
HETATM   11  C8  UNL     1     -34.792  18.161  -3.838  1.00 20.00     0.010 C 
ENDBRANCH   8  10
ENDBRANCH   7   8
ENDBRANCH   1   7
TORSDOF 4
ENDMDL
MODEL 8
REMARK VINA RESULT:      -4.6     11.184     13.071
REMARK  4 active torsions:
REMARK  status: ('A' for Active; 'I' for Inactive)
REMARK    1  A    between atoms: C2_2  and  C9_9 
REMARK    2  A    between atoms: C2_2  and  C10_10 
REMARK    3  A    between atoms: C3_3  and  C5_5 
REMARK    4  A    between atoms: C3_3  and  C9_9 
ROOT
HETATM    1  C3  UNL     1     -33.461  16.653  -5.038  1.00 20.00     0.135 C 
HETATM    2  O11 UNL     1     -33.563  17.862  -4.870  1.00 20.00    -0.297 OA
ENDROOT
BRANCH   1   3
HETATM    3  C5  UNL     1     -33.816  16.055  -6.358  1.00 20.00     0.060 A 
HETATM    4  C4  UNL     1     -34.587  16.885  -7.332  1.00 20.00     0.017 A 
HETATM    5  C6  UNL     1     -35.261  15.737  -6.629  1.00 20.00    -0.007 A 
HETATM    6  C7  UNL     1     -35.610  14.499  -7.379  1.00 20.00     0.011 C 
ENDBRANCH   1   3
BRANCH   1   7
HETATM    7  C9  UNL     1     -33.026  15.663  -3.974  1.00 20.00     0.111 C 
BRANCH   7   8
HETATM    8  C2  UNL     1     -34.207  14.928  -3.392  1.00 20.00    -0.083 C 
HETATM    9  C1  UNL     1     -34.390  13.618  -3.621  1.00 20.00     0.014 C 
BRANCH   8  10
HETATM   10  C10 UNL     1     -35.180  15.717  -2.548  1.00 20.00     0.029 C 
HETATM   11  C8  UNL     1     -34.505  16.429  -1.384  1.00 20.00     0.010 C 
ENDBRANCH   8  10
ENDBRANCH   7   8
ENDBRANCH   1   7
TORSDOF 4
ENDMDL
MODEL 9
REMARK VINA RESULT:      -4.6     11.407     12.321
REMARK  4 active torsions:
REMARK  status: ('A' for Active; 'I' for Inactive)
REMARK    1  A    between atoms: C2_2  and  C9_9 
REMARK    2  A    between atoms: C2_2  and  C10_10 
REMARK    3  A    between atoms: C3_3  and  C5_5 
REMARK    4  A    between atoms: C3_3  and  C9_9 
ROOT
HETATM    1  C3  UNL     1     -35.196  16.630  -2.877  1.00 20.00     0.135 C 
HETATM    2  O11 UNL     1     -35.507  17.111  -3.959  1.00 20.00    -0.297 OA
ENDROOT
BRANCH   1   3
HETATM    3  C5  UNL     1     -34.937  17.526  -1.713  1.00 20.00     0.060 A 
HETATM    4  C4  UNL     1     -33.559  17.565  -1.138  1.00 20.00     0.017 A 
HETATM    5  C6  UNL     1     -34.670  16.894  -0.375  1.00 20.00    -0.007 A 
HETATM    6  C7  UNL     1     -35.222  17.524   0.856  1.00 20.00     0.011 C 
ENDBRANCH   1   3
BRANCH   1   7
HETATM    7  C9  UNL     1     -35.006  15.148  -2.609  1.00 20.00     0.111 C 
BRANCH   7   8
HETATM    8  C2  UNL     1     -34.057  14.528  -3.602  1.00 20.00    -0.083 C 
HETATM    9  C1  UNL     1     -32.771  14.911  -3.665  1.00 20.00     0.014 C 
BRANCH   8  10
HETATM   10  C10 UNL     1     -34.601  13.466  -4.527  1.00 20.00     0.029 C 
HETATM   11  C8  UNL     1     -34.949  14.010  -5.906  1.00 20.00     0.010 C 
ENDBRANCH   8  10
ENDBRANCH   7   8
ENDBRANCH   1   7
TORSDOF 4
ENDMDL
