MODEL 1
REMARK VINA RESULT:      -4.4      0.000      0.000
REMARK  6 active torsions:
REMARK  status: ('A' for Active; 'I' for Inactive)
REMARK    1  A    between atoms: C4_4  and  C6_6 
REMARK    2  A    between atoms: C4_4  and  C9_9 
REMARK    3  A    between atoms: C5_5  and  O10_10 
REMARK    4  A    between atoms: C6_6  and  O10_10 
REMARK    5  A    between atoms: C7_7  and  C9_9 
REMARK    6  A    between atoms: C8_8  and  C9_9 
ROOT
HETATM    1  C9  UNL     1     -34.014   6.378   4.800  1.00 20.00     0.005 C 
ENDROOT
BRANCH   1   2
HETATM    2  C4  UNL     1     -32.587   6.519   4.211  1.00 20.00     0.032 C 
BRANCH   2   3
HETATM    3  C6  UNL     1     -32.541   6.829   2.718  1.00 20.00     0.168 C 
BRANCH   3   4
HETATM    4  O10 UNL     1     -31.663   7.929   2.509  1.00 20.00    -0.391 OA
BRANCH   4   5
HETATM    5  C5  UNL     1     -31.910   8.559   1.259  1.00 20.00     0.163 C 
HETATM    6  C1  UNL     1     -32.557   9.906   1.506  1.00 20.00     0.033 C 
ENDBRANCH   4   5
ENDBRANCH   3   4
ENDBRANCH   2   3
ENDBRANCH   1   2
BRANCH   1   7
HETATM    7  C7  UNL     1     -34.012   6.269   6.341  1.00 20.00     0.119 C 
HETATM    8 CL11 UNL     1     -33.245   7.660   7.143  1.00 20.00    -0.130 Cl
ENDBRANCH   1   7
BRANCH   1   9
HETATM    9  C8  UNL     1     -34.799   5.208   4.117  1.00 20.00    -0.017 C 
HETATM   10  C2  UNL     1     -35.110   4.067   5.097  1.00 20.00     0.010 C 
HETATM   11  C3  UNL     1     -36.119   5.676   3.491  1.00 20.00     0.010 C 
ENDBRANCH   1   9
TORSDOF 6
ENDMDL
MODEL 2
REMARK VINA RESULT:      -4.4      1.821      2.439
REMARK  6 active torsions:
REMARK  status: ('A' for Active; 'I' for Inactive)
REMARK    1  A    between atoms: C4_4  and  C6_6 
REMARK    2  A    between atoms: C4_4  and  C9_9 
REMARK    3  A    between atoms: C5_5  and  O10_10 
REMARK    4  A    between atoms: C6_6  and  O10_10 
REMARK    5  A    between atoms: C7_7  and  C9_9 
REMARK    6  A    between atoms: C8_8  and  C9_9 
ROOT
HETATM    1  C9  UNL     1     -33.560   5.723   4.261  1.00 20.00     0.005 C 
ENDROOT
BRANCH   1   2
HETATM    2  C4  UNL     1     -32.581   6.889   3.972  1.00 20.00     0.032 C 
BRANCH   2   3
HETATM    3  C6  UNL     1     -32.434   7.249   2.497  1.00 20.00     0.168 C 
BRANCH   3   4
HETATM    4  O10 UNL     1     -31.727   8.480   2.397  1.00 20.00    -0.391 OA
BRANCH   4   5
HETATM    5  C5  UNL     1     -32.477   9.453   1.685  1.00 20.00     0.163 C 
HETATM    6  C1  UNL     1     -32.427   9.129   0.206  1.00 20.00     0.033 C 
ENDBRANCH   4   5
ENDBRANCH   3   4
ENDBRANCH   2   3
ENDBRANCH   1   2
BRANCH   1   7
HETATM    7  C7  UNL     1     -34.481   5.409   3.062  1.00 20.00     0.119 C 
HETATM    8 CL11 UNL     1     -36.187   5.821   3.358  1.00 20.00    -0.130 Cl
ENDBRANCH   1   7
BRANCH   1   9
HETATM    9  C8  UNL     1     -34.360   5.965   5.585  1.00 20.00    -0.017 C 
HETATM   10  C2  UNL     1     -34.648   4.657   6.337  1.00 20.00     0.010 C 
HETATM   11  C3  UNL     1     -33.632   6.918   6.542  1.00 20.00     0.010 C 
ENDBRANCH   1   9
TORSDOF 6
ENDMDL
MODEL 3
REMARK VINA RESULT:      -4.2     11.037     12.423
REMARK  6 active torsions:
REMARK  status: ('A' for Active; 'I' for Inactive)
REMARK    1  A    between atoms: C4_4  and  C6_6 
REMARK    2  A    between atoms: C4_4  and  C9_9 
REMARK    3  A    between atoms: C5_5  and  O10_10 
REMARK    4  A    between atoms: C6_6  and  O10_10 
REMARK    5  A    between atoms: C7_7  and  C9_9 
REMARK    6  A    between atoms: C8_8  and  C9_9 
ROOT
HETATM    1  C9  UNL     1     -34.222  16.226  -3.413  1.00 20.00     0.005 C 
ENDROOT
BRANCH   1   2
HETATM    2  C4  UNL     1     -33.224  16.369  -4.590  1.00 20.00     0.032 C 
BRANCH   2   3
HETATM    3  C6  UNL     1     -33.733  17.203  -5.761  1.00 20.00     0.168 C 
BRANCH   3   4
HETATM    4  O10 UNL     1     -34.777  16.487  -6.410  1.00 20.00    -0.391 OA
BRANCH   4   5
HETATM    5  C5  UNL     1     -34.278  15.346  -7.093  1.00 20.00     0.163 C 
HETATM    6  C1  UNL     1     -35.442  14.471  -7.507  1.00 20.00     0.033 C 
ENDBRANCH   4   5
ENDBRANCH   3   4
ENDBRANCH   2   3
ENDBRANCH   1   2
BRANCH   1   7
HETATM    7  C7  UNL     1     -33.701  16.871  -2.110  1.00 20.00     0.119 C 
HETATM    8 CL11 UNL     1     -34.718  16.518  -0.693  1.00 20.00    -0.130 Cl
ENDBRANCH   1   7
BRANCH   1   9
HETATM    9  C8  UNL     1     -34.657  14.735  -3.212  1.00 20.00    -0.017 C 
HETATM   10  C2  UNL     1     -36.042  14.448  -3.810  1.00 20.00     0.010 C 
HETATM   11  C3  UNL     1     -33.656  13.747  -3.823  1.00 20.00     0.010 C 
ENDBRANCH   1   9
TORSDOF 6
ENDMDL
MODEL 4
REMARK VINA RESULT:      -4.1     10.697     12.327
REMARK  6 active torsions:
REMARK  status: ('A' for Active; 'I' for Inactive)
REMARK    1  A    between atoms: C4_4  and  C6_6 
REMARK    2  A    between atoms: C4_4  and  C9_9 
REMARK    3  A    between atoms: C5_5  and  O10_10 
REMARK    4  A    between atoms: C6_6  and  O10_10 
REMARK    5  A    between atoms: C7_7  and  C9_9 
REMARK    6  A    between atoms: C8_8  and  C9_9 
ROOT
HETATM    1  C9  UNL     1     -33.649  16.331  -2.968  1.00 20.00     0.005 C 
ENDROOT
BRANCH   1   2
HETATM    2  C4  UNL     1     -33.029  15.093  -3.663  1.00 20.00     0.032 C 
BRANCH   2   3
HETATM    3  C6  UNL     1     -33.905  13.844  -3.644  1.00 20.00     0.168 C 
BRANCH   3   4
HETATM    4  O10 UNL     1     -34.136  13.429  -4.985  1.00 20.00    -0.391 OA
BRANCH   4   5
HETATM    5  C5  UNL     1     -35.353  13.961  -5.490  1.00 20.00     0.163 C 
HETATM    6  C1  UNL     1     -35.124  14.458  -6.902  1.00 20.00     0.033 C 
ENDBRANCH   4   5
ENDBRANCH   3   4
ENDBRANCH   2   3
ENDBRANCH   1   2
BRANCH   1   7
HETATM    7  C7  UNL     1     -34.811  15.961  -2.020  1.00 20.00     0.119 C 
HETATM    8 CL11 UNL     1     -34.699  16.749  -0.428  1.00 20.00    -0.130 Cl
ENDBRANCH   1   7
BRANCH   1   9
HETATM    9  C8  UNL     1     -34.051  17.428  -4.010  1.00 20.00    -0.017 C 
HETATM   10  C2  UNL     1     -33.383  17.206  -5.375  1.00 20.00     0.010 C 
HETATM   11  C3  UNL     1     -35.568  17.503  -4.226  1.00 20.00     0.010 C 
ENDBRANCH   1   9
TORSDOF 6
ENDMDL
MODEL 5
REMARK VINA RESULT:      -4.1     11.500     12.600
REMARK  6 active torsions:
REMARK  status: ('A' for Active; 'I' for Inactive)
REMARK    1  A    between atoms: C4_4  and  C6_6 
REMARK    2  A    between atoms: C4_4  and  C9_9 
REMARK    3  A    between atoms: C5_5  and  O10_10 
REMARK    4  A    between atoms: C6_6  and  O10_10 
REMARK    5  A    between atoms: C7_7  and  C9_9 
REMARK    6  A    between atoms: C8_8  and  C9_9 
ROOT
HETATM    1  C9  UNL     1     -33.550  16.133  -3.002  1.00 20.00     0.005 C 
ENDROOT
BRANCH   1   2
HETATM    2  C4  UNL     1     -33.659  17.289  -4.028  1.00 20.00     0.032 C 
BRANCH   2   3
HETATM    3  C6  UNL     1     -33.501  16.868  -5.485  1.00 20.00     0.168 C 
BRANCH   3   4
HETATM    4  O10 UNL     1     -34.723  17.123  -6.168  1.00 20.00    -0.391 OA
BRANCH   4   5
HETATM    5  C5  UNL     1     -35.418  15.919  -6.455  1.00 20.00     0.163 C 
HETATM    6  C1  UNL     1     -34.477  14.961  -7.155  1.00 20.00     0.033 C 
ENDBRANCH   4   5
ENDBRANCH   3   4
ENDBRANCH   2   3
ENDBRANCH   1   2
BRANCH   1   7
HETATM    7  C7  UNL     1     -33.173  14.788  -3.661  1.00 20.00     0.119 C 
HETATM    8 CL11 UNL     1     -34.510  13.614  -3.679  1.00 20.00    -0.130 Cl
ENDBRANCH   1   7
BRANCH   1   9
HETATM    9  C8  UNL     1     -34.840  16.029  -2.121  1.00 20.00    -0.017 C 
HETATM   10  C2  UNL     1     -34.642  16.640  -0.726  1.00 20.00     0.010 C 
HETATM   11  C3  UNL     1     -36.051  16.707  -2.774  1.00 20.00     0.010 C 
ENDBRANCH   1   9
TORSDOF 6
ENDMDL
MODEL 6
REMARK VINA RESULT:      -4.0     11.290     12.162
REMARK  6 active torsions:
REMARK  status: ('A' for Active; 'I' for Inactive)
REMARK    1  A    between atoms: C4_4  and  C6_6 
REMARK    2  A    between atoms: C4_4  and  C9_9 
REMARK    3  A    between atoms: C5_5  and  O10_10 
REMARK    4  A    between atoms: C6_6  and  O10_10 
REMARK    5  A    between atoms: C7_7  and  C9_9 
REMARK    6  A    between atoms: C8_8  and  C9_9 
ROOT
HETATM    1  C9  UNL     1     -34.729  15.849  -2.315  1.00 20.00     0.005 C 
ENDROOT
BRANCH   1   2
HETATM    2  C4  UNL     1     -35.981  16.214  -3.153  1.00 20.00     0.032 C 
BRANCH   2   3
HETATM    3  C6  UNL     1     -36.858  15.028  -3.540  1.00 20.00     0.168 C 
BRANCH   3   4
HETATM    4  O10 UNL     1     -36.187  14.274  -4.543  1.00 20.00    -0.391 OA
BRANCH   4   5
HETATM    5  C5  UNL     1     -36.245  14.923  -5.805  1.00 20.00     0.163 C 
HETATM    6  C1  UNL     1     -35.079  14.457  -6.652  1.00 20.00     0.033 C 
ENDBRANCH   4   5
ENDBRANCH   3   4
ENDBRANCH   2   3
ENDBRANCH   1   2
BRANCH   1   7
HETATM    7  C7  UNL     1     -34.710  16.551  -0.939  1.00 20.00     0.119 C 
HETATM    8 CL11 UNL     1     -33.379  17.719  -0.763  1.00 20.00    -0.130 Cl
ENDBRANCH   1   7
BRANCH   1   9
HETATM    9  C8  UNL     1     -33.411  16.085  -3.127  1.00 20.00    -0.017 C 
HETATM   10  C2  UNL     1     -32.811  14.774  -3.654  1.00 20.00     0.010 C 
HETATM   11  C3  UNL     1     -33.619  17.030  -4.318  1.00 20.00     0.010 C 
ENDBRANCH   1   9
TORSDOF 6
ENDMDL
MODEL 7
REMARK VINA RESULT:      -4.0     11.203     11.902
REMARK  6 active torsions:
REMARK  status: ('A' for Active; 'I' for Inactive)
REMARK    1  A    between atoms: C4_4  and  C6_6 
REMARK    2  A    between atoms: C4_4  and  C9_9 
REMARK    3  A    between atoms: C5_5  and  O10_10 
REMARK    4  A    between atoms: C6_6  and  O10_10 
REMARK    5  A    between atoms: C7_7  and  C9_9 
REMARK    6  A    between atoms: C8_8  and  C9_9 
ROOT
HETATM    1  C9  UNL     1     -34.866  16.059  -2.088  1.00 20.00     0.005 C 
ENDROOT
BRANCH   1   2
HETATM    2  C4  UNL     1     -33.507  15.981  -2.829  1.00 20.00     0.032 C 
BRANCH   2   3
HETATM    3  C6  UNL     1     -33.542  15.218  -4.149  1.00 20.00     0.168 C 
BRANCH   3   4
HETATM    4  O10 UNL     1     -33.744  13.837  -3.872  1.00 20.00    -0.391 OA
BRANCH   4   5
HETATM    5  C5  UNL     1     -34.565  13.224  -4.856  1.00 20.00     0.163 C 
HETATM    6  C1  UNL     1     -34.820  14.216  -5.972  1.00 20.00     0.033 C 
ENDBRANCH   4   5
ENDBRANCH   3   4
ENDBRANCH   2   3
ENDBRANCH   1   2
BRANCH   1   7
HETATM    7  C7  UNL     1     -36.024  16.488  -3.015  1.00 20.00     0.119 C 
HETATM    8 CL11 UNL     1     -37.171  15.173  -3.365  1.00 20.00    -0.130 Cl
ENDBRANCH   1   7
BRANCH   1   9
HETATM    9  C8  UNL     1     -34.765  16.949  -0.804  1.00 20.00    -0.017 C 
HETATM   10  C2  UNL     1     -33.449  17.739  -0.747  1.00 20.00     0.010 C 
HETATM   11  C3  UNL     1     -35.926  17.944  -0.688  1.00 20.00     0.010 C 
ENDBRANCH   1   9
TORSDOF 6
ENDMDL
MODEL 8
REMARK VINA RESULT:      -3.9     11.219     12.184
REMARK  6 active torsions:
REMARK  status: ('A' for Active; 'I' for Inactive)
REMARK    1  A    between atoms: C4_4  and  C6_6 
REMARK    2  A    between atoms: C4_4  and  C9_9 
REMARK    3  A    between atoms: C5_5  and  O10_10 
REMARK    4  A    between atoms: C6_6  and  O10_10 
REMARK    5  A    between atoms: C7_7  and  C9_9 
REMARK    6  A    between atoms: C8_8  and  C9_9 
ROOT
HETATM    1  C9  UNL     1     -34.123  15.967  -2.856  1.00 20.00     0.005 C 
ENDROOT
BRANCH   1   2
HETATM    2  C4  UNL     1     -34.512  16.411  -1.423  1.00 20.00     0.032 C 
BRANCH   2   3
HETATM    3  C6  UNL     1     -33.699  17.578  -0.872  1.00 20.00     0.168 C 
BRANCH   3   4
HETATM    4  O10 UNL     1     -34.086  17.805   0.478  1.00 20.00    -0.391 OA
BRANCH   4   5
HETATM    5  C5  UNL     1     -33.293  18.817   1.083  1.00 20.00     0.163 C 
HETATM    6  C1  UNL     1     -32.007  18.969   0.298  1.00 20.00     0.033 C 
ENDBRANCH   4   5
ENDBRANCH   3   4
ENDBRANCH   2   3
ENDBRANCH   1   2
BRANCH   1   7
HETATM    7  C7  UNL     1     -34.582  16.973  -3.934  1.00 20.00     0.119 C 
HETATM    8 CL11 UNL     1     -33.392  17.199  -5.238  1.00 20.00    -0.130 Cl
ENDBRANCH   1   7
BRANCH   1   9
HETATM    9  C8  UNL     1     -34.606  14.508  -3.152  1.00 20.00    -0.017 C 
HETATM   10  C2  UNL     1     -35.893  14.480  -3.989  1.00 20.00     0.010 C 
HETATM   11  C3  UNL     1     -33.542  13.676  -3.880  1.00 20.00     0.010 C 
ENDBRANCH   1   9
TORSDOF 6
ENDMDL
MODEL 9
REMARK VINA RESULT:      -3.9     11.465     12.881
REMARK  6 active torsions:
REMARK  status: ('A' for Active; 'I' for Inactive)
REMARK    1  A    between atoms: C4_4  and  C6_6 
REMARK    2  A    between atoms: C4_4  and  C9_9 
REMARK    3  A    between atoms: C5_5  and  O10_10 
REMARK    4  A    between atoms: C6_6  and  O10_10 
REMARK    5  A    between atoms: C7_7  and  C9_9 
REMARK    6  A    between atoms: C8_8  and  C9_9 
ROOT
HETATM    1  C9  UNL     1     -34.127  15.127  -5.812  1.00 20.00     0.005 C 
ENDROOT
BRANCH   1   2
HETATM    2  C4  UNL     1     -33.451  16.282  -5.031  1.00 20.00     0.032 C 
BRANCH   2   3
HETATM    3  C6  UNL     1     -34.340  17.498  -4.791  1.00 20.00     0.168 C 
BRANCH   3   4
HETATM    4  O10 UNL     1     -34.960  17.364  -3.518  1.00 20.00    -0.391 OA
BRANCH   4   5
HETATM    5  C5  UNL     1     -33.997  17.210  -2.485  1.00 20.00     0.163 C 
HETATM    6  C1  UNL     1     -34.604  16.394  -1.363  1.00 20.00     0.033 C 
ENDBRANCH   4   5
ENDBRANCH   3   4
ENDBRANCH   2   3
ENDBRANCH   1   2
BRANCH   1   7
HETATM    7  C7  UNL     1     -35.371  15.591  -6.600  1.00 20.00     0.119 C 
HETATM    8 CL11 UNL     1     -35.824  14.482  -7.916  1.00 20.00    -0.130 Cl
ENDBRANCH   1   7
BRANCH   1   9
HETATM    9  C8  UNL     1     -34.428  13.907  -4.877  1.00 20.00    -0.017 C 
HETATM   10  C2  UNL     1     -33.378  13.751  -3.768  1.00 20.00     0.010 C 
HETATM   11  C3  UNL     1     -35.810  14.003  -4.218  1.00 20.00     0.010 C 
ENDBRANCH   1   9
TORSDOF 6
ENDMDL
