MODEL 1
REMARK VINA RESULT:      -4.0      0.000      0.000
REMARK  2 active torsions:
REMARK  status: ('A' for Active; 'I' for Inactive)
REMARK    1  A    between atoms: C5_5  and  O9_9 
REMARK    2  A    between atoms: C7_7  and  O9_9 
ROOT
HETATM    1  C1  UNL     1     -33.746  16.000  -4.429  1.00 20.00     0.098 C 
HETATM    2  C2  UNL     1     -34.765  13.208  -4.873  1.00 20.00     0.008 C 
HETATM    3  C3  UNL     1     -35.703  14.414  -4.692  1.00 20.00     0.054 C 
HETATM    4  C4  UNL     1     -34.046  13.633  -3.579  1.00 20.00     0.054 C 
HETATM    5  C5  UNL     1     -34.631  15.062  -3.769  1.00 20.00     0.148 C 
HETATM    6  N8  UNL     1     -33.037  16.752  -4.957  1.00 20.00    -0.194 NA
ENDROOT
BRANCH   5   7
HETATM    7  O9  UNL     1     -35.141  15.685  -2.573  1.00 20.00    -0.366 OA
BRANCH   7   8
HETATM    8  C7  UNL     1     -34.138  16.458  -1.947  1.00 20.00     0.165 C 
HETATM    9  C6  UNL     1     -34.604  16.836  -0.556  1.00 20.00     0.033 C 
ENDBRANCH   7   8
ENDBRANCH   5   7
TORSDOF 2
ENDMDL
MODEL 2
REMARK VINA RESULT:      -4.0      2.139      2.562
REMARK  2 active torsions:
REMARK  status: ('A' for Active; 'I' for Inactive)
REMARK    1  A    between atoms: C5_5  and  O9_9 
REMARK    2  A    between atoms: C7_7  and  O9_9 
ROOT
HETATM    1  C1  UNL     1     -36.747  14.481  -3.939  1.00 20.00     0.098 C 
HETATM    2  C2  UNL     1     -34.881  14.217  -6.280  1.00 20.00     0.008 C 
HETATM    3  C3  UNL     1     -34.683  13.434  -4.970  1.00 20.00     0.054 C 
HETATM    4  C4  UNL     1     -34.982  15.503  -5.441  1.00 20.00     0.054 C 
HETATM    5  C5  UNL     1     -35.330  14.625  -4.206  1.00 20.00     0.148 C 
HETATM    6  N8  UNL     1     -37.882  14.366  -3.726  1.00 20.00    -0.194 NA
ENDROOT
BRANCH   5   7
HETATM    7  O9  UNL     1     -34.675  14.999  -2.977  1.00 20.00    -0.366 OA
BRANCH   7   8
HETATM    8  C7  UNL     1     -35.340  16.086  -2.368  1.00 20.00     0.165 C 
HETATM    9  C6  UNL     1     -34.553  16.526  -1.150  1.00 20.00     0.033 C 
ENDBRANCH   7   8
ENDBRANCH   5   7
TORSDOF 2
ENDMDL
MODEL 3
REMARK VINA RESULT:      -3.9     12.080     12.938
REMARK  2 active torsions:
REMARK  status: ('A' for Active; 'I' for Inactive)
REMARK    1  A    between atoms: C5_5  and  O9_9 
REMARK    2  A    between atoms: C7_7  and  O9_9 
ROOT
HETATM    1  C1  UNL     1     -35.409   5.654   3.875  1.00 20.00     0.098 C 
HETATM    2  C2  UNL     1     -35.104   4.650   6.691  1.00 20.00     0.008 C 
HETATM    3  C3  UNL     1     -34.419   5.934   6.190  1.00 20.00     0.054 C 
HETATM    4  C4  UNL     1     -34.506   3.914   5.479  1.00 20.00     0.054 C 
HETATM    5  C5  UNL     1     -34.334   5.290   4.776  1.00 20.00     0.148 C 
HETATM    6  N8  UNL     1     -36.270   5.944   3.153  1.00 20.00    -0.194 NA
ENDROOT
BRANCH   5   7
HETATM    7  O9  UNL     1     -33.082   5.479   4.086  1.00 20.00    -0.366 OA
BRANCH   7   8
HETATM    8  C7  UNL     1     -33.152   6.594   3.221  1.00 20.00     0.165 C 
HETATM    9  C6  UNL     1     -31.832   7.336   3.266  1.00 20.00     0.033 C 
ENDBRANCH   7   8
ENDBRANCH   5   7
TORSDOF 2
ENDMDL
MODEL 4
REMARK VINA RESULT:      -3.8      2.323      3.874
REMARK  2 active torsions:
REMARK  status: ('A' for Active; 'I' for Inactive)
REMARK    1  A    between atoms: C5_5  and  O9_9 
REMARK    2  A    between atoms: C7_7  and  O9_9 
ROOT
HETATM    1  C1  UNL     1     -34.927  13.906  -4.203  1.00 20.00     0.098 C 
HETATM    2  C2  UNL     1     -34.621  15.960  -2.031  1.00 20.00     0.008 C 
HETATM    3  C3  UNL     1     -35.817  15.949  -2.998  1.00 20.00     0.054 C 
HETATM    4  C4  UNL     1     -33.690  15.903  -3.256  1.00 20.00     0.054 C 
HETATM    5  C5  UNL     1     -34.882  15.350  -4.088  1.00 20.00     0.148 C 
HETATM    6  N8  UNL     1     -34.964  12.750  -4.296  1.00 20.00    -0.194 NA
ENDROOT
BRANCH   5   7
HETATM    7  O9  UNL     1     -35.030  15.914  -5.406  1.00 20.00    -0.366 OA
BRANCH   7   8
HETATM    8  C7  UNL     1     -34.248  15.203  -6.344  1.00 20.00     0.165 C 
HETATM    9  C6  UNL     1     -34.990  15.145  -7.662  1.00 20.00     0.033 C 
ENDBRANCH   7   8
ENDBRANCH   5   7
TORSDOF 2
ENDMDL
MODEL 5
REMARK VINA RESULT:      -3.8      2.125      2.744
REMARK  2 active torsions:
REMARK  status: ('A' for Active; 'I' for Inactive)
REMARK    1  A    between atoms: C5_5  and  O9_9 
REMARK    2  A    between atoms: C7_7  and  O9_9 
ROOT
HETATM    1  C1  UNL     1     -34.915  13.815  -4.841  1.00 20.00     0.098 C 
HETATM    2  C2  UNL     1     -34.932  15.487  -7.338  1.00 20.00     0.008 C 
HETATM    3  C3  UNL     1     -33.966  15.752  -6.170  1.00 20.00     0.054 C 
HETATM    4  C4  UNL     1     -36.089  15.501  -6.323  1.00 20.00     0.054 C 
HETATM    5  C5  UNL     1     -35.055  15.213  -5.198  1.00 20.00     0.148 C 
HETATM    6  N8  UNL     1     -34.803  12.696  -4.555  1.00 20.00    -0.194 NA
ENDROOT
BRANCH   5   7
HETATM    7  O9  UNL     1     -35.232  15.974  -3.986  1.00 20.00    -0.366 OA
BRANCH   7   8
HETATM    8  C7  UNL     1     -34.551  15.365  -2.909  1.00 20.00     0.165 C 
HETATM    9  C6  UNL     1     -34.674  16.247  -1.685  1.00 20.00     0.033 C 
ENDBRANCH   7   8
ENDBRANCH   5   7
TORSDOF 2
ENDMDL
MODEL 6
REMARK VINA RESULT:      -3.7      1.933      2.877
REMARK  2 active torsions:
REMARK  status: ('A' for Active; 'I' for Inactive)
REMARK    1  A    between atoms: C5_5  and  O9_9 
REMARK    2  A    between atoms: C7_7  and  O9_9 
ROOT
HETATM    1  C1  UNL     1     -34.377  15.756  -2.590  1.00 20.00     0.098 C 
HETATM    2  C2  UNL     1     -34.968  13.322  -4.251  1.00 20.00     0.008 C 
HETATM    3  C3  UNL     1     -33.538  13.731  -3.860  1.00 20.00     0.054 C 
HETATM    4  C4  UNL     1     -35.185  14.755  -4.771  1.00 20.00     0.054 C 
HETATM    5  C5  UNL     1     -33.997  15.217  -3.880  1.00 20.00     0.148 C 
HETATM    6  N8  UNL     1     -34.681  16.187  -1.556  1.00 20.00    -0.194 NA
ENDROOT
BRANCH   5   7
HETATM    7  O9  UNL     1     -33.080  16.139  -4.503  1.00 20.00    -0.366 OA
BRANCH   7   8
HETATM    8  C7  UNL     1     -33.560  17.464  -4.404  1.00 20.00     0.165 C 
HETATM    9  C6  UNL     1     -33.667  18.055  -5.794  1.00 20.00     0.033 C 
ENDBRANCH   7   8
ENDBRANCH   5   7
TORSDOF 2
ENDMDL
MODEL 7
REMARK VINA RESULT:      -3.7     12.503     13.809
REMARK  2 active torsions:
REMARK  status: ('A' for Active; 'I' for Inactive)
REMARK    1  A    between atoms: C5_5  and  O9_9 
REMARK    2  A    between atoms: C7_7  and  O9_9 
ROOT
HETATM    1  C1  UNL     1     -42.540   5.376  -2.700  1.00 20.00     0.098 C 
HETATM    2  C2  UNL     1     -41.941   5.653   0.232  1.00 20.00     0.008 C 
HETATM    3  C3  UNL     1     -40.837   5.589  -0.837  1.00 20.00     0.054 C 
HETATM    4  C4  UNL     1     -42.537   4.370  -0.376  1.00 20.00     0.054 C 
HETATM    5  C5  UNL     1     -41.767   4.680  -1.690  1.00 20.00     0.148 C 
HETATM    6  N8  UNL     1     -43.159   5.932  -3.509  1.00 20.00    -0.194 NA
ENDROOT
BRANCH   5   7
HETATM    7  O9  UNL     1     -41.124   3.549  -2.312  1.00 20.00    -0.366 OA
BRANCH   7   8
HETATM    8  C7  UNL     1     -42.051   2.806  -3.075  1.00 20.00     0.165 C 
HETATM    9  C6  UNL     1     -41.303   1.763  -3.880  1.00 20.00     0.033 C 
ENDBRANCH   7   8
ENDBRANCH   5   7
TORSDOF 2
ENDMDL
MODEL 8
REMARK VINA RESULT:      -3.7      2.565      4.104
REMARK  2 active torsions:
REMARK  status: ('A' for Active; 'I' for Inactive)
REMARK    1  A    between atoms: C5_5  and  O9_9 
REMARK    2  A    between atoms: C7_7  and  O9_9 
ROOT
HETATM    1  C1  UNL     1     -36.311  14.429  -4.130  1.00 20.00     0.098 C 
HETATM    2  C2  UNL     1     -33.791  15.588  -2.973  1.00 20.00     0.008 C 
HETATM    3  C3  UNL     1     -34.340  16.006  -4.348  1.00 20.00     0.054 C 
HETATM    4  C4  UNL     1     -33.896  14.121  -3.430  1.00 20.00     0.054 C 
HETATM    5  C5  UNL     1     -34.920  14.572  -4.511  1.00 20.00     0.148 C 
HETATM    6  N8  UNL     1     -37.425  14.315  -3.825  1.00 20.00    -0.194 NA
ENDROOT
BRANCH   5   7
HETATM    7  O9  UNL     1     -34.744  13.979  -5.813  1.00 20.00    -0.366 OA
BRANCH   7   8
HETATM    8  C7  UNL     1     -35.687  14.496  -6.729  1.00 20.00     0.165 C 
HETATM    9  C6  UNL     1     -34.952  15.080  -7.917  1.00 20.00     0.033 C 
ENDBRANCH   7   8
ENDBRANCH   5   7
TORSDOF 2
ENDMDL
MODEL 9
REMARK VINA RESULT:      -3.6      2.099      3.170
REMARK  2 active torsions:
REMARK  status: ('A' for Active; 'I' for Inactive)
REMARK    1  A    between atoms: C5_5  and  O9_9 
REMARK    2  A    between atoms: C7_7  and  O9_9 
ROOT
HETATM    1  C1  UNL     1     -35.842  15.407  -5.255  1.00 20.00     0.098 C 
HETATM    2  C2  UNL     1     -33.639  13.869  -3.906  1.00 20.00     0.008 C 
HETATM    3  C3  UNL     1     -34.789  13.180  -4.662  1.00 20.00     0.054 C 
HETATM    4  C4  UNL     1     -34.696  14.666  -3.121  1.00 20.00     0.054 C 
HETATM    5  C5  UNL     1     -35.714  14.363  -4.257  1.00 20.00     0.148 C 
HETATM    6  N8  UNL     1     -35.944  16.242  -6.054  1.00 20.00    -0.194 NA
ENDROOT
BRANCH   5   7
HETATM    7  O9  UNL     1     -37.036  13.992  -3.819  1.00 20.00    -0.366 OA
BRANCH   7   8
HETATM    8  C7  UNL     1     -37.880  15.124  -3.762  1.00 20.00     0.165 C 
HETATM    9  C6  UNL     1     -39.279  14.717  -4.176  1.00 20.00     0.033 C 
ENDBRANCH   7   8
ENDBRANCH   5   7
TORSDOF 2
ENDMDL
