MODEL 1
REMARK VINA RESULT:      -4.3      0.000      0.000
REMARK  3 active torsions:
REMARK  status: ('A' for Active; 'I' for Inactive)
REMARK    1  A    between atoms: C6_6  and  C8_8 
REMARK    2  A    between atoms: C7_7  and  C8_8 
REMARK    3  A    between atoms: C7_7  and  C9_9 
ROOT
HETATM    1  C8  UNL     1     -35.018  15.396  -2.504  1.00 20.00     0.042 C 
ENDROOT
BRANCH   1   2
HETATM    2  C6  UNL     1     -33.969  15.226  -3.594  1.00 20.00     0.122 C 
HETATM    3  C2  UNL     1     -33.505  13.786  -3.753  1.00 20.00     0.034 C 
HETATM    4  C1  UNL     1     -34.434  13.252  -4.815  1.00 20.00     0.029 C 
HETATM    5  C5  UNL     1     -34.618  14.461  -5.703  1.00 20.00     0.168 C 
HETATM    6  O10 UNL     1     -34.556  15.612  -4.849  1.00 20.00    -0.386 OA
ENDBRANCH   1   2
BRANCH   1   7
HETATM    7  C7  UNL     1     -34.975  16.761  -1.888  1.00 20.00    -0.025 A 
HETATM    8  C3  UNL     1     -34.708  16.859  -0.404  1.00 20.00     0.011 A 
HETATM    9  C4  UNL     1     -33.644  17.268  -1.384  1.00 20.00     0.011 A 
BRANCH   7  10
HETATM   10  C9  UNL     1     -35.922  17.754  -2.503  1.00 20.00     0.124 C 
HETATM   11 CL11 UNL     1     -37.356  16.933  -3.167  1.00 20.00    -0.130 Cl
ENDBRANCH   7  10
ENDBRANCH   1   7
TORSDOF 3
ENDMDL
MODEL 2
REMARK VINA RESULT:      -4.2      1.702      1.814
REMARK  3 active torsions:
REMARK  status: ('A' for Active; 'I' for Inactive)
REMARK    1  A    between atoms: C6_6  and  C8_8 
REMARK    2  A    between atoms: C7_7  and  C8_8 
REMARK    3  A    between atoms: C7_7  and  C9_9 
ROOT
HETATM    1  C8  UNL     1     -34.727  15.944  -1.817  1.00 20.00     0.042 C 
ENDROOT
BRANCH   1   2
HETATM    2  C6  UNL     1     -34.653  15.709  -3.320  1.00 20.00     0.122 C 
HETATM    3  C2  UNL     1     -33.278  15.250  -3.782  1.00 20.00     0.034 C 
HETATM    4  C1  UNL     1     -33.395  13.747  -3.736  1.00 20.00     0.029 C 
HETATM    5  C5  UNL     1     -34.832  13.534  -4.153  1.00 20.00     0.168 C 
HETATM    6  O10 UNL     1     -35.574  14.658  -3.658  1.00 20.00    -0.386 OA
ENDBRANCH   1   2
BRANCH   1   7
HETATM    7  C7  UNL     1     -34.570  17.391  -1.465  1.00 20.00    -0.025 A 
HETATM    8  C3  UNL     1     -34.786  17.796  -0.025  1.00 20.00     0.011 A 
HETATM    9  C4  UNL     1     -33.397  17.785  -0.599  1.00 20.00     0.011 A 
BRANCH   7  10
HETATM   10  C9  UNL     1     -35.006  18.348  -2.540  1.00 20.00     0.124 C 
HETATM   11 CL11 UNL     1     -33.609  19.226  -3.209  1.00 20.00    -0.130 Cl
ENDBRANCH   7  10
ENDBRANCH   1   7
TORSDOF 3
ENDMDL
MODEL 3
REMARK VINA RESULT:      -4.1      2.928      4.779
REMARK  3 active torsions:
REMARK  status: ('A' for Active; 'I' for Inactive)
REMARK    1  A    between atoms: C6_6  and  C8_8 
REMARK    2  A    between atoms: C7_7  and  C8_8 
REMARK    3  A    between atoms: C7_7  and  C9_9 
ROOT
HETATM    1  C8  UNL     1     -36.484  14.810  -5.444  1.00 20.00     0.042 C 
ENDROOT
BRANCH   1   2
HETATM    2  C6  UNL     1     -36.842  14.755  -3.965  1.00 20.00     0.122 C 
HETATM    3  C2  UNL     1     -36.829  16.123  -3.300  1.00 20.00     0.034 C 
HETATM    4  C1  UNL     1     -38.261  16.576  -3.443  1.00 20.00     0.029 C 
HETATM    5  C5  UNL     1     -39.015  15.276  -3.288  1.00 20.00     0.168 C 
HETATM    6  O10 UNL     1     -38.182  14.249  -3.843  1.00 20.00    -0.386 OA
ENDBRANCH   1   2
BRANCH   1   7
HETATM    7  C7  UNL     1     -35.035  14.519  -5.685  1.00 20.00    -0.025 A 
HETATM    8  C3  UNL     1     -34.462  14.853  -7.042  1.00 20.00     0.011 A 
HETATM    9  C4  UNL     1     -34.095  15.690  -5.849  1.00 20.00     0.011 A 
BRANCH   7  10
HETATM   10  C9  UNL     1     -34.518  13.293  -4.983  1.00 20.00     0.124 C 
HETATM   11 CL11 UNL     1     -33.301  13.731  -3.759  1.00 20.00    -0.130 Cl
ENDBRANCH   7  10
ENDBRANCH   1   7
TORSDOF 3
ENDMDL
MODEL 4
REMARK VINA RESULT:      -4.0      1.645      4.154
REMARK  3 active torsions:
REMARK  status: ('A' for Active; 'I' for Inactive)
REMARK    1  A    between atoms: C6_6  and  C8_8 
REMARK    2  A    between atoms: C7_7  and  C8_8 
REMARK    3  A    between atoms: C7_7  and  C9_9 
ROOT
HETATM    1  C8  UNL     1     -33.672  15.503  -3.182  1.00 20.00     0.042 C 
ENDROOT
BRANCH   1   2
HETATM    2  C6  UNL     1     -34.604  16.571  -2.623  1.00 20.00     0.122 C 
HETATM    3  C2  UNL     1     -34.633  16.597  -1.103  1.00 20.00     0.034 C 
HETATM    4  C1  UNL     1     -33.566  17.610  -0.767  1.00 20.00     0.029 C 
HETATM    5  C5  UNL     1     -33.716  18.604  -1.895  1.00 20.00     0.168 C 
HETATM    6  O10 UNL     1     -34.123  17.857  -3.050  1.00 20.00    -0.386 OA
ENDBRANCH   1   2
BRANCH   1   7
HETATM    7  C7  UNL     1     -34.269  14.793  -4.358  1.00 20.00    -0.025 A 
HETATM    8  C3  UNL     1     -34.135  13.290  -4.419  1.00 20.00     0.011 A 
HETATM    9  C4  UNL     1     -35.470  13.909  -4.116  1.00 20.00     0.011 A 
BRANCH   7  10
HETATM   10  C9  UNL     1     -34.207  15.561  -5.649  1.00 20.00     0.124 C 
HETATM   11 CL11 UNL     1     -35.826  16.127  -6.126  1.00 20.00    -0.130 Cl
ENDBRANCH   7  10
ENDBRANCH   1   7
TORSDOF 3
ENDMDL
MODEL 5
REMARK VINA RESULT:      -3.9      2.095      2.410
REMARK  3 active torsions:
REMARK  status: ('A' for Active; 'I' for Inactive)
REMARK    1  A    between atoms: C6_6  and  C8_8 
REMARK    2  A    between atoms: C7_7  and  C8_8 
REMARK    3  A    between atoms: C7_7  and  C9_9 
ROOT
HETATM    1  C8  UNL     1     -34.541  16.332  -1.282  1.00 20.00     0.042 C 
ENDROOT
BRANCH   1   2
HETATM    2  C6  UNL     1     -34.680  16.291  -2.798  1.00 20.00     0.122 C 
HETATM    3  C2  UNL     1     -33.625  15.424  -3.468  1.00 20.00     0.034 C 
HETATM    4  C1  UNL     1     -34.304  14.079  -3.551  1.00 20.00     0.029 C 
HETATM    5  C5  UNL     1     -35.741  14.471  -3.807  1.00 20.00     0.168 C 
HETATM    6  O10 UNL     1     -35.956  15.712  -3.120  1.00 20.00    -0.386 OA
ENDBRANCH   1   2
BRANCH   1   7
HETATM    7  C7  UNL     1     -34.411  17.732  -0.766  1.00 20.00    -0.025 A 
HETATM    8  C3  UNL     1     -33.027  18.236  -0.429  1.00 20.00     0.011 A 
HETATM    9  C4  UNL     1     -33.734  18.753  -1.650  1.00 20.00     0.011 A 
BRANCH   7  10
HETATM   10  C9  UNL     1     -35.557  18.191   0.092  1.00 20.00     0.124 C 
HETATM   11 CL11 UNL     1     -35.475  17.447   1.708  1.00 20.00    -0.130 Cl
ENDBRANCH   7  10
ENDBRANCH   1   7
TORSDOF 3
ENDMDL
MODEL 6
REMARK VINA RESULT:      -3.8      2.976      3.917
REMARK  3 active torsions:
REMARK  status: ('A' for Active; 'I' for Inactive)
REMARK    1  A    between atoms: C6_6  and  C8_8 
REMARK    2  A    between atoms: C7_7  and  C8_8 
REMARK    3  A    between atoms: C7_7  and  C9_9 
ROOT
HETATM    1  C8  UNL     1     -35.902  15.523  -4.199  1.00 20.00     0.042 C 
ENDROOT
BRANCH   1   2
HETATM    2  C6  UNL     1     -37.186  15.434  -3.385  1.00 20.00     0.122 C 
HETATM    3  C2  UNL     1     -38.130  16.600  -3.637  1.00 20.00     0.034 C 
HETATM    4  C1  UNL     1     -39.012  16.080  -4.746  1.00 20.00     0.029 C 
HETATM    5  C5  UNL     1     -39.130  14.617  -4.389  1.00 20.00     0.168 C 
HETATM    6  O10 UNL     1     -37.888  14.242  -3.777  1.00 20.00    -0.386 OA
ENDBRANCH   1   2
BRANCH   1   7
HETATM    7  C7  UNL     1     -34.685  15.275  -3.362  1.00 20.00    -0.025 A 
HETATM    8  C3  UNL     1     -33.733  16.427  -3.140  1.00 20.00     0.011 A 
HETATM    9  C4  UNL     1     -34.605  15.951  -2.013  1.00 20.00     0.011 A 
BRANCH   7  10
HETATM   10  C9  UNL     1     -34.105  13.894  -3.495  1.00 20.00     0.124 C 
HETATM   11 CL11 UNL     1     -34.757  13.070  -4.932  1.00 20.00    -0.130 Cl
ENDBRANCH   7  10
ENDBRANCH   1   7
TORSDOF 3
ENDMDL
MODEL 7
REMARK VINA RESULT:      -3.8      1.951      4.355
REMARK  3 active torsions:
REMARK  status: ('A' for Active; 'I' for Inactive)
REMARK    1  A    between atoms: C6_6  and  C8_8 
REMARK    2  A    between atoms: C7_7  and  C8_8 
REMARK    3  A    between atoms: C7_7  and  C9_9 
ROOT
HETATM    1  C8  UNL     1     -35.079  15.346  -2.930  1.00 20.00     0.042 C 
ENDROOT
BRANCH   1   2
HETATM    2  C6  UNL     1     -34.732  16.815  -2.734  1.00 20.00     0.122 C 
HETATM    3  C2  UNL     1     -35.763  17.564  -1.904  1.00 20.00     0.034 C 
HETATM    4  C1  UNL     1     -35.220  17.436  -0.502  1.00 20.00     0.029 C 
HETATM    5  C5  UNL     1     -33.729  17.504  -0.740  1.00 20.00     0.168 C 
HETATM    6  O10 UNL     1     -33.488  16.894  -2.016  1.00 20.00    -0.386 OA
ENDBRANCH   1   2
BRANCH   1   7
HETATM    7  C7  UNL     1     -34.330  14.737  -4.075  1.00 20.00    -0.025 A 
HETATM    8  C3  UNL     1     -33.332  13.645  -3.767  1.00 20.00     0.011 A 
HETATM    9  C4  UNL     1     -34.633  13.302  -4.436  1.00 20.00     0.011 A 
BRANCH   7  10
HETATM   10  C9  UNL     1     -34.008  15.693  -5.191  1.00 20.00     0.124 C 
HETATM   11 CL11 UNL     1     -34.398  14.973  -6.771  1.00 20.00    -0.130 Cl
ENDBRANCH   7  10
ENDBRANCH   1   7
TORSDOF 3
ENDMDL
MODEL 8
REMARK VINA RESULT:      -3.8      2.874      3.825
REMARK  3 active torsions:
REMARK  status: ('A' for Active; 'I' for Inactive)
REMARK    1  A    between atoms: C6_6  and  C8_8 
REMARK    2  A    between atoms: C7_7  and  C8_8 
REMARK    3  A    between atoms: C7_7  and  C9_9 
ROOT
HETATM    1  C8  UNL     1     -35.948  14.265  -4.098  1.00 20.00     0.042 C 
ENDROOT
BRANCH   1   2
HETATM    2  C6  UNL     1     -37.131  15.134  -3.693  1.00 20.00     0.122 C 
HETATM    3  C2  UNL     1     -37.484  16.182  -4.738  1.00 20.00     0.034 C 
HETATM    4  C1  UNL     1     -38.521  15.478  -5.577  1.00 20.00     0.029 C 
HETATM    5  C5  UNL     1     -39.253  14.656  -4.542  1.00 20.00     0.168 C 
HETATM    6  O10 UNL     1     -38.285  14.288  -3.550  1.00 20.00    -0.386 OA
ENDBRANCH   1   2
BRANCH   1   7
HETATM    7  C7  UNL     1     -34.657  14.770  -3.531  1.00 20.00    -0.025 A 
HETATM    8  C3  UNL     1     -33.428  13.906  -3.691  1.00 20.00     0.011 A 
HETATM    9  C4  UNL     1     -33.566  15.167  -4.497  1.00 20.00     0.011 A 
BRANCH   7  10
HETATM   10  C9  UNL     1     -34.800  15.565  -2.262  1.00 20.00     0.124 C 
HETATM   11 CL11 UNL     1     -33.837  17.060  -2.342  1.00 20.00    -0.130 Cl
ENDBRANCH   7  10
ENDBRANCH   1   7
TORSDOF 3
ENDMDL
MODEL 9
REMARK VINA RESULT:      -3.8      2.796      3.512
REMARK  3 active torsions:
REMARK  status: ('A' for Active; 'I' for Inactive)
REMARK    1  A    between atoms: C6_6  and  C8_8 
REMARK    2  A    between atoms: C7_7  and  C8_8 
REMARK    3  A    between atoms: C7_7  and  C9_9 
ROOT
HETATM    1  C8  UNL     1     -34.573  16.910  -4.303  1.00 20.00     0.042 C 
ENDROOT
BRANCH   1   2
HETATM    2  C6  UNL     1     -33.667  16.961  -5.526  1.00 20.00     0.122 C 
HETATM    3  C2  UNL     1     -34.291  16.318  -6.755  1.00 20.00     0.034 C 
HETATM    4  C1  UNL     1     -34.968  17.483  -7.433  1.00 20.00     0.029 C 
HETATM    5  C5  UNL     1     -34.009  18.613  -7.142  1.00 20.00     0.168 C 
HETATM    6  O10 UNL     1     -33.432  18.341  -5.857  1.00 20.00    -0.386 OA
ENDBRANCH   1   2
BRANCH   1   7
HETATM    7  C7  UNL     1     -33.934  16.186  -3.159  1.00 20.00    -0.025 A 
HETATM    8  C3  UNL     1     -33.765  16.933  -1.856  1.00 20.00     0.011 A 
HETATM    9  C4  UNL     1     -34.797  15.846  -1.966  1.00 20.00     0.011 A 
BRANCH   7  10
HETATM   10  C9  UNL     1     -32.863  15.209  -3.556  1.00 20.00     0.124 C 
HETATM   11 CL11 UNL     1     -33.568  13.621  -3.944  1.00 20.00    -0.130 Cl
ENDBRANCH   7  10
ENDBRANCH   1   7
TORSDOF 3
ENDMDL
