MODEL 1
REMARK VINA RESULT:      -5.1      0.000      0.000
REMARK  5 active torsions:
REMARK  status: ('A' for Active; 'I' for Inactive)
REMARK    1  A    between atoms: C2_2  and  C5_5 
REMARK    2  A    between atoms: C2_2  and  C6_6 
REMARK    3  A    between atoms: C6_6  and  C7_7 
REMARK    4  A    between atoms: C7_7  and  C9_9 
REMARK    5  A    between atoms: C8_8  and  C9_9 
ROOT
HETATM    1  C6  UNL     1     -34.414   6.225   3.940  1.00 20.00     0.033 C 
ENDROOT
BRANCH   1   2
HETATM    2  C2  UNL     1     -34.618   5.183   5.026  1.00 20.00    -0.090 C 
HETATM    3  C1  UNL     1     -34.902   3.890   4.800  1.00 20.00     0.014 C 
BRANCH   2   4
HETATM    4  C5  UNL     1     -34.512   5.693   6.449  1.00 20.00     0.029 C 
HETATM    5  C3  UNL     1     -33.726   6.994   6.553  1.00 20.00     0.010 C 
ENDBRANCH   2   4
ENDBRANCH   1   2
BRANCH   1   6
HETATM    6  C7  UNL     1     -33.074   6.191   3.187  1.00 20.00     0.009 C 
BRANCH   6   7
HETATM    7  C9  UNL     1     -32.374   7.567   3.128  1.00 20.00    -0.004 C 
HETATM    8  C4  UNL     1     -31.122   7.622   4.011  1.00 20.00     0.011 C 
BRANCH   7   9
HETATM    9  C8  UNL     1     -32.057   7.978   1.680  1.00 20.00     0.119 C 
HETATM   10 CL10 UNL     1     -32.386   9.695   1.335  1.00 20.00    -0.130 Cl
ENDBRANCH   7   9
ENDBRANCH   6   7
ENDBRANCH   1   6
TORSDOF 5
ENDMDL
MODEL 2
REMARK VINA RESULT:      -5.1      0.522      1.762
REMARK  5 active torsions:
REMARK  status: ('A' for Active; 'I' for Inactive)
REMARK    1  A    between atoms: C2_2  and  C5_5 
REMARK    2  A    between atoms: C2_2  and  C6_6 
REMARK    3  A    between atoms: C6_6  and  C7_7 
REMARK    4  A    between atoms: C7_7  and  C9_9 
REMARK    5  A    between atoms: C8_8  and  C9_9 
ROOT
HETATM    1  C6  UNL     1     -34.238   6.332   4.138  1.00 20.00     0.033 C 
ENDROOT
BRANCH   1   2
HETATM    2  C2  UNL     1     -34.116   6.095   5.633  1.00 20.00    -0.090 C 
HETATM    3  C1  UNL     1     -33.681   7.008   6.517  1.00 20.00     0.014 C 
BRANCH   2   4
HETATM    4  C5  UNL     1     -34.495   4.707   6.108  1.00 20.00     0.029 C 
HETATM    5  C3  UNL     1     -35.158   3.872   5.021  1.00 20.00     0.010 C 
ENDBRANCH   2   4
ENDBRANCH   1   2
BRANCH   1   6
HETATM    6  C7  UNL     1     -32.938   6.286   3.318  1.00 20.00     0.009 C 
BRANCH   6   7
HETATM    7  C9  UNL     1     -32.249   7.663   3.193  1.00 20.00    -0.004 C 
HETATM    8  C4  UNL     1     -30.988   7.765   4.058  1.00 20.00     0.011 C 
BRANCH   7   9
HETATM    9  C8  UNL     1     -31.952   8.015   1.725  1.00 20.00     0.119 C 
HETATM   10 CL10 UNL     1     -32.396   9.683   1.285  1.00 20.00    -0.130 Cl
ENDBRANCH   7   9
ENDBRANCH   6   7
ENDBRANCH   1   6
TORSDOF 5
ENDMDL
MODEL 3
REMARK VINA RESULT:      -4.9      2.489      4.847
REMARK  5 active torsions:
REMARK  status: ('A' for Active; 'I' for Inactive)
REMARK    1  A    between atoms: C2_2  and  C5_5 
REMARK    2  A    between atoms: C2_2  and  C6_6 
REMARK    3  A    between atoms: C6_6  and  C7_7 
REMARK    4  A    between atoms: C7_7  and  C9_9 
REMARK    5  A    between atoms: C8_8  and  C9_9 
ROOT
HETATM    1  C6  UNL     1     -32.933   6.271   3.192  1.00 20.00     0.033 C 
ENDROOT
BRANCH   1   2
HETATM    2  C2  UNL     1     -31.982   7.440   3.007  1.00 20.00    -0.090 C 
HETATM    3  C1  UNL     1     -31.154   7.908   3.955  1.00 20.00     0.014 C 
BRANCH   2   4
HETATM    4  C5  UNL     1     -32.029   8.112   1.650  1.00 20.00     0.029 C 
HETATM    5  C3  UNL     1     -32.478   9.565   1.725  1.00 20.00     0.010 C 
ENDBRANCH   2   4
ENDBRANCH   1   2
BRANCH   1   6
HETATM    6  C7  UNL     1     -34.113   6.480   4.156  1.00 20.00     0.009 C 
BRANCH   6   7
HETATM    7  C9  UNL     1     -33.809   6.020   5.599  1.00 20.00    -0.004 C 
HETATM    8  C4  UNL     1     -33.688   7.197   6.573  1.00 20.00     0.011 C 
BRANCH   7   9
HETATM    9  C8  UNL     1     -34.837   4.987   6.092  1.00 20.00     0.119 C 
HETATM   10 CL10 UNL     1     -35.181   3.699   4.910  1.00 20.00    -0.130 Cl
ENDBRANCH   7   9
ENDBRANCH   6   7
ENDBRANCH   1   6
TORSDOF 5
ENDMDL
MODEL 4
REMARK VINA RESULT:      -4.8      2.045      4.827
REMARK  5 active torsions:
REMARK  status: ('A' for Active; 'I' for Inactive)
REMARK    1  A    between atoms: C2_2  and  C5_5 
REMARK    2  A    between atoms: C2_2  and  C6_6 
REMARK    3  A    between atoms: C6_6  and  C7_7 
REMARK    4  A    between atoms: C7_7  and  C9_9 
REMARK    5  A    between atoms: C8_8  and  C9_9 
ROOT
HETATM    1  C6  UNL     1     -33.235   6.599   3.004  1.00 20.00     0.033 C 
ENDROOT
BRANCH   1   2
HETATM    2  C2  UNL     1     -32.089   7.584   2.854  1.00 20.00    -0.090 C 
HETATM    3  C1  UNL     1     -31.213   7.890   3.826  1.00 20.00     0.014 C 
BRANCH   2   4
HETATM    4  C5  UNL     1     -31.986   8.266   1.505  1.00 20.00     0.029 C 
HETATM    5  C3  UNL     1     -32.452   9.716   1.539  1.00 20.00     0.010 C 
ENDBRANCH   2   4
ENDBRANCH   1   2
BRANCH   1   6
HETATM    6  C7  UNL     1     -33.194   5.666   4.227  1.00 20.00     0.009 C 
BRANCH   6   7
HETATM    7  C9  UNL     1     -34.558   5.538   4.941  1.00 20.00    -0.004 C 
HETATM    8  C4  UNL     1     -35.191   4.157   4.744  1.00 20.00     0.011 C 
BRANCH   7   9
HETATM    9  C8  UNL     1     -34.451   5.900   6.432  1.00 20.00     0.119 C 
HETATM   10 CL10 UNL     1     -33.355   7.265   6.761  1.00 20.00    -0.130 Cl
ENDBRANCH   7   9
ENDBRANCH   6   7
ENDBRANCH   1   6
TORSDOF 5
ENDMDL
MODEL 5
REMARK VINA RESULT:      -4.5      2.556      5.279
REMARK  5 active torsions:
REMARK  status: ('A' for Active; 'I' for Inactive)
REMARK    1  A    between atoms: C2_2  and  C5_5 
REMARK    2  A    between atoms: C2_2  and  C6_6 
REMARK    3  A    between atoms: C6_6  and  C7_7 
REMARK    4  A    between atoms: C7_7  and  C9_9 
REMARK    5  A    between atoms: C8_8  and  C9_9 
ROOT
HETATM    1  C6  UNL     1     -31.812   7.712   3.156  1.00 20.00     0.033 C 
ENDROOT
BRANCH   1   2
HETATM    2  C2  UNL     1     -32.137   8.695   2.044  1.00 20.00    -0.090 C 
HETATM    3  C1  UNL     1     -32.783   9.859   2.220  1.00 20.00     0.014 C 
BRANCH   2   4
HETATM    4  C5  UNL     1     -31.708   8.273   0.653  1.00 20.00     0.029 C 
HETATM    5  C3  UNL     1     -32.643   8.786  -0.433  1.00 20.00     0.010 C 
ENDBRANCH   2   4
ENDBRANCH   1   2
BRANCH   1   6
HETATM    6  C7  UNL     1     -32.591   6.386   3.161  1.00 20.00     0.009 C 
BRANCH   6   7
HETATM    7  C9  UNL     1     -33.928   6.469   3.931  1.00 20.00    -0.004 C 
HETATM    8  C4  UNL     1     -34.931   5.405   3.472  1.00 20.00     0.011 C 
BRANCH   7   9
HETATM    9  C8  UNL     1     -33.708   6.415   5.452  1.00 20.00     0.119 C 
HETATM   10 CL10 UNL     1     -34.740   5.224   6.282  1.00 20.00    -0.130 Cl
ENDBRANCH   7   9
ENDBRANCH   6   7
ENDBRANCH   1   6
TORSDOF 5
ENDMDL
MODEL 6
REMARK VINA RESULT:      -4.5      1.011      1.404
REMARK  5 active torsions:
REMARK  status: ('A' for Active; 'I' for Inactive)
REMARK    1  A    between atoms: C2_2  and  C5_5 
REMARK    2  A    between atoms: C2_2  and  C6_6 
REMARK    3  A    between atoms: C6_6  and  C7_7 
REMARK    4  A    between atoms: C7_7  and  C9_9 
REMARK    5  A    between atoms: C8_8  and  C9_9 
ROOT
HETATM    1  C6  UNL     1     -33.491   5.969   4.293  1.00 20.00     0.033 C 
ENDROOT
BRANCH   1   2
HETATM    2  C2  UNL     1     -34.869   5.337   4.200  1.00 20.00    -0.090 C 
HETATM    3  C1  UNL     1     -35.828   5.720   3.343  1.00 20.00     0.014 C 
BRANCH   2   4
HETATM    4  C5  UNL     1     -35.142   4.218   5.186  1.00 20.00     0.029 C 
HETATM    5  C3  UNL     1     -34.682   4.552   6.599  1.00 20.00     0.010 C 
ENDBRANCH   2   4
ENDBRANCH   1   2
BRANCH   1   6
HETATM    6  C7  UNL     1     -32.794   6.315   2.967  1.00 20.00     0.009 C 
BRANCH   6   7
HETATM    7  C9  UNL     1     -32.217   7.748   2.938  1.00 20.00    -0.004 C 
HETATM    8  C4  UNL     1     -31.019   7.912   3.880  1.00 20.00     0.011 C 
BRANCH   7   9
HETATM    9  C8  UNL     1     -31.870   8.189   1.506  1.00 20.00     0.119 C 
HETATM   10 CL10 UNL     1     -32.368   9.857   1.130  1.00 20.00    -0.130 Cl
ENDBRANCH   7   9
ENDBRANCH   6   7
ENDBRANCH   1   6
TORSDOF 5
ENDMDL
MODEL 7
REMARK VINA RESULT:      -4.0     11.165     12.387
REMARK  5 active torsions:
REMARK  status: ('A' for Active; 'I' for Inactive)
REMARK    1  A    between atoms: C2_2  and  C5_5 
REMARK    2  A    between atoms: C2_2  and  C6_6 
REMARK    3  A    between atoms: C6_6  and  C7_7 
REMARK    4  A    between atoms: C7_7  and  C9_9 
REMARK    5  A    between atoms: C8_8  and  C9_9 
ROOT
HETATM    1  C6  UNL     1     -33.164  14.969  -3.739  1.00 20.00     0.033 C 
ENDROOT
BRANCH   1   2
HETATM    2  C2  UNL     1     -34.144  14.352  -4.721  1.00 20.00    -0.090 C 
HETATM    3  C1  UNL     1     -34.776  13.181  -4.535  1.00 20.00     0.014 C 
BRANCH   2   4
HETATM    4  C5  UNL     1     -34.369  15.135  -5.999  1.00 20.00     0.029 C 
HETATM    5  C3  UNL     1     -35.281  14.412  -6.981  1.00 20.00     0.010 C 
ENDBRANCH   2   4
ENDBRANCH   1   2
BRANCH   1   6
HETATM    6  C7  UNL     1     -33.596  16.278  -3.056  1.00 20.00     0.009 C 
BRANCH   6   7
HETATM    7  C9  UNL     1     -34.854  16.118  -2.173  1.00 20.00    -0.004 C 
HETATM    8  C4  UNL     1     -34.638  16.644  -0.751  1.00 20.00     0.011 C 
BRANCH   7   9
HETATM    9  C8  UNL     1     -36.089  16.760  -2.828  1.00 20.00     0.119 C 
HETATM   10 CL10 UNL     1     -37.267  15.577  -3.449  1.00 20.00    -0.130 Cl
ENDBRANCH   7   9
ENDBRANCH   6   7
ENDBRANCH   1   6
TORSDOF 5
ENDMDL
MODEL 8
REMARK VINA RESULT:      -4.0     10.984     12.160
REMARK  5 active torsions:
REMARK  status: ('A' for Active; 'I' for Inactive)
REMARK    1  A    between atoms: C2_2  and  C5_5 
REMARK    2  A    between atoms: C2_2  and  C6_6 
REMARK    3  A    between atoms: C6_6  and  C7_7 
REMARK    4  A    between atoms: C7_7  and  C9_9 
REMARK    5  A    between atoms: C8_8  and  C9_9 
ROOT
HETATM    1  C6  UNL     1     -33.276  15.155  -3.557  1.00 20.00     0.033 C 
ENDROOT
BRANCH   1   2
HETATM    2  C2  UNL     1     -33.886  16.403  -2.944  1.00 20.00    -0.090 C 
HETATM    3  C1  UNL     1     -33.817  17.631  -3.485  1.00 20.00     0.014 C 
BRANCH   2   4
HETATM    4  C5  UNL     1     -34.586  16.204  -1.615  1.00 20.00     0.029 C 
HETATM    5  C3  UNL     1     -34.204  17.256  -0.583  1.00 20.00     0.010 C 
ENDBRANCH   2   4
ENDBRANCH   1   2
BRANCH   1   6
HETATM    6  C7  UNL     1     -34.097  13.859  -3.458  1.00 20.00     0.009 C 
BRANCH   6   7
HETATM    7  C9  UNL     1     -35.158  13.723  -4.573  1.00 20.00    -0.004 C 
HETATM    8  C4  UNL     1     -36.511  14.314  -4.164  1.00 20.00     0.011 C 
BRANCH   7   9
HETATM    9  C8  UNL     1     -34.662  14.323  -5.900  1.00 20.00     0.119 C 
HETATM   10 CL10 UNL     1     -35.523  15.805  -6.383  1.00 20.00    -0.130 Cl
ENDBRANCH   7   9
ENDBRANCH   6   7
ENDBRANCH   1   6
TORSDOF 5
ENDMDL
MODEL 9
REMARK VINA RESULT:      -4.0     11.348     12.231
REMARK  5 active torsions:
REMARK  status: ('A' for Active; 'I' for Inactive)
REMARK    1  A    between atoms: C2_2  and  C5_5 
REMARK    2  A    between atoms: C2_2  and  C6_6 
REMARK    3  A    between atoms: C6_6  and  C7_7 
REMARK    4  A    between atoms: C7_7  and  C9_9 
REMARK    5  A    between atoms: C8_8  and  C9_9 
ROOT
HETATM    1  C6  UNL     1     -34.675  16.251  -1.570  1.00 20.00     0.033 C 
ENDROOT
BRANCH   1   2
HETATM    2  C2  UNL     1     -34.370  17.328  -0.544  1.00 20.00    -0.090 C 
HETATM    3  C1  UNL     1     -34.994  17.454   0.639  1.00 20.00     0.014 C 
BRANCH   2   4
HETATM    4  C5  UNL     1     -33.300  18.325  -0.941  1.00 20.00     0.029 C 
HETATM    5  C3  UNL     1     -32.425  18.749   0.231  1.00 20.00     0.010 C 
ENDBRANCH   2   4
ENDBRANCH   1   2
BRANCH   1   6
HETATM    6  C7  UNL     1     -33.645  16.051  -2.695  1.00 20.00     0.009 C 
BRANCH   6   7
HETATM    7  C9  UNL     1     -34.228  16.298  -4.104  1.00 20.00    -0.004 C 
HETATM    8  C4  UNL     1     -33.576  17.496  -4.802  1.00 20.00     0.011 C 
BRANCH   7   9
HETATM    9  C8  UNL     1     -34.154  15.032  -4.976  1.00 20.00     0.119 C 
HETATM   10 CL10 UNL     1     -33.678  13.570  -4.076  1.00 20.00    -0.130 Cl
ENDBRANCH   7   9
ENDBRANCH   6   7
ENDBRANCH   1   6
TORSDOF 5
ENDMDL
