MODEL 1
REMARK VINA RESULT:      -4.7      0.000      0.000
REMARK  5 active torsions:
REMARK  status: ('A' for Active; 'I' for Inactive)
REMARK    1  A    between atoms: C4_4  and  C5_5 
REMARK    2  A    between atoms: C5_5  and  C8_8 
REMARK    3  A    between atoms: C6_6  and  C8_8 
REMARK    4  A    between atoms: C6_6  and  C9_9 
REMARK    5  A    between atoms: C7_7  and  C9_9 
ROOT
HETATM    1  C6  UNL     1     -33.829   6.596   4.405  1.00 20.00     0.009 C 
ENDROOT
BRANCH   1   2
HETATM    2  C8  UNL     1     -32.568   6.376   3.543  1.00 20.00    -0.018 C 
HETATM    3  C2  UNL     1     -32.865   5.554   2.286  1.00 20.00     0.010 C 
BRANCH   2   4
HETATM    4  C5  UNL     1     -31.877   7.714   3.193  1.00 20.00     0.004 C 
BRANCH   4   5
HETATM    5  C4  UNL     1     -31.989   8.151   1.729  1.00 20.00    -0.004 C 
HETATM    6  C1  UNL     1     -32.460   9.593   1.621  1.00 20.00     0.005 C 
ENDBRANCH   4   5
ENDBRANCH   2   4
ENDBRANCH   1   2
BRANCH   1   7
HETATM    7  C9  UNL     1     -33.738   6.109   5.868  1.00 20.00    -0.004 C 
HETATM    8  C3  UNL     1     -33.701   7.318   6.811  1.00 20.00     0.011 C 
BRANCH   7   9
HETATM    9  C7  UNL     1     -34.835   5.115   6.281  1.00 20.00     0.119 C 
HETATM   10 CL10 UNL     1     -35.156   3.861   5.059  1.00 20.00    -0.130 Cl
ENDBRANCH   7   9
ENDBRANCH   1   7
TORSDOF 5
ENDMDL
MODEL 2
REMARK VINA RESULT:      -4.6      2.564      4.674
REMARK  5 active torsions:
REMARK  status: ('A' for Active; 'I' for Inactive)
REMARK    1  A    between atoms: C4_4  and  C5_5 
REMARK    2  A    between atoms: C5_5  and  C8_8 
REMARK    3  A    between atoms: C6_6  and  C8_8 
REMARK    4  A    between atoms: C6_6  and  C9_9 
REMARK    5  A    between atoms: C7_7  and  C9_9 
ROOT
HETATM    1  C6  UNL     1     -32.999   6.149   3.190  1.00 20.00     0.009 C 
ENDROOT
BRANCH   1   2
HETATM    2  C8  UNL     1     -34.334   6.047   3.958  1.00 20.00    -0.018 C 
HETATM    3  C2  UNL     1     -35.518   5.784   3.023  1.00 20.00     0.010 C 
BRANCH   2   4
HETATM    4  C5  UNL     1     -34.262   4.995   5.089  1.00 20.00     0.004 C 
BRANCH   4   5
HETATM    5  C4  UNL     1     -34.443   5.540   6.508  1.00 20.00    -0.004 C 
HETATM    6  C1  UNL     1     -33.824   6.923   6.649  1.00 20.00     0.005 C 
ENDBRANCH   4   5
ENDBRANCH   2   4
ENDBRANCH   1   2
BRANCH   1   7
HETATM    7  C9  UNL     1     -32.372   7.560   3.114  1.00 20.00    -0.004 C 
HETATM    8  C3  UNL     1     -31.168   7.637   4.062  1.00 20.00     0.011 C 
BRANCH   7   9
HETATM    9  C7  UNL     1     -31.996   8.017   1.696  1.00 20.00     0.119 C 
HETATM   10 CL10 UNL     1     -32.440   9.706   1.352  1.00 20.00    -0.130 Cl
ENDBRANCH   7   9
ENDBRANCH   1   7
TORSDOF 5
ENDMDL
MODEL 3
REMARK VINA RESULT:      -4.5      1.014      2.101
REMARK  5 active torsions:
REMARK  status: ('A' for Active; 'I' for Inactive)
REMARK    1  A    between atoms: C4_4  and  C5_5 
REMARK    2  A    between atoms: C5_5  and  C8_8 
REMARK    3  A    between atoms: C6_6  and  C8_8 
REMARK    4  A    between atoms: C6_6  and  C9_9 
REMARK    5  A    between atoms: C7_7  and  C9_9 
ROOT
HETATM    1  C6  UNL     1     -32.960   6.273   3.289  1.00 20.00     0.009 C 
ENDROOT
BRANCH   1   2
HETATM    2  C8  UNL     1     -32.216   7.606   3.059  1.00 20.00    -0.018 C 
HETATM    3  C2  UNL     1     -31.024   7.771   4.005  1.00 20.00     0.010 C 
BRANCH   2   4
HETATM    4  C5  UNL     1     -31.792   7.773   1.581  1.00 20.00     0.004 C 
BRANCH   4   5
HETATM    5  C4  UNL     1     -32.122   9.129   0.951  1.00 20.00    -0.004 C 
HETATM    6  C1  UNL     1     -32.809  10.048   1.951  1.00 20.00     0.005 C 
ENDBRANCH   4   5
ENDBRANCH   2   4
ENDBRANCH   1   2
BRANCH   1   7
HETATM    7  C9  UNL     1     -34.238   6.357   4.155  1.00 20.00    -0.004 C 
HETATM    8  C3  UNL     1     -35.291   5.383   3.610  1.00 20.00     0.011 C 
BRANCH   7   9
HETATM    9  C7  UNL     1     -34.007   6.142   5.659  1.00 20.00     0.119 C 
HETATM   10 CL10 UNL     1     -34.846   4.714   6.311  1.00 20.00    -0.130 Cl
ENDBRANCH   7   9
ENDBRANCH   1   7
TORSDOF 5
ENDMDL
MODEL 4
REMARK VINA RESULT:      -4.4      1.631      2.215
REMARK  5 active torsions:
REMARK  status: ('A' for Active; 'I' for Inactive)
REMARK    1  A    between atoms: C4_4  and  C5_5 
REMARK    2  A    between atoms: C5_5  and  C8_8 
REMARK    3  A    between atoms: C6_6  and  C8_8 
REMARK    4  A    between atoms: C6_6  and  C9_9 
REMARK    5  A    between atoms: C7_7  and  C9_9 
ROOT
HETATM    1  C6  UNL     1     -34.458   6.184   4.161  1.00 20.00     0.009 C 
ENDROOT
BRANCH   1   2
HETATM    2  C8  UNL     1     -33.567   5.376   3.194  1.00 20.00    -0.018 C 
HETATM    3  C2  UNL     1     -34.233   5.171   1.832  1.00 20.00     0.010 C 
BRANCH   2   4
HETATM    4  C5  UNL     1     -32.164   6.009   3.048  1.00 20.00     0.004 C 
BRANCH   4   5
HETATM    5  C4  UNL     1     -32.101   7.526   3.250  1.00 20.00    -0.004 C 
HETATM    6  C1  UNL     1     -32.029   8.255   1.917  1.00 20.00     0.005 C 
ENDBRANCH   4   5
ENDBRANCH   2   4
ENDBRANCH   1   2
BRANCH   1   7
HETATM    7  C9  UNL     1     -35.044   5.396   5.354  1.00 20.00    -0.004 C 
HETATM    8  C3  UNL     1     -34.914   3.891   5.089  1.00 20.00     0.011 C 
BRANCH   7   9
HETATM    9  C7  UNL     1     -34.454   5.774   6.722  1.00 20.00     0.119 C 
HETATM   10 CL10 UNL     1     -33.391   7.200   6.670  1.00 20.00    -0.130 Cl
ENDBRANCH   7   9
ENDBRANCH   1   7
TORSDOF 5
ENDMDL
MODEL 5
REMARK VINA RESULT:      -4.2      2.285      4.957
REMARK  5 active torsions:
REMARK  status: ('A' for Active; 'I' for Inactive)
REMARK    1  A    between atoms: C4_4  and  C5_5 
REMARK    2  A    between atoms: C5_5  and  C8_8 
REMARK    3  A    between atoms: C6_6  and  C8_8 
REMARK    4  A    between atoms: C6_6  and  C9_9 
REMARK    5  A    between atoms: C7_7  and  C9_9 
ROOT
HETATM    1  C6  UNL     1     -33.664   6.904   4.624  1.00 20.00     0.009 C 
ENDROOT
BRANCH   1   2
HETATM    2  C8  UNL     1     -33.563   6.432   6.090  1.00 20.00    -0.018 C 
HETATM    3  C2  UNL     1     -33.415   7.605   7.063  1.00 20.00     0.010 C 
BRANCH   2   4
HETATM    4  C5  UNL     1     -34.751   5.522   6.479  1.00 20.00     0.004 C 
BRANCH   4   5
HETATM    5  C4  UNL     1     -34.634   4.061   6.035  1.00 20.00    -0.004 C 
HETATM    6  C1  UNL     1     -35.274   3.847   4.672  1.00 20.00     0.005 C 
ENDBRANCH   4   5
ENDBRANCH   2   4
ENDBRANCH   1   2
BRANCH   1   7
HETATM    7  C9  UNL     1     -32.540   6.418   3.682  1.00 20.00    -0.004 C 
HETATM    8  C3  UNL     1     -33.156   5.690   2.480  1.00 20.00     0.011 C 
BRANCH   7   9
HETATM    9  C7  UNL     1     -31.566   7.517   3.227  1.00 20.00     0.119 C 
HETATM   10 CL10 UNL     1     -32.108   8.391   1.774  1.00 20.00    -0.130 Cl
ENDBRANCH   7   9
ENDBRANCH   1   7
TORSDOF 5
ENDMDL
MODEL 6
REMARK VINA RESULT:      -4.1     11.646     12.562
REMARK  5 active torsions:
REMARK  status: ('A' for Active; 'I' for Inactive)
REMARK    1  A    between atoms: C4_4  and  C5_5 
REMARK    2  A    between atoms: C5_5  and  C8_8 
REMARK    3  A    between atoms: C6_6  and  C8_8 
REMARK    4  A    between atoms: C6_6  and  C9_9 
REMARK    5  A    between atoms: C7_7  and  C9_9 
ROOT
HETATM    1  C6  UNL     1     -34.012  15.150  -3.038  1.00 20.00     0.009 C 
ENDROOT
BRANCH   1   2
HETATM    2  C8  UNL     1     -34.962  14.142  -3.719  1.00 20.00    -0.018 C 
HETATM    3  C2  UNL     1     -36.403  14.653  -3.772  1.00 20.00     0.010 C 
BRANCH   2   4
HETATM    4  C5  UNL     1     -34.453  13.738  -5.122  1.00 20.00     0.004 C 
BRANCH   4   5
HETATM    5  C4  UNL     1     -35.283  14.258  -6.299  1.00 20.00    -0.004 C 
HETATM    6  C1  UNL     1     -34.413  15.006  -7.298  1.00 20.00     0.005 C 
ENDBRANCH   4   5
ENDBRANCH   2   4
ENDBRANCH   1   2
BRANCH   1   7
HETATM    7  C9  UNL     1     -34.664  16.462  -2.546  1.00 20.00    -0.004 C 
HETATM    8  C3  UNL     1     -34.585  16.532  -1.016  1.00 20.00     0.011 C 
BRANCH   7   9
HETATM    9  C7  UNL     1     -34.100  17.738  -3.191  1.00 20.00     0.119 C 
HETATM   10 CL10 UNL     1     -33.430  17.475  -4.820  1.00 20.00    -0.130 Cl
ENDBRANCH   7   9
ENDBRANCH   1   7
TORSDOF 5
ENDMDL
MODEL 7
REMARK VINA RESULT:      -4.1     11.585     13.094
REMARK  5 active torsions:
REMARK  status: ('A' for Active; 'I' for Inactive)
REMARK    1  A    between atoms: C4_4  and  C5_5 
REMARK    2  A    between atoms: C5_5  and  C8_8 
REMARK    3  A    between atoms: C6_6  and  C8_8 
REMARK    4  A    between atoms: C6_6  and  C9_9 
REMARK    5  A    between atoms: C7_7  and  C9_9 
ROOT
HETATM    1  C6  UNL     1     -35.403  14.431  -5.161  1.00 20.00     0.009 C 
ENDROOT
BRANCH   1   2
HETATM    2  C8  UNL     1     -34.821  14.258  -3.742  1.00 20.00    -0.018 C 
HETATM    3  C2  UNL     1     -33.296  14.126  -3.757  1.00 20.00     0.010 C 
BRANCH   2   4
HETATM    4  C5  UNL     1     -35.281  15.391  -2.796  1.00 20.00     0.004 C 
BRANCH   4   5
HETATM    5  C4  UNL     1     -34.158  16.158  -2.091  1.00 20.00    -0.004 C 
HETATM    6  C1  UNL     1     -34.622  16.702  -0.748  1.00 20.00     0.005 C 
ENDBRANCH   4   5
ENDBRANCH   2   4
ENDBRANCH   1   2
BRANCH   1   7
HETATM    7  C9  UNL     1     -34.529  15.228  -6.155  1.00 20.00    -0.004 C 
HETATM    8  C3  UNL     1     -34.744  14.688  -7.574  1.00 20.00     0.011 C 
BRANCH   7   9
HETATM    9  C7  UNL     1     -34.726  16.751  -6.102  1.00 20.00     0.119 C 
HETATM   10 CL10 UNL     1     -33.407  17.611  -5.272  1.00 20.00    -0.130 Cl
ENDBRANCH   7   9
ENDBRANCH   1   7
TORSDOF 5
ENDMDL
MODEL 8
REMARK VINA RESULT:      -4.0     11.067     12.242
REMARK  5 active torsions:
REMARK  status: ('A' for Active; 'I' for Inactive)
REMARK    1  A    between atoms: C4_4  and  C5_5 
REMARK    2  A    between atoms: C5_5  and  C8_8 
REMARK    3  A    between atoms: C6_6  and  C8_8 
REMARK    4  A    between atoms: C6_6  and  C9_9 
REMARK    5  A    between atoms: C7_7  and  C9_9 
ROOT
HETATM    1  C6  UNL     1     -33.610  16.370  -3.126  1.00 20.00     0.009 C 
ENDROOT
BRANCH   1   2
HETATM    2  C8  UNL     1     -33.233  15.349  -4.219  1.00 20.00    -0.018 C 
HETATM    3  C2  UNL     1     -33.529  13.910  -3.790  1.00 20.00     0.010 C 
BRANCH   2   4
HETATM    4  C5  UNL     1     -33.907  15.686  -5.570  1.00 20.00     0.004 C 
BRANCH   4   5
HETATM    5  C4  UNL     1     -34.655  14.530  -6.240  1.00 20.00    -0.004 C 
HETATM    6  C1  UNL     1     -34.950  14.840  -7.700  1.00 20.00     0.005 C 
ENDBRANCH   4   5
ENDBRANCH   2   4
ENDBRANCH   1   2
BRANCH   1   7
HETATM    7  C9  UNL     1     -34.819  15.993  -2.239  1.00 20.00    -0.004 C 
HETATM    8  C3  UNL     1     -34.652  16.619  -0.849  1.00 20.00     0.011 C 
BRANCH   7   9
HETATM    9  C7  UNL     1     -36.188  16.339  -2.845  1.00 20.00     0.119 C 
HETATM   10 CL10 UNL     1     -37.042  14.932  -3.525  1.00 20.00    -0.130 Cl
ENDBRANCH   7   9
ENDBRANCH   1   7
TORSDOF 5
ENDMDL
MODEL 9
REMARK VINA RESULT:      -4.0     11.354     12.829
REMARK  5 active torsions:
REMARK  status: ('A' for Active; 'I' for Inactive)
REMARK    1  A    between atoms: C4_4  and  C5_5 
REMARK    2  A    between atoms: C5_5  and  C8_8 
REMARK    3  A    between atoms: C6_6  and  C8_8 
REMARK    4  A    between atoms: C6_6  and  C9_9 
REMARK    5  A    between atoms: C7_7  and  C9_9 
ROOT
HETATM    1  C6  UNL     1     -33.477  16.136  -4.967  1.00 20.00     0.009 C 
ENDROOT
BRANCH   1   2
HETATM    2  C8  UNL     1     -34.017  17.134  -3.920  1.00 20.00    -0.018 C 
HETATM    3  C2  UNL     1     -35.532  17.322  -4.030  1.00 20.00     0.010 C 
BRANCH   2   4
HETATM    4  C5  UNL     1     -33.599  16.735  -2.486  1.00 20.00     0.004 C 
BRANCH   4   5
HETATM    5  C4  UNL     1     -34.736  16.257  -1.577  1.00 20.00    -0.004 C 
HETATM    6  C1  UNL     1     -34.745  17.021  -0.261  1.00 20.00     0.005 C 
ENDBRANCH   4   5
ENDBRANCH   2   4
ENDBRANCH   1   2
BRANCH   1   7
HETATM    7  C9  UNL     1     -34.517  15.164  -5.569  1.00 20.00    -0.004 C 
HETATM    8  C3  UNL     1     -34.336  15.096  -7.091  1.00 20.00     0.011 C 
BRANCH   7   9
HETATM    9  C7  UNL     1     -34.517  13.760  -4.945  1.00 20.00     0.119 C 
HETATM   10 CL10 UNL     1     -33.206  13.505  -3.767  1.00 20.00    -0.130 Cl
ENDBRANCH   7   9
ENDBRANCH   1   7
TORSDOF 5
ENDMDL
