MODEL 1
REMARK VINA RESULT:      -5.2      0.000      0.000
REMARK  4 active torsions:
REMARK  status: ('A' for Active; 'I' for Inactive)
REMARK    1  A    between atoms: C2_2  and  C7_7 
REMARK    2  A    between atoms: C2_2  and  C8_8 
REMARK    3  A    between atoms: C3_3  and  C9_9 
REMARK    4  A    between atoms: C8_8  and  C9_9 
ROOT
HETATM    1  C8  UNL     1     -32.788   6.095   3.471  1.00 20.00     0.045 C 
ENDROOT
BRANCH   1   2
HETATM    2  C2  UNL     1     -31.996   7.352   3.172  1.00 20.00    -0.089 C 
HETATM    3  C1  UNL     1     -31.246   7.934   4.123  1.00 20.00     0.014 C 
BRANCH   2   4
HETATM    4  C7  UNL     1     -32.064   7.939   1.780  1.00 20.00     0.029 C 
HETATM    5  C5  UNL     1     -32.439   9.415   1.771  1.00 20.00     0.010 C 
ENDBRANCH   2   4
ENDBRANCH   1   2
BRANCH   1   6
HETATM    6  C9  UNL     1     -34.155   6.350   4.132  1.00 20.00     0.055 C 
HETATM    7  C6  UNL     1     -35.247   5.527   3.453  1.00 20.00     0.018 C 
BRANCH   6   8
HETATM    8  C3  UNL     1     -34.137   6.000   5.617  1.00 20.00     0.127 C 
HETATM    9  C4  UNL     1     -34.679   4.646   5.999  1.00 20.00     0.091 C 
HETATM   10  O10 UNL     1     -33.675   6.761   6.467  1.00 20.00    -0.298 OA
ENDBRANCH   6   8
ENDBRANCH   1   6
TORSDOF 4
ENDMDL
MODEL 2
REMARK VINA RESULT:      -5.0      1.418      4.235
REMARK  4 active torsions:
REMARK  status: ('A' for Active; 'I' for Inactive)
REMARK    1  A    between atoms: C2_2  and  C7_7 
REMARK    2  A    between atoms: C2_2  and  C8_8 
REMARK    3  A    between atoms: C3_3  and  C9_9 
REMARK    4  A    between atoms: C8_8  and  C9_9 
ROOT
HETATM    1  C8  UNL     1     -34.052   6.551   4.288  1.00 20.00     0.045 C 
ENDROOT
BRANCH   1   2
HETATM    2  C2  UNL     1     -34.070   6.237   5.770  1.00 20.00    -0.089 C 
HETATM    3  C1  UNL     1     -33.600   7.122   6.665  1.00 20.00     0.014 C 
BRANCH   2   4
HETATM    4  C7  UNL     1     -34.632   4.909   6.224  1.00 20.00     0.029 C 
HETATM    5  C5  UNL     1     -35.176   4.066   5.078  1.00 20.00     0.010 C 
ENDBRANCH   2   4
ENDBRANCH   1   2
BRANCH   1   6
HETATM    6  C9  UNL     1     -32.733   6.189   3.581  1.00 20.00     0.055 C 
HETATM    7  C6  UNL     1     -33.005   5.503   2.244  1.00 20.00     0.018 C 
BRANCH   6   8
HETATM    8  C3  UNL     1     -31.873   7.423   3.325  1.00 20.00     0.127 C 
HETATM    9  C4  UNL     1     -32.104   8.150   2.024  1.00 20.00     0.091 C 
HETATM   10  O10 UNL     1     -31.054   7.836   4.146  1.00 20.00    -0.298 OA
ENDBRANCH   6   8
ENDBRANCH   1   6
TORSDOF 4
ENDMDL
MODEL 3
REMARK VINA RESULT:      -4.8      1.515      2.042
REMARK  4 active torsions:
REMARK  status: ('A' for Active; 'I' for Inactive)
REMARK    1  A    between atoms: C2_2  and  C7_7 
REMARK    2  A    between atoms: C2_2  and  C8_8 
REMARK    3  A    between atoms: C3_3  and  C9_9 
REMARK    4  A    between atoms: C8_8  and  C9_9 
ROOT
HETATM    1  C8  UNL     1     -33.738   7.079   3.954  1.00 20.00     0.045 C 
ENDROOT
BRANCH   1   2
HETATM    2  C2  UNL     1     -32.546   6.916   3.031  1.00 20.00    -0.089 C 
HETATM    3  C1  UNL     1     -32.195   5.704   2.571  1.00 20.00     0.014 C 
BRANCH   2   4
HETATM    4  C7  UNL     1     -31.763   8.146   2.635  1.00 20.00     0.029 C 
HETATM    5  C5  UNL     1     -32.144   8.681   1.260  1.00 20.00     0.010 C 
ENDBRANCH   2   4
ENDBRANCH   1   2
BRANCH   1   6
HETATM    6  C9  UNL     1     -33.813   6.031   5.080  1.00 20.00     0.055 C 
HETATM    7  C6  UNL     1     -33.953   6.709   6.442  1.00 20.00     0.018 C 
BRANCH   6   8
HETATM    8  C3  UNL     1     -34.991   5.081   4.889  1.00 20.00     0.127 C 
HETATM    9  C4  UNL     1     -35.153   3.990   5.917  1.00 20.00     0.091 C 
HETATM   10  O10 UNL     1     -35.797   5.209   3.967  1.00 20.00    -0.298 OA
ENDBRANCH   6   8
ENDBRANCH   1   6
TORSDOF 4
ENDMDL
MODEL 4
REMARK VINA RESULT:      -4.7      1.487      4.239
REMARK  4 active torsions:
REMARK  status: ('A' for Active; 'I' for Inactive)
REMARK    1  A    between atoms: C2_2  and  C7_7 
REMARK    2  A    between atoms: C2_2  and  C8_8 
REMARK    3  A    between atoms: C3_3  and  C9_9 
REMARK    4  A    between atoms: C8_8  and  C9_9 
ROOT
HETATM    1  C8  UNL     1     -34.073   6.412   3.981  1.00 20.00     0.045 C 
ENDROOT
BRANCH   1   2
HETATM    2  C2  UNL     1     -34.569   5.451   5.043  1.00 20.00    -0.089 C 
HETATM    3  C1  UNL     1     -35.157   4.293   4.699  1.00 20.00     0.014 C 
BRANCH   2   4
HETATM    4  C7  UNL     1     -34.385   5.819   6.498  1.00 20.00     0.029 C 
HETATM    5  C5  UNL     1     -33.671   7.150   6.693  1.00 20.00     0.010 C 
ENDBRANCH   2   4
ENDBRANCH   1   2
BRANCH   1   6
HETATM    6  C9  UNL     1     -32.632   6.145   3.509  1.00 20.00     0.055 C 
HETATM    7  C6  UNL     1     -32.628   5.376   2.190  1.00 20.00     0.018 C 
BRANCH   6   8
HETATM    8  C3  UNL     1     -31.853   7.443   3.315  1.00 20.00     0.127 C 
HETATM    9  C4  UNL     1     -32.104   8.197   2.034  1.00 20.00     0.091 C 
HETATM   10  O10 UNL     1     -31.081   7.881   4.169  1.00 20.00    -0.298 OA
ENDBRANCH   6   8
ENDBRANCH   1   6
TORSDOF 4
ENDMDL
MODEL 5
REMARK VINA RESULT:      -4.5      1.972      4.791
REMARK  4 active torsions:
REMARK  status: ('A' for Active; 'I' for Inactive)
REMARK    1  A    between atoms: C2_2  and  C7_7 
REMARK    2  A    between atoms: C2_2  and  C8_8 
REMARK    3  A    between atoms: C3_3  and  C9_9 
REMARK    4  A    between atoms: C8_8  and  C9_9 
ROOT
HETATM    1  C8  UNL     1     -32.885   6.358   3.024  1.00 20.00     0.045 C 
ENDROOT
BRANCH   1   2
HETATM    2  C2  UNL     1     -34.019   5.995   3.961  1.00 20.00    -0.089 C 
HETATM    3  C1  UNL     1     -35.139   5.419   3.492  1.00 20.00     0.014 C 
BRANCH   2   4
HETATM    4  C7  UNL     1     -33.865   6.290   5.435  1.00 20.00     0.029 C 
HETATM    5  C5  UNL     1     -34.643   5.328   6.323  1.00 20.00     0.010 C 
ENDBRANCH   2   4
ENDBRANCH   1   2
BRANCH   1   6
HETATM    6  C9  UNL     1     -32.328   7.779   3.226  1.00 20.00     0.055 C 
HETATM    7  C6  UNL     1     -30.975   7.735   3.933  1.00 20.00     0.018 C 
BRANCH   6   8
HETATM    8  C3  UNL     1     -32.155   8.511   1.898  1.00 20.00     0.127 C 
HETATM    9  C4  UNL     1     -32.707   9.913   1.823  1.00 20.00     0.091 C 
HETATM   10  O10 UNL     1     -31.567   8.009   0.941  1.00 20.00    -0.298 OA
ENDBRANCH   6   8
ENDBRANCH   1   6
TORSDOF 4
ENDMDL
MODEL 6
REMARK VINA RESULT:      -4.4     10.580     11.835
REMARK  4 active torsions:
REMARK  status: ('A' for Active; 'I' for Inactive)
REMARK    1  A    between atoms: C2_2  and  C7_7 
REMARK    2  A    between atoms: C2_2  and  C8_8 
REMARK    3  A    between atoms: C3_3  and  C9_9 
REMARK    4  A    between atoms: C8_8  and  C9_9 
ROOT
HETATM    1  C8  UNL     1     -34.877  15.144  -2.986  1.00 20.00     0.045 C 
ENDROOT
BRANCH   1   2
HETATM    2  C2  UNL     1     -34.408  16.434  -2.343  1.00 20.00    -0.089 C 
HETATM    3  C1  UNL     1     -33.835  17.400  -3.081  1.00 20.00     0.014 C 
BRANCH   2   4
HETATM    4  C7  UNL     1     -34.601  16.615  -0.855  1.00 20.00     0.029 C 
HETATM    5  C5  UNL     1     -33.844  17.812  -0.295  1.00 20.00     0.010 C 
ENDBRANCH   2   4
ENDBRANCH   1   2
BRANCH   1   6
HETATM    6  C9  UNL     1     -33.936  14.603  -4.078  1.00 20.00     0.055 C 
HETATM    7  C6  UNL     1     -32.788  13.809  -3.459  1.00 20.00     0.018 C 
BRANCH   6   8
HETATM    8  C3  UNL     1     -34.674  13.699  -5.062  1.00 20.00     0.127 C 
HETATM    9  C4  UNL     1     -35.148  14.339  -6.342  1.00 20.00     0.091 C 
HETATM   10  O10 UNL     1     -34.850  12.500  -4.849  1.00 20.00    -0.298 OA
ENDBRANCH   6   8
ENDBRANCH   1   6
TORSDOF 4
ENDMDL
MODEL 7
REMARK VINA RESULT:      -4.2     10.767     11.649
REMARK  4 active torsions:
REMARK  status: ('A' for Active; 'I' for Inactive)
REMARK    1  A    between atoms: C2_2  and  C7_7 
REMARK    2  A    between atoms: C2_2  and  C8_8 
REMARK    3  A    between atoms: C3_3  and  C9_9 
REMARK    4  A    between atoms: C8_8  and  C9_9 
ROOT
HETATM    1  C8  UNL     1     -33.528  15.954  -2.871  1.00 20.00     0.045 C 
ENDROOT
BRANCH   1   2
HETATM    2  C2  UNL     1     -33.944  17.050  -1.910  1.00 20.00    -0.089 C 
HETATM    3  C1  UNL     1     -33.678  18.338  -2.181  1.00 20.00     0.014 C 
BRANCH   2   4
HETATM    4  C7  UNL     1     -34.669  16.665  -0.640  1.00 20.00     0.029 C 
HETATM    5  C5  UNL     1     -34.546  17.711   0.460  1.00 20.00     0.010 C 
ENDBRANCH   2   4
ENDBRANCH   1   2
BRANCH   1   6
HETATM    6  C9  UNL     1     -34.641  14.941  -3.196  1.00 20.00     0.055 C 
HETATM    7  C6  UNL     1     -35.726  15.587  -4.055  1.00 20.00     0.018 C 
BRANCH   6   8
HETATM    8  C3  UNL     1     -34.096  13.724  -3.938  1.00 20.00     0.127 C 
HETATM    9  C4  UNL     1     -34.879  13.260  -5.141  1.00 20.00     0.091 C 
HETATM   10  O10 UNL     1     -33.053  13.162  -3.605  1.00 20.00    -0.298 OA
ENDBRANCH   6   8
ENDBRANCH   1   6
TORSDOF 4
ENDMDL
MODEL 8
REMARK VINA RESULT:      -4.2     10.614     11.975
REMARK  4 active torsions:
REMARK  status: ('A' for Active; 'I' for Inactive)
REMARK    1  A    between atoms: C2_2  and  C7_7 
REMARK    2  A    between atoms: C2_2  and  C8_8 
REMARK    3  A    between atoms: C3_3  and  C9_9 
REMARK    4  A    between atoms: C8_8  and  C9_9 
ROOT
HETATM    1  C8  UNL     1     -34.929  15.151  -2.967  1.00 20.00     0.045 C 
ENDROOT
BRANCH   1   2
HETATM    2  C2  UNL     1     -34.460  16.414  -2.274  1.00 20.00    -0.089 C 
HETATM    3  C1  UNL     1     -34.590  16.555  -0.944  1.00 20.00     0.014 C 
BRANCH   2   4
HETATM    4  C7  UNL     1     -33.838  17.511  -3.107  1.00 20.00     0.029 C 
HETATM    5  C5  UNL     1     -34.835  18.198  -4.031  1.00 20.00     0.010 C 
ENDBRANCH   2   4
ENDBRANCH   1   2
BRANCH   1   6
HETATM    6  C9  UNL     1     -33.978  14.640  -4.065  1.00 20.00     0.055 C 
HETATM    7  C6  UNL     1     -32.806  13.876  -3.452  1.00 20.00     0.018 C 
BRANCH   6   8
HETATM    8  C3  UNL     1     -34.694  13.720  -5.049  1.00 20.00     0.127 C 
HETATM    9  C4  UNL     1     -35.112  14.330  -6.363  1.00 20.00     0.091 C 
HETATM   10  O10 UNL     1     -34.895  12.530  -4.809  1.00 20.00    -0.298 OA
ENDBRANCH   6   8
ENDBRANCH   1   6
TORSDOF 4
ENDMDL
MODEL 9
REMARK VINA RESULT:      -4.2     10.634     11.710
REMARK  4 active torsions:
REMARK  status: ('A' for Active; 'I' for Inactive)
REMARK    1  A    between atoms: C2_2  and  C7_7 
REMARK    2  A    between atoms: C2_2  and  C8_8 
REMARK    3  A    between atoms: C3_3  and  C9_9 
REMARK    4  A    between atoms: C8_8  and  C9_9 
ROOT
HETATM    1  C8  UNL     1     -34.887  16.126  -3.575  1.00 20.00     0.045 C 
ENDROOT
BRANCH   1   2
HETATM    2  C2  UNL     1     -34.996  17.017  -2.354  1.00 20.00    -0.089 C 
HETATM    3  C1  UNL     1     -35.511  18.254  -2.451  1.00 20.00     0.014 C 
BRANCH   2   4
HETATM    4  C7  UNL     1     -34.514  16.486  -1.023  1.00 20.00     0.029 C 
HETATM    5  C5  UNL     1     -34.968  17.333   0.158  1.00 20.00     0.010 C 
ENDBRANCH   2   4
ENDBRANCH   1   2
BRANCH   1   6
HETATM    6  C9  UNL     1     -35.537  14.740  -3.407  1.00 20.00     0.055 C 
HETATM    7  C6  UNL     1     -36.857  14.665  -4.173  1.00 20.00     0.018 C 
BRANCH   6   8
HETATM    8  C3  UNL     1     -34.624  13.625  -3.906  1.00 20.00     0.127 C 
HETATM    9  C4  UNL     1     -33.147  13.795  -3.648  1.00 20.00     0.091 C 
HETATM   10  O10 UNL     1     -35.059  12.616  -4.460  1.00 20.00    -0.298 OA
ENDBRANCH   6   8
ENDBRANCH   1   6
TORSDOF 4
ENDMDL
