MODEL 1
REMARK VINA RESULT:      -4.2      0.000      0.000
REMARK  4 active torsions:
REMARK  status: ('A' for Active; 'I' for Inactive)
REMARK    1  A    between atoms: C3_3  and  C6_6 
REMARK    2  A    between atoms: C3_3  and  C7_7 
REMARK    3  A    between atoms: C6_6  and  C9_9 
REMARK    4  A    between atoms: C8_8  and  C9_9 
ROOT
HETATM    1  C1  UNL     1     -33.312  13.684  -3.794  1.00 20.00     0.011 A 
HETATM    2  C2  UNL     1     -34.801  13.872  -3.742  1.00 20.00     0.011 A 
HETATM    3  C3  UNL     1     -33.900  15.067  -3.948  1.00 20.00    -0.027 A 
ENDROOT
BRANCH   3   4
HETATM    4  C6  UNL     1     -33.735  16.044  -2.793  1.00 20.00     0.015 C 
BRANCH   4   5
HETATM    5  C9  UNL     1     -35.015  16.236  -1.950  1.00 20.00    -0.018 C 
HETATM    6  C5  UNL     1     -36.020  17.155  -2.652  1.00 20.00     0.010 C 
BRANCH   5   7
HETATM    7  C8  UNL     1     -34.620  16.782  -0.561  1.00 20.00    -0.000 C 
HETATM    8  C4  UNL     1     -33.543  17.857  -0.605  1.00 20.00     0.005 C 
ENDBRANCH   5   7
ENDBRANCH   4   5
ENDBRANCH   3   4
BRANCH   3   9
HETATM    9  C7  UNL     1     -33.868  15.700  -5.312  1.00 20.00     0.124 C 
HETATM   10 CL10 UNL     1     -33.375  17.407  -5.206  1.00 20.00    -0.130 Cl
ENDBRANCH   3   9
TORSDOF 4
ENDMDL
MODEL 2
REMARK VINA RESULT:      -4.1     11.810     12.689
REMARK  4 active torsions:
REMARK  status: ('A' for Active; 'I' for Inactive)
REMARK    1  A    between atoms: C3_3  and  C6_6 
REMARK    2  A    between atoms: C3_3  and  C7_7 
REMARK    3  A    between atoms: C6_6  and  C9_9 
REMARK    4  A    between atoms: C8_8  and  C9_9 
ROOT
HETATM    1  C1  UNL     1     -34.039   5.005   2.416  1.00 20.00     0.011 A 
HETATM    2  C2  UNL     1     -35.054   5.991   2.920  1.00 20.00     0.011 A 
HETATM    3  C3  UNL     1     -33.608   6.124   3.335  1.00 20.00    -0.027 A 
ENDROOT
BRANCH   3   4
HETATM    4  C6  UNL     1     -33.242   5.767   4.769  1.00 20.00     0.015 C 
BRANCH   4   5
HETATM    5  C9  UNL     1     -34.194   6.370   5.825  1.00 20.00    -0.018 C 
HETATM    6  C5  UNL     1     -33.446   7.279   6.805  1.00 20.00     0.010 C 
BRANCH   5   7
HETATM    7  C8  UNL     1     -34.919   5.221   6.557  1.00 20.00    -0.000 C 
HETATM    8  C4  UNL     1     -34.828   3.881   5.841  1.00 20.00     0.005 C 
ENDBRANCH   5   7
ENDBRANCH   4   5
ENDBRANCH   3   4
BRANCH   3   9
HETATM    9  C7  UNL     1     -32.805   7.251   2.746  1.00 20.00     0.124 C 
HETATM   10 CL10 UNL     1     -31.361   7.581   3.733  1.00 20.00    -0.130 Cl
ENDBRANCH   3   9
TORSDOF 4
ENDMDL
MODEL 3
REMARK VINA RESULT:      -4.1      1.385      3.981
REMARK  4 active torsions:
REMARK  status: ('A' for Active; 'I' for Inactive)
REMARK    1  A    between atoms: C3_3  and  C6_6 
REMARK    2  A    between atoms: C3_3  and  C7_7 
REMARK    3  A    between atoms: C6_6  and  C9_9 
REMARK    4  A    between atoms: C8_8  and  C9_9 
ROOT
HETATM    1  C1  UNL     1     -34.744  16.872  -0.374  1.00 20.00     0.011 A 
HETATM    2  C2  UNL     1     -33.581  17.381  -1.176  1.00 20.00     0.011 A 
HETATM    3  C3  UNL     1     -34.829  16.910  -1.882  1.00 20.00    -0.027 A 
ENDROOT
BRANCH   3   4
HETATM    4  C6  UNL     1     -34.768  15.587  -2.633  1.00 20.00     0.015 C 
BRANCH   4   5
HETATM    5  C9  UNL     1     -33.434  15.350  -3.373  1.00 20.00    -0.018 C 
HETATM    6  C5  UNL     1     -33.312  16.240  -4.614  1.00 20.00     0.010 C 
BRANCH   5   7
HETATM    7  C8  UNL     1     -33.322  13.854  -3.734  1.00 20.00    -0.000 C 
HETATM    8  C4  UNL     1     -34.529  13.310  -4.486  1.00 20.00     0.005 C 
ENDBRANCH   5   7
ENDBRANCH   4   5
ENDBRANCH   3   4
BRANCH   3   9
HETATM    9  C7  UNL     1     -35.717  17.947  -2.513  1.00 20.00     0.124 C 
HETATM   10 CL10 UNL     1     -36.771  17.212  -3.746  1.00 20.00    -0.130 Cl
ENDBRANCH   3   9
TORSDOF 4
ENDMDL
MODEL 4
REMARK VINA RESULT:      -3.9     10.833     11.931
REMARK  4 active torsions:
REMARK  status: ('A' for Active; 'I' for Inactive)
REMARK    1  A    between atoms: C3_3  and  C6_6 
REMARK    2  A    between atoms: C3_3  and  C7_7 
REMARK    3  A    between atoms: C6_6  and  C9_9 
REMARK    4  A    between atoms: C8_8  and  C9_9 
ROOT
HETATM    1  C1  UNL     1     -35.545   5.719   3.347  1.00 20.00     0.011 A 
HETATM    2  C2  UNL     1     -34.296   4.987   2.950  1.00 20.00     0.011 A 
HETATM    3  C3  UNL     1     -34.243   6.017   4.053  1.00 20.00    -0.027 A 
ENDROOT
BRANCH   3   4
HETATM    4  C6  UNL     1     -33.558   7.344   3.757  1.00 20.00     0.015 C 
BRANCH   4   5
HETATM    5  C9  UNL     1     -32.127   7.197   3.197  1.00 20.00    -0.018 C 
HETATM    6  C5  UNL     1     -31.083   7.775   4.159  1.00 20.00     0.010 C 
BRANCH   5   7
HETATM    7  C8  UNL     1     -32.060   7.875   1.813  1.00 20.00    -0.000 C 
HETATM    8  C4  UNL     1     -32.499   9.333   1.819  1.00 20.00     0.005 C 
ENDBRANCH   5   7
ENDBRANCH   4   5
ENDBRANCH   3   4
BRANCH   3   9
HETATM    9  C7  UNL     1     -34.079   5.530   5.467  1.00 20.00     0.124 C 
HETATM   10 CL10 UNL     1     -33.763   6.890   6.571  1.00 20.00    -0.130 Cl
ENDBRANCH   3   9
TORSDOF 4
ENDMDL
MODEL 5
REMARK VINA RESULT:      -3.8      2.015      4.157
REMARK  4 active torsions:
REMARK  status: ('A' for Active; 'I' for Inactive)
REMARK    1  A    between atoms: C3_3  and  C6_6 
REMARK    2  A    between atoms: C3_3  and  C7_7 
REMARK    3  A    between atoms: C6_6  and  C9_9 
REMARK    4  A    between atoms: C8_8  and  C9_9 
ROOT
HETATM    1  C1  UNL     1     -33.793  17.023  -1.979  1.00 20.00     0.011 A 
HETATM    2  C2  UNL     1     -34.751  15.868  -1.983  1.00 20.00     0.011 A 
HETATM    3  C3  UNL     1     -33.987  16.212  -3.239  1.00 20.00    -0.027 A 
ENDROOT
BRANCH   3   4
HETATM    4  C6  UNL     1     -34.754  16.852  -4.388  1.00 20.00     0.015 C 
BRANCH   4   5
HETATM    5  C9  UNL     1     -33.909  17.062  -5.663  1.00 20.00    -0.018 C 
HETATM    6  C5  UNL     1     -33.579  18.542  -5.884  1.00 20.00     0.010 C 
BRANCH   5   7
HETATM    7  C8  UNL     1     -34.666  16.463  -6.867  1.00 20.00    -0.000 C 
HETATM    8  C4  UNL     1     -34.403  14.979  -7.083  1.00 20.00     0.005 C 
ENDBRANCH   5   7
ENDBRANCH   4   5
ENDBRANCH   3   4
BRANCH   3   9
HETATM    9  C7  UNL     1     -32.876  15.293  -3.664  1.00 20.00     0.124 C 
HETATM   10 CL10 UNL     1     -33.464  13.620  -3.822  1.00 20.00    -0.130 Cl
ENDBRANCH   3   9
TORSDOF 4
ENDMDL
MODEL 6
REMARK VINA RESULT:      -3.8      1.860      4.032
REMARK  4 active torsions:
REMARK  status: ('A' for Active; 'I' for Inactive)
REMARK    1  A    between atoms: C3_3  and  C6_6 
REMARK    2  A    between atoms: C3_3  and  C7_7 
REMARK    3  A    between atoms: C6_6  and  C9_9 
REMARK    4  A    between atoms: C8_8  and  C9_9 
ROOT
HETATM    1  C1  UNL     1     -34.173  13.928  -3.601  1.00 20.00     0.011 A 
HETATM    2  C2  UNL     1     -32.988  14.849  -3.586  1.00 20.00     0.011 A 
HETATM    3  C3  UNL     1     -34.380  15.416  -3.452  1.00 20.00    -0.027 A 
ENDROOT
BRANCH   3   4
HETATM    4  C6  UNL     1     -34.958  16.178  -4.636  1.00 20.00     0.015 C 
BRANCH   4   5
HETATM    5  C9  UNL     1     -33.891  16.714  -5.615  1.00 20.00    -0.018 C 
HETATM    6  C5  UNL     1     -33.633  18.209  -5.405  1.00 20.00     0.010 C 
BRANCH   5   7
HETATM    7  C8  UNL     1     -34.343  16.413  -7.060  1.00 20.00    -0.000 C 
HETATM    8  C4  UNL     1     -34.590  14.936  -7.333  1.00 20.00     0.005 C 
ENDBRANCH   5   7
ENDBRANCH   4   5
ENDBRANCH   3   4
BRANCH   3   9
HETATM    9  C7  UNL     1     -34.803  15.939  -2.106  1.00 20.00     0.124 C 
HETATM   10 CL10 UNL     1     -33.610  17.100  -1.475  1.00 20.00    -0.130 Cl
ENDBRANCH   3   9
TORSDOF 4
ENDMDL
MODEL 7
REMARK VINA RESULT:      -3.8     11.466     12.356
REMARK  4 active torsions:
REMARK  status: ('A' for Active; 'I' for Inactive)
REMARK    1  A    between atoms: C3_3  and  C6_6 
REMARK    2  A    between atoms: C3_3  and  C7_7 
REMARK    3  A    between atoms: C6_6  and  C9_9 
REMARK    4  A    between atoms: C8_8  and  C9_9 
ROOT
HETATM    1  C1  UNL     1     -32.278   7.903   2.519  1.00 20.00     0.011 A 
HETATM    2  C2  UNL     1     -31.482   7.508   3.729  1.00 20.00     0.011 A 
HETATM    3  C3  UNL     1     -32.673   6.680   3.312  1.00 20.00    -0.027 A 
ENDROOT
BRANCH   3   4
HETATM    4  C6  UNL     1     -33.931   6.760   4.166  1.00 20.00     0.015 C 
BRANCH   4   5
HETATM    5  C9  UNL     1     -34.166   5.516   5.050  1.00 20.00    -0.018 C 
HETATM    6  C5  UNL     1     -35.422   4.749   4.622  1.00 20.00     0.010 C 
BRANCH   5   7
HETATM    7  C8  UNL     1     -34.247   5.960   6.525  1.00 20.00    -0.000 C 
HETATM    8  C4  UNL     1     -33.626   7.324   6.793  1.00 20.00     0.005 C 
ENDBRANCH   5   7
ENDBRANCH   4   5
ENDBRANCH   3   4
BRANCH   3   9
HETATM    9  C7  UNL     1     -32.416   5.330   2.702  1.00 20.00     0.124 C 
HETATM   10 CL10 UNL     1     -33.804   4.805   1.719  1.00 20.00    -0.130 Cl
ENDBRANCH   3   9
TORSDOF 4
ENDMDL
MODEL 8
REMARK VINA RESULT:      -3.8      1.576      1.934
REMARK  4 active torsions:
REMARK  status: ('A' for Active; 'I' for Inactive)
REMARK    1  A    between atoms: C3_3  and  C6_6 
REMARK    2  A    between atoms: C3_3  and  C7_7 
REMARK    3  A    between atoms: C6_6  and  C9_9 
REMARK    4  A    between atoms: C8_8  and  C9_9 
ROOT
HETATM    1  C1  UNL     1     -34.807  13.285  -4.162  1.00 20.00     0.011 A 
HETATM    2  C2  UNL     1     -35.829  14.378  -4.056  1.00 20.00     0.011 A 
HETATM    3  C3  UNL     1     -34.520  14.642  -4.760  1.00 20.00    -0.027 A 
ENDROOT
BRANCH   3   4
HETATM    4  C6  UNL     1     -33.500  15.528  -4.060  1.00 20.00     0.015 C 
BRANCH   4   5
HETATM    5  C9  UNL     1     -34.104  16.804  -3.436  1.00 20.00    -0.018 C 
HETATM    6  C5  UNL     1     -33.730  18.056  -4.237  1.00 20.00     0.010 C 
BRANCH   5   7
HETATM    7  C8  UNL     1     -33.641  16.910  -1.968  1.00 20.00    -0.000 C 
HETATM    8  C4  UNL     1     -34.715  16.539  -0.955  1.00 20.00     0.005 C 
ENDBRANCH   5   7
ENDBRANCH   4   5
ENDBRANCH   3   4
BRANCH   3   9
HETATM    9  C7  UNL     1     -34.538  14.771  -6.258  1.00 20.00     0.124 C 
HETATM   10 CL10 UNL     1     -35.725  15.994  -6.774  1.00 20.00    -0.130 Cl
ENDBRANCH   3   9
TORSDOF 4
ENDMDL
MODEL 9
REMARK VINA RESULT:      -3.8      2.165      3.731
REMARK  4 active torsions:
REMARK  status: ('A' for Active; 'I' for Inactive)
REMARK    1  A    between atoms: C3_3  and  C6_6 
REMARK    2  A    between atoms: C3_3  and  C7_7 
REMARK    3  A    between atoms: C6_6  and  C9_9 
REMARK    4  A    between atoms: C8_8  and  C9_9 
ROOT
HETATM    1  C1  UNL     1     -34.093  16.137  -2.100  1.00 20.00     0.011 A 
HETATM    2  C2  UNL     1     -35.317  16.007  -2.959  1.00 20.00     0.011 A 
HETATM    3  C3  UNL     1     -34.003  15.438  -3.436  1.00 20.00    -0.027 A 
ENDROOT
BRANCH   3   4
HETATM    4  C6  UNL     1     -33.284  16.155  -4.570  1.00 20.00     0.015 C 
BRANCH   4   5
HETATM    5  C9  UNL     1     -34.219  16.626  -5.704  1.00 20.00    -0.018 C 
HETATM    6  C5  UNL     1     -34.189  15.664  -6.896  1.00 20.00     0.010 C 
BRANCH   5   7
HETATM    7  C8  UNL     1     -33.819  18.057  -6.120  1.00 20.00    -0.000 C 
HETATM    8  C4  UNL     1     -33.543  18.985  -4.945  1.00 20.00     0.005 C 
ENDBRANCH   5   7
ENDBRANCH   4   5
ENDBRANCH   3   4
BRANCH   3   9
HETATM    9  C7  UNL     1     -33.841  13.942  -3.441  1.00 20.00     0.124 C 
HETATM   10 CL10 UNL     1     -35.191  13.162  -4.301  1.00 20.00    -0.130 Cl
ENDBRANCH   3   9
TORSDOF 4
ENDMDL
