MODEL 1
REMARK VINA RESULT:      -4.5      0.000      0.000
REMARK  2 active torsions:
REMARK  status: ('A' for Active; 'I' for Inactive)
REMARK    1  A    between atoms: C6_6  and  O10_10 
REMARK    2  A    between atoms: C8_8  and  O10_10 
ROOT
HETATM    1  C1  UNL     1     -37.013  14.696  -3.794  1.00 20.00     0.098 C 
HETATM    2  C2  UNL     1     -34.469  13.263  -4.837  1.00 20.00     0.004 C 
HETATM    3  C3  UNL     1     -34.871  14.200  -5.977  1.00 20.00     0.004 C 
HETATM    4  C4  UNL     1     -34.616  14.072  -3.551  1.00 20.00     0.053 C 
HETATM    5  C5  UNL     1     -35.242  15.529  -5.322  1.00 20.00     0.053 C 
HETATM    6  C6  UNL     1     -35.624  15.169  -3.889  1.00 20.00     0.148 C 
HETATM    7  N9  UNL     1     -38.109  14.321  -3.720  1.00 20.00    -0.194 NA
ENDROOT
BRANCH   6   8
HETATM    8  O10 UNL     1     -35.445  16.296  -3.044  1.00 20.00    -0.366 OA
BRANCH   8   9
HETATM    9  C8  UNL     1     -34.306  16.148  -2.206  1.00 20.00     0.165 C 
HETATM   10  C7  UNL     1     -34.648  16.643  -0.817  1.00 20.00     0.033 C 
ENDBRANCH   8   9
ENDBRANCH   6   8
TORSDOF 2
ENDMDL
MODEL 2
REMARK VINA RESULT:      -4.3      1.682      2.143
REMARK  2 active torsions:
REMARK  status: ('A' for Active; 'I' for Inactive)
REMARK    1  A    between atoms: C6_6  and  O10_10 
REMARK    2  A    between atoms: C8_8  and  O10_10 
ROOT
HETATM    1  C1  UNL     1     -34.751  13.912  -4.048  1.00 20.00     0.098 C 
HETATM    2  C2  UNL     1     -33.481  16.298  -5.569  1.00 20.00     0.004 C 
HETATM    3  C3  UNL     1     -34.989  16.506  -5.725  1.00 20.00     0.004 C 
HETATM    4  C4  UNL     1     -33.257  15.902  -4.111  1.00 20.00     0.053 C 
HETATM    5  C5  UNL     1     -35.600  16.226  -4.354  1.00 20.00     0.053 C 
HETATM    6  C6  UNL     1     -34.592  15.320  -3.652  1.00 20.00     0.148 C 
HETATM    7  N9  UNL     1     -34.875  12.802  -4.361  1.00 20.00    -0.194 NA
ENDROOT
BRANCH   6   8
HETATM    8  O10 UNL     1     -34.735  15.438  -2.244  1.00 20.00    -0.366 OA
BRANCH   8   9
HETATM    9  C8  UNL     1     -34.097  16.607  -1.748  1.00 20.00     0.165 C 
HETATM   10  C7  UNL     1     -34.686  16.954  -0.397  1.00 20.00     0.033 C 
ENDBRANCH   8   9
ENDBRANCH   6   8
TORSDOF 2
ENDMDL
MODEL 3
REMARK VINA RESULT:      -4.2      2.168      2.613
REMARK  2 active torsions:
REMARK  status: ('A' for Active; 'I' for Inactive)
REMARK    1  A    between atoms: C6_6  and  O10_10 
REMARK    2  A    between atoms: C8_8  and  O10_10 
ROOT
HETATM    1  C1  UNL     1     -33.823  16.352  -4.727  1.00 20.00     0.098 C 
HETATM    2  C2  UNL     1     -35.630  13.861  -4.348  1.00 20.00     0.004 C 
HETATM    3  C3  UNL     1     -34.221  13.287  -4.507  1.00 20.00     0.004 C 
HETATM    4  C4  UNL     1     -35.497  15.060  -3.413  1.00 20.00     0.053 C 
HETATM    5  C5  UNL     1     -33.307  14.170  -3.660  1.00 20.00     0.053 C 
HETATM    6  C6  UNL     1     -34.041  15.502  -3.546  1.00 20.00     0.148 C 
HETATM    7  N9  UNL     1     -33.653  17.021  -5.659  1.00 20.00    -0.194 NA
ENDROOT
BRANCH   6   8
HETATM    8  O10 UNL     1     -33.615  16.191  -2.379  1.00 20.00    -0.366 OA
BRANCH   8   9
HETATM    9  C8  UNL     1     -34.674  16.341  -1.443  1.00 20.00     0.165 C 
HETATM   10  C7  UNL     1     -34.261  17.348  -0.390  1.00 20.00     0.033 C 
ENDBRANCH   8   9
ENDBRANCH   6   8
TORSDOF 2
ENDMDL
MODEL 4
REMARK VINA RESULT:      -4.1      1.666      2.224
REMARK  2 active torsions:
REMARK  status: ('A' for Active; 'I' for Inactive)
REMARK    1  A    between atoms: C6_6  and  O10_10 
REMARK    2  A    between atoms: C8_8  and  O10_10 
ROOT
HETATM    1  C1  UNL     1     -35.096  13.759  -4.697  1.00 20.00     0.098 C 
HETATM    2  C2  UNL     1     -34.512  15.023  -7.468  1.00 20.00     0.004 C 
HETATM    3  C3  UNL     1     -36.020  14.765  -7.478  1.00 20.00     0.004 C 
HETATM    4  C4  UNL     1     -34.192  15.609  -6.095  1.00 20.00     0.053 C 
HETATM    5  C5  UNL     1     -36.535  15.208  -6.110  1.00 20.00     0.053 C 
HETATM    6  C6  UNL     1     -35.321  15.127  -5.188  1.00 20.00     0.148 C 
HETATM    7  N9  UNL     1     -34.918  12.680  -4.311  1.00 20.00    -0.194 NA
ENDROOT
BRANCH   6   8
HETATM    8  O10 UNL     1     -35.493  16.007  -4.086  1.00 20.00    -0.366 OA
BRANCH   8   9
HETATM    9  C8  UNL     1     -34.292  16.151  -3.339  1.00 20.00     0.165 C 
HETATM   10  C7  UNL     1     -34.629  16.170  -1.863  1.00 20.00     0.033 C 
ENDBRANCH   8   9
ENDBRANCH   6   8
TORSDOF 2
ENDMDL
MODEL 5
REMARK VINA RESULT:      -4.1      1.992      3.231
REMARK  2 active torsions:
REMARK  status: ('A' for Active; 'I' for Inactive)
REMARK    1  A    between atoms: C6_6  and  O10_10 
REMARK    2  A    between atoms: C8_8  and  O10_10 
ROOT
HETATM    1  C1  UNL     1     -36.018  15.128  -5.508  1.00 20.00     0.098 C 
HETATM    2  C2  UNL     1     -33.660  13.973  -3.858  1.00 20.00     0.004 C 
HETATM    3  C3  UNL     1     -33.976  15.310  -3.184  1.00 20.00     0.004 C 
HETATM    4  C4  UNL     1     -35.006  13.311  -4.140  1.00 20.00     0.053 C 
HETATM    5  C5  UNL     1     -35.499  15.388  -3.093  1.00 20.00     0.053 C 
HETATM    6  C6  UNL     1     -36.007  14.463  -4.196  1.00 20.00     0.148 C 
HETATM    7  N9  UNL     1     -36.025  15.652  -6.543  1.00 20.00    -0.194 NA
ENDROOT
BRANCH   6   8
HETATM    8  O10 UNL     1     -37.316  14.010  -3.881  1.00 20.00    -0.366 OA
BRANCH   8   9
HETATM    9  C8  UNL     1     -38.207  15.095  -3.660  1.00 20.00     0.165 C 
HETATM   10  C7  UNL     1     -39.548  14.765  -4.282  1.00 20.00     0.033 C 
ENDBRANCH   8   9
ENDBRANCH   6   8
TORSDOF 2
ENDMDL
MODEL 6
REMARK VINA RESULT:      -4.0      1.906      3.842
REMARK  2 active torsions:
REMARK  status: ('A' for Active; 'I' for Inactive)
REMARK    1  A    between atoms: C6_6  and  O10_10 
REMARK    2  A    between atoms: C8_8  and  O10_10 
ROOT
HETATM    1  C1  UNL     1     -34.721  13.909  -4.327  1.00 20.00     0.098 C 
HETATM    2  C2  UNL     1     -35.878  16.300  -2.727  1.00 20.00     0.004 C 
HETATM    3  C3  UNL     1     -34.536  16.007  -2.054  1.00 20.00     0.004 C 
HETATM    4  C4  UNL     1     -35.624  16.227  -4.231  1.00 20.00     0.053 C 
HETATM    5  C5  UNL     1     -33.538  15.770  -3.186  1.00 20.00     0.053 C 
HETATM    6  C6  UNL     1     -34.388  15.341  -4.378  1.00 20.00     0.148 C 
HETATM    7  N9  UNL     1     -34.985  12.780  -4.287  1.00 20.00    -0.194 NA
ENDROOT
BRANCH   6   8
HETATM    8  O10 UNL     1     -33.704  15.628  -5.588  1.00 20.00    -0.366 OA
BRANCH   8   9
HETATM    9  C8  UNL     1     -34.596  16.066  -6.605  1.00 20.00     0.165 C 
HETATM   10  C7  UNL     1     -34.683  15.000  -7.676  1.00 20.00     0.033 C 
ENDBRANCH   8   9
ENDBRANCH   6   8
TORSDOF 2
ENDMDL
MODEL 7
REMARK VINA RESULT:      -4.0      1.330      2.115
REMARK  2 active torsions:
REMARK  status: ('A' for Active; 'I' for Inactive)
REMARK    1  A    between atoms: C6_6  and  O10_10 
REMARK    2  A    between atoms: C8_8  and  O10_10 
ROOT
HETATM    1  C1  UNL     1     -37.009  14.745  -4.043  1.00 20.00     0.098 C 
HETATM    2  C2  UNL     1     -34.165  13.626  -3.518  1.00 20.00     0.004 C 
HETATM    3  C3  UNL     1     -34.493  13.175  -4.943  1.00 20.00     0.004 C 
HETATM    4  C4  UNL     1     -34.623  15.079  -3.417  1.00 20.00     0.053 C 
HETATM    5  C5  UNL     1     -35.135  14.379  -5.631  1.00 20.00     0.053 C 
HETATM    6  C6  UNL     1     -35.695  15.229  -4.494  1.00 20.00     0.148 C 
HETATM    7  N9  UNL     1     -38.044  14.362  -3.687  1.00 20.00    -0.194 NA
ENDROOT
BRANCH   6   8
HETATM    8  O10 UNL     1     -35.804  16.582  -4.912  1.00 20.00    -0.366 OA
BRANCH   8   9
HETATM    9  C8  UNL     1     -34.654  17.336  -4.553  1.00 20.00     0.165 C 
HETATM   10  C7  UNL     1     -34.006  17.875  -5.810  1.00 20.00     0.033 C 
ENDBRANCH   8   9
ENDBRANCH   6   8
TORSDOF 2
ENDMDL
MODEL 8
REMARK VINA RESULT:      -4.0      2.452      3.265
REMARK  2 active torsions:
REMARK  status: ('A' for Active; 'I' for Inactive)
REMARK    1  A    between atoms: C6_6  and  O10_10 
REMARK    2  A    between atoms: C8_8  and  O10_10 
ROOT
HETATM    1  C1  UNL     1     -34.149  13.651  -4.198  1.00 20.00     0.098 C 
HETATM    2  C2  UNL     1     -34.240  16.257  -5.875  1.00 20.00     0.004 C 
HETATM    3  C3  UNL     1     -34.377  15.137  -6.907  1.00 20.00     0.004 C 
HETATM    4  C4  UNL     1     -35.147  15.873  -4.708  1.00 20.00     0.053 C 
HETATM    5  C5  UNL     1     -35.360  14.131  -6.311  1.00 20.00     0.053 C 
HETATM    6  C6  UNL     1     -35.289  14.356  -4.804  1.00 20.00     0.148 C 
HETATM    7  N9  UNL     1     -33.249  13.096  -3.720  1.00 20.00    -0.194 NA
ENDROOT
BRANCH   6   8
HETATM    8  O10 UNL     1     -36.495  13.923  -4.193  1.00 20.00    -0.366 OA
BRANCH   8   9
HETATM    9  C8  UNL     1     -37.261  15.019  -3.711  1.00 20.00     0.165 C 
HETATM   10  C7  UNL     1     -38.728  14.746  -3.969  1.00 20.00     0.033 C 
ENDBRANCH   8   9
ENDBRANCH   6   8
TORSDOF 2
ENDMDL
MODEL 9
REMARK VINA RESULT:      -4.0      2.386      3.186
REMARK  2 active torsions:
REMARK  status: ('A' for Active; 'I' for Inactive)
REMARK    1  A    between atoms: C6_6  and  O10_10 
REMARK    2  A    between atoms: C8_8  and  O10_10 
ROOT
HETATM    1  C1  UNL     1     -34.310  16.217  -2.143  1.00 20.00     0.098 C 
HETATM    2  C2  UNL     1     -33.486  13.650  -3.674  1.00 20.00     0.004 C 
HETATM    3  C3  UNL     1     -34.924  13.914  -4.123  1.00 20.00     0.004 C 
HETATM    4  C4  UNL     1     -32.781  15.005  -3.688  1.00 20.00     0.053 C 
HETATM    5  C5  UNL     1     -35.016  15.416  -4.385  1.00 20.00     0.053 C 
HETATM    6  C6  UNL     1     -33.902  16.032  -3.544  1.00 20.00     0.148 C 
HETATM    7  N9  UNL     1     -34.632  16.362  -1.038  1.00 20.00    -0.194 NA
ENDROOT
BRANCH   6   8
HETATM    8  O10 UNL     1     -33.514  17.282  -4.096  1.00 20.00    -0.366 OA
BRANCH   8   9
HETATM    9  C8  UNL     1     -33.614  17.282  -5.514  1.00 20.00     0.165 C 
HETATM   10  C7  UNL     1     -33.664  18.714  -6.004  1.00 20.00     0.033 C 
ENDBRANCH   8   9
ENDBRANCH   6   8
TORSDOF 2
ENDMDL
