MODEL 1
REMARK VINA RESULT:      -3.9      0.000      0.000
REMARK  3 active torsions:
REMARK  status: ('A' for Active; 'I' for Inactive)
REMARK    1  A    between atoms: C1_1  and  C6_6 
REMARK    2  A    between atoms: C5_5  and  C6_6 
REMARK    3  A    between atoms: C6_6  and  O8_8 
ROOT
HETATM    1  C4  UNL     1     -34.970  14.265  -5.834  1.00 20.00     0.054 C 
HETATM    2  C6  UNL     1     -34.942  13.915  -4.344  1.00 20.00     0.110 C 
ENDROOT
BRANCH   2   3
HETATM    3  C1  UNL     1     -33.500  13.975  -3.858  1.00 20.00     0.268 C 
HETATM    4  O7  UNL     1     -32.799  12.987  -3.656  1.00 20.00    -0.304 OA
ENDBRANCH   2   3
BRANCH   2   5
HETATM    5  C5  UNL     1     -35.872  14.820  -3.496  1.00 20.00     0.018 C 
HETATM    6  C2  UNL     1     -36.850  15.665  -4.317  1.00 20.00     0.013 C 
HETATM    7  C3  UNL     1     -35.087  15.732  -2.540  1.00 20.00     0.013 C 
ENDBRANCH   2   5
BRANCH   2   8
HETATM    8  O8  UNL     1     -35.389  12.568  -4.202  1.00 20.00    -0.383 OA
HETATM    9  H20 UNL     1     -34.593  12.025  -4.086  1.00 20.00     0.211 HD
ENDBRANCH   2   8
TORSDOF 3
ENDMDL
MODEL 2
REMARK VINA RESULT:      -3.9      1.391      3.166
REMARK  3 active torsions:
REMARK  status: ('A' for Active; 'I' for Inactive)
REMARK    1  A    between atoms: C1_1  and  C6_6 
REMARK    2  A    between atoms: C5_5  and  C6_6 
REMARK    3  A    between atoms: C6_6  and  O8_8 
ROOT
HETATM    1  C4  UNL     1     -34.392  14.737  -3.081  1.00 20.00     0.054 C 
HETATM    2  C6  UNL     1     -35.165  14.182  -4.279  1.00 20.00     0.110 C 
ENDROOT
BRANCH   2   3
HETATM    3  C1  UNL     1     -36.595  14.702  -4.217  1.00 20.00     0.268 C 
HETATM    4  O7  UNL     1     -37.548  14.051  -3.799  1.00 20.00    -0.304 OA
ENDBRANCH   2   3
BRANCH   2   5
HETATM    5  C5  UNL     1     -34.492  14.514  -5.636  1.00 20.00     0.018 C 
HETATM    6  C2  UNL     1     -33.865  15.909  -5.704  1.00 20.00     0.013 C 
HETATM    7  C3  UNL     1     -35.448  14.324  -6.824  1.00 20.00     0.013 C 
ENDBRANCH   2   5
BRANCH   2   8
HETATM    8  O8  UNL     1     -35.217  12.763  -4.148  1.00 20.00    -0.383 OA
HETATM    9  H20 UNL     1     -35.691  12.432  -4.927  1.00 20.00     0.211 HD
ENDBRANCH   2   8
TORSDOF 3
ENDMDL
MODEL 3
REMARK VINA RESULT:      -3.9      1.276      2.362
REMARK  3 active torsions:
REMARK  status: ('A' for Active; 'I' for Inactive)
REMARK    1  A    between atoms: C1_1  and  C6_6 
REMARK    2  A    between atoms: C5_5  and  C6_6 
REMARK    3  A    between atoms: C6_6  and  O8_8 
ROOT
HETATM    1  C4  UNL     1     -36.658  14.474  -4.114  1.00 20.00     0.054 C 
HETATM    2  C6  UNL     1     -35.202  14.027  -4.256  1.00 20.00     0.110 C 
ENDROOT
BRANCH   2   3
HETATM    3  C1  UNL     1     -34.724  14.367  -5.662  1.00 20.00     0.268 C 
HETATM    4  O7  UNL     1     -35.350  14.104  -6.684  1.00 20.00    -0.304 OA
ENDBRANCH   2   3
BRANCH   2   5
HETATM    5  C5  UNL     1     -34.276  14.638  -3.172  1.00 20.00     0.018 C 
HETATM    6  C2  UNL     1     -34.896  15.804  -2.397  1.00 20.00     0.013 C 
HETATM    7  C3  UNL     1     -32.915  15.068  -3.741  1.00 20.00     0.013 C 
ENDBRANCH   2   5
BRANCH   2   8
HETATM    8  O8  UNL     1     -35.163  12.608  -4.120  1.00 20.00    -0.383 OA
HETATM    9  H20 UNL     1     -34.319  12.318  -4.501  1.00 20.00     0.211 HD
ENDBRANCH   2   8
TORSDOF 3
ENDMDL
MODEL 4
REMARK VINA RESULT:      -3.8      1.686      2.971
REMARK  3 active torsions:
REMARK  status: ('A' for Active; 'I' for Inactive)
REMARK    1  A    between atoms: C1_1  and  C6_6 
REMARK    2  A    between atoms: C5_5  and  C6_6 
REMARK    3  A    between atoms: C6_6  and  O8_8 
ROOT
HETATM    1  C4  UNL     1     -34.497  15.232  -2.963  1.00 20.00     0.054 C 
HETATM    2  C6  UNL     1     -33.653  14.826  -4.174  1.00 20.00     0.110 C 
ENDROOT
BRANCH   2   3
HETATM    3  C1  UNL     1     -34.311  13.628  -4.845  1.00 20.00     0.268 C 
HETATM    4  O7  UNL     1     -34.951  12.768  -4.246  1.00 20.00    -0.304 OA
ENDBRANCH   2   3
BRANCH   2   5
HETATM    5  C5  UNL     1     -33.430  15.993  -5.171  1.00 20.00     0.018 C 
HETATM    6  C2  UNL     1     -33.703  17.382  -4.587  1.00 20.00     0.013 C 
HETATM    7  C3  UNL     1     -34.238  15.816  -6.466  1.00 20.00     0.013 C 
ENDBRANCH   2   5
BRANCH   2   8
HETATM    8  O8  UNL     1     -32.376  14.405  -3.696  1.00 20.00    -0.383 OA
HETATM    9  H20 UNL     1     -31.805  14.323  -4.476  1.00 20.00     0.211 HD
ENDBRANCH   2   8
TORSDOF 3
ENDMDL
MODEL 5
REMARK VINA RESULT:      -3.8      1.556      2.746
REMARK  3 active torsions:
REMARK  status: ('A' for Active; 'I' for Inactive)
REMARK    1  A    between atoms: C1_1  and  C6_6 
REMARK    2  A    between atoms: C5_5  and  C6_6 
REMARK    3  A    between atoms: C6_6  and  O8_8 
ROOT
HETATM    1  C4  UNL     1     -34.521  15.537  -2.706  1.00 20.00     0.054 C 
HETATM    2  C6  UNL     1     -34.309  14.856  -4.060  1.00 20.00     0.110 C 
ENDROOT
BRANCH   2   3
HETATM    3  C1  UNL     1     -35.301  13.708  -4.187  1.00 20.00     0.268 C 
HETATM    4  O7  UNL     1     -34.989  12.556  -4.473  1.00 20.00    -0.304 OA
ENDBRANCH   2   3
BRANCH   2   5
HETATM    5  C5  UNL     1     -34.414  15.842  -5.253  1.00 20.00     0.018 C 
HETATM    6  C2  UNL     1     -34.344  15.175  -6.630  1.00 20.00     0.013 C 
HETATM    7  C3  UNL     1     -33.368  16.965  -5.175  1.00 20.00     0.013 C 
ENDBRANCH   2   5
BRANCH   2   8
HETATM    8  O8  UNL     1     -32.997  14.295  -4.067  1.00 20.00    -0.383 OA
HETATM    9  H20 UNL     1     -32.417  14.958  -4.473  1.00 20.00     0.211 HD
ENDBRANCH   2   8
TORSDOF 3
ENDMDL
MODEL 6
REMARK VINA RESULT:      -3.8      1.413      2.426
REMARK  3 active torsions:
REMARK  status: ('A' for Active; 'I' for Inactive)
REMARK    1  A    between atoms: C1_1  and  C6_6 
REMARK    2  A    between atoms: C5_5  and  C6_6 
REMARK    3  A    between atoms: C6_6  and  O8_8 
ROOT
HETATM    1  C4  UNL     1     -35.876  16.280  -4.689  1.00 20.00     0.054 C 
HETATM    2  C6  UNL     1     -35.678  15.069  -3.775  1.00 20.00     0.110 C 
ENDROOT
BRANCH   2   3
HETATM    3  C1  UNL     1     -35.530  13.825  -4.641  1.00 20.00     0.268 C 
HETATM    4  O7  UNL     1     -35.107  12.747  -4.233  1.00 20.00    -0.304 OA
ENDBRANCH   2   3
BRANCH   2   5
HETATM    5  C5  UNL     1     -34.481  15.238  -2.804  1.00 20.00     0.018 C 
HETATM    6  C2  UNL     1     -34.720  16.249  -1.678  1.00 20.00     0.013 C 
HETATM    7  C3  UNL     1     -33.178  15.591  -3.539  1.00 20.00     0.013 C 
ENDBRANCH   2   5
BRANCH   2   8
HETATM    8  O8  UNL     1     -36.860  14.912  -2.993  1.00 20.00    -0.383 OA
HETATM    9  H20 UNL     1     -37.570  15.368  -3.472  1.00 20.00     0.211 HD
ENDBRANCH   2   8
TORSDOF 3
ENDMDL
MODEL 7
REMARK VINA RESULT:      -3.7      1.326      2.304
REMARK  3 active torsions:
REMARK  status: ('A' for Active; 'I' for Inactive)
REMARK    1  A    between atoms: C1_1  and  C6_6 
REMARK    2  A    between atoms: C5_5  and  C6_6 
REMARK    3  A    between atoms: C6_6  and  O8_8 
ROOT
HETATM    1  C4  UNL     1     -32.656  13.745  -3.410  1.00 20.00     0.054 C 
HETATM    2  C6  UNL     1     -33.801  14.604  -3.948  1.00 20.00     0.110 C 
ENDROOT
BRANCH   2   3
HETATM    3  C1  UNL     1     -34.705  13.729  -4.805  1.00 20.00     0.268 C 
HETATM    4  O7  UNL     1     -35.034  12.583  -4.512  1.00 20.00    -0.304 OA
ENDBRANCH   2   3
BRANCH   2   5
HETATM    5  C5  UNL     1     -34.594  15.323  -2.825  1.00 20.00     0.018 C 
HETATM    6  C2  UNL     1     -36.006  15.757  -3.229  1.00 20.00     0.013 C 
HETATM    7  C3  UNL     1     -33.832  16.530  -2.254  1.00 20.00     0.013 C 
ENDBRANCH   2   5
BRANCH   2   8
HETATM    8  O8  UNL     1     -33.238  15.603  -4.797  1.00 20.00    -0.383 OA
HETATM    9  H20 UNL     1     -32.892  15.138  -5.576  1.00 20.00     0.211 HD
ENDBRANCH   2   8
TORSDOF 3
ENDMDL
MODEL 8
REMARK VINA RESULT:      -3.5      1.972      2.961
REMARK  3 active torsions:
REMARK  status: ('A' for Active; 'I' for Inactive)
REMARK    1  A    between atoms: C1_1  and  C6_6 
REMARK    2  A    between atoms: C5_5  and  C6_6 
REMARK    3  A    between atoms: C6_6  and  O8_8 
ROOT
HETATM    1  C4  UNL     1     -33.285  16.552  -4.940  1.00 20.00     0.054 C 
HETATM    2  C6  UNL     1     -33.478  15.250  -4.161  1.00 20.00     0.110 C 
ENDROOT
BRANCH   2   3
HETATM    3  C1  UNL     1     -34.199  15.566  -2.858  1.00 20.00     0.268 C 
HETATM    4  O7  UNL     1     -33.819  16.403  -2.045  1.00 20.00    -0.304 OA
ENDBRANCH   2   3
BRANCH   2   5
HETATM    5  C5  UNL     1     -34.222  14.163  -4.980  1.00 20.00     0.018 C 
HETATM    6  C2  UNL     1     -34.698  14.629  -6.359  1.00 20.00     0.013 C 
HETATM    7  C3  UNL     1     -35.405  13.558  -4.208  1.00 20.00     0.013 C 
ENDBRANCH   2   5
BRANCH   2   8
HETATM    8  O8  UNL     1     -32.187  14.743  -3.827  1.00 20.00    -0.383 OA
HETATM    9  H20 UNL     1     -31.968  15.103  -2.953  1.00 20.00     0.211 HD
ENDBRANCH   2   8
TORSDOF 3
ENDMDL
MODEL 9
REMARK VINA RESULT:      -3.5      2.180      3.398
REMARK  3 active torsions:
REMARK  status: ('A' for Active; 'I' for Inactive)
REMARK    1  A    between atoms: C1_1  and  C6_6 
REMARK    2  A    between atoms: C5_5  and  C6_6 
REMARK    3  A    between atoms: C6_6  and  O8_8 
ROOT
HETATM    1  C4  UNL     1     -35.463  16.561  -4.559  1.00 20.00     0.054 C 
HETATM    2  C6  UNL     1     -35.782  15.329  -3.710  1.00 20.00     0.110 C 
ENDROOT
BRANCH   2   3
HETATM    3  C1  UNL     1     -37.012  14.644  -4.291  1.00 20.00     0.268 C 
HETATM    4  O7  UNL     1     -37.959  14.243  -3.621  1.00 20.00    -0.304 OA
ENDBRANCH   2   3
BRANCH   2   5
HETATM    5  C5  UNL     1     -34.583  14.353  -3.590  1.00 20.00     0.018 C 
HETATM    6  C2  UNL     1     -33.211  15.032  -3.628  1.00 20.00     0.013 C 
HETATM    7  C3  UNL     1     -34.630  13.238  -4.648  1.00 20.00     0.013 C 
ENDBRANCH   2   5
BRANCH   2   8
HETATM    8  O8  UNL     1     -36.119  15.776  -2.398  1.00 20.00    -0.383 OA
HETATM    9  H20 UNL     1     -35.287  15.821  -1.901  1.00 20.00     0.211 HD
ENDBRANCH   2   8
TORSDOF 3
ENDMDL
