MODEL 1
REMARK VINA RESULT:      -5.6      0.000      0.000
REMARK  3 active torsions:
REMARK  status: ('A' for Active; 'I' for Inactive)
REMARK    1  A    between atoms: C2_2  and  C9_9 
REMARK    2  A    between atoms: C2_2  and  C10_10 
REMARK    3  A    between atoms: C6_6  and  C9_9 
ROOT
HETATM    1  C3  UNL     1     -33.557   6.429   5.576  1.00 20.00     0.006 C 
HETATM    2  C4  UNL     1     -34.719   5.769   6.305  1.00 20.00     0.020 C 
HETATM    3  C5  UNL     1     -35.119   5.424   3.969  1.00 20.00     0.025 C 
HETATM    4  C6  UNL     1     -33.995   6.467   4.106  1.00 20.00    -0.009 C 
HETATM    5  C7  UNL     1     -35.218   4.719   5.321  1.00 20.00     0.082 C 
HETATM    6 CL11 UNL     1     -34.170   3.271   5.351  1.00 20.00    -0.125 Cl
ENDROOT
BRANCH   4   7
HETATM    7  C9  UNL     1     -32.836   6.216   3.151  1.00 20.00     0.038 C 
BRANCH   7   8
HETATM    8  C2  UNL     1     -31.994   7.448   2.909  1.00 20.00    -0.089 C 
HETATM    9  C1  UNL     1     -31.182   7.924   3.867  1.00 20.00     0.014 C 
BRANCH   8  10
HETATM   10  C10 UNL     1     -32.086   8.131   1.563  1.00 20.00     0.029 C 
HETATM   11  C8  UNL     1     -32.441   9.607   1.669  1.00 20.00     0.010 C 
ENDBRANCH   8  10
ENDBRANCH   7   8
ENDBRANCH   4   7
TORSDOF 3
ENDMDL
MODEL 2
REMARK VINA RESULT:      -5.0     11.298     12.301
REMARK  3 active torsions:
REMARK  status: ('A' for Active; 'I' for Inactive)
REMARK    1  A    between atoms: C2_2  and  C9_9 
REMARK    2  A    between atoms: C2_2  and  C10_10 
REMARK    3  A    between atoms: C6_6  and  C9_9 
ROOT
HETATM    1  C3  UNL     1     -33.792  13.732  -3.772  1.00 20.00     0.006 C 
HETATM    2  C4  UNL     1     -34.786  13.152  -4.768  1.00 20.00     0.020 C 
HETATM    3  C5  UNL     1     -35.553  15.368  -4.280  1.00 20.00     0.025 C 
HETATM    4  C6  UNL     1     -34.470  15.005  -3.248  1.00 20.00    -0.009 C 
HETATM    5  C7  UNL     1     -35.394  14.379  -5.434  1.00 20.00     0.082 C 
HETATM    6 CL11 UNL     1     -34.291  15.039  -6.677  1.00 20.00    -0.125 Cl
ENDROOT
BRANCH   4   7
HETATM    7  C9  UNL     1     -33.476  16.134  -3.012  1.00 20.00     0.038 C 
BRANCH   7   8
HETATM    8  C2  UNL     1     -33.919  17.095  -1.933  1.00 20.00    -0.089 C 
HETATM    9  C1  UNL     1     -33.607  18.399  -2.003  1.00 20.00     0.014 C 
BRANCH   8  10
HETATM   10  C10 UNL     1     -34.725  16.554  -0.773  1.00 20.00     0.029 C 
HETATM   11  C8  UNL     1     -34.781  17.511   0.409  1.00 20.00     0.010 C 
ENDBRANCH   8  10
ENDBRANCH   7   8
ENDBRANCH   4   7
TORSDOF 3
ENDMDL
MODEL 3
REMARK VINA RESULT:      -4.9     11.245     12.294
REMARK  3 active torsions:
REMARK  status: ('A' for Active; 'I' for Inactive)
REMARK    1  A    between atoms: C2_2  and  C9_9 
REMARK    2  A    between atoms: C2_2  and  C10_10 
REMARK    3  A    between atoms: C6_6  and  C9_9 
ROOT
HETATM    1  C3  UNL     1     -33.861  13.888  -3.547  1.00 20.00     0.006 C 
HETATM    2  C4  UNL     1     -34.836  13.292  -4.553  1.00 20.00     0.020 C 
HETATM    3  C5  UNL     1     -35.627  15.506  -4.093  1.00 20.00     0.025 C 
HETATM    4  C6  UNL     1     -34.556  15.160  -3.042  1.00 20.00    -0.009 C 
HETATM    5  C7  UNL     1     -35.444  14.510  -5.237  1.00 20.00     0.082 C 
HETATM    6 CL11 UNL     1     -34.329  15.169  -6.469  1.00 20.00    -0.125 Cl
ENDROOT
BRANCH   4   7
HETATM    7  C9  UNL     1     -33.573  16.298  -2.801  1.00 20.00     0.038 C 
BRANCH   7   8
HETATM    8  C2  UNL     1     -33.904  17.112  -1.572  1.00 20.00    -0.089 C 
HETATM    9  C1  UNL     1     -34.728  16.628  -0.628  1.00 20.00     0.014 C 
BRANCH   8  10
HETATM   10  C10 UNL     1     -33.283  18.483  -1.428  1.00 20.00     0.029 C 
HETATM   11  C8  UNL     1     -32.611  18.693  -0.078  1.00 20.00     0.010 C 
ENDBRANCH   8  10
ENDBRANCH   7   8
ENDBRANCH   4   7
TORSDOF 3
ENDMDL
MODEL 4
REMARK VINA RESULT:      -4.8     11.422     12.383
REMARK  3 active torsions:
REMARK  status: ('A' for Active; 'I' for Inactive)
REMARK    1  A    between atoms: C2_2  and  C9_9 
REMARK    2  A    between atoms: C2_2  and  C10_10 
REMARK    3  A    between atoms: C6_6  and  C9_9 
ROOT
HETATM    1  C3  UNL     1     -35.218  16.648  -3.908  1.00 20.00     0.006 C 
HETATM    2  C4  UNL     1     -34.718  15.943  -5.162  1.00 20.00     0.020 C 
HETATM    3  C5  UNL     1     -33.253  15.267  -3.391  1.00 20.00     0.025 C 
HETATM    4  C6  UNL     1     -34.096  16.450  -2.880  1.00 20.00    -0.009 C 
HETATM    5  C7  UNL     1     -33.975  14.727  -4.625  1.00 20.00     0.082 C 
HETATM    6 CL11 UNL     1     -35.122  13.434  -4.164  1.00 20.00    -0.125 Cl
ENDROOT
BRANCH   4   7
HETATM    7  C9  UNL     1     -34.634  16.230  -1.473  1.00 20.00     0.038 C 
BRANCH   7   8
HETATM    8  C2  UNL     1     -34.322  17.375  -0.537  1.00 20.00    -0.089 C 
HETATM    9  C1  UNL     1     -34.941  17.481   0.650  1.00 20.00     0.014 C 
BRANCH   8  10
HETATM   10  C10 UNL     1     -33.295  18.398  -0.967  1.00 20.00     0.029 C 
HETATM   11  C8  UNL     1     -32.332  18.779   0.149  1.00 20.00     0.010 C 
ENDBRANCH   8  10
ENDBRANCH   7   8
ENDBRANCH   4   7
TORSDOF 3
ENDMDL
MODEL 5
REMARK VINA RESULT:      -4.6     11.633     12.785
REMARK  3 active torsions:
REMARK  status: ('A' for Active; 'I' for Inactive)
REMARK    1  A    between atoms: C2_2  and  C9_9 
REMARK    2  A    between atoms: C2_2  and  C10_10 
REMARK    3  A    between atoms: C6_6  and  C9_9 
ROOT
HETATM    1  C3  UNL     1     -34.737  16.349  -1.280  1.00 20.00     0.006 C 
HETATM    2  C4  UNL     1     -33.802  17.545  -1.167  1.00 20.00     0.020 C 
HETATM    3  C5  UNL     1     -33.671  16.813  -3.444  1.00 20.00     0.025 C 
HETATM    4  C6  UNL     1     -34.398  15.720  -2.638  1.00 20.00    -0.009 C 
HETATM    5  C7  UNL     1     -33.720  18.079  -2.590  1.00 20.00     0.082 C 
HETATM    6 CL11 UNL     1     -35.168  19.049  -2.989  1.00 20.00    -0.125 Cl
ENDROOT
BRANCH   4   7
HETATM    7  C9  UNL     1     -35.631  15.182  -3.349  1.00 20.00     0.038 C 
BRANCH   7   8
HETATM    8  C2  UNL     1     -35.295  14.353  -4.567  1.00 20.00    -0.089 C 
HETATM    9  C1  UNL     1     -34.646  13.183  -4.445  1.00 20.00     0.014 C 
BRANCH   8  10
HETATM   10  C10 UNL     1     -35.707  14.870  -5.927  1.00 20.00     0.029 C 
HETATM   11  C8  UNL     1     -34.546  14.953  -6.908  1.00 20.00     0.010 C 
ENDBRANCH   8  10
ENDBRANCH   7   8
ENDBRANCH   4   7
TORSDOF 3
ENDMDL
MODEL 6
REMARK VINA RESULT:      -4.3     11.183     12.432
REMARK  3 active torsions:
REMARK  status: ('A' for Active; 'I' for Inactive)
REMARK    1  A    between atoms: C2_2  and  C9_9 
REMARK    2  A    between atoms: C2_2  and  C10_10 
REMARK    3  A    between atoms: C6_6  and  C9_9 
ROOT
HETATM    1  C3  UNL     1     -34.942  18.383  -2.080  1.00 20.00     0.006 C 
HETATM    2  C4  UNL     1     -34.997  19.259  -0.836  1.00 20.00     0.020 C 
HETATM    3  C5  UNL     1     -34.794  17.004  -0.052  1.00 20.00     0.025 C 
HETATM    4  C6  UNL     1     -35.129  16.953  -1.555  1.00 20.00    -0.009 C 
HETATM    5  C7  UNL     1     -34.301  18.422   0.230  1.00 20.00     0.082 C 
HETATM    6 CL11 UNL     1     -32.525  18.515   0.050  1.00 20.00    -0.125 Cl
ENDROOT
BRANCH   4   7
HETATM    7  C9  UNL     1     -34.281  15.943  -2.316  1.00 20.00     0.038 C 
BRANCH   7   8
HETATM    8  C2  UNL     1     -35.108  14.967  -3.121  1.00 20.00    -0.089 C 
HETATM    9  C1  UNL     1     -36.409  15.200  -3.357  1.00 20.00     0.014 C 
BRANCH   8  10
HETATM   10  C10 UNL     1     -34.435  13.723  -3.656  1.00 20.00     0.029 C 
HETATM   11  C8  UNL     1     -34.677  13.509  -5.143  1.00 20.00     0.010 C 
ENDBRANCH   8  10
ENDBRANCH   7   8
ENDBRANCH   4   7
TORSDOF 3
ENDMDL
MODEL 7
REMARK VINA RESULT:      -4.3     11.412     12.733
REMARK  3 active torsions:
REMARK  status: ('A' for Active; 'I' for Inactive)
REMARK    1  A    between atoms: C2_2  and  C9_9 
REMARK    2  A    between atoms: C2_2  and  C10_10 
REMARK    3  A    between atoms: C6_6  and  C9_9 
ROOT
HETATM    1  C3  UNL     1     -35.518  14.888  -3.326  1.00 20.00     0.006 C 
HETATM    2  C4  UNL     1     -34.623  15.793  -2.491  1.00 20.00     0.020 C 
HETATM    3  C5  UNL     1     -33.154  14.332  -3.694  1.00 20.00     0.025 C 
HETATM    4  C6  UNL     1     -34.584  13.779  -3.829  1.00 20.00    -0.009 C 
HETATM    5  C7  UNL     1     -33.297  15.784  -3.239  1.00 20.00     0.082 C 
HETATM    6 CL11 UNL     1     -33.357  16.880  -4.652  1.00 20.00    -0.125 Cl
ENDROOT
BRANCH   4   7
HETATM    7  C9  UNL     1     -34.918  13.344  -5.250  1.00 20.00     0.038 C 
BRANCH   7   8
HETATM    8  C2  UNL     1     -35.272  14.502  -6.154  1.00 20.00    -0.089 C 
HETATM    9  C1  UNL     1     -34.395  14.957  -7.064  1.00 20.00     0.014 C 
BRANCH   8  10
HETATM   10  C10 UNL     1     -36.638  15.135  -6.012  1.00 20.00     0.029 C 
HETATM   11  C8  UNL     1     -36.657  16.602  -6.416  1.00 20.00     0.010 C 
ENDBRANCH   8  10
ENDBRANCH   7   8
ENDBRANCH   4   7
TORSDOF 3
ENDMDL
MODEL 8
REMARK VINA RESULT:      -4.3     11.524     12.756
REMARK  3 active torsions:
REMARK  status: ('A' for Active; 'I' for Inactive)
REMARK    1  A    between atoms: C2_2  and  C9_9 
REMARK    2  A    between atoms: C2_2  and  C10_10 
REMARK    3  A    between atoms: C6_6  and  C9_9 
ROOT
HETATM    1  C3  UNL     1     -33.800  17.010  -3.932  1.00 20.00     0.006 C 
HETATM    2  C4  UNL     1     -33.454  16.280  -5.223  1.00 20.00     0.020 C 
HETATM    3  C5  UNL     1     -33.765  14.582  -3.562  1.00 20.00     0.025 C 
HETATM    4  C6  UNL     1     -33.684  15.939  -2.840  1.00 20.00    -0.009 C 
HETATM    5  C7  UNL     1     -34.055  14.894  -5.030  1.00 20.00     0.082 C 
HETATM    6 CL11 UNL     1     -35.817  14.918  -5.330  1.00 20.00    -0.125 Cl
ENDROOT
BRANCH   4   7
HETATM    7  C9  UNL     1     -34.744  16.099  -1.758  1.00 20.00     0.038 C 
BRANCH   7   8
HETATM    8  C2  UNL     1     -34.652  17.421  -1.032  1.00 20.00    -0.089 C 
HETATM    9  C1  UNL     1     -33.517  17.789  -0.417  1.00 20.00     0.014 C 
BRANCH   8  10
HETATM   10  C10 UNL     1     -35.867  18.320  -1.017  1.00 20.00     0.029 C 
HETATM   11  C8  UNL     1     -36.864  17.992  -2.119  1.00 20.00     0.010 C 
ENDBRANCH   8  10
ENDBRANCH   7   8
ENDBRANCH   4   7
TORSDOF 3
ENDMDL
MODEL 9
REMARK VINA RESULT:      -4.2      9.965     11.784
REMARK  3 active torsions:
REMARK  status: ('A' for Active; 'I' for Inactive)
REMARK    1  A    between atoms: C2_2  and  C9_9 
REMARK    2  A    between atoms: C2_2  and  C10_10 
REMARK    3  A    between atoms: C6_6  and  C9_9 
ROOT
HETATM    1  C3  UNL     1     -40.922   4.385  -1.040  1.00 20.00     0.006 C 
HETATM    2  C4  UNL     1     -40.761   5.873  -0.760  1.00 20.00     0.020 C 
HETATM    3  C5  UNL     1     -42.416   5.698  -2.482  1.00 20.00     0.025 C 
HETATM    4  C6  UNL     1     -41.737   4.323  -2.338  1.00 20.00    -0.009 C 
HETATM    5  C7  UNL     1     -42.086   6.474  -1.209  1.00 20.00     0.082 C 
HETATM    6 CL11 UNL     1     -43.352   6.218   0.028  1.00 20.00    -0.125 Cl
ENDROOT
BRANCH   4   7
HETATM    7  C9  UNL     1     -42.731   3.169  -2.342  1.00 20.00     0.038 C 
BRANCH   7   8
HETATM    8  C2  UNL     1     -42.234   1.965  -3.108  1.00 20.00    -0.089 C 
HETATM    9  C1  UNL     1     -41.165   2.058  -3.916  1.00 20.00     0.014 C 
BRANCH   8  10
HETATM   10  C10 UNL     1     -42.967   0.653  -2.943  1.00 20.00     0.029 C 
HETATM   11  C8  UNL     1     -42.234  -0.521  -3.577  1.00 20.00     0.010 C 
ENDBRANCH   8  10
ENDBRANCH   7   8
ENDBRANCH   4   7
TORSDOF 3
ENDMDL
