MODEL 1
REMARK VINA RESULT:      -4.0      0.000      0.000
REMARK  3 active torsions:
REMARK  status: ('A' for Active; 'I' for Inactive)
REMARK    1  A    between atoms: C6_6  and  C7_7 
REMARK    2  A    between atoms: C6_6  and  C8_8 
REMARK    3  A    between atoms: C8_8  and  O10_10 
ROOT
HETATM    1  C1  UNL     1     -34.959  13.975  -3.952  1.00 20.00     0.097 C 
HETATM    2  C4  UNL     1     -36.636  15.679  -3.382  1.00 20.00     0.062 C 
HETATM    3  C8  UNL     1     -35.148  15.402  -3.632  1.00 20.00     0.144 C 
HETATM    4  N9  UNL     1     -34.810  12.851  -4.200  1.00 20.00    -0.194 NA
ENDROOT
BRANCH   3   5
HETATM    5  C6  UNL     1     -34.332  15.820  -2.389  1.00 20.00     0.057 C 
BRANCH   5   6
HETATM    6  C7  UNL     1     -34.698  17.168  -1.719  1.00 20.00    -0.019 C 
HETATM    7  C2  UNL     1     -34.772  16.973  -0.200  1.00 20.00     0.009 C 
HETATM    8  C3  UNL     1     -33.719  18.298  -2.037  1.00 20.00     0.009 C 
ENDBRANCH   5   6
ENDBRANCH   3   5
BRANCH   3   9
HETATM    9  O10 UNL     1     -34.751  16.203  -4.744  1.00 20.00    -0.371 OA
HETATM   10  C5  UNL     1     -33.359  16.085  -4.993  1.00 20.00     0.204 C 
ENDBRANCH   3   9
TORSDOF 3
ENDMDL
MODEL 2
REMARK VINA RESULT:      -3.9      1.983      2.940
REMARK  3 active torsions:
REMARK  status: ('A' for Active; 'I' for Inactive)
REMARK    1  A    between atoms: C6_6  and  C7_7 
REMARK    2  A    between atoms: C6_6  and  C8_8 
REMARK    3  A    between atoms: C8_8  and  O10_10 
ROOT
HETATM    1  C1  UNL     1     -35.928  15.098  -5.474  1.00 20.00     0.097 C 
HETATM    2  C4  UNL     1     -34.845  13.652  -3.807  1.00 20.00     0.062 C 
HETATM    3  C8  UNL     1     -35.988  14.641  -4.074  1.00 20.00     0.144 C 
HETATM    4  N9  UNL     1     -35.879  15.460  -6.576  1.00 20.00    -0.194 NA
ENDROOT
BRANCH   3   5
HETATM    5  C6  UNL     1     -35.885  15.822  -3.084  1.00 20.00     0.057 C 
BRANCH   5   6
HETATM    6  C7  UNL     1     -34.516  16.061  -2.400  1.00 20.00    -0.019 C 
HETATM    7  C2  UNL     1     -33.721  17.094  -3.207  1.00 20.00     0.009 C 
HETATM    8  C3  UNL     1     -34.628  16.529  -0.949  1.00 20.00     0.009 C 
ENDBRANCH   5   6
ENDBRANCH   3   5
BRANCH   3   9
HETATM    9  O10 UNL     1     -37.211  13.943  -3.844  1.00 20.00    -0.371 OA
HETATM   10  C5  UNL     1     -38.323  14.824  -3.888  1.00 20.00     0.204 C 
ENDBRANCH   3   9
TORSDOF 3
ENDMDL
MODEL 3
REMARK VINA RESULT:      -3.9      1.826      3.502
REMARK  3 active torsions:
REMARK  status: ('A' for Active; 'I' for Inactive)
REMARK    1  A    between atoms: C6_6  and  C7_7 
REMARK    2  A    between atoms: C6_6  and  C8_8 
REMARK    3  A    between atoms: C8_8  and  O10_10 
ROOT
HETATM    1  C1  UNL     1     -35.142  13.660  -4.191  1.00 20.00     0.097 C 
HETATM    2  C4  UNL     1     -34.640  15.466  -2.602  1.00 20.00     0.062 C 
HETATM    3  C8  UNL     1     -35.565  14.996  -3.732  1.00 20.00     0.144 C 
HETATM    4  N9  UNL     1     -34.808  12.610  -4.554  1.00 20.00    -0.194 NA
ENDROOT
BRANCH   3   5
HETATM    5  C6  UNL     1     -35.537  16.028  -4.880  1.00 20.00     0.057 C 
BRANCH   5   6
HETATM    6  C7  UNL     1     -34.198  16.216  -5.636  1.00 20.00    -0.019 C 
HETATM    7  C2  UNL     1     -34.387  15.823  -7.106  1.00 20.00     0.009 C 
HETATM    8  C3  UNL     1     -33.645  17.639  -5.560  1.00 20.00     0.009 C 
ENDBRANCH   5   6
ENDBRANCH   3   5
BRANCH   3   9
HETATM    9  O10 UNL     1     -36.885  14.928  -3.196  1.00 20.00    -0.371 OA
HETATM   10  C5  UNL     1     -37.853  14.795  -4.224  1.00 20.00     0.204 C 
ENDBRANCH   3   9
TORSDOF 3
ENDMDL
MODEL 4
REMARK VINA RESULT:      -3.9      1.509      2.183
REMARK  3 active torsions:
REMARK  status: ('A' for Active; 'I' for Inactive)
REMARK    1  A    between atoms: C6_6  and  C7_7 
REMARK    2  A    between atoms: C6_6  and  C8_8 
REMARK    3  A    between atoms: C8_8  and  O10_10 
ROOT
HETATM    1  C1  UNL     1     -36.698  14.806  -3.671  1.00 20.00     0.097 C 
HETATM    2  C4  UNL     1     -34.932  16.014  -4.880  1.00 20.00     0.062 C 
HETATM    3  C8  UNL     1     -35.406  15.499  -3.515  1.00 20.00     0.144 C 
HETATM    4  N9  UNL     1     -37.716  14.263  -3.793  1.00 20.00    -0.194 NA
ENDROOT
BRANCH   3   5
HETATM    5  C6  UNL     1     -35.511  16.683  -2.529  1.00 20.00     0.057 C 
BRANCH   5   6
HETATM    6  C7  UNL     1     -34.343  16.884  -1.531  1.00 20.00    -0.019 C 
HETATM    7  C2  UNL     1     -33.546  18.132  -1.929  1.00 20.00     0.009 C 
HETATM    8  C3  UNL     1     -34.793  17.013  -0.076  1.00 20.00     0.009 C 
ENDBRANCH   5   6
ENDBRANCH   3   5
BRANCH   3   9
HETATM    9  O10 UNL     1     -34.419  14.583  -3.043  1.00 20.00    -0.371 OA
HETATM   10  C5  UNL     1     -34.069  13.641  -4.045  1.00 20.00     0.204 C 
ENDBRANCH   3   9
TORSDOF 3
ENDMDL
MODEL 5
REMARK VINA RESULT:      -3.9      1.365      1.986
REMARK  3 active torsions:
REMARK  status: ('A' for Active; 'I' for Inactive)
REMARK    1  A    between atoms: C6_6  and  C7_7 
REMARK    2  A    between atoms: C6_6  and  C8_8 
REMARK    3  A    between atoms: C8_8  and  O10_10 
ROOT
HETATM    1  C1  UNL     1     -35.636  13.772  -4.351  1.00 20.00     0.097 C 
HETATM    2  C4  UNL     1     -37.811  14.767  -3.785  1.00 20.00     0.062 C 
HETATM    3  C8  UNL     1     -36.414  15.024  -4.364  1.00 20.00     0.144 C 
HETATM    4  N9  UNL     1     -35.023  12.787  -4.338  1.00 20.00    -0.194 NA
ENDROOT
BRANCH   3   5
HETATM    5  C6  UNL     1     -35.717  16.136  -3.549  1.00 20.00     0.057 C 
BRANCH   5   6
HETATM    6  C7  UNL     1     -34.630  15.700  -2.534  1.00 20.00    -0.019 C 
HETATM    7  C2  UNL     1     -33.245  15.906  -3.158  1.00 20.00     0.009 C 
HETATM    8  C3  UNL     1     -34.701  16.443  -1.201  1.00 20.00     0.009 C 
ENDBRANCH   5   6
ENDBRANCH   3   5
BRANCH   3   9
HETATM    9  O10 UNL     1     -36.590  15.471  -5.708  1.00 20.00    -0.371 OA
HETATM   10  C5  UNL     1     -35.364  15.912  -6.270  1.00 20.00     0.204 C 
ENDBRANCH   3   9
TORSDOF 3
ENDMDL
MODEL 6
REMARK VINA RESULT:      -3.8      1.626      3.634
REMARK  3 active torsions:
REMARK  status: ('A' for Active; 'I' for Inactive)
REMARK    1  A    between atoms: C6_6  and  C7_7 
REMARK    2  A    between atoms: C6_6  and  C8_8 
REMARK    3  A    between atoms: C8_8  and  O10_10 
ROOT
HETATM    1  C1  UNL     1     -34.896  13.813  -4.105  1.00 20.00     0.097 C 
HETATM    2  C4  UNL     1     -33.236  15.510  -3.469  1.00 20.00     0.062 C 
HETATM    3  C8  UNL     1     -34.712  15.241  -3.788  1.00 20.00     0.144 C 
HETATM    4  N9  UNL     1     -35.040  12.689  -4.357  1.00 20.00    -0.194 NA
ENDROOT
BRANCH   3   5
HETATM    5  C6  UNL     1     -35.158  16.146  -4.958  1.00 20.00     0.057 C 
BRANCH   5   6
HETATM    6  C7  UNL     1     -34.148  16.367  -6.111  1.00 20.00    -0.019 C 
HETATM    7  C2  UNL     1     -34.427  15.355  -7.229  1.00 20.00     0.009 C 
HETATM    8  C3  UNL     1     -34.176  17.781  -6.690  1.00 20.00     0.009 C 
ENDBRANCH   5   6
ENDBRANCH   3   5
BRANCH   3   9
HETATM    9  O10 UNL     1     -35.464  15.579  -2.623  1.00 20.00    -0.371 OA
HETATM   10  C5  UNL     1     -34.661  16.259  -1.671  1.00 20.00     0.204 C 
ENDBRANCH   3   9
TORSDOF 3
ENDMDL
MODEL 7
REMARK VINA RESULT:      -3.8      2.050      2.903
REMARK  3 active torsions:
REMARK  status: ('A' for Active; 'I' for Inactive)
REMARK    1  A    between atoms: C6_6  and  C7_7 
REMARK    2  A    between atoms: C6_6  and  C8_8 
REMARK    3  A    between atoms: C8_8  and  O10_10 
ROOT
HETATM    1  C1  UNL     1     -33.444  16.553  -4.722  1.00 20.00     0.097 C 
HETATM    2  C4  UNL     1     -32.498  14.611  -3.550  1.00 20.00     0.062 C 
HETATM    3  C8  UNL     1     -33.772  15.251  -4.114  1.00 20.00     0.144 C 
HETATM    4  N9  UNL     1     -33.184  17.579  -5.198  1.00 20.00    -0.194 NA
ENDROOT
BRANCH   3   5
HETATM    5  C6  UNL     1     -34.817  15.396  -2.986  1.00 20.00     0.057 C 
BRANCH   5   6
HETATM    6  C7  UNL     1     -34.881  16.757  -2.247  1.00 20.00    -0.019 C 
HETATM    7  C2  UNL     1     -36.267  17.380  -2.454  1.00 20.00     0.009 C 
HETATM    8  C3  UNL     1     -34.590  16.657  -0.750  1.00 20.00     0.009 C 
ENDBRANCH   5   6
ENDBRANCH   3   5
BRANCH   3   9
HETATM    9  O10 UNL     1     -34.282  14.366  -5.111  1.00 20.00    -0.371 OA
HETATM   10  C5  UNL     1     -34.897  13.229  -4.527  1.00 20.00     0.204 C 
ENDBRANCH   3   9
TORSDOF 3
ENDMDL
MODEL 8
REMARK VINA RESULT:      -3.7      2.189      2.811
REMARK  3 active torsions:
REMARK  status: ('A' for Active; 'I' for Inactive)
REMARK    1  A    between atoms: C6_6  and  C7_7 
REMARK    2  A    between atoms: C6_6  and  C8_8 
REMARK    3  A    between atoms: C8_8  and  O10_10 
ROOT
HETATM    1  C1  UNL     1     -37.311  14.751  -4.317  1.00 20.00     0.097 C 
HETATM    2  C4  UNL     1     -36.781  16.153  -6.265  1.00 20.00     0.062 C 
HETATM    3  C8  UNL     1     -36.209  15.281  -5.140  1.00 20.00     0.144 C 
HETATM    4  N9  UNL     1     -38.179  14.337  -3.669  1.00 20.00    -0.194 NA
ENDROOT
BRANCH   3   5
HETATM    5  C6  UNL     1     -35.219  16.115  -4.297  1.00 20.00     0.057 C 
BRANCH   5   6
HETATM    6  C7  UNL     1     -34.494  15.396  -3.132  1.00 20.00    -0.019 C 
HETATM    7  C2  UNL     1     -33.023  15.180  -3.509  1.00 20.00     0.009 C 
HETATM    8  C3  UNL     1     -34.572  16.147  -1.803  1.00 20.00     0.009 C 
ENDBRANCH   5   6
ENDBRANCH   3   5
BRANCH   3   9
HETATM    9  O10 UNL     1     -35.505  14.205  -5.758  1.00 20.00    -0.371 OA
HETATM   10  C5  UNL     1     -34.988  14.585  -7.024  1.00 20.00     0.204 C 
ENDBRANCH   3   9
TORSDOF 3
ENDMDL
MODEL 9
REMARK VINA RESULT:      -3.7     12.244     14.004
REMARK  3 active torsions:
REMARK  status: ('A' for Active; 'I' for Inactive)
REMARK    1  A    between atoms: C6_6  and  C7_7 
REMARK    2  A    between atoms: C6_6  and  C8_8 
REMARK    3  A    between atoms: C8_8  and  O10_10 
ROOT
HETATM    1  C1  UNL     1     -42.730   5.679  -2.678  1.00 20.00     0.097 C 
HETATM    2  C4  UNL     1     -42.647   4.994  -0.319  1.00 20.00     0.062 C 
HETATM    3  C8  UNL     1     -41.857   5.123  -1.628  1.00 20.00     0.144 C 
HETATM    4  N9  UNL     1     -43.417   6.115  -3.504  1.00 20.00    -0.194 NA
ENDROOT
BRANCH   3   5
HETATM    5  C6  UNL     1     -41.296   3.740  -2.027  1.00 20.00     0.057 C 
BRANCH   5   6
HETATM    6  C7  UNL     1     -42.128   2.896  -3.025  1.00 20.00    -0.019 C 
HETATM    7  C2  UNL     1     -41.189   1.971  -3.809  1.00 20.00     0.009 C 
HETATM    8  C3  UNL     1     -43.221   2.061  -2.360  1.00 20.00     0.009 C 
ENDBRANCH   5   6
ENDBRANCH   3   5
BRANCH   3   9
HETATM    9  O10 UNL     1     -40.771   6.014  -1.378  1.00 20.00    -0.371 OA
HETATM   10  C5  UNL     1     -41.233   7.279  -0.931  1.00 20.00     0.204 C 
ENDBRANCH   3   9
TORSDOF 3
ENDMDL
