MODEL 1
REMARK VINA RESULT:      -5.3      0.000      0.000
REMARK  5 active torsions:
REMARK  status: ('A' for Active; 'I' for Inactive)
REMARK    1  A    between atoms: C4_4  and  C7_7 
REMARK    2  A    between atoms: C4_4  and  C8_8 
REMARK    3  A    between atoms: C6_6  and  C9_9 
REMARK    4  A    between atoms: C8_8  and  N10_10 
REMARK    5  A    between atoms: C9_9  and  N10_10 
ROOT
HETATM    1  C1  UNL     1     -32.053   8.958   0.944  1.00 20.00     0.012 C 
HETATM    2  C2  UNL     1     -32.040   8.331   1.967  1.00 20.00    -0.116 C 
HETATM    3  C6  UNL     1     -32.025   7.565   3.224  1.00 20.00     0.123 C 
ENDROOT
BRANCH   3   4
HETATM    4  C9  UNL     1     -32.144   6.064   2.979  1.00 20.00     0.282 C 
BRANCH   4   5
HETATM    5  N10 UNL     1     -33.540   5.656   2.935  1.00 20.00     0.088 N 
HETATM    6  H25 UNL     1     -33.600   4.645   3.054  1.00 20.00     0.316 HD
BRANCH   5   7
HETATM    7  C8  UNL     1     -34.305   6.305   3.995  1.00 20.00     0.302 C 
BRANCH   7   8
HETATM    8  C4  UNL     1     -34.656   5.367   5.125  1.00 20.00    -0.062 C 
HETATM    9  C3  UNL     1     -35.174   4.153   4.875  1.00 20.00     0.016 C 
BRANCH   8  10
HETATM   10  C7  UNL     1     -34.407   5.825   6.544  1.00 20.00     0.030 C 
HETATM   11  C5  UNL     1     -33.563   7.090   6.619  1.00 20.00     0.010 C 
ENDBRANCH   8  10
ENDBRANCH   7   8
ENDBRANCH   5   7
ENDBRANCH   4   5
ENDBRANCH   3   4
TORSDOF 5
ENDMDL
MODEL 2
REMARK VINA RESULT:      -4.8      0.882      4.620
REMARK  5 active torsions:
REMARK  status: ('A' for Active; 'I' for Inactive)
REMARK    1  A    between atoms: C4_4  and  C7_7 
REMARK    2  A    between atoms: C4_4  and  C8_8 
REMARK    3  A    between atoms: C6_6  and  C9_9 
REMARK    4  A    between atoms: C8_8  and  N10_10 
REMARK    5  A    between atoms: C9_9  and  N10_10 
ROOT
HETATM    1  C1  UNL     1     -33.716   7.107   6.849  1.00 20.00     0.012 C 
HETATM    2  C2  UNL     1     -34.202   6.156   6.301  1.00 20.00    -0.116 C 
HETATM    3  C6  UNL     1     -34.798   4.988   5.635  1.00 20.00     0.123 C 
ENDROOT
BRANCH   3   4
HETATM    4  C9  UNL     1     -34.894   5.179   4.125  1.00 20.00     0.282 C 
BRANCH   4   5
HETATM    5  N10 UNL     1     -34.256   6.423   3.719  1.00 20.00     0.088 N 
HETATM    6  H25 UNL     1     -34.005   6.959   4.548  1.00 20.00     0.316 HD
BRANCH   5   7
HETATM    7  C8  UNL     1     -33.050   6.158   2.941  1.00 20.00     0.302 C 
BRANCH   7   8
HETATM    8  C4  UNL     1     -32.114   7.342   2.889  1.00 20.00    -0.062 C 
HETATM    9  C3  UNL     1     -31.405   7.706   3.970  1.00 20.00     0.016 C 
BRANCH   8  10
HETATM   10  C7  UNL     1     -31.992   8.107   1.590  1.00 20.00     0.030 C 
HETATM   11  C5  UNL     1     -32.507   9.536   1.693  1.00 20.00     0.010 C 
ENDBRANCH   8  10
ENDBRANCH   7   8
ENDBRANCH   5   7
ENDBRANCH   4   5
ENDBRANCH   3   4
TORSDOF 5
ENDMDL
MODEL 3
REMARK VINA RESULT:      -4.8      0.796      1.931
REMARK  5 active torsions:
REMARK  status: ('A' for Active; 'I' for Inactive)
REMARK    1  A    between atoms: C4_4  and  C7_7 
REMARK    2  A    between atoms: C4_4  and  C8_8 
REMARK    3  A    between atoms: C6_6  and  C9_9 
REMARK    4  A    between atoms: C8_8  and  N10_10 
REMARK    5  A    between atoms: C9_9  and  N10_10 
ROOT
HETATM    1  C1  UNL     1     -32.483   9.918   1.199  1.00 20.00     0.012 C 
HETATM    2  C2  UNL     1     -32.159   8.817   1.549  1.00 20.00    -0.116 C 
HETATM    3  C6  UNL     1     -31.759   7.465   1.973  1.00 20.00     0.123 C 
ENDROOT
BRANCH   3   4
HETATM    4  C9  UNL     1     -31.981   7.247   3.466  1.00 20.00     0.282 C 
BRANCH   4   5
HETATM    5  N10 UNL     1     -32.776   6.050   3.703  1.00 20.00     0.088 N 
HETATM    6  H25 UNL     1     -32.284   5.443   4.356  1.00 20.00     0.316 HD
BRANCH   5   7
HETATM    7  C8  UNL     1     -34.079   6.395   4.261  1.00 20.00     0.302 C 
BRANCH   7   8
HETATM    8  C4  UNL     1     -34.157   6.166   5.752  1.00 20.00    -0.062 C 
HETATM    9  C3  UNL     1     -33.675   7.076   6.614  1.00 20.00     0.016 C 
BRANCH   8  10
HETATM   10  C7  UNL     1     -34.794   4.888   6.251  1.00 20.00     0.030 C 
HETATM   11  C5  UNL     1     -35.093   3.899   5.133  1.00 20.00     0.010 C 
ENDBRANCH   8  10
ENDBRANCH   7   8
ENDBRANCH   5   7
ENDBRANCH   4   5
ENDBRANCH   3   4
TORSDOF 5
ENDMDL
MODEL 4
REMARK VINA RESULT:      -4.4      1.380      1.728
REMARK  5 active torsions:
REMARK  status: ('A' for Active; 'I' for Inactive)
REMARK    1  A    between atoms: C4_4  and  C7_7 
REMARK    2  A    between atoms: C4_4  and  C8_8 
REMARK    3  A    between atoms: C6_6  and  C9_9 
REMARK    4  A    between atoms: C8_8  and  N10_10 
REMARK    5  A    between atoms: C9_9  and  N10_10 
ROOT
HETATM    1  C1  UNL     1     -32.450   9.863   1.321  1.00 20.00     0.012 C 
HETATM    2  C2  UNL     1     -32.252   8.739   1.693  1.00 20.00    -0.116 C 
HETATM    3  C6  UNL     1     -32.009   7.359   2.145  1.00 20.00     0.123 C 
ENDROOT
BRANCH   3   4
HETATM    4  C9  UNL     1     -31.812   7.280   3.655  1.00 20.00     0.282 C 
BRANCH   4   5
HETATM    5  N10 UNL     1     -32.974   6.684   4.298  1.00 20.00     0.088 N 
HETATM    6  H25 UNL     1     -33.641   7.417   4.536  1.00 20.00     0.316 HD
BRANCH   5   7
HETATM    7  C8  UNL     1     -33.621   5.720   3.413  1.00 20.00     0.302 C 
BRANCH   7   8
HETATM    8  C4  UNL     1     -34.956   5.248   3.936  1.00 20.00    -0.062 C 
HETATM    9  C3  UNL     1     -36.099   5.815   3.516  1.00 20.00     0.016 C 
BRANCH   8  10
HETATM   10  C7  UNL     1     -34.976   4.119   4.942  1.00 20.00     0.030 C 
HETATM   11  C5  UNL     1     -34.912   4.608   6.383  1.00 20.00     0.010 C 
ENDBRANCH   8  10
ENDBRANCH   7   8
ENDBRANCH   5   7
ENDBRANCH   4   5
ENDBRANCH   3   4
TORSDOF 5
ENDMDL
MODEL 5
REMARK VINA RESULT:      -4.2     10.966     12.174
REMARK  5 active torsions:
REMARK  status: ('A' for Active; 'I' for Inactive)
REMARK    1  A    between atoms: C4_4  and  C7_7 
REMARK    2  A    between atoms: C4_4  and  C8_8 
REMARK    3  A    between atoms: C6_6  and  C9_9 
REMARK    4  A    between atoms: C8_8  and  N10_10 
REMARK    5  A    between atoms: C9_9  and  N10_10 
ROOT
HETATM    1  C1  UNL     1     -34.643  16.376  -1.430  1.00 20.00     0.012 C 
HETATM    2  C2  UNL     1     -33.981  16.068  -2.383  1.00 20.00    -0.116 C 
HETATM    3  C6  UNL     1     -33.170  15.696  -3.554  1.00 20.00     0.123 C 
ENDROOT
BRANCH   3   4
HETATM    4  C9  UNL     1     -32.930  14.191  -3.626  1.00 20.00     0.282 C 
BRANCH   4   5
HETATM    5  N10 UNL     1     -34.179  13.459  -3.481  1.00 20.00     0.088 N 
HETATM    6  H25 UNL     1     -34.818  13.995  -2.894  1.00 20.00     0.316 HD
BRANCH   5   7
HETATM    7  C8  UNL     1     -34.803  13.234  -4.781  1.00 20.00     0.302 C 
BRANCH   7   8
HETATM    8  C4  UNL     1     -35.889  14.237  -5.092  1.00 20.00    -0.062 C 
HETATM    9  C3  UNL     1     -36.844  14.518  -4.190  1.00 20.00     0.016 C 
BRANCH   8  10
HETATM   10  C7  UNL     1     -35.875  14.918  -6.441  1.00 20.00     0.030 C 
HETATM   11  C5  UNL     1     -34.481  15.000  -7.049  1.00 20.00     0.010 C 
ENDBRANCH   8  10
ENDBRANCH   7   8
ENDBRANCH   5   7
ENDBRANCH   4   5
ENDBRANCH   3   4
TORSDOF 5
ENDMDL
MODEL 6
REMARK VINA RESULT:      -4.1     11.167     12.672
REMARK  5 active torsions:
REMARK  status: ('A' for Active; 'I' for Inactive)
REMARK    1  A    between atoms: C4_4  and  C7_7 
REMARK    2  A    between atoms: C4_4  and  C8_8 
REMARK    3  A    between atoms: C6_6  and  C9_9 
REMARK    4  A    between atoms: C8_8  and  N10_10 
REMARK    5  A    between atoms: C9_9  and  N10_10 
ROOT
HETATM    1  C1  UNL     1     -35.338  14.474  -7.399  1.00 20.00     0.012 C 
HETATM    2  C2  UNL     1     -34.822  15.529  -7.152  1.00 20.00    -0.116 C 
HETATM    3  C6  UNL     1     -34.191  16.824  -6.853  1.00 20.00     0.123 C 
ENDROOT
BRANCH   3   4
HETATM    4  C9  UNL     1     -33.690  16.897  -5.414  1.00 20.00     0.282 C 
BRANCH   4   5
HETATM    5  N10 UNL     1     -32.825  15.766  -5.109  1.00 20.00     0.088 N 
HETATM    6  H25 UNL     1     -31.858  16.018  -5.310  1.00 20.00     0.316 HD
BRANCH   5   7
HETATM    7  C8  UNL     1     -32.937  15.392  -3.702  1.00 20.00     0.302 C 
BRANCH   7   8
HETATM    8  C4  UNL     1     -34.281  14.797  -3.359  1.00 20.00    -0.062 C 
HETATM    9  C3  UNL     1     -34.664  13.618  -3.876  1.00 20.00     0.016 C 
BRANCH   8  10
HETATM   10  C7  UNL     1     -35.185  15.559  -2.416  1.00 20.00     0.030 C 
HETATM   11  C5  UNL     1     -34.424  16.519  -1.511  1.00 20.00     0.010 C 
ENDBRANCH   8  10
ENDBRANCH   7   8
ENDBRANCH   5   7
ENDBRANCH   4   5
ENDBRANCH   3   4
TORSDOF 5
ENDMDL
MODEL 7
REMARK VINA RESULT:      -4.0     10.894     12.081
REMARK  5 active torsions:
REMARK  status: ('A' for Active; 'I' for Inactive)
REMARK    1  A    between atoms: C4_4  and  C7_7 
REMARK    2  A    between atoms: C4_4  and  C8_8 
REMARK    3  A    between atoms: C6_6  and  C9_9 
REMARK    4  A    between atoms: C8_8  and  N10_10 
REMARK    5  A    between atoms: C9_9  and  N10_10 
ROOT
HETATM    1  C1  UNL     1     -35.098  17.387   0.755  1.00 20.00     0.012 C 
HETATM    2  C2  UNL     1     -34.770  16.982  -0.326  1.00 20.00    -0.116 C 
HETATM    3  C6  UNL     1     -34.364  16.484  -1.650  1.00 20.00     0.123 C 
ENDROOT
BRANCH   3   4
HETATM    4  C9  UNL     1     -35.471  16.652  -2.687  1.00 20.00     0.282 C 
BRANCH   4   5
HETATM    5  N10 UNL     1     -36.347  15.489  -2.701  1.00 20.00     0.088 N 
HETATM    6  H25 UNL     1     -37.177  15.686  -2.143  1.00 20.00     0.316 HD
BRANCH   5   7
HETATM    7  C8  UNL     1     -36.755  15.163  -4.064  1.00 20.00     0.302 C 
BRANCH   7   8
HETATM    8  C4  UNL     1     -35.677  14.452  -4.845  1.00 20.00    -0.062 C 
HETATM    9  C3  UNL     1     -35.384  14.818  -6.104  1.00 20.00     0.016 C 
BRANCH   8  10
HETATM   10  C7  UNL     1     -34.932  13.319  -4.175  1.00 20.00     0.030 C 
HETATM   11  C5  UNL     1     -33.481  13.662  -3.868  1.00 20.00     0.010 C 
ENDBRANCH   8  10
ENDBRANCH   7   8
ENDBRANCH   5   7
ENDBRANCH   4   5
ENDBRANCH   3   4
TORSDOF 5
ENDMDL
MODEL 8
REMARK VINA RESULT:      -4.0     11.398     12.874
REMARK  5 active torsions:
REMARK  status: ('A' for Active; 'I' for Inactive)
REMARK    1  A    between atoms: C4_4  and  C7_7 
REMARK    2  A    between atoms: C4_4  and  C8_8 
REMARK    3  A    between atoms: C6_6  and  C9_9 
REMARK    4  A    between atoms: C8_8  and  N10_10 
REMARK    5  A    between atoms: C9_9  and  N10_10 
ROOT
HETATM    1  C1  UNL     1     -34.942  14.734  -7.509  1.00 20.00     0.012 C 
HETATM    2  C2  UNL     1     -34.619  15.819  -7.111  1.00 20.00    -0.116 C 
HETATM    3  C6  UNL     1     -34.225  17.152  -6.626  1.00 20.00     0.123 C 
ENDROOT
BRANCH   3   4
HETATM    4  C9  UNL     1     -33.500  17.081  -5.286  1.00 20.00     0.282 C 
BRANCH   4   5
HETATM    5  N10 UNL     1     -32.887  15.774  -5.097  1.00 20.00     0.088 N 
HETATM    6  H25 UNL     1     -31.923  15.804  -5.426  1.00 20.00     0.316 HD
BRANCH   5   7
HETATM    7  C8  UNL     1     -32.898  15.394  -3.688  1.00 20.00     0.302 C 
BRANCH   7   8
HETATM    8  C4  UNL     1     -34.289  15.122  -3.165  1.00 20.00    -0.062 C 
HETATM    9  C3  UNL     1     -34.792  15.838  -2.146  1.00 20.00     0.016 C 
BRANCH   8  10
HETATM   10  C7  UNL     1     -35.102  14.027  -3.818  1.00 20.00     0.030 C 
HETATM   11  C5  UNL     1     -36.541  14.443  -4.095  1.00 20.00     0.010 C 
ENDBRANCH   8  10
ENDBRANCH   7   8
ENDBRANCH   5   7
ENDBRANCH   4   5
ENDBRANCH   3   4
TORSDOF 5
ENDMDL
MODEL 9
REMARK VINA RESULT:      -4.0     11.250     12.501
REMARK  5 active torsions:
REMARK  status: ('A' for Active; 'I' for Inactive)
REMARK    1  A    between atoms: C4_4  and  C7_7 
REMARK    2  A    between atoms: C4_4  and  C8_8 
REMARK    3  A    between atoms: C6_6  and  C9_9 
REMARK    4  A    between atoms: C8_8  and  N10_10 
REMARK    5  A    between atoms: C9_9  and  N10_10 
ROOT
HETATM    1  C1  UNL     1     -37.517  14.996  -3.812  1.00 20.00     0.012 C 
HETATM    2  C2  UNL     1     -36.513  14.363  -3.989  1.00 20.00    -0.116 C 
HETATM    3  C6  UNL     1     -35.283  13.583  -4.203  1.00 20.00     0.123 C 
ENDROOT
BRANCH   3   4
HETATM    4  C9  UNL     1     -34.343  14.261  -5.195  1.00 20.00     0.282 C 
BRANCH   4   5
HETATM    5  N10 UNL     1     -33.222  14.882  -4.506  1.00 20.00     0.088 N 
HETATM    6  H25 UNL     1     -32.349  14.516  -4.884  1.00 20.00     0.316 HD
BRANCH   5   7
HETATM    7  C8  UNL     1     -33.244  16.331  -4.678  1.00 20.00     0.302 C 
BRANCH   7   8
HETATM    8  C4  UNL     1     -33.987  17.042  -3.571  1.00 20.00    -0.062 C 
HETATM    9  C3  UNL     1     -34.949  17.935  -3.853  1.00 20.00     0.016 C 
BRANCH   8  10
HETATM   10  C7  UNL     1     -33.623  16.721  -2.139  1.00 20.00     0.030 C 
HETATM   11  C5  UNL     1     -34.835  16.380  -1.282  1.00 20.00     0.010 C 
ENDBRANCH   8  10
ENDBRANCH   7   8
ENDBRANCH   5   7
ENDBRANCH   4   5
ENDBRANCH   3   4
TORSDOF 5
ENDMDL
