MODEL 1
REMARK VINA RESULT:      -4.9      0.000      0.000
REMARK  5 active torsions:
REMARK  status: ('A' for Active; 'I' for Inactive)
REMARK    1  A    between atoms: C2_2  and  C7_7 
REMARK    2  A    between atoms: C2_2  and  C8_8 
REMARK    3  A    between atoms: C3_3  and  C7_7 
REMARK    4  A    between atoms: C3_3  and  C10_10 
REMARK    5  A    between atoms: C9_9  and  C10_10 
ROOT
HETATM    1  C3  UNL     1     -33.868   6.138   3.948  1.00 20.00     0.134 C 
HETATM    2  O11 UNL     1     -34.767   6.899   3.588  1.00 20.00    -0.297 OA
ENDROOT
BRANCH   1   3
HETATM    3  C7  UNL     1     -32.535   6.042   3.214  1.00 20.00     0.111 C 
BRANCH   3   4
HETATM    4  C2  UNL     1     -31.882   7.395   3.061  1.00 20.00    -0.083 C 
HETATM    5  C1  UNL     1     -31.218   7.940   4.094  1.00 20.00     0.014 C 
BRANCH   4   6
HETATM    6  C8  UNL     1     -32.065   8.053   1.708  1.00 20.00     0.029 C 
HETATM    7  C4  UNL     1     -32.432   9.533   1.701  1.00 20.00     0.010 C 
ENDBRANCH   4   6
ENDBRANCH   3   4
ENDBRANCH   1   3
BRANCH   1   8
HETATM    8  C10 UNL     1     -34.032   5.221   5.160  1.00 20.00     0.051 C 
HETATM    9  C6  UNL     1     -35.074   4.158   4.819  1.00 20.00     0.018 C 
BRANCH   8  10
HETATM   10  C9  UNL     1     -34.443   5.999   6.418  1.00 20.00     0.007 C 
HETATM   11  C5  UNL     1     -33.493   7.147   6.730  1.00 20.00     0.006 C 
ENDBRANCH   8  10
ENDBRANCH   1   8
TORSDOF 5
ENDMDL
MODEL 2
REMARK VINA RESULT:      -4.5      1.205      4.724
REMARK  5 active torsions:
REMARK  status: ('A' for Active; 'I' for Inactive)
REMARK    1  A    between atoms: C2_2  and  C7_7 
REMARK    2  A    between atoms: C2_2  and  C8_8 
REMARK    3  A    between atoms: C3_3  and  C7_7 
REMARK    4  A    between atoms: C3_3  and  C10_10 
REMARK    5  A    between atoms: C9_9  and  C10_10 
ROOT
HETATM    1  C3  UNL     1     -32.635   6.426   3.157  1.00 20.00     0.134 C 
HETATM    2  O11 UNL     1     -32.315   5.257   2.936  1.00 20.00    -0.297 OA
ENDROOT
BRANCH   1   3
HETATM    3  C7  UNL     1     -34.003   6.810   3.708  1.00 20.00     0.111 C 
BRANCH   3   4
HETATM    4  C2  UNL     1     -34.305   6.094   5.003  1.00 20.00    -0.083 C 
HETATM    5  C1  UNL     1     -33.840   6.583   6.164  1.00 20.00     0.014 C 
BRANCH   4   6
HETATM    6  C8  UNL     1     -35.119   4.822   4.866  1.00 20.00     0.029 C 
HETATM    7  C4  UNL     1     -34.987   3.792   5.982  1.00 20.00     0.010 C 
ENDBRANCH   4   6
ENDBRANCH   3   4
ENDBRANCH   1   3
BRANCH   1   8
HETATM    8  C10 UNL     1     -31.675   7.584   2.881  1.00 20.00     0.051 C 
HETATM    9  C6  UNL     1     -31.085   8.044   4.212  1.00 20.00     0.018 C 
BRANCH   8  10
HETATM   10  C9  UNL     1     -32.372   8.749   2.165  1.00 20.00     0.007 C 
HETATM   11  C5  UNL     1     -31.946   8.879   0.709  1.00 20.00     0.006 C 
ENDBRANCH   8  10
ENDBRANCH   1   8
TORSDOF 5
ENDMDL
MODEL 3
REMARK VINA RESULT:      -4.5     11.042     12.205
REMARK  5 active torsions:
REMARK  status: ('A' for Active; 'I' for Inactive)
REMARK    1  A    between atoms: C2_2  and  C7_7 
REMARK    2  A    between atoms: C2_2  and  C8_8 
REMARK    3  A    between atoms: C3_3  and  C7_7 
REMARK    4  A    between atoms: C3_3  and  C10_10 
REMARK    5  A    between atoms: C9_9  and  C10_10 
ROOT
HETATM    1  C3  UNL     1     -34.182  14.348  -3.819  1.00 20.00     0.134 C 
HETATM    2  O11 UNL     1     -34.093  13.187  -3.421  1.00 20.00    -0.297 OA
ENDROOT
BRANCH   1   3
HETATM    3  C7  UNL     1     -33.199  15.435  -3.398  1.00 20.00     0.111 C 
BRANCH   3   4
HETATM    4  C2  UNL     1     -33.896  16.581  -2.704  1.00 20.00    -0.083 C 
HETATM    5  C1  UNL     1     -33.795  17.826  -3.198  1.00 20.00     0.014 C 
BRANCH   4   6
HETATM    6  C8  UNL     1     -34.656  16.211  -1.445  1.00 20.00     0.029 C 
HETATM    7  C4  UNL     1     -34.587  17.191  -0.281  1.00 20.00     0.010 C 
ENDBRANCH   4   6
ENDBRANCH   3   4
ENDBRANCH   1   3
BRANCH   1   8
HETATM    8  C10 UNL     1     -35.299  14.787  -4.765  1.00 20.00     0.051 C 
HETATM    9  C6  UNL     1     -36.638  14.414  -4.131  1.00 20.00     0.018 C 
BRANCH   8  10
HETATM   10  C9  UNL     1     -35.160  14.149  -6.154  1.00 20.00     0.007 C 
HETATM   11  C5  UNL     1     -34.399  15.036  -7.130  1.00 20.00     0.006 C 
ENDBRANCH   8  10
ENDBRANCH   1   8
TORSDOF 5
ENDMDL
MODEL 4
REMARK VINA RESULT:      -4.5     11.003     12.500
REMARK  5 active torsions:
REMARK  status: ('A' for Active; 'I' for Inactive)
REMARK    1  A    between atoms: C2_2  and  C7_7 
REMARK    2  A    between atoms: C2_2  and  C8_8 
REMARK    3  A    between atoms: C3_3  and  C7_7 
REMARK    4  A    between atoms: C3_3  and  C10_10 
REMARK    5  A    between atoms: C9_9  and  C10_10 
ROOT
HETATM    1  C3  UNL     1     -36.331  14.353  -4.314  1.00 20.00     0.134 C 
HETATM    2  O11 UNL     1     -37.405  14.096  -3.769  1.00 20.00    -0.297 OA
ENDROOT
BRANCH   1   3
HETATM    3  C7  UNL     1     -34.997  13.866  -3.760  1.00 20.00     0.111 C 
BRANCH   3   4
HETATM    4  C2  UNL     1     -34.160  15.006  -3.230  1.00 20.00    -0.083 C 
HETATM    5  C1  UNL     1     -32.909  15.187  -3.683  1.00 20.00     0.014 C 
BRANCH   4   6
HETATM    6  C8  UNL     1     -34.828  15.863  -2.172  1.00 20.00     0.029 C 
HETATM    7  C4  UNL     1     -33.959  16.899  -1.470  1.00 20.00     0.010 C 
ENDBRANCH   4   6
ENDBRANCH   3   4
ENDBRANCH   1   3
BRANCH   1   8
HETATM    8  C10 UNL     1     -36.260  15.194  -5.588  1.00 20.00     0.051 C 
HETATM    9  C6  UNL     1     -37.683  15.572  -5.993  1.00 20.00     0.018 C 
BRANCH   8  10
HETATM   10  C9  UNL     1     -35.550  14.451  -6.728  1.00 20.00     0.007 C 
HETATM   11  C5  UNL     1     -34.307  15.182  -7.217  1.00 20.00     0.006 C 
ENDBRANCH   8  10
ENDBRANCH   1   8
TORSDOF 5
ENDMDL
MODEL 5
REMARK VINA RESULT:      -4.5     11.042     12.446
REMARK  5 active torsions:
REMARK  status: ('A' for Active; 'I' for Inactive)
REMARK    1  A    between atoms: C2_2  and  C7_7 
REMARK    2  A    between atoms: C2_2  and  C8_8 
REMARK    3  A    between atoms: C3_3  and  C7_7 
REMARK    4  A    between atoms: C3_3  and  C10_10 
REMARK    5  A    between atoms: C9_9  and  C10_10 
ROOT
HETATM    1  C3  UNL     1     -35.119  13.774  -4.763  1.00 20.00     0.134 C 
HETATM    2  O11 UNL     1     -34.752  12.604  -4.876  1.00 20.00    -0.297 OA
ENDROOT
BRANCH   1   3
HETATM    3  C7  UNL     1     -35.097  14.512  -3.429  1.00 20.00     0.111 C 
BRANCH   3   4
HETATM    4  C2  UNL     1     -33.787  15.230  -3.208  1.00 20.00    -0.083 C 
HETATM    5  C1  UNL     1     -32.641  14.687  -3.653  1.00 20.00     0.014 C 
BRANCH   4   6
HETATM    6  C8  UNL     1     -33.884  16.539  -2.450  1.00 20.00     0.029 C 
HETATM    7  C4  UNL     1     -34.614  16.513  -1.113  1.00 20.00     0.010 C 
ENDBRANCH   4   6
ENDBRANCH   3   4
ENDBRANCH   1   3
BRANCH   1   8
HETATM    8  C10 UNL     1     -35.637  14.571  -5.960  1.00 20.00     0.051 C 
HETATM    9  C6  UNL     1     -34.454  14.887  -6.873  1.00 20.00     0.018 C 
BRANCH   8  10
HETATM   10  C9  UNL     1     -36.348  15.861  -5.527  1.00 20.00     0.007 C 
HETATM   11  C5  UNL     1     -35.627  17.114  -6.005  1.00 20.00     0.006 C 
ENDBRANCH   8  10
ENDBRANCH   1   8
TORSDOF 5
ENDMDL
MODEL 6
REMARK VINA RESULT:      -4.5     11.054     12.349
REMARK  5 active torsions:
REMARK  status: ('A' for Active; 'I' for Inactive)
REMARK    1  A    between atoms: C2_2  and  C7_7 
REMARK    2  A    between atoms: C2_2  and  C8_8 
REMARK    3  A    between atoms: C3_3  and  C7_7 
REMARK    4  A    between atoms: C3_3  and  C10_10 
REMARK    5  A    between atoms: C9_9  and  C10_10 
ROOT
HETATM    1  C3  UNL     1     -34.185  14.334  -3.809  1.00 20.00     0.134 C 
HETATM    2  O11 UNL     1     -34.083  13.172  -3.414  1.00 20.00    -0.297 OA
ENDROOT
BRANCH   1   3
HETATM    3  C7  UNL     1     -33.212  15.429  -3.387  1.00 20.00     0.111 C 
BRANCH   3   4
HETATM    4  C2  UNL     1     -33.913  16.546  -2.651  1.00 20.00    -0.083 C 
HETATM    5  C1  UNL     1     -34.549  16.293  -1.495  1.00 20.00     0.014 C 
BRANCH   4   6
HETATM    6  C8  UNL     1     -33.854  17.903  -3.325  1.00 20.00     0.029 C 
HETATM    7  C4  UNL     1     -33.527  17.924  -4.813  1.00 20.00     0.010 C 
ENDBRANCH   4   6
ENDBRANCH   3   4
ENDBRANCH   1   3
BRANCH   1   8
HETATM    8  C10 UNL     1     -35.310  14.764  -4.750  1.00 20.00     0.051 C 
HETATM    9  C6  UNL     1     -36.642  14.371  -4.116  1.00 20.00     0.018 C 
BRANCH   8  10
HETATM   10  C9  UNL     1     -35.166  14.136  -6.143  1.00 20.00     0.007 C 
HETATM   11  C5  UNL     1     -34.409  15.033  -7.113  1.00 20.00     0.006 C 
ENDBRANCH   8  10
ENDBRANCH   1   8
TORSDOF 5
ENDMDL
MODEL 7
REMARK VINA RESULT:      -4.3     10.959     12.529
REMARK  5 active torsions:
REMARK  status: ('A' for Active; 'I' for Inactive)
REMARK    1  A    between atoms: C2_2  and  C7_7 
REMARK    2  A    between atoms: C2_2  and  C8_8 
REMARK    3  A    between atoms: C3_3  and  C7_7 
REMARK    4  A    between atoms: C3_3  and  C10_10 
REMARK    5  A    between atoms: C9_9  and  C10_10 
ROOT
HETATM    1  C3  UNL     1     -35.090  13.835  -3.957  1.00 20.00     0.134 C 
HETATM    2  O11 UNL     1     -34.758  12.693  -4.278  1.00 20.00    -0.297 OA
ENDROOT
BRANCH   1   3
HETATM    3  C7  UNL     1     -36.436  14.435  -4.349  1.00 20.00     0.111 C 
BRANCH   3   4
HETATM    4  C2  UNL     1     -36.356  15.177  -5.662  1.00 20.00    -0.083 C 
HETATM    5  C1  UNL     1     -36.892  16.403  -5.773  1.00 20.00     0.014 C 
BRANCH   4   6
HETATM    6  C8  UNL     1     -35.672  14.428  -6.789  1.00 20.00     0.029 C 
HETATM    7  C4  UNL     1     -34.503  15.125  -7.474  1.00 20.00     0.010 C 
ENDBRANCH   4   6
ENDBRANCH   3   4
ENDBRANCH   1   3
BRANCH   1   8
HETATM    8  C10 UNL     1     -34.165  14.740  -3.145  1.00 20.00     0.051 C 
HETATM    9  C6  UNL     1     -35.026  15.738  -2.374  1.00 20.00     0.018 C 
BRANCH   8  10
HETATM   10  C9  UNL     1     -33.151  15.472  -4.035  1.00 20.00     0.007 C 
HETATM   11  C5  UNL     1     -33.489  16.946  -4.214  1.00 20.00     0.006 C 
ENDBRANCH   8  10
ENDBRANCH   1   8
TORSDOF 5
ENDMDL
MODEL 8
REMARK VINA RESULT:      -4.3     11.018     12.176
REMARK  5 active torsions:
REMARK  status: ('A' for Active; 'I' for Inactive)
REMARK    1  A    between atoms: C2_2  and  C7_7 
REMARK    2  A    between atoms: C2_2  and  C8_8 
REMARK    3  A    between atoms: C3_3  and  C7_7 
REMARK    4  A    between atoms: C3_3  and  C10_10 
REMARK    5  A    between atoms: C9_9  and  C10_10 
ROOT
HETATM    1  C3  UNL     1     -34.071  14.645  -3.422  1.00 20.00     0.134 C 
HETATM    2  O11 UNL     1     -34.239  13.444  -3.635  1.00 20.00    -0.297 OA
ENDROOT
BRANCH   1   3
HETATM    3  C7  UNL     1     -33.005  15.462  -4.145  1.00 20.00     0.111 C 
BRANCH   3   4
HETATM    4  C2  UNL     1     -33.567  16.167  -5.356  1.00 20.00    -0.083 C 
HETATM    5  C1  UNL     1     -33.583  17.509  -5.405  1.00 20.00     0.014 C 
BRANCH   4   6
HETATM    6  C8  UNL     1     -34.109  15.257  -6.442  1.00 20.00     0.029 C 
HETATM    7  C4  UNL     1     -35.609  15.308  -6.704  1.00 20.00     0.010 C 
ENDBRANCH   4   6
ENDBRANCH   3   4
ENDBRANCH   1   3
BRANCH   1   8
HETATM    8  C10 UNL     1     -34.919  15.405  -2.403  1.00 20.00     0.051 C 
HETATM    9  C6  UNL     1     -36.182  15.899  -3.104  1.00 20.00     0.018 C 
BRANCH   8  10
HETATM   10  C9  UNL     1     -34.152  16.577  -1.776  1.00 20.00     0.007 C 
HETATM   11  C5  UNL     1     -34.679  16.950  -0.397  1.00 20.00     0.006 C 
ENDBRANCH   8  10
ENDBRANCH   1   8
TORSDOF 5
ENDMDL
MODEL 9
REMARK VINA RESULT:      -4.3      1.397      2.487
REMARK  5 active torsions:
REMARK  status: ('A' for Active; 'I' for Inactive)
REMARK    1  A    between atoms: C2_2  and  C7_7 
REMARK    2  A    between atoms: C2_2  and  C8_8 
REMARK    3  A    between atoms: C3_3  and  C7_7 
REMARK    4  A    between atoms: C3_3  and  C10_10 
REMARK    5  A    between atoms: C9_9  and  C10_10 
ROOT
HETATM    1  C3  UNL     1     -32.569   6.540   3.280  1.00 20.00     0.134 C 
HETATM    2  O11 UNL     1     -32.154   5.499   2.769  1.00 20.00    -0.297 OA
ENDROOT
BRANCH   1   3
HETATM    3  C7  UNL     1     -31.772   7.839   3.251  1.00 20.00     0.111 C 
BRANCH   3   4
HETATM    4  C2  UNL     1     -32.170   8.714   2.086  1.00 20.00    -0.083 C 
HETATM    5  C1  UNL     1     -32.879   9.835   2.300  1.00 20.00     0.014 C 
BRANCH   4   6
HETATM    6  C8  UNL     1     -31.737   8.214   0.722  1.00 20.00     0.029 C 
HETATM    7  C4  UNL     1     -32.526   8.714  -0.482  1.00 20.00     0.010 C 
ENDBRANCH   4   6
ENDBRANCH   3   4
ENDBRANCH   1   3
BRANCH   1   8
HETATM    8  C10 UNL     1     -33.920   6.600   3.992  1.00 20.00     0.051 C 
HETATM    9  C6  UNL     1     -33.668   6.610   5.498  1.00 20.00     0.018 C 
BRANCH   8  10
HETATM   10  C9  UNL     1     -34.827   5.424   3.602  1.00 20.00     0.007 C 
HETATM   11  C5  UNL     1     -35.168   4.531   4.787  1.00 20.00     0.006 C 
ENDBRANCH   8  10
ENDBRANCH   1   8
TORSDOF 5
ENDMDL
