MODEL 1
REMARK VINA RESULT:      -4.0      0.000      0.000
REMARK  1 active torsions:
REMARK  status: ('A' for Active; 'I' for Inactive)
REMARK    1  A    between atoms: C6_6  and  O9_9 
ROOT
HETATM    1  C1  UNL     1     -33.470  14.313  -3.814  1.00 20.00     0.098 C 
HETATM    2  C2  UNL     1     -35.921  15.946  -2.845  1.00 20.00     0.004 C 
HETATM    3  C3  UNL     1     -34.862  16.171  -1.763  1.00 20.00     0.004 C 
HETATM    4  C4  UNL     1     -35.194  16.071  -4.182  1.00 20.00     0.053 C 
HETATM    5  C5  UNL     1     -33.548  16.419  -2.500  1.00 20.00     0.053 C 
HETATM    6  C6  UNL     1     -33.731  15.759  -3.865  1.00 20.00     0.148 C 
HETATM    7  N8  UNL     1     -33.263  13.172  -3.774  1.00 20.00    -0.194 NA
ENDROOT
BRANCH   6   8
HETATM    8  O9  UNL     1     -32.870  16.367  -4.815  1.00 20.00    -0.370 OA
HETATM    9  C7  UNL     1     -33.428  17.566  -5.339  1.00 20.00     0.204 C 
ENDBRANCH   6   8
TORSDOF 1
ENDMDL
MODEL 2
REMARK VINA RESULT:      -4.0      2.414      3.533
REMARK  1 active torsions:
REMARK  status: ('A' for Active; 'I' for Inactive)
REMARK    1  A    between atoms: C6_6  and  O9_9 
ROOT
HETATM    1  C1  UNL     1     -36.981  14.679  -3.788  1.00 20.00     0.098 C 
HETATM    2  C2  UNL     1     -34.471  13.249  -4.914  1.00 20.00     0.004 C 
HETATM    3  C3  UNL     1     -34.822  14.291  -5.978  1.00 20.00     0.004 C 
HETATM    4  C4  UNL     1     -34.610  13.954  -3.567  1.00 20.00     0.053 C 
HETATM    5  C5  UNL     1     -35.158  15.573  -5.219  1.00 20.00     0.053 C 
HETATM    6  C6  UNL     1     -35.575  15.110  -3.825  1.00 20.00     0.148 C 
HETATM    7  N8  UNL     1     -38.090  14.341  -3.759  1.00 20.00    -0.194 NA
ENDROOT
BRANCH   6   8
HETATM    8  O9  UNL     1     -35.371  16.156  -2.888  1.00 20.00    -0.370 OA
HETATM    9  C7  UNL     1     -34.019  16.212  -2.450  1.00 20.00     0.204 C 
ENDBRANCH   6   8
TORSDOF 1
ENDMDL
MODEL 3
REMARK VINA RESULT:      -4.0      2.570      3.281
REMARK  1 active torsions:
REMARK  status: ('A' for Active; 'I' for Inactive)
REMARK    1  A    between atoms: C6_6  and  O9_9 
ROOT
HETATM    1  C1  UNL     1     -36.580  14.385  -4.354  1.00 20.00     0.098 C 
HETATM    2  C2  UNL     1     -33.703  15.258  -3.595  1.00 20.00     0.004 C 
HETATM    3  C3  UNL     1     -33.649  13.729  -3.592  1.00 20.00     0.004 C 
HETATM    4  C4  UNL     1     -34.493  15.653  -4.840  1.00 20.00     0.053 C 
HETATM    5  C5  UNL     1     -34.410  13.276  -4.836  1.00 20.00     0.053 C 
HETATM    6  C6  UNL     1     -35.353  14.431  -5.164  1.00 20.00     0.148 C 
HETATM    7  N8  UNL     1     -37.548  14.348  -3.716  1.00 20.00    -0.194 NA
ENDROOT
BRANCH   6   8
HETATM    8  O9  UNL     1     -35.690  14.404  -6.543  1.00 20.00    -0.370 OA
HETATM    9  C7  UNL     1     -34.648  14.943  -7.348  1.00 20.00     0.204 C 
ENDBRANCH   6   8
TORSDOF 1
ENDMDL
MODEL 4
REMARK VINA RESULT:      -4.0      2.772      3.758
REMARK  1 active torsions:
REMARK  status: ('A' for Active; 'I' for Inactive)
REMARK    1  A    between atoms: C6_6  and  O9_9 
ROOT
HETATM    1  C1  UNL     1     -36.162  15.234  -5.445  1.00 20.00     0.098 C 
HETATM    2  C2  UNL     1     -33.804  13.955  -3.890  1.00 20.00     0.004 C 
HETATM    3  C3  UNL     1     -34.086  15.261  -3.145  1.00 20.00     0.004 C 
HETATM    4  C4  UNL     1     -35.167  13.332  -4.185  1.00 20.00     0.053 C 
HETATM    5  C5  UNL     1     -35.605  15.363  -3.028  1.00 20.00     0.053 C 
HETATM    6  C6  UNL     1     -36.147  14.504  -4.168  1.00 20.00     0.148 C 
HETATM    7  N8  UNL     1     -36.174  15.810  -6.452  1.00 20.00    -0.194 NA
ENDROOT
BRANCH   6   8
HETATM    8  O9  UNL     1     -37.459  14.060  -3.857  1.00 20.00    -0.370 OA
HETATM    9  C7  UNL     1     -38.338  15.151  -3.610  1.00 20.00     0.204 C 
ENDBRANCH   6   8
TORSDOF 1
ENDMDL
MODEL 5
REMARK VINA RESULT:      -3.9      1.952      2.943
REMARK  1 active torsions:
REMARK  status: ('A' for Active; 'I' for Inactive)
REMARK    1  A    between atoms: C6_6  and  O9_9 
ROOT
HETATM    1  C1  UNL     1     -33.776  16.352  -4.667  1.00 20.00     0.098 C 
HETATM    2  C2  UNL     1     -35.808  14.040  -4.292  1.00 20.00     0.004 C 
HETATM    3  C3  UNL     1     -34.460  13.337  -4.464  1.00 20.00     0.004 C 
HETATM    4  C4  UNL     1     -35.557  15.215  -3.350  1.00 20.00     0.053 C 
HETATM    5  C5  UNL     1     -33.461  14.123  -3.617  1.00 20.00     0.053 C 
HETATM    6  C6  UNL     1     -34.066  15.519  -3.490  1.00 20.00     0.148 C 
HETATM    7  N8  UNL     1     -33.546  17.009  -5.595  1.00 20.00    -0.194 NA
ENDROOT
BRANCH   6   8
HETATM    8  O9  UNL     1     -33.570  16.155  -2.322  1.00 20.00    -0.370 OA
HETATM    9  C7  UNL     1     -34.603  16.391  -1.373  1.00 20.00     0.204 C 
ENDBRANCH   6   8
TORSDOF 1
ENDMDL
MODEL 6
REMARK VINA RESULT:      -3.9      1.633      1.880
REMARK  1 active torsions:
REMARK  status: ('A' for Active; 'I' for Inactive)
REMARK    1  A    between atoms: C6_6  and  O9_9 
ROOT
HETATM    1  C1  UNL     1     -34.897  13.870  -4.568  1.00 20.00     0.098 C 
HETATM    2  C2  UNL     1     -35.063  16.000  -2.321  1.00 20.00     0.004 C 
HETATM    3  C3  UNL     1     -33.595  16.017  -2.752  1.00 20.00     0.004 C 
HETATM    4  C4  UNL     1     -35.883  15.945  -3.608  1.00 20.00     0.053 C 
HETATM    5  C5  UNL     1     -33.601  15.969  -4.279  1.00 20.00     0.053 C 
HETATM    6  C6  UNL     1     -34.942  15.338  -4.648  1.00 20.00     0.148 C 
HETATM    7  N8  UNL     1     -34.862  12.712  -4.505  1.00 20.00    -0.194 NA
ENDROOT
BRANCH   6   8
HETATM    8  O9  UNL     1     -35.317  15.733  -5.959  1.00 20.00    -0.370 OA
HETATM    9  C7  UNL     1     -34.315  15.403  -6.913  1.00 20.00     0.204 C 
ENDBRANCH   6   8
TORSDOF 1
ENDMDL
MODEL 7
REMARK VINA RESULT:      -3.9      1.896      2.940
REMARK  1 active torsions:
REMARK  status: ('A' for Active; 'I' for Inactive)
REMARK    1  A    between atoms: C6_6  and  O9_9 
ROOT
HETATM    1  C1  UNL     1     -35.093  13.750  -4.520  1.00 20.00     0.098 C 
HETATM    2  C2  UNL     1     -33.768  15.954  -2.789  1.00 20.00     0.004 C 
HETATM    3  C3  UNL     1     -33.295  16.254  -4.213  1.00 20.00     0.004 C 
HETATM    4  C4  UNL     1     -35.256  15.629  -2.896  1.00 20.00     0.053 C 
HETATM    5  C5  UNL     1     -34.520  16.094  -5.110  1.00 20.00     0.053 C 
HETATM    6  C6  UNL     1     -35.454  15.164  -4.339  1.00 20.00     0.148 C 
HETATM    7  N8  UNL     1     -34.809  12.635  -4.665  1.00 20.00    -0.194 NA
ENDROOT
BRANCH   6   8
HETATM    8  O9  UNL     1     -36.795  15.372  -4.756  1.00 20.00    -0.370 OA
HETATM    9  C7  UNL     1     -37.725  14.867  -3.804  1.00 20.00     0.204 C 
ENDBRANCH   6   8
TORSDOF 1
ENDMDL
MODEL 8
REMARK VINA RESULT:      -3.9      1.809      2.742
REMARK  1 active torsions:
REMARK  status: ('A' for Active; 'I' for Inactive)
REMARK    1  A    between atoms: C6_6  and  O9_9 
ROOT
HETATM    1  C1  UNL     1     -34.510  16.208  -2.103  1.00 20.00     0.098 C 
HETATM    2  C2  UNL     1     -33.301  13.827  -3.679  1.00 20.00     0.004 C 
HETATM    3  C3  UNL     1     -34.813  13.660  -3.841  1.00 20.00     0.004 C 
HETATM    4  C4  UNL     1     -33.014  15.313  -3.880  1.00 20.00     0.053 C 
HETATM    5  C5  UNL     1     -35.365  15.054  -4.130  1.00 20.00     0.053 C 
HETATM    6  C6  UNL     1     -34.330  16.016  -3.550  1.00 20.00     0.148 C 
HETATM    7  N8  UNL     1     -34.653  16.360  -0.962  1.00 20.00    -0.194 NA
ENDROOT
BRANCH   6   8
HETATM    8  O9  UNL     1     -34.412  17.270  -4.212  1.00 20.00    -0.370 OA
HETATM    9  C7  UNL     1     -33.494  17.352  -5.295  1.00 20.00     0.204 C 
ENDBRANCH   6   8
TORSDOF 1
ENDMDL
MODEL 9
REMARK VINA RESULT:      -3.8      2.490      2.910
REMARK  1 active torsions:
REMARK  status: ('A' for Active; 'I' for Inactive)
REMARK    1  A    between atoms: C6_6  and  O9_9 
ROOT
HETATM    1  C1  UNL     1     -36.773  14.440  -4.100  1.00 20.00     0.098 C 
HETATM    2  C2  UNL     1     -34.758  16.738  -3.582  1.00 20.00     0.004 C 
HETATM    3  C3  UNL     1     -34.320  15.627  -2.625  1.00 20.00     0.004 C 
HETATM    4  C4  UNL     1     -35.064  16.056  -4.913  1.00 20.00     0.053 C 
HETATM    5  C5  UNL     1     -34.385  14.329  -3.427  1.00 20.00     0.053 C 
HETATM    6  C6  UNL     1     -35.383  14.607  -4.549  1.00 20.00     0.148 C 
HETATM    7  N8  UNL     1     -37.870  14.307  -3.746  1.00 20.00    -0.194 NA
ENDROOT
BRANCH   6   8
HETATM    8  O9  UNL     1     -35.128  13.743  -5.646  1.00 20.00    -0.370 OA
HETATM    9  C7  UNL     1     -35.166  14.443  -6.884  1.00 20.00     0.204 C 
ENDBRANCH   6   8
TORSDOF 1
ENDMDL
