MODEL 1
REMARK VINA RESULT:      -5.0      0.000      0.000
REMARK  4 active torsions:
REMARK  status: ('A' for Active; 'I' for Inactive)
REMARK    1  A    between atoms: C2_2  and  C9_9 
REMARK    2  A    between atoms: C2_2  and  C10_10 
REMARK    3  A    between atoms: C3_3  and  C5_5 
REMARK    4  A    between atoms: C3_3  and  C9_9 
ROOT
HETATM    1  C3  UNL     1     -33.780   6.234   3.974  1.00 20.00     0.135 C 
HETATM    2  O11 UNL     1     -34.907   6.612   3.680  1.00 20.00    -0.297 OA
ENDROOT
BRANCH   1   3
HETATM    3  C5  UNL     1     -33.471   5.851   5.384  1.00 20.00     0.060 A 
HETATM    4  C4  UNL     1     -34.508   6.096   6.434  1.00 20.00     0.017 A 
HETATM    5  C6  UNL     1     -34.175   4.692   6.018  1.00 20.00    -0.007 A 
HETATM    6  C7  UNL     1     -35.189   3.866   5.302  1.00 20.00     0.011 C 
ENDBRANCH   1   3
BRANCH   1   7
HETATM    7  C9  UNL     1     -32.612   6.151   3.009  1.00 20.00     0.111 C 
BRANCH   7   8
HETATM    8  C2  UNL     1     -31.900   7.473   2.895  1.00 20.00    -0.083 C 
HETATM    9  C1  UNL     1     -31.216   7.985   3.932  1.00 20.00     0.014 C 
BRANCH   8  10
HETATM   10  C10 UNL     1     -31.986   8.208   1.577  1.00 20.00     0.029 C 
HETATM   11  C8  UNL     1     -32.544   9.617   1.726  1.00 20.00     0.010 C 
ENDBRANCH   8  10
ENDBRANCH   7   8
ENDBRANCH   1   7
TORSDOF 4
ENDMDL
MODEL 2
REMARK VINA RESULT:      -4.8      1.507      5.008
REMARK  4 active torsions:
REMARK  status: ('A' for Active; 'I' for Inactive)
REMARK    1  A    between atoms: C2_2  and  C9_9 
REMARK    2  A    between atoms: C2_2  and  C10_10 
REMARK    3  A    between atoms: C3_3  and  C5_5 
REMARK    4  A    between atoms: C3_3  and  C9_9 
ROOT
HETATM    1  C3  UNL     1     -32.124   7.517   3.054  1.00 20.00     0.135 C 
HETATM    2  O11 UNL     1     -31.143   7.949   3.647  1.00 20.00    -0.297 OA
ENDROOT
BRANCH   1   3
HETATM    3  C5  UNL     1     -32.962   8.443   2.236  1.00 20.00     0.060 A 
HETATM    4  C4  UNL     1     -32.501   9.854   2.057  1.00 20.00     0.017 A 
HETATM    5  C6  UNL     1     -32.483   8.903   0.895  1.00 20.00    -0.007 A 
HETATM    6  C7  UNL     1     -31.184   8.471   0.305  1.00 20.00     0.011 C 
ENDBRANCH   1   3
BRANCH   1   7
HETATM    7  C9  UNL     1     -32.606   6.079   3.105  1.00 20.00     0.111 C 
BRANCH   7   8
HETATM    8  C2  UNL     1     -33.854   5.949   3.939  1.00 20.00    -0.083 C 
HETATM    9  C1  UNL     1     -34.989   5.455   3.416  1.00 20.00     0.014 C 
BRANCH   8  10
HETATM   10  C10 UNL     1     -33.788   6.397   5.380  1.00 20.00     0.029 C 
HETATM   11  C8  UNL     1     -34.553   5.472   6.317  1.00 20.00     0.010 C 
ENDBRANCH   8  10
ENDBRANCH   7   8
ENDBRANCH   1   7
TORSDOF 4
ENDMDL
MODEL 3
REMARK VINA RESULT:      -4.7     11.143     12.182
REMARK  4 active torsions:
REMARK  status: ('A' for Active; 'I' for Inactive)
REMARK    1  A    between atoms: C2_2  and  C9_9 
REMARK    2  A    between atoms: C2_2  and  C10_10 
REMARK    3  A    between atoms: C3_3  and  C5_5 
REMARK    4  A    between atoms: C3_3  and  C9_9 
ROOT
HETATM    1  C3  UNL     1     -33.586  14.663  -3.453  1.00 20.00     0.135 C 
HETATM    2  O11 UNL     1     -32.375  14.821  -3.551  1.00 20.00    -0.297 OA
ENDROOT
BRANCH   1   3
HETATM    3  C5  UNL     1     -34.257  13.580  -4.230  1.00 20.00     0.060 A 
HETATM    4  C4  UNL     1     -35.721  13.705  -4.512  1.00 20.00     0.017 A 
HETATM    5  C6  UNL     1     -34.726  13.839  -5.629  1.00 20.00    -0.007 A 
HETATM    6  C7  UNL     1     -34.548  15.151  -6.315  1.00 20.00     0.011 C 
ENDBRANCH   1   3
BRANCH   1   7
HETATM    7  C9  UNL     1     -34.508  15.524  -2.610  1.00 20.00     0.111 C 
BRANCH   7   8
HETATM    8  C2  UNL     1     -34.002  16.939  -2.514  1.00 20.00    -0.083 C 
HETATM    9  C1  UNL     1     -33.877  17.707  -3.609  1.00 20.00     0.014 C 
BRANCH   8  10
HETATM   10  C10 UNL     1     -33.634  17.464  -1.146  1.00 20.00     0.029 C 
HETATM   11  C8  UNL     1     -34.702  17.174  -0.100  1.00 20.00     0.010 C 
ENDBRANCH   8  10
ENDBRANCH   7   8
ENDBRANCH   1   7
TORSDOF 4
ENDMDL
MODEL 4
REMARK VINA RESULT:      -4.7      0.788      1.369
REMARK  4 active torsions:
REMARK  status: ('A' for Active; 'I' for Inactive)
REMARK    1  A    between atoms: C2_2  and  C9_9 
REMARK    2  A    between atoms: C2_2  and  C10_10 
REMARK    3  A    between atoms: C3_3  and  C5_5 
REMARK    4  A    between atoms: C3_3  and  C9_9 
ROOT
HETATM    1  C3  UNL     1     -34.306   6.202   3.701  1.00 20.00     0.135 C 
HETATM    2  O11 UNL     1     -34.942   7.198   3.380  1.00 20.00    -0.297 OA
ENDROOT
BRANCH   1   3
HETATM    3  C5  UNL     1     -34.908   5.210   4.641  1.00 20.00     0.060 A 
HETATM    4  C4  UNL     1     -33.995   4.309   5.409  1.00 20.00     0.017 A 
HETATM    5  C6  UNL     1     -34.758   5.389   6.120  1.00 20.00    -0.007 A 
HETATM    6  C7  UNL     1     -34.031   6.540   6.729  1.00 20.00     0.011 C 
ENDBRANCH   1   3
BRANCH   1   7
HETATM    7  C9  UNL     1     -32.894   5.888   3.245  1.00 20.00     0.111 C 
BRANCH   7   8
HETATM    8  C2  UNL     1     -32.077   7.144   3.088  1.00 20.00    -0.083 C 
HETATM    9  C1  UNL     1     -31.443   7.696   4.136  1.00 20.00     0.014 C 
BRANCH   8  10
HETATM   10  C10 UNL     1     -31.999   7.766   1.712  1.00 20.00     0.029 C 
HETATM   11  C8  UNL     1     -32.375   9.242   1.714  1.00 20.00     0.010 C 
ENDBRANCH   8  10
ENDBRANCH   7   8
ENDBRANCH   1   7
TORSDOF 4
ENDMDL
MODEL 5
REMARK VINA RESULT:      -4.7     11.319     12.538
REMARK  4 active torsions:
REMARK  status: ('A' for Active; 'I' for Inactive)
REMARK    1  A    between atoms: C2_2  and  C9_9 
REMARK    2  A    between atoms: C2_2  and  C10_10 
REMARK    3  A    between atoms: C3_3  and  C5_5 
REMARK    4  A    between atoms: C3_3  and  C9_9 
ROOT
HETATM    1  C3  UNL     1     -34.035  14.247  -4.575  1.00 20.00     0.135 C 
HETATM    2  O11 UNL     1     -34.426  13.108  -4.352  1.00 20.00    -0.297 OA
ENDROOT
BRANCH   1   3
HETATM    3  C5  UNL     1     -34.415  14.924  -5.850  1.00 20.00     0.060 A 
HETATM    4  C4  UNL     1     -35.343  14.216  -6.786  1.00 20.00     0.017 A 
HETATM    5  C6  UNL     1     -35.809  15.435  -6.043  1.00 20.00    -0.007 A 
HETATM    6  C7  UNL     1     -36.869  15.314  -5.001  1.00 20.00     0.011 C 
ENDBRANCH   1   3
BRANCH   1   7
HETATM    7  C9  UNL     1     -33.135  15.052  -3.657  1.00 20.00     0.111 C 
BRANCH   7   8
HETATM    8  C2  UNL     1     -33.879  16.202  -3.030  1.00 20.00    -0.083 C 
HETATM    9  C1  UNL     1     -33.712  17.460  -3.473  1.00 20.00     0.014 C 
BRANCH   8  10
HETATM   10  C10 UNL     1     -34.815  15.895  -1.884  1.00 20.00     0.029 C 
HETATM   11  C8  UNL     1     -34.581  16.795  -0.679  1.00 20.00     0.010 C 
ENDBRANCH   8  10
ENDBRANCH   7   8
ENDBRANCH   1   7
TORSDOF 4
ENDMDL
MODEL 6
REMARK VINA RESULT:      -4.7     11.349     12.983
REMARK  4 active torsions:
REMARK  status: ('A' for Active; 'I' for Inactive)
REMARK    1  A    between atoms: C2_2  and  C9_9 
REMARK    2  A    between atoms: C2_2  and  C10_10 
REMARK    3  A    between atoms: C3_3  and  C5_5 
REMARK    4  A    between atoms: C3_3  and  C9_9 
ROOT
HETATM    1  C3  UNL     1     -35.739  14.383  -5.151  1.00 20.00     0.135 C 
HETATM    2  O11 UNL     1     -36.855  14.883  -5.222  1.00 20.00    -0.297 OA
ENDROOT
BRANCH   1   3
HETATM    3  C5  UNL     1     -34.970  14.106  -6.400  1.00 20.00     0.060 A 
HETATM    4  C4  UNL     1     -35.539  14.565  -7.705  1.00 20.00     0.017 A 
HETATM    5  C6  UNL     1     -34.315  15.229  -7.143  1.00 20.00    -0.007 A 
HETATM    6  C7  UNL     1     -34.377  16.648  -6.690  1.00 20.00     0.011 C 
ENDBRANCH   1   3
BRANCH   1   7
HETATM    7  C9  UNL     1     -35.053  13.967  -3.863  1.00 20.00     0.111 C 
BRANCH   7   8
HETATM    8  C2  UNL     1     -34.369  15.137  -3.204  1.00 20.00    -0.083 C 
HETATM    9  C1  UNL     1     -33.062  15.378  -3.404  1.00 20.00     0.014 C 
BRANCH   8  10
HETATM   10  C10 UNL     1     -35.199  16.026  -2.308  1.00 20.00     0.029 C 
HETATM   11  C8  UNL     1     -34.401  16.592  -1.141  1.00 20.00     0.010 C 
ENDBRANCH   8  10
ENDBRANCH   7   8
ENDBRANCH   1   7
TORSDOF 4
ENDMDL
MODEL 7
REMARK VINA RESULT:      -4.5     11.040     12.209
REMARK  4 active torsions:
REMARK  status: ('A' for Active; 'I' for Inactive)
REMARK    1  A    between atoms: C2_2  and  C9_9 
REMARK    2  A    between atoms: C2_2  and  C10_10 
REMARK    3  A    between atoms: C3_3  and  C5_5 
REMARK    4  A    between atoms: C3_3  and  C9_9 
ROOT
HETATM    1  C3  UNL     1     -35.661  15.553  -4.204  1.00 20.00     0.135 C 
HETATM    2  O11 UNL     1     -35.537  15.959  -5.353  1.00 20.00    -0.297 OA
ENDROOT
BRANCH   1   3
HETATM    3  C5  UNL     1     -35.313  14.139  -3.876  1.00 20.00     0.060 A 
HETATM    4  C4  UNL     1     -34.592  13.324  -4.902  1.00 20.00     0.017 A 
HETATM    5  C6  UNL     1     -33.885  13.750  -3.647  1.00 20.00    -0.007 A 
HETATM    6  C7  UNL     1     -32.758  14.723  -3.719  1.00 20.00     0.011 C 
ENDBRANCH   1   3
BRANCH   1   7
HETATM    7  C9  UNL     1     -36.192  16.375  -3.044  1.00 20.00     0.111 C 
BRANCH   7   8
HETATM    8  C2  UNL     1     -35.076  17.075  -2.313  1.00 20.00    -0.083 C 
HETATM    9  C1  UNL     1     -34.514  18.190  -2.808  1.00 20.00     0.014 C 
BRANCH   8  10
HETATM   10  C10 UNL     1     -34.608  16.478  -1.006  1.00 20.00     0.029 C 
HETATM   11  C8  UNL     1     -34.939  17.356   0.193  1.00 20.00     0.010 C 
ENDBRANCH   8  10
ENDBRANCH   7   8
ENDBRANCH   1   7
TORSDOF 4
ENDMDL
MODEL 8
REMARK VINA RESULT:      -4.5     11.122     12.316
REMARK  4 active torsions:
REMARK  status: ('A' for Active; 'I' for Inactive)
REMARK    1  A    between atoms: C2_2  and  C9_9 
REMARK    2  A    between atoms: C2_2  and  C10_10 
REMARK    3  A    between atoms: C3_3  and  C5_5 
REMARK    4  A    between atoms: C3_3  and  C9_9 
ROOT
HETATM    1  C3  UNL     1     -33.665  14.731  -3.361  1.00 20.00     0.135 C 
HETATM    2  O11 UNL     1     -32.462  14.888  -3.529  1.00 20.00    -0.297 OA
ENDROOT
BRANCH   1   3
HETATM    3  C5  UNL     1     -34.380  13.643  -4.092  1.00 20.00     0.060 A 
HETATM    4  C4  UNL     1     -35.821  13.842  -4.438  1.00 20.00     0.017 A 
HETATM    5  C6  UNL     1     -34.781  13.836  -5.521  1.00 20.00    -0.007 A 
HETATM    6  C7  UNL     1     -34.492  15.084  -6.284  1.00 20.00     0.011 C 
ENDBRANCH   1   3
BRANCH   1   7
HETATM    7  C9  UNL     1     -34.539  15.598  -2.473  1.00 20.00     0.111 C 
BRANCH   7   8
HETATM    8  C2  UNL     1     -34.008  17.005  -2.388  1.00 20.00    -0.083 C 
HETATM    9  C1  UNL     1     -33.538  17.501  -1.231  1.00 20.00     0.014 C 
BRANCH   8  10
HETATM   10  C10 UNL     1     -34.028  17.843  -3.646  1.00 20.00     0.029 C 
HETATM   11  C8  UNL     1     -35.430  18.012  -4.216  1.00 20.00     0.010 C 
ENDBRANCH   8  10
ENDBRANCH   7   8
ENDBRANCH   1   7
TORSDOF 4
ENDMDL
MODEL 9
REMARK VINA RESULT:      -4.5     11.114     12.496
REMARK  4 active torsions:
REMARK  status: ('A' for Active; 'I' for Inactive)
REMARK    1  A    between atoms: C2_2  and  C9_9 
REMARK    2  A    between atoms: C2_2  and  C10_10 
REMARK    3  A    between atoms: C3_3  and  C5_5 
REMARK    4  A    between atoms: C3_3  and  C9_9 
ROOT
HETATM    1  C3  UNL     1     -34.177  15.575  -5.398  1.00 20.00     0.135 C 
HETATM    2  O11 UNL     1     -34.808  16.072  -6.323  1.00 20.00    -0.297 OA
ENDROOT
BRANCH   1   3
HETATM    3  C5  UNL     1     -34.353  14.128  -5.075  1.00 20.00     0.060 A 
HETATM    4  C4  UNL     1     -34.195  13.688  -3.654  1.00 20.00     0.017 A 
HETATM    5  C6  UNL     1     -35.550  13.670  -4.302  1.00 20.00    -0.007 A 
HETATM    6  C7  UNL     1     -36.615  14.600  -3.829  1.00 20.00     0.011 C 
ENDBRANCH   1   3
BRANCH   1   7
HETATM    7  C9  UNL     1     -33.226  16.330  -4.490  1.00 20.00     0.111 C 
BRANCH   7   8
HETATM    8  C2  UNL     1     -33.974  17.143  -3.465  1.00 20.00    -0.083 C 
HETATM    9  C1  UNL     1     -34.937  18.004  -3.832  1.00 20.00     0.014 C 
BRANCH   8  10
HETATM   10  C10 UNL     1     -33.601  16.959  -2.012  1.00 20.00     0.029 C 
HETATM   11  C8  UNL     1     -34.765  16.457  -1.168  1.00 20.00     0.010 C 
ENDBRANCH   8  10
ENDBRANCH   7   8
ENDBRANCH   1   7
TORSDOF 4
ENDMDL
