MODEL 1
REMARK VINA RESULT:      -4.0      0.000      0.000
REMARK  4 active torsions:
REMARK  status: ('A' for Active; 'I' for Inactive)
REMARK    1  A    between atoms: C4_4  and  C5_5 
REMARK    2  A    between atoms: C5_5  and  C7_7 
REMARK    3  A    between atoms: C6_6  and  O9_9 
REMARK    4  A    between atoms: C7_7  and  O9_9 
ROOT
HETATM    1  C1  UNL     1     -34.128  13.742  -4.058  1.00 20.00     0.091 C 
HETATM    2  C7  UNL     1     -33.525  14.906  -3.397  1.00 20.00     0.227 C 
HETATM    3  N8  UNL     1     -34.602  12.820  -4.580  1.00 20.00    -0.195 NA
ENDROOT
BRANCH   2   4
HETATM    4  C5  UNL     1     -34.555  15.718  -2.607  1.00 20.00     0.046 C 
BRANCH   4   5
HETATM    5  C4  UNL     1     -33.918  16.739  -1.661  1.00 20.00    -0.001 C 
HETATM    6  C2  UNL     1     -34.733  16.897  -0.387  1.00 20.00     0.005 C 
ENDBRANCH   4   5
ENDBRANCH   2   4
BRANCH   2   7
HETATM    7  O9  UNL     1     -32.959  15.768  -4.383  1.00 20.00    -0.372 OA
BRANCH   7   8
HETATM    8  C6  UNL     1     -33.950  16.249  -5.278  1.00 20.00     0.165 C 
HETATM    9  C3  UNL     1     -33.644  17.690  -5.625  1.00 20.00     0.033 C 
ENDBRANCH   7   8
ENDBRANCH   2   7
TORSDOF 4
ENDMDL
MODEL 2
REMARK VINA RESULT:      -4.0     11.597     12.536
REMARK  4 active torsions:
REMARK  status: ('A' for Active; 'I' for Inactive)
REMARK    1  A    between atoms: C4_4  and  C5_5 
REMARK    2  A    between atoms: C5_5  and  C7_7 
REMARK    3  A    between atoms: C6_6  and  O9_9 
REMARK    4  A    between atoms: C7_7  and  O9_9 
ROOT
HETATM    1  C1  UNL     1     -33.620   6.738   5.357  1.00 20.00     0.091 C 
HETATM    2  C7  UNL     1     -33.643   6.522   3.905  1.00 20.00     0.227 C 
HETATM    3  N8  UNL     1     -33.602   6.911   6.505  1.00 20.00    -0.195 NA
ENDROOT
BRANCH   2   4
HETATM    4  C5  UNL     1     -34.509   5.321   3.515  1.00 20.00     0.046 C 
BRANCH   4   5
HETATM    5  C4  UNL     1     -35.480   4.897   4.620  1.00 20.00    -0.001 C 
HETATM    6  C2  UNL     1     -34.909   3.758   5.451  1.00 20.00     0.005 C 
ENDBRANCH   4   5
ENDBRANCH   2   4
BRANCH   2   7
HETATM    7  O9  UNL     1     -32.316   6.265   3.445  1.00 20.00    -0.372 OA
BRANCH   7   8
HETATM    8  C6  UNL     1     -31.584   7.469   3.282  1.00 20.00     0.165 C 
HETATM    9  C3  UNL     1     -32.097   8.197   2.058  1.00 20.00     0.033 C 
ENDBRANCH   7   8
ENDBRANCH   2   7
TORSDOF 4
ENDMDL
MODEL 3
REMARK VINA RESULT:      -3.9     11.727     12.929
REMARK  4 active torsions:
REMARK  status: ('A' for Active; 'I' for Inactive)
REMARK    1  A    between atoms: C4_4  and  C5_5 
REMARK    2  A    between atoms: C5_5  and  C7_7 
REMARK    3  A    between atoms: C6_6  and  O9_9 
REMARK    4  A    between atoms: C7_7  and  O9_9 
ROOT
HETATM    1  C1  UNL     1     -34.881   4.671   4.651  1.00 20.00     0.091 C 
HETATM    2  C7  UNL     1     -34.392   5.974   4.183  1.00 20.00     0.227 C 
HETATM    3  N8  UNL     1     -35.270   3.642   5.022  1.00 20.00    -0.195 NA
ENDROOT
BRANCH   2   4
HETATM    4  C5  UNL     1     -33.632   5.862   2.859  1.00 20.00     0.046 C 
BRANCH   4   5
HETATM    5  C4  UNL     1     -32.208   6.421   2.934  1.00 20.00    -0.001 C 
HETATM    6  C2  UNL     1     -32.130   7.818   2.338  1.00 20.00     0.005 C 
ENDBRANCH   4   5
ENDBRANCH   2   4
BRANCH   2   7
HETATM    7  O9  UNL     1     -33.494   6.516   5.152  1.00 20.00    -0.372 OA
BRANCH   7   8
HETATM    8  C6  UNL     1     -34.080   6.537   6.444  1.00 20.00     0.165 C 
HETATM    9  C3  UNL     1     -33.427   7.628   7.264  1.00 20.00     0.033 C 
ENDBRANCH   7   8
ENDBRANCH   2   7
TORSDOF 4
ENDMDL
MODEL 4
REMARK VINA RESULT:      -3.8      1.840      2.096
REMARK  4 active torsions:
REMARK  status: ('A' for Active; 'I' for Inactive)
REMARK    1  A    between atoms: C4_4  and  C5_5 
REMARK    2  A    between atoms: C5_5  and  C7_7 
REMARK    3  A    between atoms: C6_6  and  O9_9 
REMARK    4  A    between atoms: C7_7  and  O9_9 
ROOT
HETATM    1  C1  UNL     1     -36.222  14.235  -3.856  1.00 20.00     0.091 C 
HETATM    2  C7  UNL     1     -34.756  14.144  -3.821  1.00 20.00     0.227 C 
HETATM    3  N8  UNL     1     -37.380  14.305  -3.884  1.00 20.00    -0.195 NA
ENDROOT
BRANCH   2   4
HETATM    4  C5  UNL     1     -34.115  15.407  -3.239  1.00 20.00     0.046 C 
BRANCH   4   5
HETATM    5  C4  UNL     1     -34.820  15.913  -1.978  1.00 20.00    -0.001 C 
HETATM    6  C2  UNL     1     -34.005  16.992  -1.282  1.00 20.00     0.005 C 
ENDBRANCH   4   5
ENDBRANCH   2   4
BRANCH   2   7
HETATM    7  O9  UNL     1     -34.262  13.981  -5.149  1.00 20.00    -0.372 OA
BRANCH   7   8
HETATM    8  C6  UNL     1     -34.301  15.203  -5.869  1.00 20.00     0.165 C 
HETATM    9  C3  UNL     1     -34.594  14.910  -7.324  1.00 20.00     0.033 C 
ENDBRANCH   7   8
ENDBRANCH   2   7
TORSDOF 4
ENDMDL
MODEL 5
REMARK VINA RESULT:      -3.7      2.098      3.901
REMARK  4 active torsions:
REMARK  status: ('A' for Active; 'I' for Inactive)
REMARK    1  A    between atoms: C4_4  and  C5_5 
REMARK    2  A    between atoms: C5_5  and  C7_7 
REMARK    3  A    between atoms: C6_6  and  O9_9 
REMARK    4  A    between atoms: C7_7  and  O9_9 
ROOT
HETATM    1  C1  UNL     1     -36.793  14.555  -3.974  1.00 20.00     0.091 C 
HETATM    2  C7  UNL     1     -35.396  14.877  -4.293  1.00 20.00     0.227 C 
HETATM    3  N8  UNL     1     -37.898  14.303  -3.722  1.00 20.00    -0.195 NA
ENDROOT
BRANCH   2   4
HETATM    4  C5  UNL     1     -34.836  13.979  -5.399  1.00 20.00     0.046 C 
BRANCH   4   5
HETATM    5  C4  UNL     1     -34.590  14.727  -6.712  1.00 20.00    -0.001 C 
HETATM    6  C2  UNL     1     -34.168  16.166  -6.459  1.00 20.00     0.005 C 
ENDBRANCH   4   5
ENDBRANCH   2   4
BRANCH   2   7
HETATM    7  O9  UNL     1     -34.591  14.683  -3.130  1.00 20.00    -0.372 OA
BRANCH   7   8
HETATM    8  C6  UNL     1     -33.981  15.895  -2.717  1.00 20.00     0.165 C 
HETATM    9  C3  UNL     1     -34.626  16.358  -1.429  1.00 20.00     0.033 C 
ENDBRANCH   7   8
ENDBRANCH   2   7
TORSDOF 4
ENDMDL
MODEL 6
REMARK VINA RESULT:      -3.7      2.374      4.043
REMARK  4 active torsions:
REMARK  status: ('A' for Active; 'I' for Inactive)
REMARK    1  A    between atoms: C4_4  and  C5_5 
REMARK    2  A    between atoms: C5_5  and  C7_7 
REMARK    3  A    between atoms: C6_6  and  O9_9 
REMARK    4  A    between atoms: C7_7  and  O9_9 
ROOT
HETATM    1  C1  UNL     1     -37.428  14.720  -3.842  1.00 20.00     0.091 C 
HETATM    2  C7  UNL     1     -36.056  15.243  -3.847  1.00 20.00     0.227 C 
HETATM    3  N8  UNL     1     -38.513  14.308  -3.840  1.00 20.00    -0.195 NA
ENDROOT
BRANCH   2   4
HETATM    4  C5  UNL     1     -35.014  14.129  -3.705  1.00 20.00     0.046 C 
BRANCH   4   5
HETATM    5  C4  UNL     1     -34.544  13.571  -5.051  1.00 20.00    -0.001 C 
HETATM    6  C2  UNL     1     -34.574  14.638  -6.134  1.00 20.00     0.005 C 
ENDBRANCH   4   5
ENDBRANCH   2   4
BRANCH   2   7
HETATM    7  O9  UNL     1     -35.887  16.136  -2.747  1.00 20.00    -0.372 OA
BRANCH   7   8
HETATM    8  C6  UNL     1     -34.585  16.031  -2.192  1.00 20.00     0.165 C 
HETATM    9  C3  UNL     1     -34.583  16.660  -0.816  1.00 20.00     0.033 C 
ENDBRANCH   7   8
ENDBRANCH   2   7
TORSDOF 4
ENDMDL
MODEL 7
REMARK VINA RESULT:      -3.7      1.749      2.245
REMARK  4 active torsions:
REMARK  status: ('A' for Active; 'I' for Inactive)
REMARK    1  A    between atoms: C4_4  and  C5_5 
REMARK    2  A    between atoms: C5_5  and  C7_7 
REMARK    3  A    between atoms: C6_6  and  O9_9 
REMARK    4  A    between atoms: C7_7  and  O9_9 
ROOT
HETATM    1  C1  UNL     1     -36.574  14.846  -3.525  1.00 20.00     0.091 C 
HETATM    2  C7  UNL     1     -35.296  15.496  -3.209  1.00 20.00     0.227 C 
HETATM    3  N8  UNL     1     -37.583  14.329  -3.776  1.00 20.00    -0.195 NA
ENDROOT
BRANCH   2   4
HETATM    4  C5  UNL     1     -35.476  16.691  -2.267  1.00 20.00     0.046 C 
BRANCH   4   5
HETATM    5  C4  UNL     1     -34.678  16.556  -0.967  1.00 20.00    -0.001 C 
HETATM    6  C2  UNL     1     -33.599  17.623  -0.867  1.00 20.00     0.005 C 
ENDBRANCH   4   5
ENDBRANCH   2   4
BRANCH   2   7
HETATM    7  O9  UNL     1     -34.703  15.981  -4.413  1.00 20.00    -0.372 OA
BRANCH   7   8
HETATM    8  C6  UNL     1     -33.291  16.060  -4.297  1.00 20.00     0.165 C 
HETATM    9  C3  UNL     1     -32.770  14.763  -3.715  1.00 20.00     0.033 C 
ENDBRANCH   7   8
ENDBRANCH   2   7
TORSDOF 4
ENDMDL
MODEL 8
REMARK VINA RESULT:      -3.7      2.047      3.972
REMARK  4 active torsions:
REMARK  status: ('A' for Active; 'I' for Inactive)
REMARK    1  A    between atoms: C4_4  and  C5_5 
REMARK    2  A    between atoms: C5_5  and  C7_7 
REMARK    3  A    between atoms: C6_6  and  O9_9 
REMARK    4  A    between atoms: C7_7  and  O9_9 
ROOT
HETATM    1  C1  UNL     1     -33.441  16.831  -4.373  1.00 20.00     0.091 C 
HETATM    2  C7  UNL     1     -33.396  16.012  -3.155  1.00 20.00     0.227 C 
HETATM    3  N8  UNL     1     -33.474  17.478  -5.336  1.00 20.00    -0.195 NA
ENDROOT
BRANCH   2   4
HETATM    4  C5  UNL     1     -34.487  14.937  -3.143  1.00 20.00     0.046 C 
BRANCH   4   5
HETATM    5  C4  UNL     1     -34.022  13.603  -3.733  1.00 20.00    -0.001 C 
HETATM    6  C2  UNL     1     -34.800  13.252  -4.991  1.00 20.00     0.005 C 
ENDBRANCH   4   5
ENDBRANCH   2   4
BRANCH   2   7
HETATM    7  O9  UNL     1     -33.601  16.848  -2.017  1.00 20.00    -0.372 OA
BRANCH   7   8
HETATM    8  C6  UNL     1     -34.712  16.412  -1.249  1.00 20.00     0.165 C 
HETATM    9  C3  UNL     1     -34.774  17.217   0.031  1.00 20.00     0.033 C 
ENDBRANCH   7   8
ENDBRANCH   2   7
TORSDOF 4
ENDMDL
MODEL 9
REMARK VINA RESULT:      -3.6      2.027      2.867
REMARK  4 active torsions:
REMARK  status: ('A' for Active; 'I' for Inactive)
REMARK    1  A    between atoms: C4_4  and  C5_5 
REMARK    2  A    between atoms: C5_5  and  C7_7 
REMARK    3  A    between atoms: C6_6  and  O9_9 
REMARK    4  A    between atoms: C7_7  and  O9_9 
ROOT
HETATM    1  C1  UNL     1     -33.803  17.138  -4.348  1.00 20.00     0.091 C 
HETATM    2  C7  UNL     1     -34.233  15.836  -3.822  1.00 20.00     0.227 C 
HETATM    3  N8  UNL     1     -33.463  18.167  -4.767  1.00 20.00    -0.195 NA
ENDROOT
BRANCH   2   4
HETATM    4  C5  UNL     1     -34.826  15.952  -2.416  1.00 20.00     0.046 C 
BRANCH   4   5
HETATM    5  C4  UNL     1     -33.995  16.837  -1.484  1.00 20.00    -0.001 C 
HETATM    6  C2  UNL     1     -34.717  17.090  -0.170  1.00 20.00     0.005 C 
ENDBRANCH   4   5
ENDBRANCH   2   4
BRANCH   2   7
HETATM    7  O9  UNL     1     -33.107  14.963  -3.746  1.00 20.00    -0.372 OA
BRANCH   7   8
HETATM    8  C6  UNL     1     -33.508  13.602  -3.746  1.00 20.00     0.165 C 
HETATM    9  C3  UNL     1     -34.449  13.366  -4.908  1.00 20.00     0.033 C 
ENDBRANCH   7   8
ENDBRANCH   2   7
TORSDOF 4
ENDMDL
