MODEL 1
REMARK VINA RESULT:      -4.4      0.000      0.000
REMARK  5 active torsions:
REMARK  status: ('A' for Active; 'I' for Inactive)
REMARK    1  A    between atoms: C5_5  and  C6_6 
REMARK    2  A    between atoms: C6_6  and  C9_9 
REMARK    3  A    between atoms: C7_7  and  O11_11 
REMARK    4  A    between atoms: C8_8  and  C9_9 
REMARK    5  A    between atoms: C8_8  and  O11_11 
ROOT
HETATM    1  C1  UNL     1     -36.900  14.511  -4.030  1.00 20.00     0.091 C 
HETATM    2  C8  UNL     1     -35.510  14.721  -4.463  1.00 20.00     0.231 C 
HETATM    3  N10 UNL     1     -37.996  14.342  -3.690  1.00 20.00    -0.195 NA
ENDROOT
BRANCH   2   4
HETATM    4  C9  UNL     1     -34.484  14.561  -3.318  1.00 20.00     0.024 C 
HETATM    5  C4  UNL     1     -33.287  13.686  -3.722  1.00 20.00     0.014 C 
BRANCH   4   6
HETATM    6  C6  UNL     1     -33.974  15.901  -2.744  1.00 20.00     0.007 C 
BRANCH   6   7
HETATM    7  C5  UNL     1     -34.689  16.334  -1.462  1.00 20.00    -0.004 C 
HETATM    8  C2  UNL     1     -33.930  17.445  -0.753  1.00 20.00     0.005 C 
ENDBRANCH   6   7
ENDBRANCH   4   6
ENDBRANCH   2   4
BRANCH   2   9
HETATM    9  O11 UNL     1     -35.374  16.032  -5.016  1.00 20.00    -0.372 OA
BRANCH   9  10
HETATM   10  C7  UNL     1     -35.517  16.013  -6.427  1.00 20.00     0.165 C 
HETATM   11  C3  UNL     1     -34.429  15.145  -7.021  1.00 20.00     0.033 C 
ENDBRANCH   9  10
ENDBRANCH   2   9
TORSDOF 5
ENDMDL
MODEL 2
REMARK VINA RESULT:      -4.2      2.102      2.752
REMARK  5 active torsions:
REMARK  status: ('A' for Active; 'I' for Inactive)
REMARK    1  A    between atoms: C5_5  and  C6_6 
REMARK    2  A    between atoms: C6_6  and  C9_9 
REMARK    3  A    between atoms: C7_7  and  O11_11 
REMARK    4  A    between atoms: C8_8  and  C9_9 
REMARK    5  A    between atoms: C8_8  and  O11_11 
ROOT
HETATM    1  C1  UNL     1     -35.145  13.573  -4.409  1.00 20.00     0.091 C 
HETATM    2  C8  UNL     1     -35.596  14.839  -3.812  1.00 20.00     0.231 C 
HETATM    3  N10 UNL     1     -34.789  12.576  -4.883  1.00 20.00    -0.195 NA
ENDROOT
BRANCH   2   4
HETATM    4  C9  UNL     1     -34.626  15.386  -2.740  1.00 20.00     0.024 C 
HETATM    5  C4  UNL     1     -33.218  15.646  -3.300  1.00 20.00     0.014 C 
BRANCH   4   6
HETATM    6  C6  UNL     1     -35.138  16.655  -2.024  1.00 20.00     0.007 C 
BRANCH   6   7
HETATM    7  C5  UNL     1     -34.665  16.776  -0.573  1.00 20.00    -0.004 C 
HETATM    8  C2  UNL     1     -33.714  17.951  -0.397  1.00 20.00     0.005 C 
ENDBRANCH   6   7
ENDBRANCH   4   6
ENDBRANCH   2   4
BRANCH   2   9
HETATM    9  O11 UNL     1     -36.880  14.656  -3.213  1.00 20.00    -0.372 OA
BRANCH   9  10
HETATM   10  C7  UNL     1     -37.921  14.867  -4.153  1.00 20.00     0.165 C 
HETATM   11  C3  UNL     1     -39.157  15.344  -3.422  1.00 20.00     0.033 C 
ENDBRANCH   9  10
ENDBRANCH   2   9
TORSDOF 5
ENDMDL
MODEL 3
REMARK VINA RESULT:      -4.1      1.353      4.141
REMARK  5 active torsions:
REMARK  status: ('A' for Active; 'I' for Inactive)
REMARK    1  A    between atoms: C5_5  and  C6_6 
REMARK    2  A    between atoms: C6_6  and  C9_9 
REMARK    3  A    between atoms: C7_7  and  O11_11 
REMARK    4  A    between atoms: C8_8  and  C9_9 
REMARK    5  A    between atoms: C8_8  and  O11_11 
ROOT
HETATM    1  C1  UNL     1     -36.673  14.789  -3.799  1.00 20.00     0.091 C 
HETATM    2  C8  UNL     1     -35.327  15.382  -3.789  1.00 20.00     0.231 C 
HETATM    3  N10 UNL     1     -37.736  14.324  -3.808  1.00 20.00    -0.195 NA
ENDROOT
BRANCH   2   4
HETATM    4  C9  UNL     1     -34.371  14.741  -4.822  1.00 20.00     0.024 C 
HETATM    5  C4  UNL     1     -34.515  13.212  -4.882  1.00 20.00     0.014 C 
BRANCH   4   6
HETATM    6  C6  UNL     1     -34.503  15.328  -6.244  1.00 20.00     0.007 C 
BRANCH   6   7
HETATM    7  C5  UNL     1     -35.218  14.400  -7.228  1.00 20.00    -0.004 C 
HETATM    8  C2  UNL     1     -36.586  14.947  -7.611  1.00 20.00     0.005 C 
ENDBRANCH   6   7
ENDBRANCH   4   6
ENDBRANCH   2   4
BRANCH   2   9
HETATM    9  O11 UNL     1     -34.752  15.244  -2.489  1.00 20.00    -0.372 OA
BRANCH   9  10
HETATM   10  C7  UNL     1     -34.143  16.452  -2.064  1.00 20.00     0.165 C 
HETATM   11  C3  UNL     1     -34.610  16.772  -0.661  1.00 20.00     0.033 C 
ENDBRANCH   9  10
ENDBRANCH   2   9
TORSDOF 5
ENDMDL
MODEL 4
REMARK VINA RESULT:      -4.1      1.894      2.444
REMARK  5 active torsions:
REMARK  status: ('A' for Active; 'I' for Inactive)
REMARK    1  A    between atoms: C5_5  and  C6_6 
REMARK    2  A    between atoms: C6_6  and  C9_9 
REMARK    3  A    between atoms: C7_7  and  O11_11 
REMARK    4  A    between atoms: C8_8  and  C9_9 
REMARK    5  A    between atoms: C8_8  and  O11_11 
ROOT
HETATM    1  C1  UNL     1     -33.922  13.973  -3.843  1.00 20.00     0.091 C 
HETATM    2  C8  UNL     1     -33.260  15.235  -3.479  1.00 20.00     0.231 C 
HETATM    3  N10 UNL     1     -34.443  12.976  -4.127  1.00 20.00    -0.195 NA
ENDROOT
BRANCH   2   4
HETATM    4  C9  UNL     1     -34.230  16.283  -2.887  1.00 20.00     0.024 C 
HETATM    5  C4  UNL     1     -35.645  15.720  -2.677  1.00 20.00     0.014 C 
BRANCH   4   6
HETATM    6  C6  UNL     1     -33.730  16.925  -1.574  1.00 20.00     0.007 C 
BRANCH   6   7
HETATM    7  C5  UNL     1     -34.752  16.872  -0.436  1.00 20.00    -0.004 C 
HETATM    8  C2  UNL     1     -34.439  17.905   0.637  1.00 20.00     0.005 C 
ENDBRANCH   6   7
ENDBRANCH   4   6
ENDBRANCH   2   4
BRANCH   2   9
HETATM    9  O11 UNL     1     -32.632  15.796  -4.633  1.00 20.00    -0.372 OA
BRANCH   9  10
HETATM   10  C7  UNL     1     -33.470  16.755  -5.259  1.00 20.00     0.165 C 
HETATM   11  C3  UNL     1     -33.994  16.180  -6.557  1.00 20.00     0.033 C 
ENDBRANCH   9  10
ENDBRANCH   2   9
TORSDOF 5
ENDMDL
MODEL 5
REMARK VINA RESULT:      -4.1      1.715      2.093
REMARK  5 active torsions:
REMARK  status: ('A' for Active; 'I' for Inactive)
REMARK    1  A    between atoms: C5_5  and  C6_6 
REMARK    2  A    between atoms: C6_6  and  C9_9 
REMARK    3  A    between atoms: C7_7  and  O11_11 
REMARK    4  A    between atoms: C8_8  and  C9_9 
REMARK    5  A    between atoms: C8_8  and  O11_11 
ROOT
HETATM    1  C1  UNL     1     -34.644  13.818  -4.942  1.00 20.00     0.091 C 
HETATM    2  C8  UNL     1     -34.382  15.184  -5.419  1.00 20.00     0.231 C 
HETATM    3  N10 UNL     1     -34.849  12.739  -4.567  1.00 20.00    -0.195 NA
ENDROOT
BRANCH   2   4
HETATM    4  C9  UNL     1     -33.435  15.982  -4.493  1.00 20.00     0.024 C 
HETATM    5  C4  UNL     1     -33.552  17.501  -4.703  1.00 20.00     0.014 C 
BRANCH   4   6
HETATM    6  C6  UNL     1     -33.606  15.654  -2.994  1.00 20.00     0.007 C 
BRANCH   6   7
HETATM    7  C5  UNL     1     -33.813  16.889  -2.114  1.00 20.00    -0.004 C 
HETATM    8  C2  UNL     1     -34.657  16.562  -0.891  1.00 20.00     0.005 C 
ENDBRANCH   6   7
ENDBRANCH   4   6
ENDBRANCH   2   4
BRANCH   2   9
HETATM    9  O11 UNL     1     -35.615  15.897  -5.533  1.00 20.00    -0.372 OA
BRANCH   9  10
HETATM   10  C7  UNL     1     -36.172  15.758  -6.830  1.00 20.00     0.165 C 
HETATM   11  C3  UNL     1     -35.099  16.041  -7.859  1.00 20.00     0.033 C 
ENDBRANCH   9  10
ENDBRANCH   2   9
TORSDOF 5
ENDMDL
MODEL 6
REMARK VINA RESULT:      -4.0      2.142      4.697
REMARK  5 active torsions:
REMARK  status: ('A' for Active; 'I' for Inactive)
REMARK    1  A    between atoms: C5_5  and  C6_6 
REMARK    2  A    between atoms: C6_6  and  C9_9 
REMARK    3  A    between atoms: C7_7  and  O11_11 
REMARK    4  A    between atoms: C8_8  and  C9_9 
REMARK    5  A    between atoms: C8_8  and  O11_11 
ROOT
HETATM    1  C1  UNL     1     -33.746  16.508  -3.921  1.00 20.00     0.091 C 
HETATM    2  C8  UNL     1     -34.141  15.449  -2.979  1.00 20.00     0.231 C 
HETATM    3  N10 UNL     1     -33.431  17.343  -4.663  1.00 20.00    -0.195 NA
ENDROOT
BRANCH   2   4
HETATM    4  C9  UNL     1     -34.962  14.320  -3.643  1.00 20.00     0.024 C 
HETATM    5  C4  UNL     1     -36.434  14.711  -3.854  1.00 20.00     0.014 C 
BRANCH   4   6
HETATM    6  C6  UNL     1     -34.367  13.815  -4.975  1.00 20.00     0.007 C 
BRANCH   6   7
HETATM    7  C5  UNL     1     -35.237  14.128  -6.195  1.00 20.00    -0.004 C 
HETATM    8  C2  UNL     1     -34.468  14.936  -7.231  1.00 20.00     0.005 C 
ENDBRANCH   6   7
ENDBRANCH   4   6
ENDBRANCH   2   4
BRANCH   2   9
HETATM    9  O11 UNL     1     -34.917  16.015  -1.921  1.00 20.00    -0.372 OA
BRANCH   9  10
HETATM   10  C7  UNL     1     -34.139  16.895  -1.126  1.00 20.00     0.165 C 
HETATM   11  C3  UNL     1     -34.898  17.214   0.143  1.00 20.00     0.033 C 
ENDBRANCH   9  10
ENDBRANCH   2   9
TORSDOF 5
ENDMDL
MODEL 7
REMARK VINA RESULT:      -3.9      2.509      3.551
REMARK  5 active torsions:
REMARK  status: ('A' for Active; 'I' for Inactive)
REMARK    1  A    between atoms: C5_5  and  C6_6 
REMARK    2  A    between atoms: C6_6  and  C9_9 
REMARK    3  A    between atoms: C7_7  and  O11_11 
REMARK    4  A    between atoms: C8_8  and  C9_9 
REMARK    5  A    between atoms: C8_8  and  O11_11 
ROOT
HETATM    1  C1  UNL     1     -33.673  16.663  -4.195  1.00 20.00     0.091 C 
HETATM    2  C8  UNL     1     -34.510  16.459  -3.003  1.00 20.00     0.231 C 
HETATM    3  N10 UNL     1     -33.015  16.826  -5.136  1.00 20.00    -0.195 NA
ENDROOT
BRANCH   2   4
HETATM    4  C9  UNL     1     -33.882  17.033  -1.712  1.00 20.00     0.024 C 
HETATM    5  C4  UNL     1     -33.599  18.541  -1.818  1.00 20.00     0.014 C 
BRANCH   4   6
HETATM    6  C6  UNL     1     -34.706  16.751  -0.437  1.00 20.00     0.007 C 
BRANCH   6   7
HETATM    7  C5  UNL     1     -34.914  17.984   0.446  1.00 20.00    -0.004 C 
HETATM    8  C2  UNL     1     -35.312  17.590   1.861  1.00 20.00     0.005 C 
ENDBRANCH   6   7
ENDBRANCH   4   6
ENDBRANCH   2   4
BRANCH   2   9
HETATM    9  O11 UNL     1     -34.741  15.062  -2.813  1.00 20.00    -0.372 OA
BRANCH   9  10
HETATM   10  C7  UNL     1     -35.613  14.546  -3.806  1.00 20.00     0.165 C 
HETATM   11  C3  UNL     1     -35.036  13.256  -4.347  1.00 20.00     0.033 C 
ENDBRANCH   9  10
ENDBRANCH   2   9
TORSDOF 5
ENDMDL
MODEL 8
REMARK VINA RESULT:      -3.9      1.765      2.562
REMARK  5 active torsions:
REMARK  status: ('A' for Active; 'I' for Inactive)
REMARK    1  A    between atoms: C5_5  and  C6_6 
REMARK    2  A    between atoms: C6_6  and  C9_9 
REMARK    3  A    between atoms: C7_7  and  O11_11 
REMARK    4  A    between atoms: C8_8  and  C9_9 
REMARK    5  A    between atoms: C8_8  and  O11_11 
ROOT
HETATM    1  C1  UNL     1     -35.293  14.637  -5.672  1.00 20.00     0.091 C 
HETATM    2  C8  UNL     1     -35.674  14.912  -4.278  1.00 20.00     0.231 C 
HETATM    3  N10 UNL     1     -34.993  14.423  -6.772  1.00 20.00    -0.195 NA
ENDROOT
BRANCH   2   4
HETATM    4  C9  UNL     1     -34.507  14.730  -3.280  1.00 20.00     0.024 C 
HETATM    5  C4  UNL     1     -33.504  13.661  -3.741  1.00 20.00     0.014 C 
BRANCH   4   6
HETATM    6  C6  UNL     1     -33.754  16.038  -2.954  1.00 20.00     0.007 C 
BRANCH   6   7
HETATM    7  C5  UNL     1     -34.584  17.041  -2.150  1.00 20.00    -0.004 C 
HETATM    8  C2  UNL     1     -34.596  16.690  -0.670  1.00 20.00     0.005 C 
ENDBRANCH   6   7
ENDBRANCH   4   6
ENDBRANCH   2   4
BRANCH   2   9
HETATM    9  O11 UNL     1     -36.742  14.044  -3.893  1.00 20.00    -0.372 OA
BRANCH   9  10
HETATM   10  C7  UNL     1     -38.002  14.677  -4.051  1.00 20.00     0.165 C 
HETATM   11  C3  UNL     1     -37.918  16.085  -3.503  1.00 20.00     0.033 C 
ENDBRANCH   9  10
ENDBRANCH   2   9
TORSDOF 5
ENDMDL
MODEL 9
REMARK VINA RESULT:      -3.9      1.156      1.807
REMARK  5 active torsions:
REMARK  status: ('A' for Active; 'I' for Inactive)
REMARK    1  A    between atoms: C5_5  and  C6_6 
REMARK    2  A    between atoms: C6_6  and  C9_9 
REMARK    3  A    between atoms: C7_7  and  O11_11 
REMARK    4  A    between atoms: C8_8  and  C9_9 
REMARK    5  A    between atoms: C8_8  and  O11_11 
ROOT
HETATM    1  C1  UNL     1     -36.497  14.652  -3.874  1.00 20.00     0.091 C 
HETATM    2  C8  UNL     1     -35.097  15.063  -4.059  1.00 20.00     0.231 C 
HETATM    3  N10 UNL     1     -37.601  14.326  -3.726  1.00 20.00    -0.195 NA
ENDROOT
BRANCH   2   4
HETATM    4  C9  UNL     1     -34.707  16.296  -3.212  1.00 20.00     0.024 C 
HETATM    5  C4  UNL     1     -35.543  17.537  -3.565  1.00 20.00     0.014 C 
BRANCH   4   6
HETATM    6  C6  UNL     1     -34.765  16.052  -1.689  1.00 20.00     0.007 C 
BRANCH   6   7
HETATM    7  C5  UNL     1     -34.142  17.178  -0.861  1.00 20.00    -0.004 C 
HETATM    8  C2  UNL     1     -34.906  17.400   0.436  1.00 20.00     0.005 C 
ENDBRANCH   6   7
ENDBRANCH   4   6
ENDBRANCH   2   4
BRANCH   2   9
HETATM    9  O11 UNL     1     -34.864  15.364  -5.436  1.00 20.00    -0.372 OA
BRANCH   9  10
HETATM   10  C7  UNL     1     -34.858  14.185  -6.226  1.00 20.00     0.165 C 
HETATM   11  C3  UNL     1     -35.496  14.487  -7.565  1.00 20.00     0.033 C 
ENDBRANCH   9  10
ENDBRANCH   2   9
TORSDOF 5
ENDMDL
