MODEL 1
REMARK VINA RESULT:      -4.2      0.000      0.000
REMARK  1 active torsions:
REMARK  status: ('A' for Active; 'I' for Inactive)
REMARK    1  A    between atoms: C7_7  and  C9_9 
ROOT
HETATM    1  C1  UNL     1     -35.169  17.513  -3.897  1.00 20.00     0.005 C 
HETATM    2  C2  UNL     1     -36.037  16.295  -3.544  1.00 20.00     0.006 C 
HETATM    3  C3  UNL     1     -34.091  16.209  -2.221  1.00 20.00     0.010 C 
HETATM    4  C4  UNL     1     -33.193  16.056  -4.427  1.00 20.00     0.015 C 
HETATM    5  C5  UNL     1     -33.766  17.083  -3.430  1.00 20.00    -0.013 C 
HETATM    6  C6  UNL     1     -35.003  15.275  -3.030  1.00 20.00    -0.005 C 
HETATM    7  C7  UNL     1     -34.055  14.790  -4.172  1.00 20.00    -0.028 C 
HETATM    8  C8  UNL     1     -33.180  13.616  -3.692  1.00 20.00     0.016 C 
ENDROOT
BRANCH   7   9
HETATM    9  C9  UNL     1     -34.785  14.338  -5.443  1.00 20.00     0.124 C 
HETATM   10 CL10 UNL     1     -34.205  15.268  -6.833  1.00 20.00    -0.130 Cl
ENDBRANCH   7   9
TORSDOF 1
ENDMDL
MODEL 2
REMARK VINA RESULT:      -4.2      1.147      2.829
REMARK  1 active torsions:
REMARK  status: ('A' for Active; 'I' for Inactive)
REMARK    1  A    between atoms: C7_7  and  C9_9 
ROOT
HETATM    1  C1  UNL     1     -33.584  13.772  -3.793  1.00 20.00     0.005 C 
HETATM    2  C2  UNL     1     -32.740  15.056  -3.769  1.00 20.00     0.006 C 
HETATM    3  C3  UNL     1     -34.742  15.481  -2.605  1.00 20.00     0.010 C 
HETATM    4  C4  UNL     1     -35.545  14.981  -4.796  1.00 20.00     0.015 C 
HETATM    5  C5  UNL     1     -35.008  14.292  -3.524  1.00 20.00    -0.013 C 
HETATM    6  C6  UNL     1     -33.801  16.161  -3.610  1.00 20.00    -0.005 C 
HETATM    7  C7  UNL     1     -34.702  16.283  -4.880  1.00 20.00    -0.028 C 
HETATM    8  C8  UNL     1     -35.604  17.529  -4.790  1.00 20.00     0.016 C 
ENDROOT
BRANCH   7   9
HETATM    9  C9  UNL     1     -33.921  16.366  -6.197  1.00 20.00     0.124 C 
HETATM   10 CL10 UNL     1     -34.316  14.976  -7.220  1.00 20.00    -0.130 Cl
ENDBRANCH   7   9
TORSDOF 1
ENDMDL
MODEL 3
REMARK VINA RESULT:      -4.2      1.531      1.990
REMARK  1 active torsions:
REMARK  status: ('A' for Active; 'I' for Inactive)
REMARK    1  A    between atoms: C7_7  and  C9_9 
ROOT
HETATM    1  C1  UNL     1     -33.953  17.122  -3.304  1.00 20.00     0.005 C 
HETATM    2  C2  UNL     1     -34.410  16.049  -2.303  1.00 20.00     0.006 C 
HETATM    3  C3  UNL     1     -32.738  15.106  -3.665  1.00 20.00     0.010 C 
HETATM    4  C4  UNL     1     -34.438  15.621  -5.259  1.00 20.00     0.015 C 
HETATM    5  C5  UNL     1     -33.320  16.290  -4.434  1.00 20.00    -0.013 C 
HETATM    6  C6  UNL     1     -34.089  14.735  -3.039  1.00 20.00    -0.005 C 
HETATM    7  C7  UNL     1     -34.997  14.540  -4.294  1.00 20.00    -0.028 C 
HETATM    8  C8  UNL     1     -34.816  13.129  -4.885  1.00 20.00     0.016 C 
ENDROOT
BRANCH   7   9
HETATM    9  C9  UNL     1     -36.493  14.744  -4.025  1.00 20.00     0.124 C 
HETATM   10 CL10 UNL     1     -37.102  16.091  -4.999  1.00 20.00    -0.130 Cl
ENDBRANCH   7   9
TORSDOF 1
ENDMDL
MODEL 4
REMARK VINA RESULT:      -4.2      1.545      2.362
REMARK  1 active torsions:
REMARK  status: ('A' for Active; 'I' for Inactive)
REMARK    1  A    between atoms: C7_7  and  C9_9 
ROOT
HETATM    1  C1  UNL     1     -34.191  15.856  -2.532  1.00 20.00     0.005 C 
HETATM    2  C2  UNL     1     -35.502  15.255  -3.062  1.00 20.00     0.006 C 
HETATM    3  C3  UNL     1     -33.719  13.985  -3.928  1.00 20.00     0.010 C 
HETATM    4  C4  UNL     1     -33.285  16.140  -4.857  1.00 20.00     0.015 C 
HETATM    5  C5  UNL     1     -33.147  15.347  -3.541  1.00 20.00    -0.013 C 
HETATM    6  C6  UNL     1     -35.063  14.578  -4.374  1.00 20.00    -0.005 C 
HETATM    7  C7  UNL     1     -34.627  15.626  -5.446  1.00 20.00    -0.028 C 
HETATM    8  C8  UNL     1     -34.405  14.949  -6.812  1.00 20.00     0.016 C 
ENDROOT
BRANCH   7   9
HETATM    9  C9  UNL     1     -35.629  16.770  -5.650  1.00 20.00     0.124 C 
HETATM   10 CL10 UNL     1     -34.883  18.311  -5.198  1.00 20.00    -0.130 Cl
ENDBRANCH   7   9
TORSDOF 1
ENDMDL
MODEL 5
REMARK VINA RESULT:      -4.2      1.551      3.215
REMARK  1 active torsions:
REMARK  status: ('A' for Active; 'I' for Inactive)
REMARK    1  A    between atoms: C7_7  and  C9_9 
ROOT
HETATM    1  C1  UNL     1     -35.120  14.131  -5.790  1.00 20.00     0.005 C 
HETATM    2  C2  UNL     1     -34.012  15.187  -5.660  1.00 20.00     0.006 C 
HETATM    3  C3  UNL     1     -33.869  13.752  -3.800  1.00 20.00     0.010 C 
HETATM    4  C4  UNL     1     -36.042  14.699  -3.524  1.00 20.00     0.015 C 
HETATM    5  C5  UNL     1     -35.290  13.631  -4.344  1.00 20.00    -0.013 C 
HETATM    6  C6  UNL     1     -33.771  15.246  -4.140  1.00 20.00    -0.005 C 
HETATM    7  C7  UNL     1     -35.000  15.842  -3.384  1.00 20.00    -0.028 C 
HETATM    8  C8  UNL     1     -34.658  16.096  -1.903  1.00 20.00     0.016 C 
ENDROOT
BRANCH   7   9
HETATM    9  C9  UNL     1     -35.523  17.158  -3.975  1.00 20.00     0.124 C 
HETATM   10 CL10 UNL     1     -37.165  16.929  -4.595  1.00 20.00    -0.130 Cl
ENDBRANCH   7   9
TORSDOF 1
ENDMDL
MODEL 6
REMARK VINA RESULT:      -4.1      2.103      3.384
REMARK  1 active torsions:
REMARK  status: ('A' for Active; 'I' for Inactive)
REMARK    1  A    between atoms: C7_7  and  C9_9 
ROOT
HETATM    1  C1  UNL     1     -35.506  13.566  -4.091  1.00 20.00     0.005 C 
HETATM    2  C2  UNL     1     -36.385  14.708  -4.623  1.00 20.00     0.006 C 
HETATM    3  C3  UNL     1     -34.440  14.612  -5.945  1.00 20.00     0.010 C 
HETATM    4  C4  UNL     1     -33.544  15.105  -3.789  1.00 20.00     0.015 C 
HETATM    5  C5  UNL     1     -34.107  13.933  -4.618  1.00 20.00    -0.013 C 
HETATM    6  C6  UNL     1     -35.361  15.648  -5.286  1.00 20.00    -0.005 C 
HETATM    7  C7  UNL     1     -34.419  16.310  -4.231  1.00 20.00    -0.028 C 
HETATM    8  C8  UNL     1     -33.555  17.406  -4.884  1.00 20.00     0.016 C 
ENDROOT
BRANCH   7   9
HETATM    9  C9  UNL     1     -35.153  16.942  -3.042  1.00 20.00     0.124 C 
HETATM   10 CL10 UNL     1     -34.600  16.202  -1.532  1.00 20.00    -0.130 Cl
ENDBRANCH   7   9
TORSDOF 1
ENDMDL
MODEL 7
REMARK VINA RESULT:      -4.1      1.693      2.788
REMARK  1 active torsions:
REMARK  status: ('A' for Active; 'I' for Inactive)
REMARK    1  A    between atoms: C7_7  and  C9_9 
ROOT
HETATM    1  C1  UNL     1     -36.565  15.101  -5.160  1.00 20.00     0.005 C 
HETATM    2  C2  UNL     1     -35.466  14.690  -6.152  1.00 20.00     0.006 C 
HETATM    3  C3  UNL     1     -35.275  13.320  -4.247  1.00 20.00     0.010 C 
HETATM    4  C4  UNL     1     -34.886  15.490  -3.333  1.00 20.00     0.015 C 
HETATM    5  C5  UNL     1     -36.030  14.576  -3.816  1.00 20.00    -0.013 C 
HETATM    6  C6  UNL     1     -34.385  14.088  -5.236  1.00 20.00    -0.005 C 
HETATM    7  C7  UNL     1     -33.732  15.174  -4.324  1.00 20.00    -0.028 C 
HETATM    8  C8  UNL     1     -32.511  14.598  -3.580  1.00 20.00     0.016 C 
ENDROOT
BRANCH   7   9
HETATM    9  C9  UNL     1     -33.271  16.430  -5.074  1.00 20.00     0.124 C 
HETATM   10 CL10 UNL     1     -33.838  17.878  -4.228  1.00 20.00    -0.130 Cl
ENDBRANCH   7   9
TORSDOF 1
ENDMDL
MODEL 8
REMARK VINA RESULT:      -4.1      1.589      2.448
REMARK  1 active torsions:
REMARK  status: ('A' for Active; 'I' for Inactive)
REMARK    1  A    between atoms: C7_7  and  C9_9 
ROOT
HETATM    1  C1  UNL     1     -34.115  16.256  -6.240  1.00 20.00     0.005 C 
HETATM    2  C2  UNL     1     -35.451  16.784  -5.694  1.00 20.00     0.006 C 
HETATM    3  C3  UNL     1     -33.718  17.709  -4.396  1.00 20.00     0.010 C 
HETATM    4  C4  UNL     1     -33.446  15.374  -3.984  1.00 20.00     0.015 C 
HETATM    5  C5  UNL     1     -33.156  16.450  -5.051  1.00 20.00    -0.013 C 
HETATM    6  C6  UNL     1     -35.118  17.102  -4.224  1.00 20.00    -0.005 C 
HETATM    7  C7  UNL     1     -34.821  15.806  -3.406  1.00 20.00    -0.028 C 
HETATM    8  C8  UNL     1     -34.709  16.124  -1.902  1.00 20.00     0.016 C 
ENDROOT
BRANCH   7   9
HETATM    9  C9  UNL     1     -35.875  14.703  -3.572  1.00 20.00     0.124 C 
HETATM   10 CL10 UNL     1     -35.121  13.246  -4.238  1.00 20.00    -0.130 Cl
ENDBRANCH   7   9
TORSDOF 1
ENDMDL
MODEL 9
REMARK VINA RESULT:      -4.1      2.072      3.136
REMARK  1 active torsions:
REMARK  status: ('A' for Active; 'I' for Inactive)
REMARK    1  A    between atoms: C7_7  and  C9_9 
ROOT
HETATM    1  C1  UNL     1     -36.272  16.397  -5.394  1.00 20.00     0.005 C 
HETATM    2  C2  UNL     1     -34.795  16.671  -5.717  1.00 20.00     0.006 C 
HETATM    3  C3  UNL     1     -35.202  14.378  -6.065  1.00 20.00     0.010 C 
HETATM    4  C4  UNL     1     -35.663  14.611  -3.735  1.00 20.00     0.015 C 
HETATM    5  C5  UNL     1     -36.289  14.882  -5.118  1.00 20.00    -0.013 C 
HETATM    6  C6  UNL     1     -34.131  15.303  -5.470  1.00 20.00    -0.005 C 
HETATM    7  C7  UNL     1     -34.157  14.915  -3.958  1.00 20.00    -0.028 C 
HETATM    8  C8  UNL     1     -33.299  13.660  -3.703  1.00 20.00     0.016 C 
ENDROOT
BRANCH   7   9
HETATM    9  C9  UNL     1     -33.658  16.019  -3.017  1.00 20.00     0.124 C 
HETATM   10 CL10 UNL     1     -34.713  16.124  -1.600  1.00 20.00    -0.130 Cl
ENDBRANCH   7   9
TORSDOF 1
ENDMDL
