MODEL 1
REMARK VINA RESULT:      -4.3      0.000      0.000
REMARK  3 active torsions:
REMARK  status: ('A' for Active; 'I' for Inactive)
REMARK    1  A    between atoms: C6_6  and  C8_8 
REMARK    2  A    between atoms: C7_7  and  C8_8 
REMARK    3  A    between atoms: C7_7  and  C9_9 
ROOT
HETATM    1  C8  UNL     1     -35.444  15.552  -2.979  1.00 20.00     0.042 C 
ENDROOT
BRANCH   1   2
HETATM    2  C6  UNL     1     -34.288  16.216  -2.256  1.00 20.00     0.122 C 
HETATM    3  C2  UNL     1     -34.617  16.620  -0.829  1.00 20.00     0.034 C 
HETATM    4  C1  UNL     1     -33.646  17.752  -0.606  1.00 20.00     0.029 C 
HETATM    5  C5  UNL     1     -33.648  18.437  -1.956  1.00 20.00     0.168 C 
HETATM    6  O10 UNL     1     -33.915  17.425  -2.939  1.00 20.00    -0.386 OA
ENDBRANCH   1   2
BRANCH   1   7
HETATM    7  C7  UNL     1     -34.990  14.792  -4.187  1.00 20.00    -0.025 A 
HETATM    8  C3  UNL     1     -33.737  13.956  -4.069  1.00 20.00     0.011 A 
HETATM    9  C4  UNL     1     -35.078  13.284  -4.151  1.00 20.00     0.011 A 
BRANCH   7  10
HETATM   10  C9  UNL     1     -35.256  15.483  -5.496  1.00 20.00     0.124 C 
HETATM   11 CL11 UNL     1     -33.756  16.169  -6.167  1.00 20.00    -0.130 Cl
ENDBRANCH   7  10
ENDBRANCH   1   7
TORSDOF 3
ENDMDL
MODEL 2
REMARK VINA RESULT:      -4.2      1.641      4.181
REMARK  3 active torsions:
REMARK  status: ('A' for Active; 'I' for Inactive)
REMARK    1  A    between atoms: C6_6  and  C8_8 
REMARK    2  A    between atoms: C7_7  and  C8_8 
REMARK    3  A    between atoms: C7_7  and  C9_9 
ROOT
HETATM    1  C8  UNL     1     -33.625  16.246  -3.029  1.00 20.00     0.042 C 
ENDROOT
BRANCH   1   2
HETATM    2  C6  UNL     1     -34.581  15.265  -3.679  1.00 20.00     0.122 C 
HETATM    3  C2  UNL     1     -34.131  13.817  -3.571  1.00 20.00     0.034 C 
HETATM    4  C1  UNL     1     -34.815  13.200  -4.765  1.00 20.00     0.029 C 
HETATM    5  C5  UNL     1     -34.694  14.301  -5.798  1.00 20.00     0.168 C 
HETATM    6  O10 UNL     1     -34.689  15.546  -5.085  1.00 20.00    -0.386 OA
ENDBRANCH   1   2
BRANCH   1   7
HETATM    7  C7  UNL     1     -34.324  17.165  -2.076  1.00 20.00    -0.025 A 
HETATM    8  C3  UNL     1     -34.670  16.635  -0.704  1.00 20.00     0.011 A 
HETATM    9  C4  UNL     1     -33.563  17.638  -0.859  1.00 20.00     0.011 A 
BRANCH   7  10
HETATM   10  C9  UNL     1     -35.284  18.124  -2.724  1.00 20.00     0.124 C 
HETATM   11 CL11 UNL     1     -34.547  18.892  -4.151  1.00 20.00    -0.130 Cl
ENDBRANCH   7  10
ENDBRANCH   1   7
TORSDOF 3
ENDMDL
MODEL 3
REMARK VINA RESULT:      -4.0      2.834      3.970
REMARK  3 active torsions:
REMARK  status: ('A' for Active; 'I' for Inactive)
REMARK    1  A    between atoms: C6_6  and  C8_8 
REMARK    2  A    between atoms: C7_7  and  C8_8 
REMARK    3  A    between atoms: C7_7  and  C9_9 
ROOT
HETATM    1  C8  UNL     1     -35.748  14.714  -3.567  1.00 20.00     0.042 C 
ENDROOT
BRANCH   1   2
HETATM    2  C6  UNL     1     -37.000  14.815  -4.417  1.00 20.00     0.122 C 
HETATM    3  C2  UNL     1     -37.441  16.245  -4.680  1.00 20.00     0.034 C 
HETATM    4  C1  UNL     1     -38.918  16.064  -4.920  1.00 20.00     0.029 C 
HETATM    5  C5  UNL     1     -39.269  14.986  -3.915  1.00 20.00     0.168 C 
HETATM    6  O10 UNL     1     -38.098  14.173  -3.747  1.00 20.00    -0.386 OA
ENDBRANCH   1   2
BRANCH   1   7
HETATM    7  C7  UNL     1     -34.532  14.420  -4.389  1.00 20.00    -0.025 A 
HETATM    8  C3  UNL     1     -33.286  15.236  -4.131  1.00 20.00     0.011 A 
HETATM    9  C4  UNL     1     -33.340  13.799  -3.698  1.00 20.00     0.011 A 
BRANCH   7  10
HETATM   10  C9  UNL     1     -34.821  14.004  -5.805  1.00 20.00     0.124 C 
HETATM   11 CL11 UNL     1     -34.267  15.246  -6.956  1.00 20.00    -0.130 Cl
ENDBRANCH   7  10
ENDBRANCH   1   7
TORSDOF 3
ENDMDL
MODEL 4
REMARK VINA RESULT:      -3.9      1.325      1.481
REMARK  3 active torsions:
REMARK  status: ('A' for Active; 'I' for Inactive)
REMARK    1  A    between atoms: C6_6  and  C8_8 
REMARK    2  A    between atoms: C7_7  and  C8_8 
REMARK    3  A    between atoms: C7_7  and  C9_9 
ROOT
HETATM    1  C8  UNL     1     -35.250  15.384  -2.710  1.00 20.00     0.042 C 
ENDROOT
BRANCH   1   2
HETATM    2  C6  UNL     1     -35.018  16.765  -2.125  1.00 20.00     0.122 C 
HETATM    3  C2  UNL     1     -34.590  16.742  -0.668  1.00 20.00     0.034 C 
HETATM    4  C1  UNL     1     -35.058  18.096  -0.196  1.00 20.00     0.029 C 
HETATM    5  C5  UNL     1     -36.367  18.251  -0.941  1.00 20.00     0.168 C 
HETATM    6  O10 UNL     1     -36.237  17.526  -2.172  1.00 20.00    -0.386 OA
ENDBRANCH   1   2
BRANCH   1   7
HETATM    7  C7  UNL     1     -34.322  15.093  -3.848  1.00 20.00    -0.025 A 
HETATM    8  C3  UNL     1     -32.855  14.911  -3.538  1.00 20.00     0.011 A 
HETATM    9  C4  UNL     1     -33.691  13.722  -3.915  1.00 20.00     0.011 A 
BRANCH   7  10
HETATM   10  C9  UNL     1     -34.692  15.763  -5.143  1.00 20.00     0.124 C 
HETATM   11 CL11 UNL     1     -33.471  16.975  -5.599  1.00 20.00    -0.130 Cl
ENDBRANCH   7  10
ENDBRANCH   1   7
TORSDOF 3
ENDMDL
MODEL 5
REMARK VINA RESULT:      -3.9      2.302      4.668
REMARK  3 active torsions:
REMARK  status: ('A' for Active; 'I' for Inactive)
REMARK    1  A    between atoms: C6_6  and  C8_8 
REMARK    2  A    between atoms: C7_7  and  C8_8 
REMARK    3  A    between atoms: C7_7  and  C9_9 
ROOT
HETATM    1  C8  UNL     1     -35.371  16.120  -4.511  1.00 20.00     0.042 C 
ENDROOT
BRANCH   1   2
HETATM    2  C6  UNL     1     -35.510  15.104  -5.630  1.00 20.00     0.122 C 
HETATM    3  C2  UNL     1     -34.505  15.299  -6.753  1.00 20.00     0.034 C 
HETATM    4  C1  UNL     1     -35.233  14.676  -7.918  1.00 20.00     0.029 C 
HETATM    5  C5  UNL     1     -36.663  15.099  -7.655  1.00 20.00     0.168 C 
HETATM    6  O10 UNL     1     -36.810  15.217  -6.232  1.00 20.00    -0.386 OA
ENDBRANCH   1   2
BRANCH   1   7
HETATM    7  C7  UNL     1     -34.711  15.535  -3.301  1.00 20.00    -0.025 A 
HETATM    8  C3  UNL     1     -33.640  16.349  -2.613  1.00 20.00     0.011 A 
HETATM    9  C4  UNL     1     -34.983  16.183  -1.962  1.00 20.00     0.011 A 
BRANCH   7  10
HETATM   10  C9  UNL     1     -34.545  14.041  -3.340  1.00 20.00     0.124 C 
HETATM   11 CL11 UNL     1     -32.838  13.600  -3.586  1.00 20.00    -0.130 Cl
ENDBRANCH   7  10
ENDBRANCH   1   7
TORSDOF 3
ENDMDL
MODEL 6
REMARK VINA RESULT:      -3.9      1.603      1.926
REMARK  3 active torsions:
REMARK  status: ('A' for Active; 'I' for Inactive)
REMARK    1  A    between atoms: C6_6  and  C8_8 
REMARK    2  A    between atoms: C7_7  and  C8_8 
REMARK    3  A    between atoms: C7_7  and  C9_9 
ROOT
HETATM    1  C8  UNL     1     -34.338  14.772  -2.998  1.00 20.00     0.042 C 
ENDROOT
BRANCH   1   2
HETATM    2  C6  UNL     1     -34.714  16.160  -2.513  1.00 20.00     0.122 C 
HETATM    3  C2  UNL     1     -33.809  17.255  -3.051  1.00 20.00     0.034 C 
HETATM    4  C1  UNL     1     -33.950  18.312  -1.984  1.00 20.00     0.029 C 
HETATM    5  C5  UNL     1     -34.013  17.476  -0.722  1.00 20.00     0.168 C 
HETATM    6  O10 UNL     1     -34.610  16.221  -1.080  1.00 20.00    -0.386 OA
ENDBRANCH   1   2
BRANCH   1   7
HETATM    7  C7  UNL     1     -35.164  14.345  -4.172  1.00 20.00    -0.025 A 
HETATM    8  C3  UNL     1     -34.573  14.507  -5.552  1.00 20.00     0.011 A 
HETATM    9  C4  UNL     1     -34.710  13.135  -4.956  1.00 20.00     0.011 A 
BRANCH   7  10
HETATM   10  C9  UNL     1     -36.643  14.564  -4.008  1.00 20.00     0.124 C 
HETATM   11 CL11 UNL     1     -37.235  15.782  -5.163  1.00 20.00    -0.130 Cl
ENDBRANCH   7  10
ENDBRANCH   1   7
TORSDOF 3
ENDMDL
MODEL 7
REMARK VINA RESULT:      -3.9      1.794      2.258
REMARK  3 active torsions:
REMARK  status: ('A' for Active; 'I' for Inactive)
REMARK    1  A    between atoms: C6_6  and  C8_8 
REMARK    2  A    between atoms: C7_7  and  C8_8 
REMARK    3  A    between atoms: C7_7  and  C9_9 
ROOT
HETATM    1  C8  UNL     1     -34.622  16.725  -3.329  1.00 20.00     0.042 C 
ENDROOT
BRANCH   1   2
HETATM    2  C6  UNL     1     -33.888  17.027  -2.036  1.00 20.00     0.122 C 
HETATM    3  C2  UNL     1     -34.745  16.842  -0.796  1.00 20.00     0.034 C 
HETATM    4  C1  UNL     1     -34.069  17.774   0.178  1.00 20.00     0.029 C 
HETATM    5  C5  UNL     1     -33.687  18.936  -0.715  1.00 20.00     0.168 C 
HETATM    6  O10 UNL     1     -33.460  18.399  -2.026  1.00 20.00    -0.386 OA
ENDBRANCH   1   2
BRANCH   1   7
HETATM    7  C7  UNL     1     -33.761  15.982  -4.304  1.00 20.00    -0.025 A 
HETATM    8  C3  UNL     1     -34.383  15.544  -5.609  1.00 20.00     0.011 A 
HETATM    9  C4  UNL     1     -33.393  16.673  -5.596  1.00 20.00     0.011 A 
BRANCH   7  10
HETATM   10  C9  UNL     1     -32.739  15.078  -3.671  1.00 20.00     0.124 C 
HETATM   11 CL11 UNL     1     -33.264  13.379  -3.746  1.00 20.00    -0.130 Cl
ENDBRANCH   7  10
ENDBRANCH   1   7
TORSDOF 3
ENDMDL
MODEL 8
REMARK VINA RESULT:      -3.9      2.492      3.832
REMARK  3 active torsions:
REMARK  status: ('A' for Active; 'I' for Inactive)
REMARK    1  A    between atoms: C6_6  and  C8_8 
REMARK    2  A    between atoms: C7_7  and  C8_8 
REMARK    3  A    between atoms: C7_7  and  C9_9 
ROOT
HETATM    1  C8  UNL     1     -33.130  16.040  -4.606  1.00 20.00     0.042 C 
ENDROOT
BRANCH   1   2
HETATM    2  C6  UNL     1     -34.056  17.022  -5.299  1.00 20.00     0.122 C 
HETATM    3  C2  UNL     1     -34.296  16.698  -6.764  1.00 20.00     0.034 C 
HETATM    4  C1  UNL     1     -34.638  18.058  -7.319  1.00 20.00     0.029 C 
HETATM    5  C5  UNL     1     -33.697  18.958  -6.545  1.00 20.00     0.168 C 
HETATM    6  O10 UNL     1     -33.482  18.339  -5.268  1.00 20.00    -0.386 OA
ENDBRANCH   1   2
BRANCH   1   7
HETATM    7  C7  UNL     1     -33.886  15.011  -3.823  1.00 20.00    -0.025 A 
HETATM    8  C3  UNL     1     -34.419  13.807  -4.564  1.00 20.00     0.011 A 
HETATM    9  C4  UNL     1     -33.249  13.654  -3.635  1.00 20.00     0.011 A 
BRANCH   7  10
HETATM   10  C9  UNL     1     -34.709  15.566  -2.694  1.00 20.00     0.124 C 
HETATM   11 CL11 UNL     1     -33.763  16.728  -1.732  1.00 20.00    -0.130 Cl
ENDBRANCH   7  10
ENDBRANCH   1   7
TORSDOF 3
ENDMDL
MODEL 9
REMARK VINA RESULT:      -3.8     12.572     14.623
REMARK  3 active torsions:
REMARK  status: ('A' for Active; 'I' for Inactive)
REMARK    1  A    between atoms: C6_6  and  C8_8 
REMARK    2  A    between atoms: C7_7  and  C8_8 
REMARK    3  A    between atoms: C7_7  and  C9_9 
ROOT
HETATM    1  C8  UNL     1     -41.023   4.182  -1.563  1.00 20.00     0.042 C 
ENDROOT
BRANCH   1   2
HETATM    2  C6  UNL     1     -41.888   3.539  -2.632  1.00 20.00     0.122 C 
HETATM    3  C2  UNL     1     -43.139   2.876  -2.081  1.00 20.00     0.034 C 
HETATM    4  C1  UNL     1     -43.417   1.835  -3.137  1.00 20.00     0.029 C 
HETATM    5  C5  UNL     1     -42.019   1.382  -3.505  1.00 20.00     0.168 C 
HETATM    6  O10 UNL     1     -41.148   2.505  -3.302  1.00 20.00    -0.386 OA
ENDBRANCH   1   2
BRANCH   1   7
HETATM    7  C7  UNL     1     -41.476   5.570  -1.234  1.00 20.00    -0.025 A 
HETATM    8  C3  UNL     1     -42.158   5.798   0.094  1.00 20.00     0.011 A 
HETATM    9  C4  UNL     1     -40.762   6.305  -0.123  1.00 20.00     0.011 A 
BRANCH   7  10
HETATM   10  C9  UNL     1     -41.950   6.370  -2.416  1.00 20.00     0.124 C 
HETATM   11 CL11 UNL     1     -43.412   7.300  -2.007  1.00 20.00    -0.130 Cl
ENDBRANCH   7  10
ENDBRANCH   1   7
TORSDOF 3
ENDMDL
