MODEL 1
REMARK VINA RESULT:      -4.3      0.000      0.000
REMARK  2 active torsions:
REMARK  status: ('A' for Active; 'I' for Inactive)
REMARK    1  A    between atoms: C5_5  and  O9_9 
REMARK    2  A    between atoms: C7_7  and  O9_9 
ROOT
HETATM    1  C1  UNL     1     -37.144  14.755  -3.765  1.00 20.00     0.098 C 
HETATM    2  C2  UNL     1     -34.736  14.159  -3.601  1.00 20.00     0.065 C 
HETATM    3  C3  UNL     1     -34.681  13.291  -4.849  1.00 20.00     0.078 C 
HETATM    4  C4  UNL     1     -35.450  15.844  -5.224  1.00 20.00     0.127 C 
HETATM    5  C5  UNL     1     -35.764  15.267  -3.843  1.00 20.00     0.157 C 
HETATM    6  N8  UNL     1     -38.231  14.353  -3.704  1.00 20.00    -0.194 NA
HETATM    7  S10 UNL     1     -34.851  14.452  -6.232  1.00 20.00    -0.165 SA
ENDROOT
BRANCH   5   8
HETATM    8  O9  UNL     1     -35.612  16.278  -2.853  1.00 20.00    -0.365 OA
BRANCH   8   9
HETATM    9  C7  UNL     1     -34.429  16.084  -2.092  1.00 20.00     0.165 C 
HETATM   10  C6  UNL     1     -34.618  16.698  -0.722  1.00 20.00     0.033 C 
ENDBRANCH   8   9
ENDBRANCH   5   8
TORSDOF 2
ENDMDL
MODEL 2
REMARK VINA RESULT:      -4.1      1.826      2.159
REMARK  2 active torsions:
REMARK  status: ('A' for Active; 'I' for Inactive)
REMARK    1  A    between atoms: C5_5  and  O9_9 
REMARK    2  A    between atoms: C7_7  and  O9_9 
ROOT
HETATM    1  C1  UNL     1     -34.814  13.952  -4.012  1.00 20.00     0.098 C 
HETATM    2  C2  UNL     1     -33.439  16.020  -4.128  1.00 20.00     0.065 C 
HETATM    3  C3  UNL     1     -33.585  16.248  -5.624  1.00 20.00     0.078 C 
HETATM    4  C4  UNL     1     -35.878  16.189  -4.214  1.00 20.00     0.127 C 
HETATM    5  C5  UNL     1     -34.730  15.370  -3.622  1.00 20.00     0.157 C 
HETATM    6  N8  UNL     1     -34.879  12.834  -4.319  1.00 20.00    -0.194 NA
HETATM    7  S10 UNL     1     -35.315  16.742  -5.854  1.00 20.00    -0.165 SA
ENDROOT
BRANCH   5   8
HETATM    8  O9  UNL     1     -34.771  15.441  -2.201  1.00 20.00    -0.365 OA
BRANCH   8   9
HETATM    9  C7  UNL     1     -34.142  16.620  -1.724  1.00 20.00     0.165 C 
HETATM   10  C6  UNL     1     -34.723  16.976  -0.372  1.00 20.00     0.033 C 
ENDBRANCH   8   9
ENDBRANCH   5   8
TORSDOF 2
ENDMDL
MODEL 3
REMARK VINA RESULT:      -4.0      1.058      1.128
REMARK  2 active torsions:
REMARK  status: ('A' for Active; 'I' for Inactive)
REMARK    1  A    between atoms: C5_5  and  O9_9 
REMARK    2  A    between atoms: C7_7  and  O9_9 
ROOT
HETATM    1  C1  UNL     1     -36.730  14.589  -3.891  1.00 20.00     0.098 C 
HETATM    2  C2  UNL     1     -34.597  13.984  -5.017  1.00 20.00     0.065 C 
HETATM    3  C3  UNL     1     -35.060  14.262  -6.439  1.00 20.00     0.078 C 
HETATM    4  C4  UNL     1     -35.181  16.342  -4.734  1.00 20.00     0.127 C 
HETATM    5  C5  UNL     1     -35.318  14.963  -4.087  1.00 20.00     0.157 C 
HETATM    6  N8  UNL     1     -37.841  14.294  -3.737  1.00 20.00    -0.194 NA
HETATM    7  S10 UNL     1     -35.221  16.066  -6.532  1.00 20.00    -0.165 SA
ENDROOT
BRANCH   5   8
HETATM    8  O9  UNL     1     -34.681  14.964  -2.814  1.00 20.00    -0.365 OA
BRANCH   8   9
HETATM    9  C7  UNL     1     -34.207  16.257  -2.473  1.00 20.00     0.165 C 
HETATM   10  C6  UNL     1     -34.589  16.561  -1.040  1.00 20.00     0.033 C 
ENDBRANCH   8   9
ENDBRANCH   5   8
TORSDOF 2
ENDMDL
MODEL 4
REMARK VINA RESULT:      -3.9      2.309      2.777
REMARK  2 active torsions:
REMARK  status: ('A' for Active; 'I' for Inactive)
REMARK    1  A    between atoms: C5_5  and  O9_9 
REMARK    2  A    between atoms: C7_7  and  O9_9 
ROOT
HETATM    1  C1  UNL     1     -33.736  16.594  -4.580  1.00 20.00     0.098 C 
HETATM    2  C2  UNL     1     -35.601  15.432  -3.417  1.00 20.00     0.065 C 
HETATM    3  C3  UNL     1     -36.006  14.538  -4.578  1.00 20.00     0.078 C 
HETATM    4  C4  UNL     1     -33.466  14.276  -3.723  1.00 20.00     0.127 C 
HETATM    5  C5  UNL     1     -34.088  15.655  -3.500  1.00 20.00     0.157 C 
HETATM    6  N8  UNL     1     -33.458  17.333  -5.430  1.00 20.00    -0.194 NA
HETATM    7  S10 UNL     1     -34.651  13.343  -4.742  1.00 20.00    -0.165 SA
ENDROOT
BRANCH   5   8
HETATM    8  O9  UNL     1     -33.622  16.201  -2.271  1.00 20.00    -0.365 OA
BRANCH   8   9
HETATM    9  C7  UNL     1     -34.684  16.377  -1.347  1.00 20.00     0.165 C 
HETATM   10  C6  UNL     1     -34.279  17.415  -0.322  1.00 20.00     0.033 C 
ENDBRANCH   8   9
ENDBRANCH   5   8
TORSDOF 2
ENDMDL
MODEL 5
REMARK VINA RESULT:      -3.9      1.796      2.219
REMARK  2 active torsions:
REMARK  status: ('A' for Active; 'I' for Inactive)
REMARK    1  A    between atoms: C5_5  and  O9_9 
REMARK    2  A    between atoms: C7_7  and  O9_9 
ROOT
HETATM    1  C1  UNL     1     -35.144  13.765  -4.658  1.00 20.00     0.098 C 
HETATM    2  C2  UNL     1     -34.286  15.706  -5.954  1.00 20.00     0.065 C 
HETATM    3  C3  UNL     1     -34.397  15.065  -7.329  1.00 20.00     0.078 C 
HETATM    4  C4  UNL     1     -36.688  15.244  -5.926  1.00 20.00     0.127 C 
HETATM    5  C5  UNL     1     -35.416  15.149  -5.083  1.00 20.00     0.157 C 
HETATM    6  N8  UNL     1     -34.930  12.675  -4.323  1.00 20.00    -0.194 NA
HETATM    7  S10 UNL     1     -36.178  14.954  -7.649  1.00 20.00    -0.165 SA
ENDROOT
BRANCH   5   8
HETATM    8  O9  UNL     1     -35.552  15.951  -3.915  1.00 20.00    -0.365 OA
BRANCH   8   9
HETATM    9  C7  UNL     1     -34.319  16.066  -3.220  1.00 20.00     0.165 C 
HETATM   10  C6  UNL     1     -34.601  16.236  -1.742  1.00 20.00     0.033 C 
ENDBRANCH   8   9
ENDBRANCH   5   8
TORSDOF 2
ENDMDL
MODEL 6
REMARK VINA RESULT:      -3.9      1.960      3.249
REMARK  2 active torsions:
REMARK  status: ('A' for Active; 'I' for Inactive)
REMARK    1  A    between atoms: C5_5  and  O9_9 
REMARK    2  A    between atoms: C7_7  and  O9_9 
ROOT
HETATM    1  C1  UNL     1     -35.193  13.696  -4.239  1.00 20.00     0.098 C 
HETATM    2  C2  UNL     1     -34.872  15.466  -2.522  1.00 20.00     0.065 C 
HETATM    3  C3  UNL     1     -33.513  15.943  -3.010  1.00 20.00     0.078 C 
HETATM    4  C4  UNL     1     -35.523  16.097  -4.795  1.00 20.00     0.127 C 
HETATM    5  C5  UNL     1     -35.672  14.998  -3.742  1.00 20.00     0.157 C 
HETATM    6  N8  UNL     1     -34.817  12.671  -4.631  1.00 20.00    -0.194 NA
HETATM    7  S10 UNL     1     -33.849  16.779  -4.583  1.00 20.00    -0.165 SA
ENDROOT
BRANCH   5   8
HETATM    8  O9  UNL     1     -37.042  14.858  -3.384  1.00 20.00    -0.365 OA
BRANCH   8   9
HETATM    9  C7  UNL     1     -37.893  15.062  -4.501  1.00 20.00     0.165 C 
HETATM   10  C6  UNL     1     -39.304  14.659  -4.128  1.00 20.00     0.033 C 
ENDBRANCH   8   9
ENDBRANCH   5   8
TORSDOF 2
ENDMDL
MODEL 7
REMARK VINA RESULT:      -3.7     12.246     13.353
REMARK  2 active torsions:
REMARK  status: ('A' for Active; 'I' for Inactive)
REMARK    1  A    between atoms: C5_5  and  O9_9 
REMARK    2  A    between atoms: C7_7  and  O9_9 
ROOT
HETATM    1  C1  UNL     1     -42.584   5.298  -2.789  1.00 20.00     0.098 C 
HETATM    2  C2  UNL     1     -40.883   5.153  -0.981  1.00 20.00     0.065 C 
HETATM    3  C3  UNL     1     -41.637   5.991   0.040  1.00 20.00     0.078 C 
HETATM    4  C4  UNL     1     -42.908   3.787  -0.842  1.00 20.00     0.127 C 
HETATM    5  C5  UNL     1     -41.915   4.403  -1.828  1.00 20.00     0.157 C 
HETATM    6  N8  UNL     1     -43.110   6.002  -3.547  1.00 20.00    -0.194 NA
HETATM    7  S10 UNL     1     -43.042   4.960   0.544  1.00 20.00    -0.165 SA
ENDROOT
BRANCH   5   8
HETATM    8  O9  UNL     1     -41.264   3.372  -2.563  1.00 20.00    -0.365 OA
BRANCH   8   9
HETATM    9  C7  UNL     1     -42.199   2.440  -3.086  1.00 20.00     0.165 C 
HETATM   10  C6  UNL     1     -41.484   1.507  -4.039  1.00 20.00     0.033 C 
ENDBRANCH   8   9
ENDBRANCH   5   8
TORSDOF 2
ENDMDL
MODEL 8
REMARK VINA RESULT:      -3.7      1.916      2.487
REMARK  2 active torsions:
REMARK  status: ('A' for Active; 'I' for Inactive)
REMARK    1  A    between atoms: C5_5  and  O9_9 
REMARK    2  A    between atoms: C7_7  and  O9_9 
ROOT
HETATM    1  C1  UNL     1     -35.289  13.792  -4.296  1.00 20.00     0.098 C 
HETATM    2  C2  UNL     1     -35.860  15.887  -5.507  1.00 20.00     0.065 C 
HETATM    3  C3  UNL     1     -37.115  15.364  -6.188  1.00 20.00     0.078 C 
HETATM    4  C4  UNL     1     -37.114  15.280  -3.497  1.00 20.00     0.127 C 
HETATM    5  C5  UNL     1     -35.734  15.189  -4.150  1.00 20.00     0.157 C 
HETATM    6  N8  UNL     1     -34.938  12.692  -4.410  1.00 20.00    -0.194 NA
HETATM    7  S10 UNL     1     -38.325  15.173  -4.851  1.00 20.00    -0.165 SA
ENDROOT
BRANCH   5   8
HETATM    8  O9  UNL     1     -34.777  15.877  -3.351  1.00 20.00    -0.365 OA
BRANCH   8   9
HETATM    9  C7  UNL     1     -35.406  16.640  -2.333  1.00 20.00     0.165 C 
HETATM   10  C6  UNL     1     -34.588  16.537  -1.063  1.00 20.00     0.033 C 
ENDBRANCH   8   9
ENDBRANCH   5   8
TORSDOF 2
ENDMDL
MODEL 9
REMARK VINA RESULT:      -3.6      2.215      3.757
REMARK  2 active torsions:
REMARK  status: ('A' for Active; 'I' for Inactive)
REMARK    1  A    between atoms: C5_5  and  O9_9 
REMARK    2  A    between atoms: C7_7  and  O9_9 
ROOT
HETATM    1  C1  UNL     1     -36.779  14.528  -4.063  1.00 20.00     0.098 C 
HETATM    2  C2  UNL     1     -35.294  16.405  -4.740  1.00 20.00     0.065 C 
HETATM    3  C3  UNL     1     -35.347  17.158  -3.420  1.00 20.00     0.078 C 
HETATM    4  C4  UNL     1     -34.416  14.634  -3.298  1.00 20.00     0.127 C 
HETATM    5  C5  UNL     1     -35.404  14.908  -4.432  1.00 20.00     0.157 C 
HETATM    6  N8  UNL     1     -37.862  14.228  -3.773  1.00 20.00    -0.194 NA
HETATM    7  S10 UNL     1     -34.411  16.128  -2.258  1.00 20.00    -0.165 SA
ENDROOT
BRANCH   5   8
HETATM    8  O9  UNL     1     -35.033  14.160  -5.585  1.00 20.00    -0.365 OA
BRANCH   8   9
HETATM    9  C7  UNL     1     -34.645  15.011  -6.652  1.00 20.00     0.165 C 
HETATM   10  C6  UNL     1     -35.375  14.590  -7.909  1.00 20.00     0.033 C 
ENDBRANCH   8   9
ENDBRANCH   5   8
TORSDOF 2
ENDMDL
