MODEL 1
REMARK VINA RESULT:      -5.4      0.000      0.000
REMARK  5 active torsions:
REMARK  status: ('A' for Active; 'I' for Inactive)
REMARK    1  A    between atoms: C2_2  and  C8_8 
REMARK    2  A    between atoms: C2_2  and  C9_9 
REMARK    3  A    between atoms: C6_6  and  C10_10 
REMARK    4  A    between atoms: C9_9  and  C10_10 
REMARK    5  A    between atoms: C10_10  and  O11_11 
ROOT
HETATM    1  C10 UNL     1     -34.090   6.215   3.709  1.00 20.00     0.126 C 
ENDROOT
BRANCH   1   2
HETATM    2  C6  UNL     1     -33.958   5.356   4.949  1.00 20.00     0.015 C 
HETATM    3  C4  UNL     1     -35.052   4.281   5.171  1.00 20.00     0.007 C 
HETATM    4  C3  UNL     1     -34.945   4.589   6.679  1.00 20.00     0.001 C 
HETATM    5  C5  UNL     1     -34.430   5.989   6.284  1.00 20.00     0.007 C 
ENDBRANCH   1   2
BRANCH   1   6
HETATM    6  C9  UNL     1     -32.796   6.149   2.888  1.00 20.00     0.065 C 
BRANCH   6   7
HETATM    7  C2  UNL     1     -32.006   7.445   2.911  1.00 20.00    -0.087 C 
HETATM    8  C1  UNL     1     -31.360   7.816   4.030  1.00 20.00     0.014 C 
BRANCH   7   9
HETATM    9  C8  UNL     1     -31.979   8.219   1.609  1.00 20.00     0.029 C 
HETATM   10  C7  UNL     1     -32.530   9.641   1.635  1.00 20.00     0.010 C 
ENDBRANCH   7   9
ENDBRANCH   6   7
ENDBRANCH   1   6
BRANCH   1  11
HETATM   11  O11 UNL     1     -35.165   5.705   2.923  1.00 20.00    -0.395 OA
HETATM   12  H29 UNL     1     -34.854   5.691   2.005  1.00 20.00     0.210 HD
ENDBRANCH   1  11
TORSDOF 5
ENDMDL
MODEL 2
REMARK VINA RESULT:      -5.0     11.249     12.516
REMARK  5 active torsions:
REMARK  status: ('A' for Active; 'I' for Inactive)
REMARK    1  A    between atoms: C2_2  and  C8_8 
REMARK    2  A    between atoms: C2_2  and  C9_9 
REMARK    3  A    between atoms: C6_6  and  C10_10 
REMARK    4  A    between atoms: C9_9  and  C10_10 
REMARK    5  A    between atoms: C10_10  and  O11_11 
ROOT
HETATM    1  C10 UNL     1     -34.733  13.718  -4.570  1.00 20.00     0.126 C 
ENDROOT
BRANCH   1   2
HETATM    2  C6  UNL     1     -35.329  14.184  -5.882  1.00 20.00     0.015 C 
HETATM    3  C4  UNL     1     -34.388  14.966  -6.835  1.00 20.00     0.007 C 
HETATM    4  C3  UNL     1     -35.608  15.834  -7.207  1.00 20.00     0.001 C 
HETATM    5  C5  UNL     1     -36.201  15.465  -5.831  1.00 20.00     0.007 C 
ENDBRANCH   1   2
BRANCH   1   6
HETATM    6  C9  UNL     1     -34.946  14.787  -3.492  1.00 20.00     0.065 C 
BRANCH   6   7
HETATM    7  C2  UNL     1     -33.670  15.517  -3.112  1.00 20.00    -0.087 C 
HETATM    8  C1  UNL     1     -32.488  15.092  -3.588  1.00 20.00     0.014 C 
BRANCH   7   9
HETATM    9  C8  UNL     1     -33.851  16.733  -2.225  1.00 20.00     0.029 C 
HETATM   10  C7  UNL     1     -34.649  16.543  -0.939  1.00 20.00     0.010 C 
ENDBRANCH   7   9
ENDBRANCH   6   7
ENDBRANCH   1   6
BRANCH   1  11
HETATM   11  O11 UNL     1     -35.397  12.520  -4.175  1.00 20.00    -0.395 OA
HETATM   12  H29 UNL     1     -35.275  11.886  -4.898  1.00 20.00     0.210 HD
ENDBRANCH   1  11
TORSDOF 5
ENDMDL
MODEL 3
REMARK VINA RESULT:      -4.8     11.035     12.616
REMARK  5 active torsions:
REMARK  status: ('A' for Active; 'I' for Inactive)
REMARK    1  A    between atoms: C2_2  and  C8_8 
REMARK    2  A    between atoms: C2_2  and  C9_9 
REMARK    3  A    between atoms: C6_6  and  C10_10 
REMARK    4  A    between atoms: C9_9  and  C10_10 
REMARK    5  A    between atoms: C10_10  and  O11_11 
ROOT
HETATM    1  C10 UNL     1     -35.292  13.966  -4.378  1.00 20.00     0.126 C 
ENDROOT
BRANCH   1   2
HETATM    2  C6  UNL     1     -34.643  14.590  -3.160  1.00 20.00     0.015 C 
HETATM    3  C4  UNL     1     -35.271  15.907  -2.636  1.00 20.00     0.007 C 
HETATM    4  C3  UNL     1     -33.837  16.374  -2.307  1.00 20.00     0.001 C 
HETATM    5  C5  UNL     1     -33.348  15.407  -3.405  1.00 20.00     0.007 C 
ENDBRANCH   1   2
BRANCH   1   6
HETATM    6  C9  UNL     1     -34.445  14.254  -5.624  1.00 20.00     0.065 C 
BRANCH   6   7
HETATM    7  C2  UNL     1     -35.188  15.050  -6.682  1.00 20.00    -0.087 C 
HETATM    8  C1  UNL     1     -35.604  14.444  -7.807  1.00 20.00     0.014 C 
BRANCH   7   9
HETATM    9  C8  UNL     1     -35.440  16.507  -6.349  1.00 20.00     0.029 C 
HETATM   10  C7  UNL     1     -34.231  17.437  -6.342  1.00 20.00     0.010 C 
ENDBRANCH   7   9
ENDBRANCH   6   7
ENDBRANCH   1   6
BRANCH   1  11
HETATM   11  O11 UNL     1     -35.360  12.557  -4.177  1.00 20.00    -0.395 OA
HETATM   12  H29 UNL     1     -34.962  12.381  -3.311  1.00 20.00     0.210 HD
ENDBRANCH   1  11
TORSDOF 5
ENDMDL
MODEL 4
REMARK VINA RESULT:      -4.8     11.363     12.785
REMARK  5 active torsions:
REMARK  status: ('A' for Active; 'I' for Inactive)
REMARK    1  A    between atoms: C2_2  and  C8_8 
REMARK    2  A    between atoms: C2_2  and  C9_9 
REMARK    3  A    between atoms: C6_6  and  C10_10 
REMARK    4  A    between atoms: C9_9  and  C10_10 
REMARK    5  A    between atoms: C10_10  and  O11_11 
ROOT
HETATM    1  C10 UNL     1     -34.836  13.946  -4.539  1.00 20.00     0.126 C 
ENDROOT
BRANCH   1   2
HETATM    2  C6  UNL     1     -35.414  14.196  -5.916  1.00 20.00     0.015 C 
HETATM    3  C4  UNL     1     -34.474  14.858  -6.956  1.00 20.00     0.007 C 
HETATM    4  C3  UNL     1     -35.708  15.625  -7.475  1.00 20.00     0.001 C 
HETATM    5  C5  UNL     1     -36.322  15.444  -6.071  1.00 20.00     0.007 C 
ENDBRANCH   1   2
BRANCH   1   6
HETATM    6  C9  UNL     1     -35.495  14.882  -3.519  1.00 20.00     0.065 C 
BRANCH   6   7
HETATM    7  C2  UNL     1     -34.516  15.843  -2.869  1.00 20.00    -0.087 C 
HETATM    8  C1  UNL     1     -34.692  16.215  -1.589  1.00 20.00     0.014 C 
BRANCH   7   9
HETATM    9  C8  UNL     1     -33.358  16.288  -3.740  1.00 20.00     0.029 C 
HETATM   10  C7  UNL     1     -33.568  17.535  -4.592  1.00 20.00     0.010 C 
ENDBRANCH   7   9
ENDBRANCH   6   7
ENDBRANCH   1   6
BRANCH   1  11
HETATM   11  O11 UNL     1     -35.111  12.595  -4.176  1.00 20.00    -0.395 OA
HETATM   12  H29 UNL     1     -34.343  12.073  -4.454  1.00 20.00     0.210 HD
ENDBRANCH   1  11
TORSDOF 5
ENDMDL
MODEL 5
REMARK VINA RESULT:      -4.7      1.609      5.237
REMARK  5 active torsions:
REMARK  status: ('A' for Active; 'I' for Inactive)
REMARK    1  A    between atoms: C2_2  and  C8_8 
REMARK    2  A    between atoms: C2_2  and  C9_9 
REMARK    3  A    between atoms: C6_6  and  C10_10 
REMARK    4  A    between atoms: C9_9  and  C10_10 
REMARK    5  A    between atoms: C10_10  and  O11_11 
ROOT
HETATM    1  C10 UNL     1     -32.385   7.588   3.370  1.00 20.00     0.126 C 
ENDROOT
BRANCH   1   2
HETATM    2  C6  UNL     1     -32.718   8.243   2.045  1.00 20.00     0.015 C 
HETATM    3  C4  UNL     1     -31.563   8.362   1.018  1.00 20.00     0.007 C 
HETATM    4  C3  UNL     1     -32.156   9.729   0.620  1.00 20.00     0.001 C 
HETATM    5  C5  UNL     1     -32.773   9.793   2.032  1.00 20.00     0.007 C 
ENDBRANCH   1   2
BRANCH   1   6
HETATM    6  C9  UNL     1     -32.806   6.114   3.343  1.00 20.00     0.065 C 
BRANCH   6   7
HETATM    7  C2  UNL     1     -34.116   5.852   4.064  1.00 20.00    -0.087 C 
HETATM    8  C1  UNL     1     -35.210   5.509   3.362  1.00 20.00     0.014 C 
BRANCH   7   9
HETATM    9  C8  UNL     1     -34.067   5.965   5.574  1.00 20.00     0.029 C 
HETATM   10  C7  UNL     1     -34.807   4.899   6.375  1.00 20.00     0.010 C 
ENDBRANCH   7   9
ENDBRANCH   6   7
ENDBRANCH   1   6
BRANCH   1  11
HETATM   11  O11 UNL     1     -30.976   7.666   3.567  1.00 20.00    -0.395 OA
HETATM   12  H29 UNL     1     -30.624   8.199   2.838  1.00 20.00     0.210 HD
ENDBRANCH   1  11
TORSDOF 5
ENDMDL
MODEL 6
REMARK VINA RESULT:      -4.7      1.292      5.040
REMARK  5 active torsions:
REMARK  status: ('A' for Active; 'I' for Inactive)
REMARK    1  A    between atoms: C2_2  and  C8_8 
REMARK    2  A    between atoms: C2_2  and  C9_9 
REMARK    3  A    between atoms: C6_6  and  C10_10 
REMARK    4  A    between atoms: C9_9  and  C10_10 
REMARK    5  A    between atoms: C10_10  and  O11_11 
ROOT
HETATM    1  C10 UNL     1     -32.261   6.945   3.412  1.00 20.00     0.126 C 
ENDROOT
BRANCH   1   2
HETATM    2  C6  UNL     1     -31.816   8.156   2.619  1.00 20.00     0.015 C 
HETATM    3  C4  UNL     1     -32.859   9.289   2.437  1.00 20.00     0.007 C 
HETATM    4  C3  UNL     1     -32.286   9.488   1.018  1.00 20.00     0.001 C 
HETATM    5  C5  UNL     1     -31.827   8.016   1.075  1.00 20.00     0.007 C 
ENDBRANCH   1   2
BRANCH   1   6
HETATM    6  C9  UNL     1     -33.741   7.083   3.789  1.00 20.00     0.065 C 
BRANCH   6   7
HETATM    7  C2  UNL     1     -34.133   6.245   4.993  1.00 20.00    -0.087 C 
HETATM    8  C1  UNL     1     -33.795   6.649   6.229  1.00 20.00     0.014 C 
BRANCH   7   9
HETATM    9  C8  UNL     1     -34.938   4.997   4.688  1.00 20.00     0.029 C 
HETATM   10  C7  UNL     1     -35.008   3.933   5.778  1.00 20.00     0.010 C 
ENDBRANCH   7   9
ENDBRANCH   6   7
ENDBRANCH   1   6
BRANCH   1  11
HETATM   11  O11 UNL     1     -32.095   5.788   2.596  1.00 20.00    -0.395 OA
HETATM   12  H29 UNL     1     -32.868   5.226   2.754  1.00 20.00     0.210 HD
ENDBRANCH   1  11
TORSDOF 5
ENDMDL
MODEL 7
REMARK VINA RESULT:      -4.5     11.567     13.262
REMARK  5 active torsions:
REMARK  status: ('A' for Active; 'I' for Inactive)
REMARK    1  A    between atoms: C2_2  and  C8_8 
REMARK    2  A    between atoms: C2_2  and  C9_9 
REMARK    3  A    between atoms: C6_6  and  C10_10 
REMARK    4  A    between atoms: C9_9  and  C10_10 
REMARK    5  A    between atoms: C10_10  and  O11_11 
ROOT
HETATM    1  C10 UNL     1     -33.032  15.866  -4.129  1.00 20.00     0.126 C 
ENDROOT
BRANCH   1   2
HETATM    2  C6  UNL     1     -33.323  16.174  -5.583  1.00 20.00     0.015 C 
HETATM    3  C4  UNL     1     -34.245  17.389  -5.866  1.00 20.00     0.007 C 
HETATM    4  C3  UNL     1     -34.837  16.573  -7.035  1.00 20.00     0.001 C 
HETATM    5  C5  UNL     1     -34.405  15.303  -6.274  1.00 20.00     0.007 C 
ENDBRANCH   1   2
BRANCH   1   6
HETATM    6  C9  UNL     1     -34.172  15.029  -3.536  1.00 20.00     0.065 C 
BRANCH   6   7
HETATM    7  C2  UNL     1     -35.112  15.834  -2.657  1.00 20.00    -0.087 C 
HETATM    8  C1  UNL     1     -34.690  16.292  -1.467  1.00 20.00     0.014 C 
BRANCH   7   9
HETATM    9  C8  UNL     1     -36.488  16.096  -3.238  1.00 20.00     0.029 C 
HETATM   10  C7  UNL     1     -37.239  14.899  -3.812  1.00 20.00     0.010 C 
ENDBRANCH   7   9
ENDBRANCH   6   7
ENDBRANCH   1   6
BRANCH   1  11
HETATM   11  O11 UNL     1     -31.822  15.117  -4.063  1.00 20.00    -0.395 OA
HETATM   12  H29 UNL     1     -32.077  14.185  -3.986  1.00 20.00     0.210 HD
ENDBRANCH   1  11
TORSDOF 5
ENDMDL
MODEL 8
REMARK VINA RESULT:      -4.5     11.456     12.867
REMARK  5 active torsions:
REMARK  status: ('A' for Active; 'I' for Inactive)
REMARK    1  A    between atoms: C2_2  and  C8_8 
REMARK    2  A    between atoms: C2_2  and  C9_9 
REMARK    3  A    between atoms: C6_6  and  C10_10 
REMARK    4  A    between atoms: C9_9  and  C10_10 
REMARK    5  A    between atoms: C10_10  and  O11_11 
ROOT
HETATM    1  C10 UNL     1     -33.294  15.155  -4.076  1.00 20.00     0.126 C 
ENDROOT
BRANCH   1   2
HETATM    2  C6  UNL     1     -33.989  15.387  -2.751  1.00 20.00     0.015 C 
HETATM    3  C4  UNL     1     -35.482  15.801  -2.812  1.00 20.00     0.007 C 
HETATM    4  C3  UNL     1     -35.201  16.717  -1.603  1.00 20.00     0.001 C 
HETATM    5  C5  UNL     1     -33.728  16.751  -2.061  1.00 20.00     0.007 C 
ENDBRANCH   1   2
BRANCH   1   6
HETATM    6  C9  UNL     1     -33.263  16.458  -4.884  1.00 20.00     0.065 C 
BRANCH   6   7
HETATM    7  C2  UNL     1     -34.050  16.378  -6.179  1.00 20.00    -0.087 C 
HETATM    8  C1  UNL     1     -34.395  17.506  -6.824  1.00 20.00     0.014 C 
BRANCH   7   9
HETATM    9  C8  UNL     1     -34.359  14.979  -6.674  1.00 20.00     0.029 C 
HETATM   10  C7  UNL     1     -35.819  14.654  -6.971  1.00 20.00     0.010 C 
ENDBRANCH   7   9
ENDBRANCH   6   7
ENDBRANCH   1   6
BRANCH   1  11
HETATM   11  O11 UNL     1     -31.956  14.738  -3.814  1.00 20.00    -0.395 OA
HETATM   12  H29 UNL     1     -32.017  13.920  -3.299  1.00 20.00     0.210 HD
ENDBRANCH   1  11
TORSDOF 5
ENDMDL
MODEL 9
REMARK VINA RESULT:      -4.4     11.570     12.954
REMARK  5 active torsions:
REMARK  status: ('A' for Active; 'I' for Inactive)
REMARK    1  A    between atoms: C2_2  and  C8_8 
REMARK    2  A    between atoms: C2_2  and  C9_9 
REMARK    3  A    between atoms: C6_6  and  C10_10 
REMARK    4  A    between atoms: C9_9  and  C10_10 
REMARK    5  A    between atoms: C10_10  and  O11_11 
ROOT
HETATM    1  C10 UNL     1     -33.599  15.748  -4.582  1.00 20.00     0.126 C 
ENDROOT
BRANCH   1   2
HETATM    2  C6  UNL     1     -34.077  15.159  -5.893  1.00 20.00     0.015 C 
HETATM    3  C4  UNL     1     -35.166  15.956  -6.657  1.00 20.00     0.007 C 
HETATM    4  C3  UNL     1     -35.773  14.596  -7.062  1.00 20.00     0.001 C 
HETATM    5  C5  UNL     1     -35.110  14.006  -5.800  1.00 20.00     0.007 C 
ENDBRANCH   1   2
BRANCH   1   6
HETATM    6  C9  UNL     1     -34.292  15.042  -3.410  1.00 20.00     0.065 C 
BRANCH   6   7
HETATM    7  C2  UNL     1     -35.197  15.959  -2.609  1.00 20.00    -0.087 C 
HETATM    8  C1  UNL     1     -36.390  16.327  -3.108  1.00 20.00     0.014 C 
BRANCH   7   9
HETATM    9  C8  UNL     1     -34.676  16.366  -1.245  1.00 20.00     0.029 C 
HETATM   10  C7  UNL     1     -33.630  17.475  -1.204  1.00 20.00     0.010 C 
ENDBRANCH   7   9
ENDBRANCH   6   7
ENDBRANCH   1   6
BRANCH   1  11
HETATM   11  O11 UNL     1     -32.193  15.541  -4.484  1.00 20.00    -0.395 OA
HETATM   12  H29 UNL     1     -31.774  16.391  -4.688  1.00 20.00     0.210 HD
ENDBRANCH   1  11
TORSDOF 5
ENDMDL
