MODEL 1
REMARK VINA RESULT:      -3.8      0.000      0.000
REMARK  2 active torsions:
REMARK  status: ('A' for Active; 'I' for Inactive)
REMARK    1  A    between atoms: C5_5  and  C6_6 
REMARK    2  A    between atoms: C6_6  and  O8_8 
ROOT
HETATM    1  C1  UNL     1     -34.684  13.755  -4.286  1.00 20.00     0.097 C 
HETATM    2  C3  UNL     1     -32.850  15.208  -3.533  1.00 20.00     0.062 C 
HETATM    3  C6  UNL     1     -34.336  15.134  -3.896  1.00 20.00     0.144 C 
HETATM    4  N7  UNL     1     -34.958  12.671  -4.595  1.00 20.00    -0.194 NA
ENDROOT
BRANCH   3   5
HETATM    5  C5  UNL     1     -35.189  15.609  -2.704  1.00 20.00     0.049 C 
HETATM    6  C2  UNL     1     -34.406  16.364  -1.634  1.00 20.00     0.009 C 
ENDBRANCH   3   5
BRANCH   3   7
HETATM    7  O8  UNL     1     -34.565  16.015  -4.997  1.00 20.00    -0.371 OA
HETATM    8  C4  UNL     1     -33.418  16.804  -5.270  1.00 20.00     0.204 C 
ENDBRANCH   3   7
TORSDOF 2
ENDMDL
MODEL 2
REMARK VINA RESULT:      -3.6      1.643      2.314
REMARK  2 active torsions:
REMARK  status: ('A' for Active; 'I' for Inactive)
REMARK    1  A    between atoms: C5_5  and  C6_6 
REMARK    2  A    between atoms: C6_6  and  O8_8 
ROOT
HETATM    1  C1  UNL     1     -35.043  13.741  -4.219  1.00 20.00     0.097 C 
HETATM    2  C3  UNL     1     -35.383  16.070  -4.929  1.00 20.00     0.062 C 
HETATM    3  C6  UNL     1     -35.292  15.111  -3.737  1.00 20.00     0.144 C 
HETATM    4  N7  UNL     1     -34.848  12.662  -4.599  1.00 20.00    -0.194 NA
ENDROOT
BRANCH   3   5
HETATM    5  C5  UNL     1     -34.181  15.576  -2.777  1.00 20.00     0.049 C 
HETATM    6  C2  UNL     1     -34.689  16.307  -1.537  1.00 20.00     0.009 C 
ENDBRANCH   3   5
BRANCH   3   7
HETATM    7  O8  UNL     1     -36.539  15.154  -3.042  1.00 20.00    -0.371 OA
HETATM    8  C4  UNL     1     -37.627  14.921  -3.922  1.00 20.00     0.204 C 
ENDBRANCH   3   7
TORSDOF 2
ENDMDL
MODEL 3
REMARK VINA RESULT:      -3.5      1.769      2.086
REMARK  2 active torsions:
REMARK  status: ('A' for Active; 'I' for Inactive)
REMARK    1  A    between atoms: C5_5  and  C6_6 
REMARK    2  A    between atoms: C6_6  and  O8_8 
ROOT
HETATM    1  C1  UNL     1     -36.650  14.433  -3.994  1.00 20.00     0.097 C 
HETATM    2  C3  UNL     1     -34.705  13.221  -4.885  1.00 20.00     0.062 C 
HETATM    3  C6  UNL     1     -35.215  14.547  -4.311  1.00 20.00     0.144 C 
HETATM    4  N7  UNL     1     -37.780  14.343  -3.745  1.00 20.00    -0.194 NA
ENDROOT
BRANCH   3   5
HETATM    5  C5  UNL     1     -34.396  14.925  -3.062  1.00 20.00     0.049 C 
HETATM    6  C2  UNL     1     -34.990  16.070  -2.245  1.00 20.00     0.009 C 
ENDBRANCH   3   5
BRANCH   3   7
HETATM    7  O8  UNL     1     -35.023  15.559  -5.301  1.00 20.00    -0.371 OA
HETATM    8  C4  UNL     1     -34.490  15.012  -6.497  1.00 20.00     0.204 C 
ENDBRANCH   3   7
TORSDOF 2
ENDMDL
MODEL 4
REMARK VINA RESULT:      -3.5      1.289      1.607
REMARK  2 active torsions:
REMARK  status: ('A' for Active; 'I' for Inactive)
REMARK    1  A    between atoms: C5_5  and  C6_6 
REMARK    2  A    between atoms: C6_6  and  O8_8 
ROOT
HETATM    1  C1  UNL     1     -34.801  13.921  -4.283  1.00 20.00     0.097 C 
HETATM    2  C3  UNL     1     -33.891  15.912  -5.403  1.00 20.00     0.062 C 
HETATM    3  C6  UNL     1     -34.610  15.378  -4.160  1.00 20.00     0.144 C 
HETATM    4  N7  UNL     1     -34.952  12.775  -4.380  1.00 20.00    -0.194 NA
ENDROOT
BRANCH   3   5
HETATM    5  C5  UNL     1     -33.801  15.730  -2.897  1.00 20.00     0.049 C 
HETATM    6  C2  UNL     1     -34.648  16.221  -1.726  1.00 20.00     0.009 C 
ENDBRANCH   3   5
BRANCH   3   7
HETATM    7  O8  UNL     1     -35.883  16.022  -4.076  1.00 20.00    -0.371 OA
HETATM    8  C4  UNL     1     -36.569  15.967  -5.317  1.00 20.00     0.204 C 
ENDBRANCH   3   7
TORSDOF 2
ENDMDL
MODEL 5
REMARK VINA RESULT:      -3.5      2.003      3.129
REMARK  2 active torsions:
REMARK  status: ('A' for Active; 'I' for Inactive)
REMARK    1  A    between atoms: C5_5  and  C6_6 
REMARK    2  A    between atoms: C6_6  and  O8_8 
ROOT
HETATM    1  C1  UNL     1     -34.750  13.764  -4.963  1.00 20.00     0.097 C 
HETATM    2  C3  UNL     1     -35.915  15.922  -5.132  1.00 20.00     0.062 C 
HETATM    3  C6  UNL     1     -34.630  15.151  -5.447  1.00 20.00     0.144 C 
HETATM    4  N7  UNL     1     -34.844  12.673  -4.580  1.00 20.00    -0.194 NA
ENDROOT
BRANCH   3   5
HETATM    5  C5  UNL     1     -34.354  15.191  -6.963  1.00 20.00     0.049 C 
HETATM    6  C2  UNL     1     -35.425  14.512  -7.813  1.00 20.00     0.009 C 
ENDBRANCH   3   5
BRANCH   3   7
HETATM    7  O8  UNL     1     -33.550  15.801  -4.774  1.00 20.00    -0.371 OA
HETATM    8  C4  UNL     1     -33.391  17.136  -5.227  1.00 20.00     0.204 C 
ENDBRANCH   3   7
TORSDOF 2
ENDMDL
MODEL 6
REMARK VINA RESULT:      -3.5      2.183      3.291
REMARK  2 active torsions:
REMARK  status: ('A' for Active; 'I' for Inactive)
REMARK    1  A    between atoms: C5_5  and  C6_6 
REMARK    2  A    between atoms: C6_6  and  O8_8 
ROOT
HETATM    1  C1  UNL     1     -36.601  14.325  -4.173  1.00 20.00     0.097 C 
HETATM    2  C3  UNL     1     -34.518  15.620  -4.347  1.00 20.00     0.062 C 
HETATM    3  C6  UNL     1     -35.240  14.326  -4.739  1.00 20.00     0.144 C 
HETATM    4  N7  UNL     1     -37.672  14.323  -3.727  1.00 20.00    -0.194 NA
ENDROOT
BRANCH   3   5
HETATM    5  C5  UNL     1     -35.273  14.191  -6.274  1.00 20.00     0.049 C 
HETATM    6  C2  UNL     1     -34.314  15.126  -7.006  1.00 20.00     0.009 C 
ENDBRANCH   3   5
BRANCH   3   7
HETATM    7  O8  UNL     1     -34.498  13.229  -4.204  1.00 20.00    -0.371 OA
HETATM    8  C4  UNL     1     -33.246  13.656  -3.691  1.00 20.00     0.204 C 
ENDBRANCH   3   7
TORSDOF 2
ENDMDL
MODEL 7
REMARK VINA RESULT:      -3.4      1.282      2.566
REMARK  2 active torsions:
REMARK  status: ('A' for Active; 'I' for Inactive)
REMARK    1  A    between atoms: C5_5  and  C6_6 
REMARK    2  A    between atoms: C6_6  and  O8_8 
ROOT
HETATM    1  C1  UNL     1     -34.879  13.903  -3.982  1.00 20.00     0.097 C 
HETATM    2  C3  UNL     1     -35.817  16.159  -4.256  1.00 20.00     0.062 C 
HETATM    3  C6  UNL     1     -34.743  15.311  -3.567  1.00 20.00     0.144 C 
HETATM    4  N7  UNL     1     -34.986  12.795  -4.306  1.00 20.00    -0.194 NA
ENDROOT
BRANCH   3   5
HETATM    5  C5  UNL     1     -33.345  15.861  -3.909  1.00 20.00     0.049 C 
HETATM    6  C2  UNL     1     -33.273  16.612  -5.236  1.00 20.00     0.009 C 
ENDBRANCH   3   5
BRANCH   3   7
HETATM    7  O8  UNL     1     -34.938  15.416  -2.156  1.00 20.00    -0.371 OA
HETATM    8  C4  UNL     1     -34.275  16.554  -1.628  1.00 20.00     0.204 C 
ENDBRANCH   3   7
TORSDOF 2
ENDMDL
MODEL 8
REMARK VINA RESULT:      -3.4      2.273      2.805
REMARK  2 active torsions:
REMARK  status: ('A' for Active; 'I' for Inactive)
REMARK    1  A    between atoms: C5_5  and  C6_6 
REMARK    2  A    between atoms: C6_6  and  O8_8 
ROOT
HETATM    1  C1  UNL     1     -36.988  14.470  -4.123  1.00 20.00     0.097 C 
HETATM    2  C3  UNL     1     -35.703  14.654  -6.211  1.00 20.00     0.062 C 
HETATM    3  C6  UNL     1     -35.629  14.579  -4.682  1.00 20.00     0.144 C 
HETATM    4  N7  UNL     1     -38.058  14.386  -3.682  1.00 20.00    -0.194 NA
ENDROOT
BRANCH   3   5
HETATM    5  C5  UNL     1     -34.754  13.383  -4.260  1.00 20.00     0.049 C 
HETATM    6  C2  UNL     1     -33.372  13.770  -3.740  1.00 20.00     0.009 C 
ENDBRANCH   3   5
BRANCH   3   7
HETATM    7  O8  UNL     1     -35.012  15.780  -4.213  1.00 20.00    -0.371 OA
HETATM    8  C4  UNL     1     -35.567  16.923  -4.843  1.00 20.00     0.204 C 
ENDBRANCH   3   7
TORSDOF 2
ENDMDL
MODEL 9
REMARK VINA RESULT:      -3.3     11.661     12.738
REMARK  2 active torsions:
REMARK  status: ('A' for Active; 'I' for Inactive)
REMARK    1  A    between atoms: C5_5  and  C6_6 
REMARK    2  A    between atoms: C6_6  and  O8_8 
ROOT
HETATM    1  C1  UNL     1     -42.630   5.234  -2.616  1.00 20.00     0.097 C 
HETATM    2  C3  UNL     1     -40.748   4.219  -1.403  1.00 20.00     0.062 C 
HETATM    3  C6  UNL     1     -41.697   5.418  -1.489  1.00 20.00     0.144 C 
HETATM    4  N7  UNL     1     -43.363   5.091  -3.504  1.00 20.00    -0.194 NA
ENDROOT
BRANCH   3   5
HETATM    5  C5  UNL     1     -42.456   5.580  -0.158  1.00 20.00     0.049 C 
HETATM    6  C2  UNL     1     -42.904   4.265   0.472  1.00 20.00     0.009 C 
ENDBRANCH   3   5
BRANCH   3   7
HETATM    7  O8  UNL     1     -40.908   6.589  -1.707  1.00 20.00    -0.371 OA
HETATM    8  C4  UNL     1     -41.455   7.710  -1.031  1.00 20.00     0.204 C 
ENDBRANCH   3   7
TORSDOF 2
ENDMDL
