MODEL 1
REMARK VINA RESULT:      -4.7      0.000      0.000
REMARK  4 active torsions:
REMARK  status: ('A' for Active; 'I' for Inactive)
REMARK    1  A    between atoms: C4_4  and  C5_5 
REMARK    2  A    between atoms: C5_5  and  C8_8 
REMARK    3  A    between atoms: C6_6  and  C8_8 
REMARK    4  A    between atoms: C7_7  and  C8_8 
ROOT
HETATM    1  C8  UNL     1     -33.896   6.296   4.247  1.00 20.00     0.003 C 
ENDROOT
BRANCH   1   2
HETATM    2  C5  UNL     1     -32.522   6.225   3.527  1.00 20.00     0.005 C 
BRANCH   2   3
HETATM    3  C4  UNL     1     -31.784   7.556   3.335  1.00 20.00    -0.004 C 
HETATM    4  C1  UNL     1     -32.073   8.222   1.999  1.00 20.00     0.005 C 
ENDBRANCH   2   3
ENDBRANCH   1   2
BRANCH   1   5
HETATM    5  C6  UNL     1     -34.951   5.482   3.466  1.00 20.00     0.119 C 
HETATM    6 CL9  UNL     1     -34.332   4.904   1.894  1.00 20.00    -0.130 Cl
ENDBRANCH   1   5
BRANCH   1   7
HETATM    7  C7  UNL     1     -33.823   5.859   5.744  1.00 20.00    -0.018 C 
HETATM    8  C2  UNL     1     -34.946   4.884   6.116  1.00 20.00     0.010 C 
HETATM    9  C3  UNL     1     -33.813   7.032   6.729  1.00 20.00     0.010 C 
ENDBRANCH   1   7
TORSDOF 4
ENDMDL
MODEL 2
REMARK VINA RESULT:      -4.3      0.392      1.238
REMARK  4 active torsions:
REMARK  status: ('A' for Active; 'I' for Inactive)
REMARK    1  A    between atoms: C4_4  and  C5_5 
REMARK    2  A    between atoms: C5_5  and  C8_8 
REMARK    3  A    between atoms: C6_6  and  C8_8 
REMARK    4  A    between atoms: C7_7  and  C8_8 
ROOT
HETATM    1  C8  UNL     1     -34.154   6.392   4.222  1.00 20.00     0.003 C 
ENDROOT
BRANCH   1   2
HETATM    2  C5  UNL     1     -32.668   6.151   3.841  1.00 20.00     0.005 C 
BRANCH   2   3
HETATM    3  C4  UNL     1     -31.837   7.398   3.513  1.00 20.00    -0.004 C 
HETATM    4  C1  UNL     1     -32.171   8.012   2.163  1.00 20.00     0.005 C 
ENDBRANCH   2   3
ENDBRANCH   1   2
BRANCH   1   5
HETATM    5  C6  UNL     1     -35.084   5.595   3.282  1.00 20.00     0.119 C 
HETATM    6 CL9  UNL     1     -34.198   4.861   1.917  1.00 20.00    -0.130 Cl
ENDBRANCH   1   5
BRANCH   1   7
HETATM    7  C7  UNL     1     -34.454   6.089   5.724  1.00 20.00    -0.018 C 
HETATM    8  C2  UNL     1     -33.564   6.907   6.667  1.00 20.00     0.010 C 
HETATM    9  C3  UNL     1     -34.358   4.604   6.085  1.00 20.00     0.010 C 
ENDBRANCH   1   7
TORSDOF 4
ENDMDL
MODEL 3
REMARK VINA RESULT:      -4.3      2.172      2.853
REMARK  4 active torsions:
REMARK  status: ('A' for Active; 'I' for Inactive)
REMARK    1  A    between atoms: C4_4  and  C5_5 
REMARK    2  A    between atoms: C5_5  and  C8_8 
REMARK    3  A    between atoms: C6_6  and  C8_8 
REMARK    4  A    between atoms: C7_7  and  C8_8 
ROOT
HETATM    1  C8  UNL     1     -33.670   5.904   5.023  1.00 20.00     0.003 C 
ENDROOT
BRANCH   1   2
HETATM    2  C5  UNL     1     -33.421   7.073   4.031  1.00 20.00     0.005 C 
BRANCH   2   3
HETATM    3  C4  UNL     1     -32.280   6.881   3.025  1.00 20.00    -0.004 C 
HETATM    4  C1  UNL     1     -32.045   8.092   2.135  1.00 20.00     0.005 C 
ENDBRANCH   2   3
ENDBRANCH   1   2
BRANCH   1   5
HETATM    5  C6  UNL     1     -34.138   6.453   6.389  1.00 20.00     0.119 C 
HETATM    6 CL9  UNL     1     -33.009   7.666   7.054  1.00 20.00    -0.130 Cl
ENDBRANCH   1   5
BRANCH   1   7
HETATM    7  C7  UNL     1     -34.655   4.830   4.465  1.00 20.00    -0.018 C 
HETATM    8  C2  UNL     1     -35.814   5.460   3.682  1.00 20.00     0.010 C 
HETATM    9  C3  UNL     1     -35.212   3.887   5.535  1.00 20.00     0.010 C 
ENDBRANCH   1   7
TORSDOF 4
ENDMDL
MODEL 4
REMARK VINA RESULT:      -4.0     11.363     12.391
REMARK  4 active torsions:
REMARK  status: ('A' for Active; 'I' for Inactive)
REMARK    1  A    between atoms: C4_4  and  C5_5 
REMARK    2  A    between atoms: C5_5  and  C8_8 
REMARK    3  A    between atoms: C6_6  and  C8_8 
REMARK    4  A    between atoms: C7_7  and  C8_8 
ROOT
HETATM    1  C8  UNL     1     -33.512  16.198  -3.062  1.00 20.00     0.003 C 
ENDROOT
BRANCH   1   2
HETATM    2  C5  UNL     1     -33.070  14.863  -3.720  1.00 20.00     0.005 C 
BRANCH   2   3
HETATM    3  C4  UNL     1     -34.031  13.678  -3.569  1.00 20.00    -0.004 C 
HETATM    4  C1  UNL     1     -34.736  13.299  -4.863  1.00 20.00     0.005 C 
ENDBRANCH   2   3
ENDBRANCH   1   2
BRANCH   1   5
HETATM    5  C6  UNL     1     -33.685  17.294  -4.137  1.00 20.00     0.119 C 
HETATM    6 CL9  UNL     1     -33.642  16.629  -5.793  1.00 20.00    -0.130 Cl
ENDBRANCH   1   5
BRANCH   1   7
HETATM    7  C7  UNL     1     -34.791  16.049  -2.180  1.00 20.00    -0.018 C 
HETATM    8  C2  UNL     1     -36.031  16.648  -2.855  1.00 20.00     0.010 C 
HETATM    9  C3  UNL     1     -34.642  16.630  -0.771  1.00 20.00     0.010 C 
ENDBRANCH   1   7
TORSDOF 4
ENDMDL
MODEL 5
REMARK VINA RESULT:      -4.0     11.419     12.409
REMARK  4 active torsions:
REMARK  status: ('A' for Active; 'I' for Inactive)
REMARK    1  A    between atoms: C4_4  and  C5_5 
REMARK    2  A    between atoms: C5_5  and  C8_8 
REMARK    3  A    between atoms: C6_6  and  C8_8 
REMARK    4  A    between atoms: C7_7  and  C8_8 
ROOT
HETATM    1  C8  UNL     1     -34.224  15.975  -3.512  1.00 20.00     0.003 C 
ENDROOT
BRANCH   1   2
HETATM    2  C5  UNL     1     -33.774  16.632  -2.179  1.00 20.00     0.005 C 
BRANCH   2   3
HETATM    3  C4  UNL     1     -34.730  16.483  -0.989  1.00 20.00    -0.004 C 
HETATM    4  C1  UNL     1     -34.528  17.538   0.087  1.00 20.00     0.005 C 
ENDBRANCH   2   3
ENDBRANCH   1   2
BRANCH   1   5
HETATM    5  C6  UNL     1     -33.193  16.262  -4.625  1.00 20.00     0.119 C 
HETATM    6 CL9  UNL     1     -33.946  16.342  -6.242  1.00 20.00    -0.130 Cl
ENDBRANCH   1   5
BRANCH   1   7
HETATM    7  C7  UNL     1     -34.510  14.447  -3.372  1.00 20.00    -0.018 C 
HETATM    8  C2  UNL     1     -33.298  13.594  -3.768  1.00 20.00     0.010 C 
HETATM    9  C3  UNL     1     -35.745  13.976  -4.147  1.00 20.00     0.010 C 
ENDBRANCH   1   7
TORSDOF 4
ENDMDL
MODEL 6
REMARK VINA RESULT:      -3.9     11.455     12.449
REMARK  4 active torsions:
REMARK  status: ('A' for Active; 'I' for Inactive)
REMARK    1  A    between atoms: C4_4  and  C5_5 
REMARK    2  A    between atoms: C5_5  and  C8_8 
REMARK    3  A    between atoms: C6_6  and  C8_8 
REMARK    4  A    between atoms: C7_7  and  C8_8 
ROOT
HETATM    1  C8  UNL     1     -34.248  15.016  -3.071  1.00 20.00     0.003 C 
ENDROOT
BRANCH   1   2
HETATM    2  C5  UNL     1     -33.163  15.558  -4.041  1.00 20.00     0.005 C 
BRANCH   2   3
HETATM    3  C4  UNL     1     -33.466  16.899  -4.722  1.00 20.00    -0.004 C 
HETATM    4  C1  UNL     1     -34.044  16.752  -6.121  1.00 20.00     0.005 C 
ENDBRANCH   2   3
ENDBRANCH   1   2
BRANCH   1   5
HETATM    5  C6  UNL     1     -35.066  16.183  -2.477  1.00 20.00     0.119 C 
HETATM    6 CL9  UNL     1     -34.612  16.536  -0.786  1.00 20.00    -0.130 Cl
ENDBRANCH   1   5
BRANCH   1   7
HETATM    7  C7  UNL     1     -35.170  13.942  -3.728  1.00 20.00    -0.018 C 
HETATM    8  C2  UNL     1     -34.494  13.250  -4.918  1.00 20.00     0.010 C 
HETATM    9  C3  UNL     1     -36.538  14.481  -4.157  1.00 20.00     0.010 C 
ENDBRANCH   1   7
TORSDOF 4
ENDMDL
MODEL 7
REMARK VINA RESULT:      -3.9      1.023      3.716
REMARK  4 active torsions:
REMARK  status: ('A' for Active; 'I' for Inactive)
REMARK    1  A    between atoms: C4_4  and  C5_5 
REMARK    2  A    between atoms: C5_5  and  C8_8 
REMARK    3  A    between atoms: C6_6  and  C8_8 
REMARK    4  A    between atoms: C7_7  and  C8_8 
ROOT
HETATM    1  C8  UNL     1     -33.075   6.059   3.883  1.00 20.00     0.003 C 
ENDROOT
BRANCH   1   2
HETATM    2  C5  UNL     1     -33.904   6.771   4.986  1.00 20.00     0.005 C 
BRANCH   2   3
HETATM    3  C4  UNL     1     -34.023   6.040   6.328  1.00 20.00    -0.004 C 
HETATM    4  C1  UNL     1     -34.769   4.718   6.235  1.00 20.00     0.005 C 
ENDBRANCH   2   3
ENDBRANCH   1   2
BRANCH   1   5
HETATM    5  C6  UNL     1     -34.010   5.486   2.796  1.00 20.00     0.119 C 
HETATM    6 CL9  UNL     1     -35.733   5.780   3.163  1.00 20.00    -0.130 Cl
ENDBRANCH   1   5
BRANCH   1   7
HETATM    7  C7  UNL     1     -31.967   6.971   3.268  1.00 20.00    -0.018 C 
HETATM    8  C2  UNL     1     -31.241   7.797   4.337  1.00 20.00     0.010 C 
HETATM    9  C3  UNL     1     -32.475   7.897   2.160  1.00 20.00     0.010 C 
ENDBRANCH   1   7
TORSDOF 4
ENDMDL
MODEL 8
REMARK VINA RESULT:      -3.8     11.146     13.281
REMARK  4 active torsions:
REMARK  status: ('A' for Active; 'I' for Inactive)
REMARK    1  A    between atoms: C4_4  and  C5_5 
REMARK    2  A    between atoms: C5_5  and  C8_8 
REMARK    3  A    between atoms: C6_6  and  C8_8 
REMARK    4  A    between atoms: C7_7  and  C8_8 
ROOT
HETATM    1  C8  UNL     1     -33.799  16.148  -3.940  1.00 20.00     0.003 C 
ENDROOT
BRANCH   1   2
HETATM    2  C5  UNL     1     -32.853  14.954  -3.636  1.00 20.00     0.005 C 
BRANCH   2   3
HETATM    3  C4  UNL     1     -33.456  13.552  -3.788  1.00 20.00    -0.004 C 
HETATM    4  C1  UNL     1     -34.942  13.561  -4.107  1.00 20.00     0.005 C 
ENDBRANCH   2   3
ENDBRANCH   1   2
BRANCH   1   5
HETATM    5  C6  UNL     1     -33.870  17.097  -2.724  1.00 20.00     0.119 C 
HETATM    6 CL9  UNL     1     -34.607  16.315  -1.297  1.00 20.00    -0.130 Cl
ENDBRANCH   1   5
BRANCH   1   7
HETATM    7  C7  UNL     1     -33.416  16.912  -5.246  1.00 20.00    -0.018 C 
HETATM    8  C2  UNL     1     -33.562  18.431  -5.090  1.00 20.00     0.010 C 
HETATM    9  C3  UNL     1     -34.188  16.446  -6.483  1.00 20.00     0.010 C 
ENDBRANCH   1   7
TORSDOF 4
ENDMDL
MODEL 9
REMARK VINA RESULT:      -3.8     11.423     12.413
REMARK  4 active torsions:
REMARK  status: ('A' for Active; 'I' for Inactive)
REMARK    1  A    between atoms: C4_4  and  C5_5 
REMARK    2  A    between atoms: C5_5  and  C8_8 
REMARK    3  A    between atoms: C6_6  and  C8_8 
REMARK    4  A    between atoms: C7_7  and  C8_8 
ROOT
HETATM    1  C8  UNL     1     -35.043  15.363  -3.329  1.00 20.00     0.003 C 
ENDROOT
BRANCH   1   2
HETATM    2  C5  UNL     1     -34.044  15.946  -2.293  1.00 20.00     0.005 C 
BRANCH   2   3
HETATM    3  C4  UNL     1     -34.655  16.555  -1.026  1.00 20.00    -0.004 C 
HETATM    4  C1  UNL     1     -33.874  17.744  -0.486  1.00 20.00     0.005 C 
ENDBRANCH   2   3
ENDBRANCH   1   2
BRANCH   1   5
HETATM    5  C6  UNL     1     -35.267  16.369  -4.480  1.00 20.00     0.119 C 
HETATM    6 CL9  UNL     1     -33.763  17.210  -4.946  1.00 20.00    -0.130 Cl
ENDBRANCH   1   5
BRANCH   1   7
HETATM    7  C7  UNL     1     -34.617  13.960  -3.865  1.00 20.00    -0.018 C 
HETATM    8  C2  UNL     1     -33.122  13.690  -3.651  1.00 20.00     0.010 C 
HETATM    9  C3  UNL     1     -34.976  13.725  -5.335  1.00 20.00     0.010 C 
ENDBRANCH   1   7
TORSDOF 4
ENDMDL
