MODEL 1
REMARK VINA RESULT:      -4.4      0.000      0.000
REMARK  4 active torsions:
REMARK  status: ('A' for Active; 'I' for Inactive)
REMARK    1  A    between atoms: C6_6  and  C8_8 
REMARK    2  A    between atoms: C6_6  and  C9_9 
REMARK    3  A    between atoms: C7_7  and  O11_11 
REMARK    4  A    between atoms: C9_9  and  O11_11 
ROOT
HETATM    1  C1  UNL     1     -34.702  13.772  -4.059  1.00 20.00     0.097 C 
HETATM    2  C5  UNL     1     -32.696  15.128  -3.637  1.00 20.00     0.062 C 
HETATM    3  C9  UNL     1     -34.230  15.108  -3.651  1.00 20.00     0.145 C 
HETATM    4  N10 UNL     1     -35.073  12.722  -4.383  1.00 20.00    -0.194 NA
ENDROOT
BRANCH   3   5
HETATM    5  C6  UNL     1     -34.750  16.210  -4.600  1.00 20.00     0.057 C 
BRANCH   5   6
HETATM    6  C8  UNL     1     -33.831  16.632  -5.773  1.00 20.00    -0.019 C 
HETATM    7  C3  UNL     1     -34.365  16.026  -7.076  1.00 20.00     0.009 C 
HETATM    8  C4  UNL     1     -33.699  18.145  -5.936  1.00 20.00     0.009 C 
ENDBRANCH   5   6
ENDBRANCH   3   5
BRANCH   3   9
HETATM    9  O11 UNL     1     -34.667  15.390  -2.321  1.00 20.00    -0.366 OA
BRANCH   9  10
HETATM   10  C7  UNL     1     -34.097  16.596  -1.837  1.00 20.00     0.165 C 
HETATM   11  C2  UNL     1     -34.670  16.897  -0.469  1.00 20.00     0.033 C 
ENDBRANCH   9  10
ENDBRANCH   3   9
TORSDOF 4
ENDMDL
MODEL 2
REMARK VINA RESULT:      -4.2      1.394      3.665
REMARK  4 active torsions:
REMARK  status: ('A' for Active; 'I' for Inactive)
REMARK    1  A    between atoms: C6_6  and  C8_8 
REMARK    2  A    between atoms: C6_6  and  C9_9 
REMARK    3  A    between atoms: C7_7  and  O11_11 
REMARK    4  A    between atoms: C9_9  and  O11_11 
ROOT
HETATM    1  C1  UNL     1     -35.078  13.784  -4.245  1.00 20.00     0.097 C 
HETATM    2  C5  UNL     1     -36.815  15.255  -3.317  1.00 20.00     0.062 C 
HETATM    3  C9  UNL     1     -35.369  15.166  -3.822  1.00 20.00     0.145 C 
HETATM    4  N10 UNL     1     -34.850  12.696  -4.577  1.00 20.00    -0.194 NA
ENDROOT
BRANCH   3   5
HETATM    5  C6  UNL     1     -34.405  15.635  -2.709  1.00 20.00     0.057 C 
BRANCH   5   6
HETATM    6  C8  UNL     1     -34.743  16.963  -1.987  1.00 20.00    -0.019 C 
HETATM    7  C3  UNL     1     -34.720  16.735  -0.471  1.00 20.00     0.009 C 
HETATM    8  C4  UNL     1     -33.798  18.111  -2.340  1.00 20.00     0.009 C 
ENDBRANCH   5   6
ENDBRANCH   3   5
BRANCH   3   9
HETATM    9  O11 UNL     1     -35.257  16.048  -4.939  1.00 20.00    -0.366 OA
BRANCH   9  10
HETATM   10  C7  UNL     1     -33.934  16.067  -5.450  1.00 20.00     0.165 C 
HETATM   11  C2  UNL     1     -33.623  17.458  -5.962  1.00 20.00     0.033 C 
ENDBRANCH   9  10
ENDBRANCH   3   9
TORSDOF 4
ENDMDL
MODEL 3
REMARK VINA RESULT:      -4.1      1.691      1.861
REMARK  4 active torsions:
REMARK  status: ('A' for Active; 'I' for Inactive)
REMARK    1  A    between atoms: C6_6  and  C8_8 
REMARK    2  A    between atoms: C6_6  and  C9_9 
REMARK    3  A    between atoms: C7_7  and  O11_11 
REMARK    4  A    between atoms: C9_9  and  O11_11 
ROOT
HETATM    1  C1  UNL     1     -37.380  14.739  -3.821  1.00 20.00     0.097 C 
HETATM    2  C5  UNL     1     -34.995  14.169  -3.660  1.00 20.00     0.062 C 
HETATM    3  C9  UNL     1     -36.017  15.301  -3.827  1.00 20.00     0.145 C 
HETATM    4  N10 UNL     1     -38.452  14.297  -3.819  1.00 20.00    -0.194 NA
ENDROOT
BRANCH   3   5
HETATM    5  C6  UNL     1     -35.724  16.070  -5.134  1.00 20.00     0.057 C 
BRANCH   5   6
HETATM    6  C8  UNL     1     -34.292  15.965  -5.716  1.00 20.00    -0.019 C 
HETATM    7  C3  UNL     1     -34.377  15.703  -7.224  1.00 20.00     0.009 C 
HETATM    8  C4  UNL     1     -33.435  17.206  -5.466  1.00 20.00     0.009 C 
ENDBRANCH   5   6
ENDBRANCH   3   5
BRANCH   3   9
HETATM    9  O11 UNL     1     -35.852  16.185  -2.718  1.00 20.00    -0.366 OA
BRANCH   9  10
HETATM   10  C7  UNL     1     -34.612  15.966  -2.065  1.00 20.00     0.165 C 
HETATM   11  C2  UNL     1     -34.611  16.710  -0.746  1.00 20.00     0.033 C 
ENDBRANCH   9  10
ENDBRANCH   3   9
TORSDOF 4
ENDMDL
MODEL 4
REMARK VINA RESULT:      -4.0      2.668      3.502
REMARK  4 active torsions:
REMARK  status: ('A' for Active; 'I' for Inactive)
REMARK    1  A    between atoms: C6_6  and  C8_8 
REMARK    2  A    between atoms: C6_6  and  C9_9 
REMARK    3  A    between atoms: C7_7  and  O11_11 
REMARK    4  A    between atoms: C9_9  and  O11_11 
ROOT
HETATM    1  C1  UNL     1     -35.195  13.500  -4.372  1.00 20.00     0.097 C 
HETATM    2  C5  UNL     1     -35.722  15.467  -2.996  1.00 20.00     0.062 C 
HETATM    3  C9  UNL     1     -36.155  14.603  -4.188  1.00 20.00     0.145 C 
HETATM    4  N10 UNL     1     -34.439  12.633  -4.518  1.00 20.00    -0.194 NA
ENDROOT
BRANCH   3   5
HETATM    5  C6  UNL     1     -36.257  15.486  -5.452  1.00 20.00     0.057 C 
BRANCH   5   6
HETATM    6  C8  UNL     1     -36.066  14.791  -6.823  1.00 20.00    -0.019 C 
HETATM    7  C3  UNL     1     -37.291  15.064  -7.703  1.00 20.00     0.009 C 
HETATM    8  C4  UNL     1     -34.803  15.229  -7.563  1.00 20.00     0.009 C 
ENDBRANCH   5   6
ENDBRANCH   3   5
BRANCH   3   9
HETATM    9  O11 UNL     1     -37.446  14.077  -3.880  1.00 20.00    -0.366 OA
BRANCH   9  10
HETATM   10  C7  UNL     1     -38.438  15.090  -3.917  1.00 20.00     0.165 C 
HETATM   11  C2  UNL     1     -39.691  14.529  -4.555  1.00 20.00     0.033 C 
ENDBRANCH   9  10
ENDBRANCH   3   9
TORSDOF 4
ENDMDL
MODEL 5
REMARK VINA RESULT:      -4.0      1.798      3.708
REMARK  4 active torsions:
REMARK  status: ('A' for Active; 'I' for Inactive)
REMARK    1  A    between atoms: C6_6  and  C8_8 
REMARK    2  A    between atoms: C6_6  and  C9_9 
REMARK    3  A    between atoms: C7_7  and  O11_11 
REMARK    4  A    between atoms: C9_9  and  O11_11 
ROOT
HETATM    1  C1  UNL     1     -37.138  14.827  -3.648  1.00 20.00     0.097 C 
HETATM    2  C5  UNL     1     -35.409  16.010  -4.933  1.00 20.00     0.062 C 
HETATM    3  C9  UNL     1     -35.813  15.467  -3.556  1.00 20.00     0.145 C 
HETATM    4  N10 UNL     1     -38.182  14.326  -3.720  1.00 20.00    -0.194 NA
ENDROOT
BRANCH   3   5
HETATM    5  C6  UNL     1     -35.808  16.619  -2.527  1.00 20.00     0.057 C 
BRANCH   5   6
HETATM    6  C8  UNL     1     -34.531  16.802  -1.670  1.00 20.00    -0.019 C 
HETATM    7  C3  UNL     1     -33.722  17.985  -2.214  1.00 20.00     0.009 C 
HETATM    8  C4  UNL     1     -34.815  17.025  -0.185  1.00 20.00     0.009 C 
ENDBRANCH   5   6
ENDBRANCH   3   5
BRANCH   3   9
HETATM    9  O11 UNL     1     -34.833  14.500  -3.180  1.00 20.00    -0.366 OA
BRANCH   9  10
HETATM   10  C7  UNL     1     -33.842  14.353  -4.185  1.00 20.00     0.165 C 
HETATM   11  C2  UNL     1     -32.473  14.440  -3.544  1.00 20.00     0.033 C 
ENDBRANCH   9  10
ENDBRANCH   3   9
TORSDOF 4
ENDMDL
MODEL 6
REMARK VINA RESULT:      -4.0      1.648      2.371
REMARK  4 active torsions:
REMARK  status: ('A' for Active; 'I' for Inactive)
REMARK    1  A    between atoms: C6_6  and  C8_8 
REMARK    2  A    between atoms: C6_6  and  C9_9 
REMARK    3  A    between atoms: C7_7  and  O11_11 
REMARK    4  A    between atoms: C9_9  and  O11_11 
ROOT
HETATM    1  C1  UNL     1     -33.703  14.313  -3.780  1.00 20.00     0.097 C 
HETATM    2  C5  UNL     1     -33.212  16.453  -4.885  1.00 20.00     0.062 C 
HETATM    3  C9  UNL     1     -34.021  15.753  -3.786  1.00 20.00     0.145 C 
HETATM    4  N10 UNL     1     -33.454  13.180  -3.776  1.00 20.00    -0.194 NA
ENDROOT
BRANCH   3   5
HETATM    5  C6  UNL     1     -35.528  16.001  -4.020  1.00 20.00     0.057 C 
BRANCH   5   6
HETATM    6  C8  UNL     1     -36.331  14.885  -4.733  1.00 20.00    -0.019 C 
HETATM    7  C3  UNL     1     -37.693  14.725  -4.047  1.00 20.00     0.009 C 
HETATM    8  C4  UNL     1     -36.543  15.138  -6.225  1.00 20.00     0.009 C 
ENDBRANCH   5   6
ENDBRANCH   3   5
BRANCH   3   9
HETATM    9  O11 UNL     1     -33.639  16.339  -2.542  1.00 20.00    -0.366 OA
BRANCH   9  10
HETATM   10  C7  UNL     1     -34.671  16.218  -1.576  1.00 20.00     0.165 C 
HETATM   11  C2  UNL     1     -34.408  17.193  -0.448  1.00 20.00     0.033 C 
ENDBRANCH   9  10
ENDBRANCH   3   9
TORSDOF 4
ENDMDL
MODEL 7
REMARK VINA RESULT:      -4.0      2.713      3.969
REMARK  4 active torsions:
REMARK  status: ('A' for Active; 'I' for Inactive)
REMARK    1  A    between atoms: C6_6  and  C8_8 
REMARK    2  A    between atoms: C6_6  and  C9_9 
REMARK    3  A    between atoms: C7_7  and  O11_11 
REMARK    4  A    between atoms: C9_9  and  O11_11 
ROOT
HETATM    1  C1  UNL     1     -36.123  15.087  -5.548  1.00 20.00     0.097 C 
HETATM    2  C5  UNL     1     -35.060  13.588  -3.916  1.00 20.00     0.062 C 
HETATM    3  C9  UNL     1     -36.157  14.636  -4.145  1.00 20.00     0.145 C 
HETATM    4  N10 UNL     1     -36.095  15.442  -6.653  1.00 20.00    -0.194 NA
ENDROOT
BRANCH   3   5
HETATM    5  C6  UNL     1     -35.955  15.814  -3.165  1.00 20.00     0.057 C 
BRANCH   5   6
HETATM    6  C8  UNL     1     -34.564  15.956  -2.499  1.00 20.00    -0.019 C 
HETATM    7  C3  UNL     1     -33.693  16.894  -3.342  1.00 20.00     0.009 C 
HETATM    8  C4  UNL     1     -34.621  16.474  -1.062  1.00 20.00     0.009 C 
ENDBRANCH   5   6
ENDBRANCH   3   5
BRANCH   3   9
HETATM    9  O11 UNL     1     -37.407  14.006  -3.868  1.00 20.00    -0.366 OA
BRANCH   9  10
HETATM   10  C7  UNL     1     -38.442  14.963  -3.707  1.00 20.00     0.165 C 
HETATM   11  C2  UNL     1     -39.635  14.544  -4.539  1.00 20.00     0.033 C 
ENDBRANCH   9  10
ENDBRANCH   3   9
TORSDOF 4
ENDMDL
MODEL 8
REMARK VINA RESULT:      -3.9      1.955      4.153
REMARK  4 active torsions:
REMARK  status: ('A' for Active; 'I' for Inactive)
REMARK    1  A    between atoms: C6_6  and  C8_8 
REMARK    2  A    between atoms: C6_6  and  C9_9 
REMARK    3  A    between atoms: C7_7  and  O11_11 
REMARK    4  A    between atoms: C9_9  and  O11_11 
ROOT
HETATM    1  C1  UNL     1     -35.488  13.811  -4.219  1.00 20.00     0.097 C 
HETATM    2  C5  UNL     1     -37.765  14.717  -4.400  1.00 20.00     0.062 C 
HETATM    3  C9  UNL     1     -36.270  15.055  -4.329  1.00 20.00     0.145 C 
HETATM    4  N10 UNL     1     -34.873  12.831  -4.130  1.00 20.00    -0.194 NA
ENDROOT
BRANCH   3   5
HETATM    5  C6  UNL     1     -36.013  15.997  -3.131  1.00 20.00     0.057 C 
BRANCH   5   6
HETATM    6  C8  UNL     1     -34.626  15.916  -2.447  1.00 20.00    -0.019 C 
HETATM    7  C3  UNL     1     -33.601  16.685  -3.289  1.00 20.00     0.009 C 
HETATM    8  C4  UNL     1     -34.614  16.457  -1.018  1.00 20.00     0.009 C 
ENDBRANCH   5   6
ENDBRANCH   3   5
BRANCH   3   9
HETATM    9  O11 UNL     1     -35.933  15.734  -5.539  1.00 20.00    -0.366 OA
BRANCH   9  10
HETATM   10  C7  UNL     1     -36.328  14.984  -6.677  1.00 20.00     0.165 C 
HETATM   11  C2  UNL     1     -35.158  14.886  -7.633  1.00 20.00     0.033 C 
ENDBRANCH   9  10
ENDBRANCH   3   9
TORSDOF 4
ENDMDL
MODEL 9
REMARK VINA RESULT:      -3.8      2.166      4.290
REMARK  4 active torsions:
REMARK  status: ('A' for Active; 'I' for Inactive)
REMARK    1  A    between atoms: C6_6  and  C8_8 
REMARK    2  A    between atoms: C6_6  and  C9_9 
REMARK    3  A    between atoms: C7_7  and  O11_11 
REMARK    4  A    between atoms: C9_9  and  O11_11 
ROOT
HETATM    1  C1  UNL     1     -33.793  15.955  -4.559  1.00 20.00     0.097 C 
HETATM    2  C5  UNL     1     -34.168  13.683  -3.699  1.00 20.00     0.062 C 
HETATM    3  C9  UNL     1     -34.828  15.005  -4.111  1.00 20.00     0.145 C 
HETATM    4  N10 UNL     1     -32.978  16.703  -4.909  1.00 20.00    -0.194 NA
ENDROOT
BRANCH   3   5
HETATM    5  C6  UNL     1     -35.640  15.567  -2.922  1.00 20.00     0.057 C 
BRANCH   5   6
HETATM    6  C8  UNL     1     -35.109  16.853  -2.242  1.00 20.00    -0.019 C 
HETATM    7  C3  UNL     1     -36.206  17.923  -2.259  1.00 20.00     0.009 C 
HETATM    8  C4  UNL     1     -34.635  16.637  -0.805  1.00 20.00     0.009 C 
ENDBRANCH   5   6
ENDBRANCH   3   5
BRANCH   3   9
HETATM    9  O11 UNL     1     -35.718  14.715  -5.189  1.00 20.00    -0.366 OA
BRANCH   9  10
HETATM   10  C7  UNL     1     -35.060  13.993  -6.219  1.00 20.00     0.165 C 
HETATM   11  C2  UNL     1     -35.535  14.507  -7.561  1.00 20.00     0.033 C 
ENDBRANCH   9  10
ENDBRANCH   3   9
TORSDOF 4
ENDMDL
