MODEL 1
REMARK VINA RESULT:      -5.2      0.000      0.000
REMARK  5 active torsions:
REMARK  status: ('A' for Active; 'I' for Inactive)
REMARK    1  A    between atoms: C2_2  and  C4_4 
REMARK    2  A    between atoms: C2_2  and  C5_5 
REMARK    3  A    between atoms: C5_5  and  C6_6 
REMARK    4  A    between atoms: C6_6  and  C7_7 
REMARK    5  A    between atoms: C7_7  and  C8_8 
ROOT
HETATM    1  C5  UNL     1     -33.951   6.478   4.133  1.00 20.00     0.033 C 
ENDROOT
BRANCH   1   2
HETATM    2  C2  UNL     1     -34.023   6.187   5.616  1.00 20.00    -0.090 C 
HETATM    3  C1  UNL     1     -33.582   7.083   6.514  1.00 20.00     0.014 C 
BRANCH   2   4
HETATM    4  C4  UNL     1     -34.600   4.863   6.064  1.00 20.00     0.029 C 
HETATM    5  C3  UNL     1     -35.209   4.062   4.922  1.00 20.00     0.010 C 
ENDBRANCH   2   4
ENDBRANCH   1   2
BRANCH   1   6
HETATM    6  C6  UNL     1     -32.544   6.283   3.555  1.00 20.00     0.005 C 
BRANCH   6   7
HETATM    7  C7  UNL     1     -31.865   7.628   3.287  1.00 20.00     0.015 C 
BRANCH   7   8
HETATM    8  C8  UNL     1     -32.022   8.038   1.828  1.00 20.00     0.114 C 
HETATM    9 CL9  UNL     1     -32.529   9.739   1.714  1.00 20.00    -0.130 Cl
ENDBRANCH   7   8
ENDBRANCH   6   7
ENDBRANCH   1   6
TORSDOF 5
ENDMDL
MODEL 2
REMARK VINA RESULT:      -5.2      0.916      2.122
REMARK  5 active torsions:
REMARK  status: ('A' for Active; 'I' for Inactive)
REMARK    1  A    between atoms: C2_2  and  C4_4 
REMARK    2  A    between atoms: C2_2  and  C5_5 
REMARK    3  A    between atoms: C5_5  and  C6_6 
REMARK    4  A    between atoms: C6_6  and  C7_7 
REMARK    5  A    between atoms: C7_7  and  C8_8 
ROOT
HETATM    1  C5  UNL     1     -34.500   6.160   4.002  1.00 20.00     0.033 C 
ENDROOT
BRANCH   1   2
HETATM    2  C2  UNL     1     -34.691   5.237   5.186  1.00 20.00    -0.090 C 
HETATM    3  C1  UNL     1     -35.069   3.961   5.008  1.00 20.00     0.014 C 
BRANCH   2   4
HETATM    4  C4  UNL     1     -34.448   5.785   6.574  1.00 20.00     0.029 C 
HETATM    5  C3  UNL     1     -33.645   7.078   6.572  1.00 20.00     0.010 C 
ENDBRANCH   2   4
ENDBRANCH   1   2
BRANCH   1   6
HETATM    6  C6  UNL     1     -33.586   5.566   2.925  1.00 20.00     0.005 C 
BRANCH   6   7
HETATM    7  C7  UNL     1     -32.150   6.074   3.075  1.00 20.00     0.015 C 
BRANCH   7   8
HETATM    8  C8  UNL     1     -32.115   7.594   3.173  1.00 20.00     0.114 C 
HETATM    9 CL9  UNL     1     -31.940   8.316   1.557  1.00 20.00    -0.130 Cl
ENDBRANCH   7   8
ENDBRANCH   6   7
ENDBRANCH   1   6
TORSDOF 5
ENDMDL
MODEL 3
REMARK VINA RESULT:      -5.0      2.237      4.692
REMARK  5 active torsions:
REMARK  status: ('A' for Active; 'I' for Inactive)
REMARK    1  A    between atoms: C2_2  and  C4_4 
REMARK    2  A    between atoms: C2_2  and  C5_5 
REMARK    3  A    between atoms: C5_5  and  C6_6 
REMARK    4  A    between atoms: C6_6  and  C7_7 
REMARK    5  A    between atoms: C7_7  and  C8_8 
ROOT
HETATM    1  C5  UNL     1     -33.020   6.141   3.021  1.00 20.00     0.033 C 
ENDROOT
BRANCH   1   2
HETATM    2  C2  UNL     1     -32.098   7.339   2.937  1.00 20.00    -0.090 C 
HETATM    3  C1  UNL     1     -31.391   7.737   4.007  1.00 20.00     0.014 C 
BRANCH   2   4
HETATM    4  C4  UNL     1     -31.995   8.078   1.623  1.00 20.00     0.029 C 
HETATM    5  C3  UNL     1     -32.501   9.511   1.703  1.00 20.00     0.010 C 
ENDBRANCH   2   4
ENDBRANCH   1   2
BRANCH   1   6
HETATM    6  C6  UNL     1     -34.265   6.407   3.874  1.00 20.00     0.005 C 
BRANCH   6   7
HETATM    7  C7  UNL     1     -34.819   5.108   4.464  1.00 20.00     0.015 C 
BRANCH   7   8
HETATM    8  C8  UNL     1     -34.730   5.116   5.985  1.00 20.00     0.114 C 
HETATM    9 CL9  UNL     1     -33.995   6.631   6.555  1.00 20.00    -0.130 Cl
ENDBRANCH   7   8
ENDBRANCH   6   7
ENDBRANCH   1   6
TORSDOF 5
ENDMDL
MODEL 4
REMARK VINA RESULT:      -4.2      2.473      4.765
REMARK  5 active torsions:
REMARK  status: ('A' for Active; 'I' for Inactive)
REMARK    1  A    between atoms: C2_2  and  C4_4 
REMARK    2  A    between atoms: C2_2  and  C5_5 
REMARK    3  A    between atoms: C5_5  and  C6_6 
REMARK    4  A    between atoms: C6_6  and  C7_7 
REMARK    5  A    between atoms: C7_7  and  C8_8 
ROOT
HETATM    1  C5  UNL     1     -33.862   6.817   4.222  1.00 20.00     0.033 C 
ENDROOT
BRANCH   1   2
HETATM    2  C2  UNL     1     -32.625   6.629   3.371  1.00 20.00    -0.090 C 
HETATM    3  C1  UNL     1     -32.288   5.415   2.906  1.00 20.00     0.014 C 
BRANCH   2   4
HETATM    4  C4  UNL     1     -31.776   7.840   3.056  1.00 20.00     0.029 C 
HETATM    5  C3  UNL     1     -32.099   8.459   1.704  1.00 20.00     0.010 C 
ENDBRANCH   2   4
ENDBRANCH   1   2
BRANCH   1   6
HETATM    6  C6  UNL     1     -33.574   6.702   5.723  1.00 20.00     0.005 C 
BRANCH   6   7
HETATM    7  C7  UNL     1     -34.588   5.787   6.413  1.00 20.00     0.015 C 
BRANCH   7   8
HETATM    8  C8  UNL     1     -34.327   4.325   6.072  1.00 20.00     0.114 C 
HETATM    9 CL9  UNL     1     -35.257   3.848   4.633  1.00 20.00    -0.130 Cl
ENDBRANCH   7   8
ENDBRANCH   6   7
ENDBRANCH   1   6
TORSDOF 5
ENDMDL
MODEL 5
REMARK VINA RESULT:      -3.9      2.671      5.193
REMARK  5 active torsions:
REMARK  status: ('A' for Active; 'I' for Inactive)
REMARK    1  A    between atoms: C2_2  and  C4_4 
REMARK    2  A    between atoms: C2_2  and  C5_5 
REMARK    3  A    between atoms: C5_5  and  C6_6 
REMARK    4  A    between atoms: C6_6  and  C7_7 
REMARK    5  A    between atoms: C7_7  and  C8_8 
ROOT
HETATM    1  C5  UNL     1     -31.874   7.784   3.042  1.00 20.00     0.033 C 
ENDROOT
BRANCH   1   2
HETATM    2  C2  UNL     1     -32.128   8.745   1.901  1.00 20.00    -0.090 C 
HETATM    3  C1  UNL     1     -32.754   9.914   2.115  1.00 20.00     0.014 C 
BRANCH   2   4
HETATM    4  C4  UNL     1     -31.664   8.359   0.515  1.00 20.00     0.029 C 
HETATM    5  C3  UNL     1     -32.671   8.712  -0.570  1.00 20.00     0.010 C 
ENDBRANCH   2   4
ENDBRANCH   1   2
BRANCH   1   6
HETATM    6  C6  UNL     1     -32.764   6.538   2.980  1.00 20.00     0.005 C 
BRANCH   6   7
HETATM    7  C7  UNL     1     -33.465   6.292   4.318  1.00 20.00     0.015 C 
BRANCH   7   8
HETATM    8  C8  UNL     1     -34.697   5.415   4.137  1.00 20.00     0.114 C 
HETATM    9 CL9  UNL     1     -35.147   4.652   5.679  1.00 20.00    -0.130 Cl
ENDBRANCH   7   8
ENDBRANCH   6   7
ENDBRANCH   1   6
TORSDOF 5
ENDMDL
MODEL 6
REMARK VINA RESULT:      -3.9     11.157     12.208
REMARK  5 active torsions:
REMARK  status: ('A' for Active; 'I' for Inactive)
REMARK    1  A    between atoms: C2_2  and  C4_4 
REMARK    2  A    between atoms: C2_2  and  C5_5 
REMARK    3  A    between atoms: C5_5  and  C6_6 
REMARK    4  A    between atoms: C6_6  and  C7_7 
REMARK    5  A    between atoms: C7_7  and  C8_8 
ROOT
HETATM    1  C5  UNL     1     -33.308  15.004  -3.575  1.00 20.00     0.033 C 
ENDROOT
BRANCH   1   2
HETATM    2  C2  UNL     1     -33.922  16.253  -2.981  1.00 20.00    -0.090 C 
HETATM    3  C1  UNL     1     -33.760  17.447  -3.574  1.00 20.00     0.014 C 
BRANCH   2   4
HETATM    4  C4  UNL     1     -34.721  16.126  -1.704  1.00 20.00     0.029 C 
HETATM    5  C3  UNL     1     -34.306  17.132  -0.640  1.00 20.00     0.010 C 
ENDBRANCH   2   4
ENDBRANCH   1   2
BRANCH   1   6
HETATM    6  C6  UNL     1     -34.265  13.807  -3.565  1.00 20.00     0.005 C 
BRANCH   6   7
HETATM    7  C7  UNL     1     -34.526  13.294  -4.984  1.00 20.00     0.015 C 
BRANCH   7   8
HETATM    8  C8  UNL     1     -35.309  14.315  -5.799  1.00 20.00     0.114 C 
HETATM    9 CL9  UNL     1     -34.301  14.969  -7.109  1.00 20.00    -0.130 Cl
ENDBRANCH   7   8
ENDBRANCH   6   7
ENDBRANCH   1   6
TORSDOF 5
ENDMDL
MODEL 7
REMARK VINA RESULT:      -3.9     11.143     11.983
REMARK  5 active torsions:
REMARK  status: ('A' for Active; 'I' for Inactive)
REMARK    1  A    between atoms: C2_2  and  C4_4 
REMARK    2  A    between atoms: C2_2  and  C5_5 
REMARK    3  A    between atoms: C5_5  and  C6_6 
REMARK    4  A    between atoms: C6_6  and  C7_7 
REMARK    5  A    between atoms: C7_7  and  C8_8 
ROOT
HETATM    1  C5  UNL     1     -34.638  15.725  -2.385  1.00 20.00     0.033 C 
ENDROOT
BRANCH   1   2
HETATM    2  C2  UNL     1     -33.776  15.304  -3.555  1.00 20.00    -0.090 C 
HETATM    3  C1  UNL     1     -33.199  16.222  -4.348  1.00 20.00     0.014 C 
BRANCH   2   4
HETATM    4  C4  UNL     1     -33.580  13.828  -3.811  1.00 20.00     0.029 C 
HETATM    5  C3  UNL     1     -34.661  13.228  -4.699  1.00 20.00     0.010 C 
ENDBRANCH   2   4
ENDBRANCH   1   2
BRANCH   1   6
HETATM    6  C6  UNL     1     -34.019  16.865  -1.568  1.00 20.00     0.005 C 
BRANCH   6   7
HETATM    7  C7  UNL     1     -34.751  17.053  -0.237  1.00 20.00     0.015 C 
BRANCH   7   8
HETATM    8  C8  UNL     1     -34.085  18.134   0.604  1.00 20.00     0.114 C 
HETATM    9 CL9  UNL     1     -32.512  18.582  -0.092  1.00 20.00    -0.130 Cl
ENDBRANCH   7   8
ENDBRANCH   6   7
ENDBRANCH   1   6
TORSDOF 5
ENDMDL
MODEL 8
REMARK VINA RESULT:      -3.8     11.324     12.065
REMARK  5 active torsions:
REMARK  status: ('A' for Active; 'I' for Inactive)
REMARK    1  A    between atoms: C2_2  and  C4_4 
REMARK    2  A    between atoms: C2_2  and  C5_5 
REMARK    3  A    between atoms: C5_5  and  C6_6 
REMARK    4  A    between atoms: C6_6  and  C7_7 
REMARK    5  A    between atoms: C7_7  and  C8_8 
ROOT
HETATM    1  C5  UNL     1     -34.691  16.670  -0.826  1.00 20.00     0.033 C 
ENDROOT
BRANCH   1   2
HETATM    2  C2  UNL     1     -34.083  17.792  -0.012  1.00 20.00    -0.090 C 
HETATM    3  C1  UNL     1     -34.524  18.057   1.228  1.00 20.00     0.014 C 
BRANCH   2   4
HETATM    4  C4  UNL     1     -32.970  18.607  -0.628  1.00 20.00     0.029 C 
HETATM    5  C3  UNL     1     -31.921  19.045   0.384  1.00 20.00     0.010 C 
ENDBRANCH   2   4
ENDBRANCH   1   2
BRANCH   1   6
HETATM    6  C6  UNL     1     -33.949  16.420  -2.143  1.00 20.00     0.005 C 
BRANCH   6   7
HETATM    7  C7  UNL     1     -34.565  15.248  -2.911  1.00 20.00     0.015 C 
BRANCH   7   8
HETATM    8  C8  UNL     1     -33.514  14.533  -3.752  1.00 20.00     0.114 C 
HETATM    9 CL9  UNL     1     -34.266  13.245  -4.720  1.00 20.00    -0.130 Cl
ENDBRANCH   7   8
ENDBRANCH   6   7
ENDBRANCH   1   6
TORSDOF 5
ENDMDL
MODEL 9
REMARK VINA RESULT:      -3.8     11.195     12.620
REMARK  5 active torsions:
REMARK  status: ('A' for Active; 'I' for Inactive)
REMARK    1  A    between atoms: C2_2  and  C4_4 
REMARK    2  A    between atoms: C2_2  and  C5_5 
REMARK    3  A    between atoms: C5_5  and  C6_6 
REMARK    4  A    between atoms: C6_6  and  C7_7 
REMARK    5  A    between atoms: C7_7  and  C8_8 
ROOT
HETATM    1  C5  UNL     1     -33.329  15.121  -3.489  1.00 20.00     0.033 C 
ENDROOT
BRANCH   1   2
HETATM    2  C2  UNL     1     -33.921  16.337  -2.811  1.00 20.00    -0.090 C 
HETATM    3  C1  UNL     1     -34.555  16.225  -1.632  1.00 20.00     0.014 C 
BRANCH   2   4
HETATM    4  C4  UNL     1     -33.786  17.680  -3.492  1.00 20.00     0.029 C 
HETATM    5  C3  UNL     1     -33.520  17.567  -4.986  1.00 20.00     0.010 C 
ENDBRANCH   2   4
ENDBRANCH   1   2
BRANCH   1   6
HETATM    6  C6  UNL     1     -34.285  13.924  -3.506  1.00 20.00     0.005 C 
BRANCH   6   7
HETATM    7  C7  UNL     1     -34.464  13.378  -4.925  1.00 20.00     0.015 C 
BRANCH   7   8
HETATM    8  C8  UNL     1     -35.297  14.329  -5.775  1.00 20.00     0.114 C 
HETATM    9 CL9  UNL     1     -34.373  14.859  -7.199  1.00 20.00    -0.130 Cl
ENDBRANCH   7   8
ENDBRANCH   6   7
ENDBRANCH   1   6
TORSDOF 5
ENDMDL
