MODEL 1
REMARK VINA RESULT:      -4.1      0.000      0.000
REMARK  3 active torsions:
REMARK  status: ('A' for Active; 'I' for Inactive)
REMARK    1  A    between atoms: C5_5  and  C6_6 
REMARK    2  A    between atoms: C5_5  and  C7_7 
REMARK    3  A    between atoms: C6_6  and  O9_9 
ROOT
HETATM    1  C1  UNL     1     -33.936  13.862  -4.039  1.00 20.00     0.091 C 
HETATM    2  C6  UNL     1     -33.326  15.054  -3.435  1.00 20.00     0.227 C 
HETATM    3  N8  UNL     1     -34.416  12.920  -4.514  1.00 20.00    -0.195 NA
ENDROOT
BRANCH   2   4
HETATM    4  C5  UNL     1     -34.364  15.974  -2.778  1.00 20.00     0.050 C 
BRANCH   4   5
HETATM    5  C7  UNL     1     -33.829  16.881  -1.652  1.00 20.00    -0.019 C 
HETATM    6  C2  UNL     1     -33.700  18.318  -2.163  1.00 20.00     0.009 C 
HETATM    7  C3  UNL     1     -34.720  16.855  -0.409  1.00 20.00     0.009 C 
ENDBRANCH   4   5
ENDBRANCH   2   4
BRANCH   2   8
HETATM    8  O9  UNL     1     -32.642  15.797  -4.446  1.00 20.00    -0.376 OA
HETATM    9  C4  UNL     1     -33.551  16.343  -5.388  1.00 20.00     0.203 C 
ENDBRANCH   2   8
TORSDOF 3
ENDMDL
MODEL 2
REMARK VINA RESULT:      -3.9      2.694      3.054
REMARK  3 active torsions:
REMARK  status: ('A' for Active; 'I' for Inactive)
REMARK    1  A    between atoms: C5_5  and  C6_6 
REMARK    2  A    between atoms: C5_5  and  C7_7 
REMARK    3  A    between atoms: C6_6  and  O9_9 
ROOT
HETATM    1  C1  UNL     1     -35.388  13.596  -4.256  1.00 20.00     0.091 C 
HETATM    2  C6  UNL     1     -36.415  14.639  -4.121  1.00 20.00     0.227 C 
HETATM    3  N8  UNL     1     -34.578  12.774  -4.365  1.00 20.00    -0.195 NA
ENDROOT
BRANCH   2   4
HETATM    4  C5  UNL     1     -36.136  15.586  -2.946  1.00 20.00     0.050 C 
BRANCH   4   5
HETATM    5  C7  UNL     1     -34.648  15.881  -2.670  1.00 20.00    -0.019 C 
HETATM    6  C2  UNL     1     -34.106  16.839  -3.735  1.00 20.00     0.009 C 
HETATM    7  C3  UNL     1     -34.420  16.475  -1.280  1.00 20.00     0.009 C 
ENDBRANCH   4   5
ENDBRANCH   2   4
BRANCH   2   8
HETATM    8  O9  UNL     1     -37.687  14.023  -3.911  1.00 20.00    -0.376 OA
HETATM    9  C4  UNL     1     -38.737  14.973  -3.986  1.00 20.00     0.203 C 
ENDBRANCH   2   8
TORSDOF 3
ENDMDL
MODEL 3
REMARK VINA RESULT:      -3.8      2.225      2.679
REMARK  3 active torsions:
REMARK  status: ('A' for Active; 'I' for Inactive)
REMARK    1  A    between atoms: C5_5  and  C6_6 
REMARK    2  A    between atoms: C5_5  and  C7_7 
REMARK    3  A    between atoms: C6_6  and  O9_9 
ROOT
HETATM    1  C1  UNL     1     -35.160  13.651  -4.308  1.00 20.00     0.091 C 
HETATM    2  C6  UNL     1     -35.590  14.924  -3.713  1.00 20.00     0.227 C 
HETATM    3  N8  UNL     1     -34.822  12.647  -4.779  1.00 20.00    -0.195 NA
ENDROOT
BRANCH   2   4
HETATM    4  C5  UNL     1     -34.683  15.364  -2.556  1.00 20.00     0.050 C 
BRANCH   4   5
HETATM    5  C7  UNL     1     -34.926  16.793  -2.029  1.00 20.00    -0.019 C 
HETATM    6  C2  UNL     1     -34.656  16.841  -0.523  1.00 20.00     0.009 C 
HETATM    7  C3  UNL     1     -34.059  17.832  -2.740  1.00 20.00     0.009 C 
ENDBRANCH   4   5
ENDBRANCH   2   4
BRANCH   2   8
HETATM    8  O9  UNL     1     -36.922  14.786  -3.215  1.00 20.00    -0.376 OA
HETATM    9  C4  UNL     1     -37.875  14.890  -4.259  1.00 20.00     0.203 C 
ENDBRANCH   2   8
TORSDOF 3
ENDMDL
MODEL 4
REMARK VINA RESULT:      -3.7      1.129      1.538
REMARK  3 active torsions:
REMARK  status: ('A' for Active; 'I' for Inactive)
REMARK    1  A    between atoms: C5_5  and  C6_6 
REMARK    2  A    between atoms: C5_5  and  C7_7 
REMARK    3  A    between atoms: C6_6  and  O9_9 
ROOT
HETATM    1  C1  UNL     1     -33.607  14.226  -3.798  1.00 20.00     0.091 C 
HETATM    2  C6  UNL     1     -33.157  15.600  -4.056  1.00 20.00     0.227 C 
HETATM    3  N8  UNL     1     -33.960  13.140  -3.594  1.00 20.00    -0.195 NA
ENDROOT
BRANCH   2   4
HETATM    4  C5  UNL     1     -33.561  16.569  -2.937  1.00 20.00     0.050 C 
BRANCH   4   5
HETATM    5  C7  UNL     1     -34.810  16.166  -2.129  1.00 20.00    -0.019 C 
HETATM    6  C2  UNL     1     -34.670  16.652  -0.684  1.00 20.00     0.009 C 
HETATM    7  C3  UNL     1     -36.100  16.720  -2.735  1.00 20.00     0.009 C 
ENDBRANCH   4   5
ENDBRANCH   2   4
BRANCH   2   8
HETATM    8  O9  UNL     1     -33.731  16.062  -5.281  1.00 20.00    -0.376 OA
HETATM    9  C4  UNL     1     -33.560  17.461  -5.434  1.00 20.00     0.203 C 
ENDBRANCH   2   8
TORSDOF 3
ENDMDL
MODEL 5
REMARK VINA RESULT:      -3.6      2.484      4.405
REMARK  3 active torsions:
REMARK  status: ('A' for Active; 'I' for Inactive)
REMARK    1  A    between atoms: C5_5  and  C6_6 
REMARK    2  A    between atoms: C5_5  and  C7_7 
REMARK    3  A    between atoms: C6_6  and  O9_9 
ROOT
HETATM    1  C1  UNL     1     -36.746  14.548  -4.008  1.00 20.00     0.091 C 
HETATM    2  C6  UNL     1     -35.353  14.893  -4.323  1.00 20.00     0.227 C 
HETATM    3  N8  UNL     1     -37.845  14.278  -3.760  1.00 20.00    -0.195 NA
ENDROOT
BRANCH   2   4
HETATM    4  C5  UNL     1     -34.776  14.029  -5.453  1.00 20.00     0.050 C 
BRANCH   4   5
HETATM    5  C7  UNL     1     -34.476  14.773  -6.770  1.00 20.00    -0.019 C 
HETATM    6  C2  UNL     1     -35.610  14.533  -7.770  1.00 20.00     0.009 C 
HETATM    7  C3  UNL     1     -34.285  16.275  -6.560  1.00 20.00     0.009 C 
ENDBRANCH   4   5
ENDBRANCH   2   4
BRANCH   2   8
HETATM    8  O9  UNL     1     -34.546  14.708  -3.158  1.00 20.00    -0.376 OA
HETATM    9  C4  UNL     1     -34.594  15.846  -2.313  1.00 20.00     0.203 C 
ENDBRANCH   2   8
TORSDOF 3
ENDMDL
MODEL 6
REMARK VINA RESULT:      -3.6      2.019      2.442
REMARK  3 active torsions:
REMARK  status: ('A' for Active; 'I' for Inactive)
REMARK    1  A    between atoms: C5_5  and  C6_6 
REMARK    2  A    between atoms: C5_5  and  C7_7 
REMARK    3  A    between atoms: C6_6  and  O9_9 
ROOT
HETATM    1  C1  UNL     1     -36.357  14.319  -3.972  1.00 20.00     0.091 C 
HETATM    2  C6  UNL     1     -34.913  14.317  -4.241  1.00 20.00     0.227 C 
HETATM    3  N8  UNL     1     -37.497  14.318  -3.759  1.00 20.00    -0.195 NA
ENDROOT
BRANCH   2   4
HETATM    4  C5  UNL     1     -34.109  15.006  -3.130  1.00 20.00     0.050 C 
BRANCH   4   5
HETATM    5  C7  UNL     1     -34.655  16.371  -2.664  1.00 20.00    -0.019 C 
HETATM    6  C2  UNL     1     -34.632  16.442  -1.135  1.00 20.00     0.009 C 
HETATM    7  C3  UNL     1     -33.865  17.544  -3.246  1.00 20.00     0.009 C 
ENDBRANCH   4   5
ENDBRANCH   2   4
BRANCH   2   8
HETATM    8  O9  UNL     1     -34.662  15.003  -5.470  1.00 20.00    -0.376 OA
HETATM    9  C4  UNL     1     -35.184  14.285  -6.576  1.00 20.00     0.203 C 
ENDBRANCH   2   8
TORSDOF 3
ENDMDL
MODEL 7
REMARK VINA RESULT:      -3.6      1.543      3.371
REMARK  3 active torsions:
REMARK  status: ('A' for Active; 'I' for Inactive)
REMARK    1  A    between atoms: C5_5  and  C6_6 
REMARK    2  A    between atoms: C5_5  and  C7_7 
REMARK    3  A    between atoms: C6_6  and  O9_9 
ROOT
HETATM    1  C1  UNL     1     -35.111  13.795  -4.004  1.00 20.00     0.091 C 
HETATM    2  C6  UNL     1     -35.303  15.161  -3.500  1.00 20.00     0.227 C 
HETATM    3  N8  UNL     1     -34.961  12.716  -4.400  1.00 20.00    -0.195 NA
ENDROOT
BRANCH   2   4
HETATM    4  C5  UNL     1     -35.344  16.201  -4.628  1.00 20.00     0.050 C 
BRANCH   4   5
HETATM    5  C7  UNL     1     -34.037  16.362  -5.430  1.00 20.00    -0.019 C 
HETATM    6  C2  UNL     1     -34.258  15.905  -6.875  1.00 20.00     0.009 C 
HETATM    7  C3  UNL     1     -33.520  17.800  -5.419  1.00 20.00     0.009 C 
ENDBRANCH   4   5
ENDBRANCH   2   4
BRANCH   2   8
HETATM    8  O9  UNL     1     -34.229  15.495  -2.619  1.00 20.00    -0.376 OA
HETATM    9  C4  UNL     1     -34.671  16.329  -1.561  1.00 20.00     0.203 C 
ENDBRANCH   2   8
TORSDOF 3
ENDMDL
MODEL 8
REMARK VINA RESULT:      -3.6      3.184      4.421
REMARK  3 active torsions:
REMARK  status: ('A' for Active; 'I' for Inactive)
REMARK    1  A    between atoms: C5_5  and  C6_6 
REMARK    2  A    between atoms: C5_5  and  C7_7 
REMARK    3  A    between atoms: C6_6  and  O9_9 
ROOT
HETATM    1  C1  UNL     1     -36.549  14.306  -4.189  1.00 20.00     0.091 C 
HETATM    2  C6  UNL     1     -35.153  14.266  -4.643  1.00 20.00     0.227 C 
HETATM    3  N8  UNL     1     -37.651  14.338  -3.831  1.00 20.00    -0.195 NA
ENDROOT
BRANCH   2   4
HETATM    4  C5  UNL     1     -35.028  13.878  -6.123  1.00 20.00     0.050 C 
BRANCH   4   5
HETATM    5  C7  UNL     1     -34.573  15.008  -7.069  1.00 20.00    -0.019 C 
HETATM    6  C2  UNL     1     -35.757  15.479  -7.918  1.00 20.00     0.009 C 
HETATM    7  C3  UNL     1     -33.976  16.196  -6.313  1.00 20.00     0.009 C 
ENDBRANCH   4   5
ENDBRANCH   2   4
BRANCH   2   8
HETATM    8  O9  UNL     1     -34.431  13.310  -3.864  1.00 20.00    -0.376 OA
HETATM    9  C4  UNL     1     -33.119  13.765  -3.577  1.00 20.00     0.203 C 
ENDBRANCH   2   8
TORSDOF 3
ENDMDL
MODEL 9
REMARK VINA RESULT:      -3.6      2.278      3.819
REMARK  3 active torsions:
REMARK  status: ('A' for Active; 'I' for Inactive)
REMARK    1  A    between atoms: C5_5  and  C6_6 
REMARK    2  A    between atoms: C5_5  and  C7_7 
REMARK    3  A    between atoms: C6_6  and  O9_9 
ROOT
HETATM    1  C1  UNL     1     -34.508  16.309  -1.707  1.00 20.00     0.091 C 
HETATM    2  C6  UNL     1     -34.406  15.913  -3.118  1.00 20.00     0.227 C 
HETATM    3  N8  UNL     1     -34.589  16.622  -0.594  1.00 20.00    -0.195 NA
ENDROOT
BRANCH   2   4
HETATM    4  C5  UNL     1     -34.277  14.393  -3.293  1.00 20.00     0.050 C 
BRANCH   4   5
HETATM    5  C7  UNL     1     -35.329  13.739  -4.211  1.00 20.00    -0.019 C 
HETATM    6  C2  UNL     1     -36.672  14.458  -4.053  1.00 20.00     0.009 C 
HETATM    7  C3  UNL     1     -34.908  13.753  -5.681  1.00 20.00     0.009 C 
ENDBRANCH   4   5
ENDBRANCH   2   4
BRANCH   2   8
HETATM    8  O9  UNL     1     -33.257  16.532  -3.701  1.00 20.00    -0.376 OA
HETATM    9  C4  UNL     1     -33.564  17.104  -4.962  1.00 20.00     0.203 C 
ENDBRANCH   2   8
TORSDOF 3
ENDMDL
