MODEL 1
REMARK VINA RESULT:      -4.0      0.000      0.000
REMARK  4 active torsions:
REMARK  status: ('A' for Active; 'I' for Inactive)
REMARK    1  A    between atoms: C6_6  and  C8_8 
REMARK    2  A    between atoms: C6_6  and  C9_9 
REMARK    3  A    between atoms: C7_7  and  O11_11 
REMARK    4  A    between atoms: C8_8  and  O11_11 
ROOT
HETATM    1  C1  UNL     1     -34.628  14.015  -4.051  1.00 20.00     0.091 C 
HETATM    2  C8  UNL     1     -34.393  15.458  -3.876  1.00 20.00     0.228 C 
HETATM    3  N10 UNL     1     -34.814  12.878  -4.191  1.00 20.00    -0.195 NA
ENDROOT
BRANCH   2   4
HETATM    4  C6  UNL     1     -34.021  15.763  -2.415  1.00 20.00     0.055 C 
BRANCH   4   5
HETATM    5  C9  UNL     1     -34.622  17.056  -1.788  1.00 20.00    -0.048 C 
HETATM    6  C3  UNL     1     -33.645  18.217  -2.072  1.00 20.00     0.014 C 
HETATM    7  C4  UNL     1     -35.978  17.400  -2.428  1.00 20.00     0.014 C 
HETATM    8  C5  UNL     1     -34.799  16.939  -0.267  1.00 20.00     0.014 C 
ENDBRANCH   4   5
ENDBRANCH   2   4
BRANCH   2   9
HETATM    9  O11 UNL     1     -33.328  15.858  -4.733  1.00 20.00    -0.372 OA
BRANCH   9  10
HETATM   10  C7  UNL     1     -33.816  16.501  -5.902  1.00 20.00     0.165 C 
HETATM   11  C2  UNL     1     -33.660  17.998  -5.742  1.00 20.00     0.033 C 
ENDBRANCH   9  10
ENDBRANCH   2   9
TORSDOF 4
ENDMDL
MODEL 2
REMARK VINA RESULT:      -4.0      2.309      2.981
REMARK  4 active torsions:
REMARK  status: ('A' for Active; 'I' for Inactive)
REMARK    1  A    between atoms: C6_6  and  C8_8 
REMARK    2  A    between atoms: C6_6  and  C9_9 
REMARK    3  A    between atoms: C7_7  and  O11_11 
REMARK    4  A    between atoms: C8_8  and  O11_11 
ROOT
HETATM    1  C1  UNL     1     -37.553  14.701  -4.069  1.00 20.00     0.091 C 
HETATM    2  C8  UNL     1     -36.190  15.132  -4.422  1.00 20.00     0.228 C 
HETATM    3  N10 UNL     1     -38.628  14.361  -3.793  1.00 20.00    -0.195 NA
ENDROOT
BRANCH   2   4
HETATM    4  C6  UNL     1     -35.306  15.187  -3.165  1.00 20.00     0.055 C 
BRANCH   4   5
HETATM    5  C9  UNL     1     -34.036  16.085  -3.232  1.00 20.00    -0.048 C 
HETATM    6  C3  UNL     1     -33.808  16.686  -1.829  1.00 20.00     0.014 C 
HETATM    7  C4  UNL     1     -32.796  15.258  -3.610  1.00 20.00     0.014 C 
HETATM    8  C5  UNL     1     -34.192  17.243  -4.230  1.00 20.00     0.014 C 
ENDBRANCH   4   5
ENDBRANCH   2   4
BRANCH   2   9
HETATM    9  O11 UNL     1     -35.640  14.205  -5.352  1.00 20.00    -0.372 OA
BRANCH   9  10
HETATM   10  C7  UNL     1     -35.752  14.679  -6.686  1.00 20.00     0.165 C 
HETATM   11  C2  UNL     1     -34.373  15.033  -7.201  1.00 20.00     0.033 C 
ENDBRANCH   9  10
ENDBRANCH   2   9
TORSDOF 4
ENDMDL
MODEL 3
REMARK VINA RESULT:      -3.9      2.236      4.082
REMARK  4 active torsions:
REMARK  status: ('A' for Active; 'I' for Inactive)
REMARK    1  A    between atoms: C6_6  and  C8_8 
REMARK    2  A    between atoms: C6_6  and  C9_9 
REMARK    3  A    between atoms: C7_7  and  O11_11 
REMARK    4  A    between atoms: C8_8  and  O11_11 
ROOT
HETATM    1  C1  UNL     1     -37.530  14.919  -3.688  1.00 20.00     0.091 C 
HETATM    2  C8  UNL     1     -36.275  15.678  -3.553  1.00 20.00     0.228 C 
HETATM    3  N10 UNL     1     -38.518  14.319  -3.793  1.00 20.00    -0.195 NA
ENDROOT
BRANCH   2   4
HETATM    4  C6  UNL     1     -35.714  16.029  -4.941  1.00 20.00     0.055 C 
BRANCH   4   5
HETATM    5  C9  UNL     1     -34.338  15.409  -5.325  1.00 20.00    -0.048 C 
HETATM    6  C3  UNL     1     -34.401  15.005  -6.814  1.00 20.00     0.014 C 
HETATM    7  C4  UNL     1     -33.204  16.432  -5.151  1.00 20.00     0.014 C 
HETATM    8  C5  UNL     1     -34.014  14.153  -4.501  1.00 20.00     0.014 C 
ENDBRANCH   4   5
ENDBRANCH   2   4
BRANCH   2   9
HETATM    9  O11 UNL     1     -36.537  16.874  -2.827  1.00 20.00    -0.372 OA
BRANCH   9  10
HETATM   10  C7  UNL     1     -35.348  17.409  -2.262  1.00 20.00     0.165 C 
HETATM   11  C2  UNL     1     -34.686  16.345  -1.412  1.00 20.00     0.033 C 
ENDBRANCH   9  10
ENDBRANCH   2   9
TORSDOF 4
ENDMDL
MODEL 4
REMARK VINA RESULT:      -3.8      1.802      2.270
REMARK  4 active torsions:
REMARK  status: ('A' for Active; 'I' for Inactive)
REMARK    1  A    between atoms: C6_6  and  C8_8 
REMARK    2  A    between atoms: C6_6  and  C9_9 
REMARK    3  A    between atoms: C7_7  and  O11_11 
REMARK    4  A    between atoms: C8_8  and  O11_11 
ROOT
HETATM    1  C1  UNL     1     -37.089  14.645  -3.902  1.00 20.00     0.091 C 
HETATM    2  C8  UNL     1     -35.696  15.112  -3.997  1.00 20.00     0.228 C 
HETATM    3  N10 UNL     1     -38.187  14.277  -3.829  1.00 20.00    -0.195 NA
ENDROOT
BRANCH   2   4
HETATM    4  C6  UNL     1     -35.113  15.338  -2.592  1.00 20.00     0.055 C 
BRANCH   4   5
HETATM    5  C9  UNL     1     -34.919  16.815  -2.136  1.00 20.00    -0.048 C 
HETATM    6  C3  UNL     1     -34.540  16.801  -0.640  1.00 20.00     0.014 C 
HETATM    7  C4  UNL     1     -33.777  17.487  -2.917  1.00 20.00     0.014 C 
HETATM    8  C5  UNL     1     -36.199  17.649  -2.299  1.00 20.00     0.014 C 
ENDBRANCH   4   5
ENDBRANCH   2   4
BRANCH   2   9
HETATM    9  O11 UNL     1     -34.925  14.129  -4.680  1.00 20.00    -0.372 OA
BRANCH   9  10
HETATM   10  C7  UNL     1     -34.853  14.402  -6.073  1.00 20.00     0.165 C 
HETATM   11  C2  UNL     1     -34.179  15.743  -6.276  1.00 20.00     0.033 C 
ENDBRANCH   9  10
ENDBRANCH   2   9
TORSDOF 4
ENDMDL
MODEL 5
REMARK VINA RESULT:      -3.8      2.504      3.523
REMARK  4 active torsions:
REMARK  status: ('A' for Active; 'I' for Inactive)
REMARK    1  A    between atoms: C6_6  and  C8_8 
REMARK    2  A    between atoms: C6_6  and  C9_9 
REMARK    3  A    between atoms: C7_7  and  O11_11 
REMARK    4  A    between atoms: C8_8  and  O11_11 
ROOT
HETATM    1  C1  UNL     1     -35.230  13.460  -4.376  1.00 20.00     0.091 C 
HETATM    2  C8  UNL     1     -36.043  14.460  -3.663  1.00 20.00     0.228 C 
HETATM    3  N10 UNL     1     -34.589  12.671  -4.936  1.00 20.00    -0.195 NA
ENDROOT
BRANCH   2   4
HETATM    4  C6  UNL     1     -35.805  15.859  -4.255  1.00 20.00     0.055 C 
BRANCH   4   5
HETATM    5  C9  UNL     1     -34.665  16.710  -3.622  1.00 20.00    -0.048 C 
HETATM    6  C3  UNL     1     -35.138  18.179  -3.584  1.00 20.00     0.014 C 
HETATM    7  C4  UNL     1     -34.376  16.259  -2.180  1.00 20.00     0.014 C 
HETATM    8  C5  UNL     1     -33.366  16.646  -4.440  1.00 20.00     0.014 C 
ENDBRANCH   4   5
ENDBRANCH   2   4
BRANCH   2   9
HETATM    9  O11 UNL     1     -37.417  14.114  -3.794  1.00 20.00    -0.372 OA
BRANCH   9  10
HETATM   10  C7  UNL     1     -38.239  15.270  -3.880  1.00 20.00     0.165 C 
HETATM   11  C2  UNL     1     -39.625  14.856  -4.324  1.00 20.00     0.033 C 
ENDBRANCH   9  10
ENDBRANCH   2   9
TORSDOF 4
ENDMDL
MODEL 6
REMARK VINA RESULT:      -3.8      1.817      2.441
REMARK  4 active torsions:
REMARK  status: ('A' for Active; 'I' for Inactive)
REMARK    1  A    between atoms: C6_6  and  C8_8 
REMARK    2  A    between atoms: C6_6  and  C9_9 
REMARK    3  A    between atoms: C7_7  and  O11_11 
REMARK    4  A    between atoms: C8_8  and  O11_11 
ROOT
HETATM    1  C1  UNL     1     -37.008  14.687  -3.839  1.00 20.00     0.091 C 
HETATM    2  C8  UNL     1     -35.616  15.161  -3.915  1.00 20.00     0.228 C 
HETATM    3  N10 UNL     1     -38.105  14.314  -3.779  1.00 20.00    -0.195 NA
ENDROOT
BRANCH   2   4
HETATM    4  C6  UNL     1     -35.099  15.525  -2.514  1.00 20.00     0.055 C 
BRANCH   4   5
HETATM    5  C9  UNL     1     -34.722  17.015  -2.264  1.00 20.00    -0.048 C 
HETATM    6  C3  UNL     1     -36.030  17.833  -2.220  1.00 20.00     0.014 C 
HETATM    7  C4  UNL     1     -34.002  17.183  -0.916  1.00 20.00     0.014 C 
HETATM    8  C5  UNL     1     -33.836  17.588  -3.382  1.00 20.00     0.014 C 
ENDBRANCH   4   5
ENDBRANCH   2   4
BRANCH   2   9
HETATM    9  O11 UNL     1     -34.808  14.128  -4.469  1.00 20.00    -0.372 OA
BRANCH   9  10
HETATM   10  C7  UNL     1     -34.909  14.092  -5.885  1.00 20.00     0.165 C 
HETATM   11  C2  UNL     1     -34.323  15.367  -6.453  1.00 20.00     0.033 C 
ENDBRANCH   9  10
ENDBRANCH   2   9
TORSDOF 4
ENDMDL
MODEL 7
REMARK VINA RESULT:      -3.7      1.258      3.771
REMARK  4 active torsions:
REMARK  status: ('A' for Active; 'I' for Inactive)
REMARK    1  A    between atoms: C6_6  and  C8_8 
REMARK    2  A    between atoms: C6_6  and  C9_9 
REMARK    3  A    between atoms: C7_7  and  O11_11 
REMARK    4  A    between atoms: C8_8  and  O11_11 
ROOT
HETATM    1  C1  UNL     1     -34.532  13.793  -4.435  1.00 20.00     0.091 C 
HETATM    2  C8  UNL     1     -34.093  15.187  -4.254  1.00 20.00     0.228 C 
HETATM    3  N10 UNL     1     -34.876  12.694  -4.578  1.00 20.00    -0.195 NA
ENDROOT
BRANCH   2   4
HETATM    4  C6  UNL     1     -35.180  16.156  -4.746  1.00 20.00     0.055 C 
BRANCH   4   5
HETATM    5  C9  UNL     1     -34.804  17.101  -5.926  1.00 20.00    -0.048 C 
HETATM    6  C3  UNL     1     -36.003  18.038  -6.181  1.00 20.00     0.014 C 
HETATM    7  C4  UNL     1     -33.582  17.965  -5.572  1.00 20.00     0.014 C 
HETATM    8  C5  UNL     1     -34.515  16.328  -7.222  1.00 20.00     0.014 C 
ENDBRANCH   4   5
ENDBRANCH   2   4
BRANCH   2   9
HETATM    9  O11 UNL     1     -33.841  15.415  -2.871  1.00 20.00    -0.372 OA
BRANCH   9  10
HETATM   10  C7  UNL     1     -34.968  15.991  -2.226  1.00 20.00     0.165 C 
HETATM   11  C2  UNL     1     -34.510  16.679  -0.957  1.00 20.00     0.033 C 
ENDBRANCH   9  10
ENDBRANCH   2   9
TORSDOF 4
ENDMDL
MODEL 8
REMARK VINA RESULT:      -3.7      2.438      4.545
REMARK  4 active torsions:
REMARK  status: ('A' for Active; 'I' for Inactive)
REMARK    1  A    between atoms: C6_6  and  C8_8 
REMARK    2  A    between atoms: C6_6  and  C9_9 
REMARK    3  A    between atoms: C7_7  and  O11_11 
REMARK    4  A    between atoms: C8_8  and  O11_11 
ROOT
HETATM    1  C1  UNL     1     -33.708  18.128  -4.415  1.00 20.00     0.091 C 
HETATM    2  C8  UNL     1     -34.161  16.868  -3.802  1.00 20.00     0.228 C 
HETATM    3  N10 UNL     1     -33.353  19.122  -4.898  1.00 20.00    -0.195 NA
ENDROOT
BRANCH   2   4
HETATM    4  C6  UNL     1     -33.631  15.666  -4.601  1.00 20.00     0.055 C 
BRANCH   4   5
HETATM    5  C9  UNL     1     -34.689  14.741  -5.272  1.00 20.00    -0.048 C 
HETATM    6  C3  UNL     1     -34.506  14.844  -6.801  1.00 20.00     0.014 C 
HETATM    7  C4  UNL     1     -34.479  13.274  -4.859  1.00 20.00     0.014 C 
HETATM    8  C5  UNL     1     -36.128  15.159  -4.932  1.00 20.00     0.014 C 
ENDBRANCH   4   5
ENDBRANCH   2   4
BRANCH   2   9
HETATM    9  O11 UNL     1     -33.673  16.805  -2.466  1.00 20.00    -0.372 OA
BRANCH   9  10
HETATM   10  C7  UNL     1     -34.627  16.221  -1.591  1.00 20.00     0.165 C 
HETATM   11  C2  UNL     1     -34.686  17.032  -0.314  1.00 20.00     0.033 C 
ENDBRANCH   9  10
ENDBRANCH   2   9
TORSDOF 4
ENDMDL
MODEL 9
REMARK VINA RESULT:      -3.7      2.923      4.238
REMARK  4 active torsions:
REMARK  status: ('A' for Active; 'I' for Inactive)
REMARK    1  A    between atoms: C6_6  and  C8_8 
REMARK    2  A    between atoms: C6_6  and  C9_9 
REMARK    3  A    between atoms: C7_7  and  O11_11 
REMARK    4  A    between atoms: C8_8  and  O11_11 
ROOT
HETATM    1  C1  UNL     1     -37.432  14.609  -4.147  1.00 20.00     0.091 C 
HETATM    2  C8  UNL     1     -36.067  14.831  -4.652  1.00 20.00     0.228 C 
HETATM    3  N10 UNL     1     -38.508  14.433  -3.749  1.00 20.00    -0.195 NA
ENDROOT
BRANCH   2   4
HETATM    4  C6  UNL     1     -35.962  16.216  -5.311  1.00 20.00     0.055 C 
BRANCH   4   5
HETATM    5  C9  UNL     1     -34.773  16.444  -6.291  1.00 20.00    -0.048 C 
HETATM    6  C3  UNL     1     -35.235  17.450  -7.367  1.00 20.00     0.014 C 
HETATM    7  C4  UNL     1     -33.562  17.045  -5.558  1.00 20.00     0.014 C 
HETATM    8  C5  UNL     1     -34.343  15.150  -6.998  1.00 20.00     0.014 C 
ENDBRANCH   4   5
ENDBRANCH   2   4
BRANCH   2   9
HETATM    9  O11 UNL     1     -35.154  14.750  -3.562  1.00 20.00    -0.372 OA
BRANCH   9  10
HETATM   10  C7  UNL     1     -34.316  13.609  -3.671  1.00 20.00     0.165 C 
HETATM   11  C2  UNL     1     -32.871  14.045  -3.543  1.00 20.00     0.033 C 
ENDBRANCH   9  10
ENDBRANCH   2   9
TORSDOF 4
ENDMDL
