MODEL 1
REMARK VINA RESULT:      -4.5      0.000      0.000
REMARK  3 active torsions:
REMARK  status: ('A' for Active; 'I' for Inactive)
REMARK    1  A    between atoms: C5_5  and  C8_8 
REMARK    2  A    between atoms: C5_5  and  C9_9 
REMARK    3  A    between atoms: C8_8  and  C10_10 
ROOT
HETATM    1  C1  UNL     1     -33.719  13.650  -4.058  1.00 20.00     0.001 C 
HETATM    2  C2  UNL     1     -35.193  13.357  -4.338  1.00 20.00     0.001 C 
HETATM    3  C3  UNL     1     -33.687  14.950  -3.256  1.00 20.00     0.010 C 
HETATM    4  C4  UNL     1     -35.982  14.493  -3.691  1.00 20.00     0.010 C 
HETATM    5  C5  UNL     1     -34.997  15.668  -3.609  1.00 20.00    -0.028 C 
ENDROOT
BRANCH   5   6
HETATM    6  C8  UNL     1     -35.402  16.668  -2.523  1.00 20.00     0.014 C 
BRANCH   6   7
HETATM    7  C10 UNL     1     -34.255  17.021  -1.566  1.00 20.00    -0.022 C 
HETATM    8  C6  UNL     1     -33.622  18.376  -1.883  1.00 20.00     0.009 C 
HETATM    9  C7  UNL     1     -34.771  17.015  -0.124  1.00 20.00     0.009 C 
ENDBRANCH   6   7
ENDBRANCH   5   6
BRANCH   5  10
HETATM   10  C9  UNL     1     -34.888  16.400  -4.957  1.00 20.00     0.124 C 
HETATM   11 CL11 UNL     1     -33.223  16.934  -5.215  1.00 20.00    -0.130 Cl
ENDBRANCH   5  10
TORSDOF 3
ENDMDL
MODEL 2
REMARK VINA RESULT:      -4.2      1.755      4.117
REMARK  3 active torsions:
REMARK  status: ('A' for Active; 'I' for Inactive)
REMARK    1  A    between atoms: C5_5  and  C8_8 
REMARK    2  A    between atoms: C5_5  and  C9_9 
REMARK    3  A    between atoms: C8_8  and  C10_10 
ROOT
HETATM    1  C1  UNL     1     -33.754  17.628  -1.744  1.00 20.00     0.001 C 
HETATM    2  C2  UNL     1     -34.530  16.417  -1.227  1.00 20.00     0.001 C 
HETATM    3  C3  UNL     1     -33.957  17.651  -3.257  1.00 20.00     0.010 C 
HETATM    4  C4  UNL     1     -35.167  15.766  -2.452  1.00 20.00     0.010 C 
HETATM    5  C5  UNL     1     -34.292  16.201  -3.636  1.00 20.00    -0.028 C 
ENDROOT
BRANCH   5   6
HETATM    6  C8  UNL     1     -35.057  16.128  -4.960  1.00 20.00     0.014 C 
BRANCH   6   7
HETATM    7  C10 UNL     1     -34.145  16.191  -6.192  1.00 20.00    -0.022 C 
HETATM    8  C6  UNL     1     -34.387  15.035  -7.162  1.00 20.00     0.009 C 
HETATM    9  C7  UNL     1     -34.353  17.525  -6.915  1.00 20.00     0.009 C 
ENDBRANCH   6   7
ENDBRANCH   5   6
BRANCH   5  10
HETATM   10  C9  UNL     1     -33.021  15.341  -3.737  1.00 20.00     0.124 C 
HETATM   11 CL11 UNL     1     -33.456  13.628  -3.759  1.00 20.00    -0.130 Cl
ENDBRANCH   5  10
TORSDOF 3
ENDMDL
MODEL 3
REMARK VINA RESULT:      -4.1      1.449      2.089
REMARK  3 active torsions:
REMARK  status: ('A' for Active; 'I' for Inactive)
REMARK    1  A    between atoms: C5_5  and  C8_8 
REMARK    2  A    between atoms: C5_5  and  C9_9 
REMARK    3  A    between atoms: C8_8  and  C10_10 
ROOT
HETATM    1  C1  UNL     1     -34.658  14.453  -5.903  1.00 20.00     0.001 C 
HETATM    2  C2  UNL     1     -34.661  13.217  -5.004  1.00 20.00     0.001 C 
HETATM    3  C3  UNL     1     -34.262  15.628  -5.010  1.00 20.00     0.010 C 
HETATM    4  C4  UNL     1     -34.267  13.702  -3.612  1.00 20.00     0.010 C 
HETATM    5  C5  UNL     1     -34.639  15.191  -3.587  1.00 20.00    -0.028 C 
ENDROOT
BRANCH   5   6
HETATM    6  C8  UNL     1     -33.836  15.956  -2.532  1.00 20.00     0.014 C 
BRANCH   6   7
HETATM    7  C10 UNL     1     -34.633  17.082  -1.861  1.00 20.00    -0.022 C 
HETATM    8  C6  UNL     1     -34.689  16.936  -0.340  1.00 20.00     0.009 C 
HETATM    9  C7  UNL     1     -34.017  18.436  -2.228  1.00 20.00     0.009 C 
ENDBRANCH   6   7
ENDBRANCH   5   6
BRANCH   5  10
HETATM   10  C9  UNL     1     -36.141  15.388  -3.321  1.00 20.00     0.124 C 
HETATM   11 CL11 UNL     1     -36.791  16.603  -4.427  1.00 20.00    -0.130 Cl
ENDBRANCH   5  10
TORSDOF 3
ENDMDL
MODEL 4
REMARK VINA RESULT:      -4.1      1.847      2.899
REMARK  3 active torsions:
REMARK  status: ('A' for Active; 'I' for Inactive)
REMARK    1  A    between atoms: C5_5  and  C8_8 
REMARK    2  A    between atoms: C5_5  and  C9_9 
REMARK    3  A    between atoms: C8_8  and  C10_10 
ROOT
HETATM    1  C1  UNL     1     -35.424  14.956  -7.188  1.00 20.00     0.001 C 
HETATM    2  C2  UNL     1     -34.121  15.632  -6.760  1.00 20.00     0.001 C 
HETATM    3  C3  UNL     1     -36.244  14.765  -5.914  1.00 20.00     0.010 C 
HETATM    4  C4  UNL     1     -34.216  15.817  -5.248  1.00 20.00     0.010 C 
HETATM    5  C5  UNL     1     -35.213  14.751  -4.776  1.00 20.00    -0.028 C 
ENDROOT
BRANCH   5   6
HETATM    6  C8  UNL     1     -35.850  15.128  -3.436  1.00 20.00     0.014 C 
BRANCH   6   7
HETATM    7  C10 UNL     1     -35.371  16.483  -2.896  1.00 20.00    -0.022 C 
HETATM    8  C6  UNL     1     -36.514  17.484  -2.725  1.00 20.00     0.009 C 
HETATM    9  C7  UNL     1     -34.658  16.277  -1.556  1.00 20.00     0.009 C 
ENDBRANCH   6   7
ENDBRANCH   5   6
BRANCH   5  10
HETATM   10  C9  UNL     1     -34.541  13.374  -4.647  1.00 20.00     0.124 C 
HETATM   11 CL11 UNL     1     -33.075  13.512  -3.669  1.00 20.00    -0.130 Cl
ENDBRANCH   5  10
TORSDOF 3
ENDMDL
MODEL 5
REMARK VINA RESULT:      -4.0      1.767      2.778
REMARK  3 active torsions:
REMARK  status: ('A' for Active; 'I' for Inactive)
REMARK    1  A    between atoms: C5_5  and  C8_8 
REMARK    2  A    between atoms: C5_5  and  C9_9 
REMARK    3  A    between atoms: C8_8  and  C10_10 
ROOT
HETATM    1  C1  UNL     1     -34.469  17.510  -5.066  1.00 20.00     0.001 C 
HETATM    2  C2  UNL     1     -33.327  16.494  -5.092  1.00 20.00     0.001 C 
HETATM    3  C3  UNL     1     -34.996  17.524  -3.633  1.00 20.00     0.010 C 
HETATM    4  C4  UNL     1     -33.217  15.943  -3.673  1.00 20.00     0.010 C 
HETATM    5  C5  UNL     1     -34.603  16.157  -3.051  1.00 20.00    -0.028 C 
ENDROOT
BRANCH   5   6
HETATM    6  C8  UNL     1     -34.537  16.194  -1.523  1.00 20.00     0.014 C 
BRANCH   6   7
HETATM    7  C10 UNL     1     -34.579  17.616  -0.947  1.00 20.00    -0.022 C 
HETATM    8  C6  UNL     1     -35.487  17.727   0.278  1.00 20.00     0.009 C 
HETATM    9  C7  UNL     1     -33.161  18.065  -0.583  1.00 20.00     0.009 C 
ENDBRANCH   6   7
ENDBRANCH   5   6
BRANCH   5  10
HETATM   10  C9  UNL     1     -35.587  15.060  -3.489  1.00 20.00     0.124 C 
HETATM   11 CL11 UNL     1     -34.717  13.545  -3.754  1.00 20.00    -0.130 Cl
ENDBRANCH   5  10
TORSDOF 3
ENDMDL
MODEL 6
REMARK VINA RESULT:      -4.0      1.850      3.347
REMARK  3 active torsions:
REMARK  status: ('A' for Active; 'I' for Inactive)
REMARK    1  A    between atoms: C5_5  and  C8_8 
REMARK    2  A    between atoms: C5_5  and  C9_9 
REMARK    3  A    between atoms: C8_8  and  C10_10 
ROOT
HETATM    1  C1  UNL     1     -34.733  13.311  -4.138  1.00 20.00     0.001 C 
HETATM    2  C2  UNL     1     -33.334  13.785  -3.743  1.00 20.00     0.001 C 
HETATM    3  C3  UNL     1     -35.502  14.559  -4.563  1.00 20.00     0.010 C 
HETATM    4  C4  UNL     1     -33.324  15.297  -3.949  1.00 20.00     0.010 C 
HETATM    5  C5  UNL     1     -34.796  15.724  -3.853  1.00 20.00    -0.028 C 
ENDROOT
BRANCH   5   6
HETATM    6  C8  UNL     1     -35.045  17.054  -4.569  1.00 20.00     0.014 C 
BRANCH   6   7
HETATM    7  C10 UNL     1     -33.975  17.390  -5.616  1.00 20.00    -0.022 C 
HETATM    8  C6  UNL     1     -34.462  17.160  -7.047  1.00 20.00     0.009 C 
HETATM    9  C7  UNL     1     -33.531  18.846  -5.447  1.00 20.00     0.009 C 
ENDBRANCH   6   7
ENDBRANCH   5   6
BRANCH   5  10
HETATM   10  C9  UNL     1     -35.249  15.843  -2.389  1.00 20.00     0.124 C 
HETATM   11 CL11 UNL     1     -34.027  16.711  -1.452  1.00 20.00    -0.130 Cl
ENDBRANCH   5  10
TORSDOF 3
ENDMDL
MODEL 7
REMARK VINA RESULT:      -4.0      2.217      3.251
REMARK  3 active torsions:
REMARK  status: ('A' for Active; 'I' for Inactive)
REMARK    1  A    between atoms: C5_5  and  C8_8 
REMARK    2  A    between atoms: C5_5  and  C9_9 
REMARK    3  A    between atoms: C8_8  and  C10_10 
ROOT
HETATM    1  C1  UNL     1     -36.670  15.057  -6.562  1.00 20.00     0.001 C 
HETATM    2  C2  UNL     1     -35.602  14.715  -7.601  1.00 20.00     0.001 C 
HETATM    3  C3  UNL     1     -35.924  15.613  -5.351  1.00 20.00     0.010 C 
HETATM    4  C4  UNL     1     -34.262  15.082  -6.970  1.00 20.00     0.010 C 
HETATM    5  C5  UNL     1     -34.506  15.033  -5.455  1.00 20.00    -0.028 C 
ENDROOT
BRANCH   5   6
HETATM    6  C8  UNL     1     -33.490  15.886  -4.692  1.00 20.00     0.014 C 
BRANCH   6   7
HETATM    7  C10 UNL     1     -34.142  16.925  -3.769  1.00 20.00    -0.022 C 
HETATM    8  C6  UNL     1     -33.853  16.660  -2.291  1.00 20.00     0.009 C 
HETATM    9  C7  UNL     1     -33.654  18.326  -4.149  1.00 20.00     0.009 C 
ENDBRANCH   6   7
ENDBRANCH   5   6
BRANCH   5  10
HETATM   10  C9  UNL     1     -34.453  13.589  -4.928  1.00 20.00     0.124 C 
HETATM   11 CL11 UNL     1     -33.167  13.437  -3.725  1.00 20.00    -0.130 Cl
ENDBRANCH   5  10
TORSDOF 3
ENDMDL
MODEL 8
REMARK VINA RESULT:      -4.0      1.971      4.037
REMARK  3 active torsions:
REMARK  status: ('A' for Active; 'I' for Inactive)
REMARK    1  A    between atoms: C5_5  and  C8_8 
REMARK    2  A    between atoms: C5_5  and  C9_9 
REMARK    3  A    between atoms: C8_8  and  C10_10 
ROOT
HETATM    1  C1  UNL     1     -34.482  16.371  -1.673  1.00 20.00     0.001 C 
HETATM    2  C2  UNL     1     -35.822  16.056  -2.338  1.00 20.00     0.001 C 
HETATM    3  C3  UNL     1     -33.452  16.440  -2.800  1.00 20.00     0.010 C 
HETATM    4  C4  UNL     1     -35.539  15.950  -3.835  1.00 20.00     0.010 C 
HETATM    5  C5  UNL     1     -34.049  15.597  -3.936  1.00 20.00    -0.028 C 
ENDROOT
BRANCH   5   6
HETATM    6  C8  UNL     1     -33.467  15.992  -5.295  1.00 20.00     0.014 C 
BRANCH   6   7
HETATM    7  C10 UNL     1     -34.535  16.185  -6.380  1.00 20.00    -0.022 C 
HETATM    8  C6  UNL     1     -34.388  17.516  -7.119  1.00 20.00     0.009 C 
HETATM    9  C7  UNL     1     -34.466  15.028  -7.381  1.00 20.00     0.009 C 
ENDBRANCH   6   7
ENDBRANCH   5   6
BRANCH   5  10
HETATM   10  C9  UNL     1     -33.814  14.096  -3.702  1.00 20.00     0.124 C 
HETATM   11 CL11 UNL     1     -35.181  13.169  -4.332  1.00 20.00    -0.130 Cl
ENDBRANCH   5  10
TORSDOF 3
ENDMDL
MODEL 9
REMARK VINA RESULT:      -3.9      1.569      4.069
REMARK  3 active torsions:
REMARK  status: ('A' for Active; 'I' for Inactive)
REMARK    1  A    between atoms: C5_5  and  C8_8 
REMARK    2  A    between atoms: C5_5  and  C9_9 
REMARK    3  A    between atoms: C8_8  and  C10_10 
ROOT
HETATM    1  C1  UNL     1     -33.978  17.758  -0.723  1.00 20.00     0.001 C 
HETATM    2  C2  UNL     1     -33.535  18.383  -2.045  1.00 20.00     0.001 C 
HETATM    3  C3  UNL     1     -34.615  16.416  -1.078  1.00 20.00     0.010 C 
HETATM    4  C4  UNL     1     -33.924  17.389  -3.137  1.00 20.00     0.010 C 
HETATM    5  C5  UNL     1     -35.071  16.565  -2.537  1.00 20.00    -0.028 C 
ENDROOT
BRANCH   5   6
HETATM    6  C8  UNL     1     -35.208  15.204  -3.225  1.00 20.00     0.014 C 
BRANCH   6   7
HETATM    7  C10 UNL     1     -34.044  14.883  -4.172  1.00 20.00    -0.022 C 
HETATM    8  C6  UNL     1     -33.173  13.733  -3.664  1.00 20.00     0.009 C 
HETATM    9  C7  UNL     1     -34.591  14.543  -5.561  1.00 20.00     0.009 C 
ENDBRANCH   6   7
ENDBRANCH   5   6
BRANCH   5  10
HETATM   10  C9  UNL     1     -36.408  17.317  -2.631  1.00 20.00     0.124 C 
HETATM   11 CL11 UNL     1     -36.945  17.378  -4.314  1.00 20.00    -0.130 Cl
ENDBRANCH   5  10
TORSDOF 3
ENDMDL
