MODEL 1
REMARK VINA RESULT:      -4.3      0.000      0.000
REMARK  4 active torsions:
REMARK  status: ('A' for Active; 'I' for Inactive)
REMARK    1  A    between atoms: C4_4  and  C7_7 
REMARK    2  A    between atoms: C4_4  and  C8_8 
REMARK    3  A    between atoms: C7_7  and  C9_9 
REMARK    4  A    between atoms: C9_9  and  C10_10 
ROOT
HETATM    1  C1  UNL     1     -34.814  13.624  -5.245  1.00 20.00     0.002 C 
HETATM    2  C2  UNL     1     -35.442  15.025  -5.115  1.00 20.00     0.010 C 
HETATM    3  C3  UNL     1     -34.465  13.696  -3.746  1.00 20.00     0.010 C 
HETATM    4  C4  UNL     1     -34.568  15.246  -3.845  1.00 20.00    -0.028 C 
ENDROOT
BRANCH   4   5
HETATM    5  C7  UNL     1     -35.315  15.895  -2.684  1.00 20.00     0.011 C 
BRANCH   5   6
HETATM    6  C9  UNL     1     -34.380  16.174  -1.505  1.00 20.00     0.005 C 
BRANCH   6   7
HETATM    7  C10 UNL     1     -34.609  17.550  -0.853  1.00 20.00    -0.023 C 
HETATM    8  C5  UNL     1     -33.318  18.370  -0.904  1.00 20.00     0.009 C 
HETATM    9  C6  UNL     1     -35.092  17.439   0.594  1.00 20.00     0.009 C 
ENDBRANCH   6   7
ENDBRANCH   5   6
ENDBRANCH   4   5
BRANCH   4  10
HETATM   10  C8  UNL     1     -33.237  15.948  -4.115  1.00 20.00     0.124 C 
HETATM   11 CL11 UNL     1     -33.522  17.634  -4.580  1.00 20.00    -0.130 Cl
ENDBRANCH   4  10
TORSDOF 4
ENDMDL
MODEL 2
REMARK VINA RESULT:      -4.2      1.138      1.524
REMARK  4 active torsions:
REMARK  status: ('A' for Active; 'I' for Inactive)
REMARK    1  A    between atoms: C4_4  and  C7_7 
REMARK    2  A    between atoms: C4_4  and  C8_8 
REMARK    3  A    between atoms: C7_7  and  C9_9 
REMARK    4  A    between atoms: C9_9  and  C10_10 
ROOT
HETATM    1  C1  UNL     1     -34.792  13.218  -4.604  1.00 20.00     0.002 C 
HETATM    2  C2  UNL     1     -35.812  14.200  -3.996  1.00 20.00     0.010 C 
HETATM    3  C3  UNL     1     -33.698  13.922  -3.778  1.00 20.00     0.010 C 
HETATM    4  C4  UNL     1     -34.629  15.166  -3.692  1.00 20.00    -0.028 C 
ENDROOT
BRANCH   4   5
HETATM    5  C7  UNL     1     -34.689  15.803  -2.307  1.00 20.00     0.011 C 
BRANCH   5   6
HETATM    6  C9  UNL     1     -33.726  16.987  -2.195  1.00 20.00     0.005 C 
BRANCH   6   7
HETATM    7  C10 UNL     1     -33.611  17.552  -0.767  1.00 20.00    -0.023 C 
HETATM    8  C5  UNL     1     -34.873  17.209   0.029  1.00 20.00     0.009 C 
HETATM    9  C6  UNL     1     -33.387  19.064  -0.752  1.00 20.00     0.009 C 
ENDBRANCH   6   7
ENDBRANCH   5   6
ENDBRANCH   4   5
BRANCH   4  10
HETATM   10  C8  UNL     1     -34.380  16.212  -4.779  1.00 20.00     0.124 C 
HETATM   11 CL11 UNL     1     -35.775  17.296  -4.911  1.00 20.00    -0.130 Cl
ENDBRANCH   4  10
TORSDOF 4
ENDMDL
MODEL 3
REMARK VINA RESULT:      -4.1      1.739      2.489
REMARK  4 active torsions:
REMARK  status: ('A' for Active; 'I' for Inactive)
REMARK    1  A    between atoms: C4_4  and  C7_7 
REMARK    2  A    between atoms: C4_4  and  C8_8 
REMARK    3  A    between atoms: C7_7  and  C9_9 
REMARK    4  A    between atoms: C9_9  and  C10_10 
ROOT
HETATM    1  C1  UNL     1     -34.782  14.778  -7.089  1.00 20.00     0.002 C 
HETATM    2  C2  UNL     1     -34.029  15.470  -5.937  1.00 20.00     0.010 C 
HETATM    3  C3  UNL     1     -36.073  14.913  -6.259  1.00 20.00     0.010 C 
HETATM    4  C4  UNL     1     -35.186  15.042  -4.987  1.00 20.00    -0.028 C 
ENDROOT
BRANCH   4   5
HETATM    5  C7  UNL     1     -35.635  16.137  -4.024  1.00 20.00     0.011 C 
BRANCH   5   6
HETATM    6  C9  UNL     1     -35.443  15.712  -2.567  1.00 20.00     0.005 C 
BRANCH   6   7
HETATM    7  C10 UNL     1     -34.282  16.439  -1.863  1.00 20.00    -0.023 C 
HETATM    8  C5  UNL     1     -34.716  16.871  -0.460  1.00 20.00     0.009 C 
HETATM    9  C6  UNL     1     -33.793  17.657  -2.648  1.00 20.00     0.009 C 
ENDBRANCH   6   7
ENDBRANCH   5   6
ENDBRANCH   4   5
BRANCH   4  10
HETATM   10  C8  UNL     1     -34.941  13.721  -4.257  1.00 20.00     0.124 C 
HETATM   11 CL11 UNL     1     -33.231  13.582  -3.812  1.00 20.00    -0.130 Cl
ENDBRANCH   4  10
TORSDOF 4
ENDMDL
MODEL 4
REMARK VINA RESULT:      -4.1      1.807      2.456
REMARK  4 active torsions:
REMARK  status: ('A' for Active; 'I' for Inactive)
REMARK    1  A    between atoms: C4_4  and  C7_7 
REMARK    2  A    between atoms: C4_4  and  C8_8 
REMARK    3  A    between atoms: C7_7  and  C9_9 
REMARK    4  A    between atoms: C9_9  and  C10_10 
ROOT
HETATM    1  C1  UNL     1     -34.099  15.642  -6.558  1.00 20.00     0.002 C 
HETATM    2  C2  UNL     1     -34.438  14.534  -5.542  1.00 20.00     0.010 C 
HETATM    3  C3  UNL     1     -33.748  16.556  -5.368  1.00 20.00     0.010 C 
HETATM    4  C4  UNL     1     -34.633  15.644  -4.468  1.00 20.00    -0.028 C 
ENDROOT
BRANCH   4   5
HETATM    5  C7  UNL     1     -34.011  15.315  -3.114  1.00 20.00     0.011 C 
BRANCH   5   6
HETATM    6  C9  UNL     1     -34.815  15.928  -1.966  1.00 20.00     0.005 C 
BRANCH   6   7
HETATM    7  C10 UNL     1     -34.029  16.979  -1.160  1.00 20.00    -0.023 C 
HETATM    8  C5  UNL     1     -34.804  17.344   0.109  1.00 20.00     0.009 C 
HETATM    9  C6  UNL     1     -33.743  18.244  -1.970  1.00 20.00     0.009 C 
ENDBRANCH   6   7
ENDBRANCH   5   6
ENDBRANCH   4   5
BRANCH   4  10
HETATM   10  C8  UNL     1     -36.077  16.123  -4.318  1.00 20.00     0.124 C 
HETATM   11 CL11 UNL     1     -37.161  14.735  -4.122  1.00 20.00    -0.130 Cl
ENDBRANCH   4  10
TORSDOF 4
ENDMDL
MODEL 5
REMARK VINA RESULT:      -4.1     11.649     12.761
REMARK  4 active torsions:
REMARK  status: ('A' for Active; 'I' for Inactive)
REMARK    1  A    between atoms: C4_4  and  C7_7 
REMARK    2  A    between atoms: C4_4  and  C8_8 
REMARK    3  A    between atoms: C7_7  and  C9_9 
REMARK    4  A    between atoms: C9_9  and  C10_10 
ROOT
HETATM    1  C1  UNL     1     -35.320   4.059   5.984  1.00 20.00     0.002 C 
HETATM    2  C2  UNL     1     -33.823   4.424   5.962  1.00 20.00     0.010 C 
HETATM    3  C3  UNL     1     -35.449   4.714   4.595  1.00 20.00     0.010 C 
HETATM    4  C4  UNL     1     -34.155   5.522   4.908  1.00 20.00    -0.028 C 
ENDROOT
BRANCH   4   5
HETATM    5  C7  UNL     1     -33.167   5.587   3.748  1.00 20.00     0.011 C 
BRANCH   5   6
HETATM    6  C9  UNL     1     -33.309   6.895   2.967  1.00 20.00     0.005 C 
BRANCH   6   7
HETATM    7  C10 UNL     1     -31.960   7.532   2.585  1.00 20.00    -0.023 C 
HETATM    8  C5  UNL     1     -31.177   7.885   3.852  1.00 20.00     0.009 C 
HETATM    9  C6  UNL     1     -32.127   8.780   1.718  1.00 20.00     0.009 C 
ENDBRANCH   6   7
ENDBRANCH   5   6
ENDBRANCH   4   5
BRANCH   4  10
HETATM   10  C8  UNL     1     -34.409   6.906   5.506  1.00 20.00     0.124 C 
HETATM   11 CL11 UNL     1     -33.215   7.251   6.769  1.00 20.00    -0.130 Cl
ENDBRANCH   4  10
TORSDOF 4
ENDMDL
MODEL 6
REMARK VINA RESULT:      -4.1      1.703      2.202
REMARK  4 active torsions:
REMARK  status: ('A' for Active; 'I' for Inactive)
REMARK    1  A    between atoms: C4_4  and  C7_7 
REMARK    2  A    between atoms: C4_4  and  C8_8 
REMARK    3  A    between atoms: C7_7  and  C9_9 
REMARK    4  A    between atoms: C9_9  and  C10_10 
ROOT
HETATM    1  C1  UNL     1     -33.829  17.280  -5.877  1.00 20.00     0.002 C 
HETATM    2  C2  UNL     1     -33.730  17.747  -4.411  1.00 20.00     0.010 C 
HETATM    3  C3  UNL     1     -34.791  16.172  -5.406  1.00 20.00     0.010 C 
HETATM    4  C4  UNL     1     -34.192  16.324  -3.977  1.00 20.00    -0.028 C 
ENDROOT
BRANCH   4   5
HETATM    5  C7  UNL     1     -35.233  16.323  -2.863  1.00 20.00     0.011 C 
BRANCH   5   6
HETATM    6  C9  UNL     1     -34.576  16.225  -1.485  1.00 20.00     0.005 C 
BRANCH   6   7
HETATM    7  C10 UNL     1     -34.581  17.554  -0.706  1.00 20.00    -0.023 C 
HETATM    8  C5  UNL     1     -33.163  18.128  -0.652  1.00 20.00     0.009 C 
HETATM    9  C6  UNL     1     -35.129  17.399   0.712  1.00 20.00     0.009 C 
ENDBRANCH   6   7
ENDBRANCH   5   6
ENDBRANCH   4   5
BRANCH   4  10
HETATM   10  C8  UNL     1     -33.045  15.360  -3.672  1.00 20.00     0.124 C 
HETATM   11 CL11 UNL     1     -33.644  13.693  -3.645  1.00 20.00    -0.130 Cl
ENDBRANCH   4  10
TORSDOF 4
ENDMDL
MODEL 7
REMARK VINA RESULT:      -4.1      2.088      4.812
REMARK  4 active torsions:
REMARK  status: ('A' for Active; 'I' for Inactive)
REMARK    1  A    between atoms: C4_4  and  C7_7 
REMARK    2  A    between atoms: C4_4  and  C8_8 
REMARK    3  A    between atoms: C7_7  and  C9_9 
REMARK    4  A    between atoms: C9_9  and  C10_10 
ROOT
HETATM    1  C1  UNL     1     -34.401  16.550  -1.315  1.00 20.00     0.002 C 
HETATM    2  C2  UNL     1     -35.109  15.659  -2.355  1.00 20.00     0.010 C 
HETATM    3  C3  UNL     1     -33.851  17.390  -2.484  1.00 20.00     0.010 C 
HETATM    4  C4  UNL     1     -34.085  16.164  -3.414  1.00 20.00    -0.028 C 
ENDROOT
BRANCH   4   5
HETATM    5  C7  UNL     1     -34.709  16.515  -4.761  1.00 20.00     0.011 C 
BRANCH   5   6
HETATM    6  C9  UNL     1     -33.717  16.307  -5.907  1.00 20.00     0.005 C 
BRANCH   6   7
HETATM    7  C10 UNL     1     -34.347  15.663  -7.156  1.00 20.00    -0.023 C 
HETATM    8  C5  UNL     1     -35.220  16.688  -7.883  1.00 20.00     0.009 C 
HETATM    9  C6  UNL     1     -35.178  14.425  -6.819  1.00 20.00     0.009 C 
ENDBRANCH   6   7
ENDBRANCH   5   6
ENDBRANCH   4   5
BRANCH   4  10
HETATM   10  C8  UNL     1     -32.863  15.261  -3.582  1.00 20.00     0.124 C 
HETATM   11 CL11 UNL     1     -33.374  13.575  -3.769  1.00 20.00    -0.130 Cl
ENDBRANCH   4  10
TORSDOF 4
ENDMDL
MODEL 8
REMARK VINA RESULT:      -4.0     12.969     14.952
REMARK  4 active torsions:
REMARK  status: ('A' for Active; 'I' for Inactive)
REMARK    1  A    between atoms: C4_4  and  C7_7 
REMARK    2  A    between atoms: C4_4  and  C8_8 
REMARK    3  A    between atoms: C7_7  and  C9_9 
REMARK    4  A    between atoms: C9_9  and  C10_10 
ROOT
HETATM    1  C1  UNL     1     -41.090   7.193  -0.906  1.00 20.00     0.002 C 
HETATM    2  C2  UNL     1     -41.754   6.594  -2.161  1.00 20.00     0.010 C 
HETATM    3  C3  UNL     1     -40.794   5.755  -0.437  1.00 20.00     0.010 C 
HETATM    4  C4  UNL     1     -41.941   5.266  -1.369  1.00 20.00    -0.028 C 
ENDROOT
BRANCH   4   5
HETATM    5  C7  UNL     1     -41.600   4.013  -2.169  1.00 20.00     0.011 C 
BRANCH   5   6
HETATM    6  C9  UNL     1     -42.746   3.619  -3.104  1.00 20.00     0.005 C 
BRANCH   6   7
HETATM    7  C10 UNL     1     -42.659   2.164  -3.602  1.00 20.00    -0.023 C 
HETATM    8  C5  UNL     1     -43.262   1.222  -2.558  1.00 20.00     0.009 C 
HETATM    9  C6  UNL     1     -41.224   1.737  -3.913  1.00 20.00     0.009 C 
ENDBRANCH   6   7
ENDBRANCH   5   6
ENDBRANCH   4   5
BRANCH   4  10
HETATM   10  C8  UNL     1     -43.298   5.136  -0.677  1.00 20.00     0.124 C 
HETATM   11 CL11 UNL     1     -43.337   3.666   0.313  1.00 20.00    -0.130 Cl
ENDBRANCH   4  10
TORSDOF 4
ENDMDL
MODEL 9
REMARK VINA RESULT:      -4.0      1.116      4.597
REMARK  4 active torsions:
REMARK  status: ('A' for Active; 'I' for Inactive)
REMARK    1  A    between atoms: C4_4  and  C7_7 
REMARK    2  A    between atoms: C4_4  and  C8_8 
REMARK    3  A    between atoms: C7_7  and  C9_9 
REMARK    4  A    between atoms: C9_9  and  C10_10 
ROOT
HETATM    1  C1  UNL     1     -34.025  18.290   0.162  1.00 20.00     0.002 C 
HETATM    2  C2  UNL     1     -33.342  18.058  -1.200  1.00 20.00     0.010 C 
HETATM    3  C3  UNL     1     -34.831  16.999  -0.079  1.00 20.00     0.010 C 
HETATM    4  C4  UNL     1     -34.554  17.166  -1.602  1.00 20.00    -0.028 C 
ENDROOT
BRANCH   4   5
HETATM    5  C7  UNL     1     -34.164  15.871  -2.308  1.00 20.00     0.011 C 
BRANCH   5   6
HETATM    6  C9  UNL     1     -35.369  15.224  -2.993  1.00 20.00     0.005 C 
BRANCH   6   7
HETATM    7  C10 UNL     1     -34.993  14.049  -3.915  1.00 20.00    -0.023 C 
HETATM    8  C5  UNL     1     -33.494  13.764  -3.806  1.00 20.00     0.009 C 
HETATM    9  C6  UNL     1     -35.363  14.310  -5.375  1.00 20.00     0.009 C 
ENDBRANCH   6   7
ENDBRANCH   5   6
ENDBRANCH   4   5
BRANCH   4  10
HETATM   10  C8  UNL     1     -35.653  17.908  -2.361  1.00 20.00     0.124 C 
HETATM   11 CL11 UNL     1     -35.035  18.478  -3.922  1.00 20.00    -0.130 Cl
ENDBRANCH   4  10
TORSDOF 4
ENDMDL
