MODEL 1
REMARK VINA RESULT:      -4.2      0.000      0.000
REMARK  4 active torsions:
REMARK  status: ('A' for Active; 'I' for Inactive)
REMARK    1  A    between atoms: C3_3  and  C5_5 
REMARK    2  A    between atoms: C3_3  and  C6_6 
REMARK    3  A    between atoms: C5_5  and  C7_7 
REMARK    4  A    between atoms: C7_7  and  O8_8 
ROOT
HETATM    1  C1  UNL     1     -35.575   5.347   4.139  1.00 20.00     0.011 A 
HETATM    2  C2  UNL     1     -34.960   4.083   4.670  1.00 20.00     0.011 A 
HETATM    3  C3  UNL     1     -34.341   5.419   5.007  1.00 20.00    -0.026 A 
ENDROOT
BRANCH   3   4
HETATM    4  C5  UNL     1     -33.036   5.778   4.349  1.00 20.00     0.037 C 
BRANCH   4   5
HETATM    5  C7  UNL     1     -33.219   6.755   3.191  1.00 20.00     0.167 C 
BRANCH   5   6
HETATM    6  O8  UNL     1     -31.973   7.365   2.888  1.00 20.00    -0.396 OA
HETATM    7  C4  UNL     1     -32.117   8.400   1.926  1.00 20.00     0.201 C 
ENDBRANCH   5   6
ENDBRANCH   4   5
ENDBRANCH   3   4
BRANCH   3   8
HETATM    8  C6  UNL     1     -34.495   5.934   6.412  1.00 20.00     0.124 C 
HETATM    9 CL9  UNL     1     -33.346   7.256   6.731  1.00 20.00    -0.130 Cl
ENDBRANCH   3   8
TORSDOF 4
ENDMDL
MODEL 2
REMARK VINA RESULT:      -3.8      1.763      2.253
REMARK  4 active torsions:
REMARK  status: ('A' for Active; 'I' for Inactive)
REMARK    1  A    between atoms: C3_3  and  C5_5 
REMARK    2  A    between atoms: C3_3  and  C6_6 
REMARK    3  A    between atoms: C5_5  and  C7_7 
REMARK    4  A    between atoms: C7_7  and  O8_8 
ROOT
HETATM    1  C1  UNL     1     -33.750   4.551   6.220  1.00 20.00     0.011 A 
HETATM    2  C2  UNL     1     -34.886   5.456   6.605  1.00 20.00     0.011 A 
HETATM    3  C3  UNL     1     -34.414   5.410   5.170  1.00 20.00    -0.026 A 
ENDROOT
BRANCH   3   4
HETATM    4  C5  UNL     1     -33.651   6.593   4.641  1.00 20.00     0.037 C 
BRANCH   4   5
HETATM    5  C7  UNL     1     -32.704   6.212   3.505  1.00 20.00     0.167 C 
BRANCH   5   6
HETATM    6  O8  UNL     1     -31.743   7.243   3.328  1.00 20.00    -0.396 OA
HETATM    7  C4  UNL     1     -32.073   8.083   2.231  1.00 20.00     0.201 C 
ENDBRANCH   5   6
ENDBRANCH   4   5
ENDBRANCH   3   4
BRANCH   3   8
HETATM    8  C6  UNL     1     -35.298   4.734   4.159  1.00 20.00     0.124 C 
HETATM    9 CL9  UNL     1     -36.239   5.932   3.238  1.00 20.00    -0.130 Cl
ENDBRANCH   3   8
TORSDOF 4
ENDMDL
MODEL 3
REMARK VINA RESULT:      -3.7     11.108     12.500
REMARK  4 active torsions:
REMARK  status: ('A' for Active; 'I' for Inactive)
REMARK    1  A    between atoms: C3_3  and  C5_5 
REMARK    2  A    between atoms: C3_3  and  C6_6 
REMARK    3  A    between atoms: C5_5  and  C7_7 
REMARK    4  A    between atoms: C7_7  and  O8_8 
ROOT
HETATM    1  C1  UNL     1     -33.251  16.452  -4.615  1.00 20.00     0.011 A 
HETATM    2  C2  UNL     1     -34.548  17.204  -4.519  1.00 20.00     0.011 A 
HETATM    3  C3  UNL     1     -34.121  16.296  -3.389  1.00 20.00    -0.026 A 
ENDROOT
BRANCH   3   4
HETATM    4  C5  UNL     1     -34.861  14.999  -3.210  1.00 20.00     0.037 C 
BRANCH   4   5
HETATM    5  C7  UNL     1     -33.979  13.784  -3.491  1.00 20.00     0.167 C 
BRANCH   5   6
HETATM    6  O8  UNL     1     -34.707  12.844  -4.267  1.00 20.00    -0.396 OA
HETATM    7  C4  UNL     1     -35.070  13.379  -5.532  1.00 20.00     0.201 C 
ENDBRANCH   5   6
ENDBRANCH   4   5
ENDBRANCH   3   4
BRANCH   3   8
HETATM    8  C6  UNL     1     -33.658  16.934  -2.109  1.00 20.00     0.124 C 
HETATM    9 CL9  UNL     1     -34.720  16.479  -0.754  1.00 20.00    -0.130 Cl
ENDBRANCH   3   8
TORSDOF 4
ENDMDL
MODEL 4
REMARK VINA RESULT:      -3.6     11.633     12.716
REMARK  4 active torsions:
REMARK  status: ('A' for Active; 'I' for Inactive)
REMARK    1  A    between atoms: C3_3  and  C5_5 
REMARK    2  A    between atoms: C3_3  and  C6_6 
REMARK    3  A    between atoms: C5_5  and  C7_7 
REMARK    4  A    between atoms: C7_7  and  O8_8 
ROOT
HETATM    1  C1  UNL     1     -34.844  16.248  -1.663  1.00 20.00     0.011 A 
HETATM    2  C2  UNL     1     -33.553  17.014  -1.730  1.00 20.00     0.011 A 
HETATM    3  C3  UNL     1     -34.063  16.290  -2.955  1.00 20.00    -0.026 A 
ENDROOT
BRANCH   3   4
HETATM    4  C5  UNL     1     -33.344  15.042  -3.386  1.00 20.00     0.037 C 
BRANCH   4   5
HETATM    5  C7  UNL     1     -34.265  13.825  -3.423  1.00 20.00     0.167 C 
BRANCH   5   6
HETATM    6  O8  UNL     1     -34.069  13.123  -4.643  1.00 20.00    -0.396 OA
HETATM    7  C4  UNL     1     -34.840  13.682  -5.697  1.00 20.00     0.201 C 
ENDBRANCH   5   6
ENDBRANCH   4   5
ENDBRANCH   3   4
BRANCH   3   8
HETATM    8  C6  UNL     1     -34.612  17.117  -4.085  1.00 20.00     0.124 C 
HETATM    9 CL9  UNL     1     -33.442  17.216  -5.424  1.00 20.00    -0.130 Cl
ENDBRANCH   3   8
TORSDOF 4
ENDMDL
MODEL 5
REMARK VINA RESULT:      -3.6     12.264     13.051
REMARK  4 active torsions:
REMARK  status: ('A' for Active; 'I' for Inactive)
REMARK    1  A    between atoms: C3_3  and  C5_5 
REMARK    2  A    between atoms: C3_3  and  C6_6 
REMARK    3  A    between atoms: C5_5  and  C7_7 
REMARK    4  A    between atoms: C7_7  and  O8_8 
ROOT
HETATM    1  C1  UNL     1     -33.688  15.768  -2.993  1.00 20.00     0.011 A 
HETATM    2  C2  UNL     1     -32.913  14.636  -3.605  1.00 20.00     0.011 A 
HETATM    3  C3  UNL     1     -34.202  15.095  -4.245  1.00 20.00    -0.026 A 
ENDROOT
BRANCH   3   4
HETATM    4  C5  UNL     1     -35.408  14.204  -4.122  1.00 20.00     0.037 C 
BRANCH   4   5
HETATM    5  C7  UNL     1     -36.640  14.959  -3.630  1.00 20.00     0.167 C 
BRANCH   5   6
HETATM    6  O8  UNL     1     -37.776  14.109  -3.712  1.00 20.00    -0.396 OA
HETATM    7  C4  UNL     1     -38.938  14.827  -4.103  1.00 20.00     0.201 C 
ENDBRANCH   5   6
ENDBRANCH   4   5
ENDBRANCH   3   4
BRANCH   3   8
HETATM    8  C6  UNL     1     -34.115  15.854  -5.541  1.00 20.00     0.124 C 
HETATM    9 CL9  UNL     1     -34.459  14.786  -6.923  1.00 20.00    -0.130 Cl
ENDBRANCH   3   8
TORSDOF 4
ENDMDL
MODEL 6
REMARK VINA RESULT:      -3.5     11.680     12.957
REMARK  4 active torsions:
REMARK  status: ('A' for Active; 'I' for Inactive)
REMARK    1  A    between atoms: C3_3  and  C5_5 
REMARK    2  A    between atoms: C3_3  and  C6_6 
REMARK    3  A    between atoms: C5_5  and  C7_7 
REMARK    4  A    between atoms: C7_7  and  O8_8 
ROOT
HETATM    1  C1  UNL     1     -34.409  13.921  -4.964  1.00 20.00     0.011 A 
HETATM    2  C2  UNL     1     -33.543  13.575  -3.787  1.00 20.00     0.011 A 
HETATM    3  C3  UNL     1     -34.117  14.967  -3.913  1.00 20.00    -0.026 A 
ENDROOT
BRANCH   3   4
HETATM    4  C5  UNL     1     -33.179  16.086  -4.273  1.00 20.00     0.037 C 
BRANCH   4   5
HETATM    5  C7  UNL     1     -33.628  16.839  -5.523  1.00 20.00     0.167 C 
BRANCH   5   6
HETATM    6  O8  UNL     1     -33.338  18.221  -5.369  1.00 20.00    -0.396 OA
HETATM    7  C4  UNL     1     -33.740  18.701  -4.094  1.00 20.00     0.201 C 
ENDBRANCH   5   6
ENDBRANCH   4   5
ENDBRANCH   3   4
BRANCH   3   8
HETATM    8  C6  UNL     1     -35.229  15.358  -2.979  1.00 20.00     0.124 C 
HETATM    9 CL9  UNL     1     -34.586  16.196  -1.546  1.00 20.00    -0.130 Cl
ENDBRANCH   3   8
TORSDOF 4
ENDMDL
MODEL 7
REMARK VINA RESULT:      -3.5     11.775     12.645
REMARK  4 active torsions:
REMARK  status: ('A' for Active; 'I' for Inactive)
REMARK    1  A    between atoms: C3_3  and  C5_5 
REMARK    2  A    between atoms: C3_3  and  C6_6 
REMARK    3  A    between atoms: C5_5  and  C7_7 
REMARK    4  A    between atoms: C7_7  and  O8_8 
ROOT
HETATM    1  C1  UNL     1     -33.310  13.727  -3.690  1.00 20.00     0.011 A 
HETATM    2  C2  UNL     1     -34.460  13.812  -4.653  1.00 20.00     0.011 A 
HETATM    3  C3  UNL     1     -33.991  15.054  -3.933  1.00 20.00    -0.026 A 
ENDROOT
BRANCH   3   4
HETATM    4  C5  UNL     1     -34.864  15.609  -2.842  1.00 20.00     0.037 C 
BRANCH   4   5
HETATM    5  C7  UNL     1     -34.091  16.508  -1.880  1.00 20.00     0.167 C 
BRANCH   5   6
HETATM    6  O8  UNL     1     -34.669  16.418  -0.585  1.00 20.00    -0.396 OA
HETATM    7  C4  UNL     1     -34.580  17.652   0.113  1.00 20.00     0.201 C 
ENDBRANCH   5   6
ENDBRANCH   4   5
ENDBRANCH   3   4
BRANCH   3   8
HETATM    8  C6  UNL     1     -33.249  16.092  -4.729  1.00 20.00     0.124 C 
HETATM    9 CL9  UNL     1     -34.375  17.288  -5.415  1.00 20.00    -0.130 Cl
ENDBRANCH   3   8
TORSDOF 4
ENDMDL
MODEL 8
REMARK VINA RESULT:      -3.5     12.007     12.724
REMARK  4 active torsions:
REMARK  status: ('A' for Active; 'I' for Inactive)
REMARK    1  A    between atoms: C3_3  and  C5_5 
REMARK    2  A    between atoms: C3_3  and  C6_6 
REMARK    3  A    between atoms: C5_5  and  C7_7 
REMARK    4  A    between atoms: C7_7  and  O8_8 
ROOT
HETATM    1  C1  UNL     1     -34.642  17.286  -2.621  1.00 20.00     0.011 A 
HETATM    2  C2  UNL     1     -34.555  16.267  -1.521  1.00 20.00     0.011 A 
HETATM    3  C3  UNL     1     -34.486  15.823  -2.964  1.00 20.00    -0.026 A 
ENDROOT
BRANCH   3   4
HETATM    4  C5  UNL     1     -35.675  15.103  -3.538  1.00 20.00     0.037 C 
BRANCH   4   5
HETATM    5  C7  UNL     1     -35.955  15.505  -4.984  1.00 20.00     0.167 C 
BRANCH   5   6
HETATM    6  O8  UNL     1     -35.658  14.413  -5.842  1.00 20.00    -0.396 OA
HETATM    7  C4  UNL     1     -34.767  14.793  -6.881  1.00 20.00     0.201 C 
ENDBRANCH   5   6
ENDBRANCH   4   5
ENDBRANCH   3   4
BRANCH   3   8
HETATM    8  C6  UNL     1     -33.158  15.361  -3.497  1.00 20.00     0.124 C 
HETATM    9 CL9  UNL     1     -33.129  13.590  -3.675  1.00 20.00    -0.130 Cl
ENDBRANCH   3   8
TORSDOF 4
ENDMDL
MODEL 9
REMARK VINA RESULT:      -3.4      9.438     10.646
REMARK  4 active torsions:
REMARK  status: ('A' for Active; 'I' for Inactive)
REMARK    1  A    between atoms: C3_3  and  C5_5 
REMARK    2  A    between atoms: C3_3  and  C6_6 
REMARK    3  A    between atoms: C5_5  and  C7_7 
REMARK    4  A    between atoms: C7_7  and  O8_8 
ROOT
HETATM    1  C1  UNL     1     -40.762   5.914  -0.266  1.00 20.00     0.011 A 
HETATM    2  C2  UNL     1     -41.092   7.229  -0.913  1.00 20.00     0.011 A 
HETATM    3  C3  UNL     1     -42.055   6.070  -1.032  1.00 20.00    -0.026 A 
ENDROOT
BRANCH   3   4
HETATM    4  C5  UNL     1     -42.171   5.384  -2.366  1.00 20.00     0.037 C 
BRANCH   4   5
HETATM    5  C7  UNL     1     -42.413   3.884  -2.228  1.00 20.00     0.167 C 
BRANCH   5   6
HETATM    6  O8  UNL     1     -41.261   3.179  -2.666  1.00 20.00    -0.396 OA
HETATM    7  C4  UNL     1     -41.605   2.079  -3.497  1.00 20.00     0.201 C 
ENDBRANCH   5   6
ENDBRANCH   4   5
ENDBRANCH   3   4
BRANCH   3   8
HETATM    8  C6  UNL     1     -43.337   6.135  -0.249  1.00 20.00     0.124 C 
HETATM    9 CL9  UNL     1     -43.197   5.219   1.271  1.00 20.00    -0.130 Cl
ENDBRANCH   3   8
TORSDOF 4
ENDMDL
