MODEL 1
REMARK VINA RESULT:      -4.6      0.000      0.000
REMARK  5 active torsions:
REMARK  status: ('A' for Active; 'I' for Inactive)
REMARK    1  A    between atoms: C2_2  and  C8_8 
REMARK    2  A    between atoms: C2_2  and  C9_9 
REMARK    3  A    between atoms: C3_3  and  C10_10 
REMARK    4  A    between atoms: C9_9  and  C10_10 
REMARK    5  A    between atoms: C10_10  and  C11_11 
ROOT
HETATM    1  C10 UNL     1     -35.548  15.240  -3.721  1.00 20.00     0.062 C 
ENDROOT
BRANCH   1   2
HETATM    2  C3  UNL     1     -37.075  15.207  -3.602  1.00 20.00     0.127 C 
HETATM    3  C4  UNL     1     -37.768  16.528  -3.381  1.00 20.00     0.091 C 
HETATM    4  O12 UNL     1     -37.720  14.163  -3.695  1.00 20.00    -0.298 OA
ENDBRANCH   1   2
BRANCH   1   5
HETATM    5  C9  UNL     1     -34.918  15.540  -2.344  1.00 20.00     0.045 C 
BRANCH   5   6
HETATM    6  C2  UNL     1     -34.144  16.844  -2.288  1.00 20.00    -0.089 C 
HETATM    7  C1  UNL     1     -33.781  17.477  -3.417  1.00 20.00     0.014 C 
BRANCH   6   8
HETATM    8  C8  UNL     1     -33.782  17.413  -0.935  1.00 20.00     0.029 C 
HETATM    9  C5  UNL     1     -34.881  17.230   0.103  1.00 20.00     0.010 C 
ENDBRANCH   6   8
ENDBRANCH   5   6
ENDBRANCH   1   5
BRANCH   1  10
HETATM   10  C11 UNL     1     -34.973  13.947  -4.358  1.00 20.00    -0.011 C 
HETATM   11  C6  UNL     1     -33.585  13.545  -3.851  1.00 20.00     0.010 C 
HETATM   12  C7  UNL     1     -34.960  14.026  -5.888  1.00 20.00     0.010 C 
ENDBRANCH   1  10
TORSDOF 5
ENDMDL
MODEL 2
REMARK VINA RESULT:      -4.5      1.601      2.888
REMARK  5 active torsions:
REMARK  status: ('A' for Active; 'I' for Inactive)
REMARK    1  A    between atoms: C2_2  and  C8_8 
REMARK    2  A    between atoms: C2_2  and  C9_9 
REMARK    3  A    between atoms: C3_3  and  C10_10 
REMARK    4  A    between atoms: C9_9  and  C10_10 
REMARK    5  A    between atoms: C10_10  and  C11_11 
ROOT
HETATM    1  C10 UNL     1     -34.899  14.975  -4.929  1.00 20.00     0.062 C 
ENDROOT
BRANCH   1   2
HETATM    2  C3  UNL     1     -34.395  13.660  -4.325  1.00 20.00     0.127 C 
HETATM    3  C4  UNL     1     -33.052  13.698  -3.641  1.00 20.00     0.091 C 
HETATM    4  O12 UNL     1     -35.049  12.619  -4.376  1.00 20.00    -0.298 OA
ENDBRANCH   1   2
BRANCH   1   5
HETATM    5  C9  UNL     1     -34.464  16.163  -4.044  1.00 20.00     0.045 C 
BRANCH   5   6
HETATM    6  C2  UNL     1     -35.386  16.431  -2.869  1.00 20.00    -0.089 C 
HETATM    7  C1  UNL     1     -36.678  16.744  -3.067  1.00 20.00     0.014 C 
BRANCH   6   8
HETATM    8  C8  UNL     1     -34.819  16.345  -1.470  1.00 20.00     0.029 C 
HETATM    9  C5  UNL     1     -33.671  17.317  -1.230  1.00 20.00     0.010 C 
ENDBRANCH   6   8
ENDBRANCH   5   6
ENDBRANCH   1   5
BRANCH   1  10
HETATM   10  C11 UNL     1     -34.463  15.157  -6.407  1.00 20.00    -0.011 C 
HETATM   11  C6  UNL     1     -34.309  16.612  -6.856  1.00 20.00     0.010 C 
HETATM   12  C7  UNL     1     -35.399  14.417  -7.369  1.00 20.00     0.010 C 
ENDBRANCH   1  10
TORSDOF 5
ENDMDL
MODEL 3
REMARK VINA RESULT:      -4.5      1.602      2.676
REMARK  5 active torsions:
REMARK  status: ('A' for Active; 'I' for Inactive)
REMARK    1  A    between atoms: C2_2  and  C8_8 
REMARK    2  A    between atoms: C2_2  and  C9_9 
REMARK    3  A    between atoms: C3_3  and  C10_10 
REMARK    4  A    between atoms: C9_9  and  C10_10 
REMARK    5  A    between atoms: C10_10  and  C11_11 
ROOT
HETATM    1  C10 UNL     1     -34.877  15.112  -4.300  1.00 20.00     0.062 C 
ENDROOT
BRANCH   1   2
HETATM    2  C3  UNL     1     -34.380  13.675  -4.113  1.00 20.00     0.127 C 
HETATM    3  C4  UNL     1     -33.003  13.505  -3.524  1.00 20.00     0.091 C 
HETATM    4  O12 UNL     1     -35.065  12.697  -4.412  1.00 20.00    -0.298 OA
ENDBRANCH   1   2
BRANCH   1   5
HETATM    5  C9  UNL     1     -33.756  16.110  -3.938  1.00 20.00     0.045 C 
BRANCH   5   6
HETATM    6  C2  UNL     1     -34.047  16.947  -2.706  1.00 20.00    -0.089 C 
HETATM    7  C1  UNL     1     -33.777  18.264  -2.691  1.00 20.00     0.014 C 
BRANCH   6   8
HETATM    8  C8  UNL     1     -34.639  16.267  -1.493  1.00 20.00     0.029 C 
HETATM    9  C5  UNL     1     -34.619  17.144  -0.247  1.00 20.00     0.010 C 
ENDBRANCH   6   8
ENDBRANCH   5   6
ENDBRANCH   1   5
BRANCH   1  10
HETATM   10  C11 UNL     1     -35.447  15.364  -5.721  1.00 20.00    -0.011 C 
HETATM   11  C6  UNL     1     -34.407  15.334  -6.845  1.00 20.00     0.010 C 
HETATM   12  C7  UNL     1     -36.242  16.673  -5.789  1.00 20.00     0.010 C 
ENDBRANCH   1  10
TORSDOF 5
ENDMDL
MODEL 4
REMARK VINA RESULT:      -4.4      1.511      2.855
REMARK  5 active torsions:
REMARK  status: ('A' for Active; 'I' for Inactive)
REMARK    1  A    between atoms: C2_2  and  C8_8 
REMARK    2  A    between atoms: C2_2  and  C9_9 
REMARK    3  A    between atoms: C3_3  and  C10_10 
REMARK    4  A    between atoms: C9_9  and  C10_10 
REMARK    5  A    between atoms: C10_10  and  C11_11 
ROOT
HETATM    1  C10 UNL     1     -35.721  14.767  -3.562  1.00 20.00     0.062 C 
ENDROOT
BRANCH   1   2
HETATM    2  C3  UNL     1     -34.696  13.695  -3.945  1.00 20.00     0.127 C 
HETATM    3  C4  UNL     1     -33.244  14.033  -3.723  1.00 20.00     0.091 C 
HETATM    4  O12 UNL     1     -35.027  12.600  -4.399  1.00 20.00    -0.298 OA
ENDBRANCH   1   2
BRANCH   1   5
HETATM    5  C9  UNL     1     -35.031  16.145  -3.464  1.00 20.00     0.045 C 
BRANCH   5   6
HETATM    6  C2  UNL     1     -35.327  16.896  -2.179  1.00 20.00    -0.089 C 
HETATM    7  C1  UNL     1     -36.307  17.814  -2.130  1.00 20.00     0.014 C 
BRANCH   6   8
HETATM    8  C8  UNL     1     -34.491  16.594  -0.956  1.00 20.00     0.029 C 
HETATM    9  C5  UNL     1     -34.984  17.310   0.295  1.00 20.00     0.010 C 
ENDBRANCH   6   8
ENDBRANCH   5   6
ENDBRANCH   1   5
BRANCH   1  10
HETATM   10  C11 UNL     1     -36.943  14.791  -4.518  1.00 20.00    -0.011 C 
HETATM   11  C6  UNL     1     -36.858  15.829  -5.641  1.00 20.00     0.010 C 
HETATM   12  C7  UNL     1     -38.259  14.966  -3.753  1.00 20.00     0.010 C 
ENDBRANCH   1  10
TORSDOF 5
ENDMDL
MODEL 5
REMARK VINA RESULT:      -4.4      1.908      4.364
REMARK  5 active torsions:
REMARK  status: ('A' for Active; 'I' for Inactive)
REMARK    1  A    between atoms: C2_2  and  C8_8 
REMARK    2  A    between atoms: C2_2  and  C9_9 
REMARK    3  A    between atoms: C3_3  and  C10_10 
REMARK    4  A    between atoms: C9_9  and  C10_10 
REMARK    5  A    between atoms: C10_10  and  C11_11 
ROOT
HETATM    1  C10 UNL     1     -33.944  16.455  -2.619  1.00 20.00     0.062 C 
ENDROOT
BRANCH   1   2
HETATM    2  C3  UNL     1     -34.045  17.065  -1.218  1.00 20.00     0.127 C 
HETATM    3  C4  UNL     1     -33.250  18.321  -0.966  1.00 20.00     0.091 C 
HETATM    4  O12 UNL     1     -34.747  16.575  -0.335  1.00 20.00    -0.298 OA
ENDBRANCH   1   2
BRANCH   1   5
HETATM    5  C9  UNL     1     -34.795  15.168  -2.697  1.00 20.00     0.045 C 
BRANCH   5   6
HETATM    6  C2  UNL     1     -34.217  14.097  -3.602  1.00 20.00    -0.089 C 
HETATM    7  C1  UNL     1     -32.920  13.755  -3.521  1.00 20.00     0.014 C 
BRANCH   6   8
HETATM    8  C8  UNL     1     -35.130  13.427  -4.604  1.00 20.00     0.029 C 
HETATM    9  C5  UNL     1     -35.100  14.090  -5.975  1.00 20.00     0.010 C 
ENDBRANCH   6   8
ENDBRANCH   5   6
ENDBRANCH   1   5
BRANCH   1  10
HETATM   10  C11 UNL     1     -34.310  17.466  -3.737  1.00 20.00    -0.011 C 
HETATM   11  C6  UNL     1     -35.781  17.448  -4.163  1.00 20.00     0.010 C 
HETATM   12  C7  UNL     1     -33.415  17.299  -4.969  1.00 20.00     0.010 C 
ENDBRANCH   1  10
TORSDOF 5
ENDMDL
MODEL 6
REMARK VINA RESULT:      -4.3      2.409      4.079
REMARK  5 active torsions:
REMARK  status: ('A' for Active; 'I' for Inactive)
REMARK    1  A    between atoms: C2_2  and  C8_8 
REMARK    2  A    between atoms: C2_2  and  C9_9 
REMARK    3  A    between atoms: C3_3  and  C10_10 
REMARK    4  A    between atoms: C9_9  and  C10_10 
REMARK    5  A    between atoms: C10_10  and  C11_11 
ROOT
HETATM    1  C10 UNL     1     -34.488  16.247  -3.664  1.00 20.00     0.062 C 
ENDROOT
BRANCH   1   2
HETATM    2  C3  UNL     1     -34.144  17.060  -2.413  1.00 20.00     0.127 C 
HETATM    3  C4  UNL     1     -34.596  16.495  -1.090  1.00 20.00     0.091 C 
HETATM    4  O12 UNL     1     -33.518  18.118  -2.466  1.00 20.00    -0.298 OA
ENDBRANCH   1   2
BRANCH   1   5
HETATM    5  C9  UNL     1     -33.424  16.486  -4.758  1.00 20.00     0.045 C 
BRANCH   5   6
HETATM    6  C2  UNL     1     -33.926  17.282  -5.947  1.00 20.00    -0.089 C 
HETATM    7  C1  UNL     1     -33.656  18.594  -6.060  1.00 20.00     0.014 C 
BRANCH   6   8
HETATM    8  C8  UNL     1     -34.744  16.570  -7.001  1.00 20.00     0.029 C 
HETATM    9  C5  UNL     1     -34.329  15.118  -7.199  1.00 20.00     0.010 C 
ENDBRANCH   6   8
ENDBRANCH   5   6
ENDBRANCH   1   5
BRANCH   1  10
HETATM   10  C11 UNL     1     -34.684  14.738  -3.359  1.00 20.00    -0.011 C 
HETATM   11  C6  UNL     1     -33.512  13.843  -3.769  1.00 20.00     0.010 C 
HETATM   12  C7  UNL     1     -35.982  14.200  -3.970  1.00 20.00     0.010 C 
ENDBRANCH   1  10
TORSDOF 5
ENDMDL
MODEL 7
REMARK VINA RESULT:      -4.3      1.648      3.053
REMARK  5 active torsions:
REMARK  status: ('A' for Active; 'I' for Inactive)
REMARK    1  A    between atoms: C2_2  and  C8_8 
REMARK    2  A    between atoms: C2_2  and  C9_9 
REMARK    3  A    between atoms: C3_3  and  C10_10 
REMARK    4  A    between atoms: C9_9  and  C10_10 
REMARK    5  A    between atoms: C10_10  and  C11_11 
ROOT
HETATM    1  C10 UNL     1     -34.771  15.173  -3.910  1.00 20.00     0.062 C 
ENDROOT
BRANCH   1   2
HETATM    2  C3  UNL     1     -34.330  13.706  -3.928  1.00 20.00     0.127 C 
HETATM    3  C4  UNL     1     -32.903  13.421  -3.532  1.00 20.00     0.091 C 
HETATM    4  O12 UNL     1     -35.094  12.792  -4.236  1.00 20.00    -0.298 OA
ENDBRANCH   1   2
BRANCH   1   5
HETATM    5  C9  UNL     1     -33.629  16.061  -3.370  1.00 20.00     0.045 C 
BRANCH   5   6
HETATM    6  C2  UNL     1     -34.035  16.958  -2.216  1.00 20.00    -0.089 C 
HETATM    7  C1  UNL     1     -34.634  16.448  -1.127  1.00 20.00     0.014 C 
BRANCH   6   8
HETATM    8  C8  UNL     1     -33.758  18.441  -2.320  1.00 20.00     0.029 C 
HETATM    9  C5  UNL     1     -33.668  18.932  -3.759  1.00 20.00     0.010 C 
ENDBRANCH   6   8
ENDBRANCH   5   6
ENDBRANCH   1   5
BRANCH   1  10
HETATM   10  C11 UNL     1     -35.286  15.657  -5.291  1.00 20.00    -0.011 C 
HETATM   11  C6  UNL     1     -34.193  16.133  -6.252  1.00 20.00     0.010 C 
HETATM   12  C7  UNL     1     -36.357  16.744  -5.149  1.00 20.00     0.010 C 
ENDBRANCH   1  10
TORSDOF 5
ENDMDL
MODEL 8
REMARK VINA RESULT:      -4.3      2.239      4.643
REMARK  5 active torsions:
REMARK  status: ('A' for Active; 'I' for Inactive)
REMARK    1  A    between atoms: C2_2  and  C8_8 
REMARK    2  A    between atoms: C2_2  and  C9_9 
REMARK    3  A    between atoms: C3_3  and  C10_10 
REMARK    4  A    between atoms: C9_9  and  C10_10 
REMARK    5  A    between atoms: C10_10  and  C11_11 
ROOT
HETATM    1  C10 UNL     1     -33.785  15.463  -4.201  1.00 20.00     0.062 C 
ENDROOT
BRANCH   1   2
HETATM    2  C3  UNL     1     -33.861  13.953  -3.956  1.00 20.00     0.127 C 
HETATM    3  C4  UNL     1     -35.165  13.275  -4.293  1.00 20.00     0.091 C 
HETATM    4  O12 UNL     1     -32.908  13.308  -3.520  1.00 20.00    -0.298 OA
ENDBRANCH   1   2
BRANCH   1   5
HETATM    5  C9  UNL     1     -34.954  15.911  -5.105  1.00 20.00     0.045 C 
BRANCH   5   6
HETATM    6  C2  UNL     1     -34.539  16.282  -6.516  1.00 20.00    -0.089 C 
HETATM    7  C1  UNL     1     -34.287  17.561  -6.844  1.00 20.00     0.014 C 
BRANCH   6   8
HETATM    8  C8  UNL     1     -34.421  15.184  -7.548  1.00 20.00     0.029 C 
HETATM    9  C5  UNL     1     -35.723  14.424  -7.763  1.00 20.00     0.010 C 
ENDBRANCH   6   8
ENDBRANCH   5   6
ENDBRANCH   1   5
BRANCH   1  10
HETATM   10  C11 UNL     1     -33.723  16.277  -2.881  1.00 20.00    -0.011 C 
HETATM   11  C6  UNL     1     -34.811  15.931  -1.861  1.00 20.00     0.010 C 
HETATM   12  C7  UNL     1     -33.724  17.786  -3.145  1.00 20.00     0.010 C 
ENDBRANCH   1  10
TORSDOF 5
ENDMDL
MODEL 9
REMARK VINA RESULT:      -4.3      1.285      1.876
REMARK  5 active torsions:
REMARK  status: ('A' for Active; 'I' for Inactive)
REMARK    1  A    between atoms: C2_2  and  C8_8 
REMARK    2  A    between atoms: C2_2  and  C9_9 
REMARK    3  A    between atoms: C3_3  and  C10_10 
REMARK    4  A    between atoms: C9_9  and  C10_10 
REMARK    5  A    between atoms: C10_10  and  C11_11 
ROOT
HETATM    1  C10 UNL     1     -36.125  15.612  -4.270  1.00 20.00     0.062 C 
ENDROOT
BRANCH   1   2
HETATM    2  C3  UNL     1     -37.552  15.308  -3.805  1.00 20.00     0.127 C 
HETATM    3  C4  UNL     1     -38.422  16.491  -3.465  1.00 20.00     0.091 C 
HETATM    4  O12 UNL     1     -37.987  14.159  -3.722  1.00 20.00    -0.298 OA
ENDBRANCH   1   2
BRANCH   1   5
HETATM    5  C9  UNL     1     -35.123  14.698  -3.530  1.00 20.00     0.045 C 
BRANCH   5   6
HETATM    6  C2  UNL     1     -33.814  15.376  -3.172  1.00 20.00    -0.089 C 
HETATM    7  C1  UNL     1     -32.640  14.861  -3.576  1.00 20.00     0.014 C 
BRANCH   6   8
HETATM    8  C8  UNL     1     -33.857  16.640  -2.344  1.00 20.00     0.029 C 
HETATM    9  C5  UNL     1     -34.629  16.475  -1.041  1.00 20.00     0.010 C 
ENDBRANCH   6   8
ENDBRANCH   5   6
ENDBRANCH   1   5
BRANCH   1  10
HETATM   10  C11 UNL     1     -35.969  15.522  -5.811  1.00 20.00    -0.011 C 
HETATM   11  C6  UNL     1     -35.283  14.249  -6.314  1.00 20.00     0.010 C 
HETATM   12  C7  UNL     1     -35.255  16.753  -6.381  1.00 20.00     0.010 C 
ENDBRANCH   1  10
TORSDOF 5
ENDMDL
