MODEL 1
REMARK VINA RESULT:      -4.8      0.000      0.000
REMARK  5 active torsions:
REMARK  status: ('A' for Active; 'I' for Inactive)
REMARK    1  A    between atoms: C2_2  and  C7_7 
REMARK    2  A    between atoms: C2_2  and  C8_8 
REMARK    3  A    between atoms: C3_3  and  C10_10 
REMARK    4  A    between atoms: C8_8  and  C10_10 
REMARK    5  A    between atoms: C9_9  and  C10_10 
ROOT
HETATM    1  C10 UNL     1     -33.968   5.712   5.049  1.00 20.00     0.058 C 
ENDROOT
BRANCH   1   2
HETATM    2  C3  UNL     1     -35.119   4.821   4.578  1.00 20.00     0.127 C 
HETATM    3  C4  UNL     1     -36.107   5.436   3.619  1.00 20.00     0.091 C 
HETATM    4  O11 UNL     1     -35.263   3.663   4.973  1.00 20.00    -0.298 OA
ENDBRANCH   1   2
BRANCH   1   5
HETATM    5  C8  UNL     1     -33.732   6.901   4.096  1.00 20.00     0.045 C 
BRANCH   5   6
HETATM    6  C2  UNL     1     -32.498   6.765   3.223  1.00 20.00    -0.089 C 
HETATM    7  C1  UNL     1     -32.092   5.557   2.793  1.00 20.00     0.014 C 
BRANCH   6   8
HETATM    8  C7  UNL     1     -31.726   8.010   2.854  1.00 20.00     0.029 C 
HETATM    9  C5  UNL     1     -32.075   8.545   1.472  1.00 20.00     0.010 C 
ENDBRANCH   6   8
ENDBRANCH   5   6
ENDBRANCH   1   5
BRANCH   1  10
HETATM   10  C9  UNL     1     -34.204   6.161   6.503  1.00 20.00     0.008 C 
HETATM   11  C6  UNL     1     -33.431   7.400   6.934  1.00 20.00     0.006 C 
ENDBRANCH   1  10
TORSDOF 5
ENDMDL
MODEL 2
REMARK VINA RESULT:      -4.6      2.096      4.654
REMARK  5 active torsions:
REMARK  status: ('A' for Active; 'I' for Inactive)
REMARK    1  A    between atoms: C2_2  and  C7_7 
REMARK    2  A    between atoms: C2_2  and  C8_8 
REMARK    3  A    between atoms: C3_3  and  C10_10 
REMARK    4  A    between atoms: C8_8  and  C10_10 
REMARK    5  A    between atoms: C9_9  and  C10_10 
ROOT
HETATM    1  C10 UNL     1     -32.716   6.251   3.738  1.00 20.00     0.058 C 
ENDROOT
BRANCH   1   2
HETATM    2  C3  UNL     1     -31.866   7.482   3.417  1.00 20.00     0.127 C 
HETATM    3  C4  UNL     1     -32.109   8.148   2.086  1.00 20.00     0.091 C 
HETATM    4  O11 UNL     1     -31.002   7.908   4.185  1.00 20.00    -0.298 OA
ENDBRANCH   1   2
BRANCH   1   5
HETATM    5  C8  UNL     1     -34.041   6.628   4.428  1.00 20.00     0.045 C 
BRANCH   5   6
HETATM    6  C2  UNL     1     -34.059   6.377   5.925  1.00 20.00    -0.089 C 
HETATM    7  C1  UNL     1     -33.372   7.172   6.762  1.00 20.00     0.014 C 
BRANCH   6   8
HETATM    8  C7  UNL     1     -34.856   5.208   6.457  1.00 20.00     0.029 C 
HETATM    9  C5  UNL     1     -34.875   4.015   5.512  1.00 20.00     0.010 C 
ENDBRANCH   6   8
ENDBRANCH   5   6
ENDBRANCH   1   5
BRANCH   1  10
HETATM   10  C9  UNL     1     -32.932   5.409   2.468  1.00 20.00     0.008 C 
HETATM   11  C6  UNL     1     -34.385   5.104   2.128  1.00 20.00     0.006 C 
ENDBRANCH   1  10
TORSDOF 5
ENDMDL
MODEL 3
REMARK VINA RESULT:      -4.6      1.630      2.759
REMARK  5 active torsions:
REMARK  status: ('A' for Active; 'I' for Inactive)
REMARK    1  A    between atoms: C2_2  and  C7_7 
REMARK    2  A    between atoms: C2_2  and  C8_8 
REMARK    3  A    between atoms: C3_3  and  C10_10 
REMARK    4  A    between atoms: C8_8  and  C10_10 
REMARK    5  A    between atoms: C9_9  and  C10_10 
ROOT
HETATM    1  C10 UNL     1     -33.993   6.391   4.249  1.00 20.00     0.058 C 
ENDROOT
BRANCH   1   2
HETATM    2  C3  UNL     1     -34.089   6.085   5.745  1.00 20.00     0.127 C 
HETATM    3  C4  UNL     1     -34.788   4.807   6.134  1.00 20.00     0.091 C 
HETATM    4  O11 UNL     1     -33.645   6.846   6.605  1.00 20.00    -0.298 OA
ENDBRANCH   1   2
BRANCH   1   5
HETATM    5  C8  UNL     1     -32.568   6.175   3.706  1.00 20.00     0.045 C 
BRANCH   5   6
HETATM    6  C2  UNL     1     -31.860   7.450   3.284  1.00 20.00    -0.089 C 
HETATM    7  C1  UNL     1     -31.108   8.138   4.160  1.00 20.00     0.014 C 
BRANCH   6   8
HETATM    8  C7  UNL     1     -32.025   7.939   1.863  1.00 20.00     0.029 C 
HETATM    9  C5  UNL     1     -32.446   9.399   1.776  1.00 20.00     0.010 C 
ENDBRANCH   6   8
ENDBRANCH   5   6
ENDBRANCH   1   5
BRANCH   1  10
HETATM   10  C9  UNL     1     -35.049   5.582   3.473  1.00 20.00     0.008 C 
HETATM   11  C6  UNL     1     -34.589   5.035   2.128  1.00 20.00     0.006 C 
ENDBRANCH   1  10
TORSDOF 5
ENDMDL
MODEL 4
REMARK VINA RESULT:      -4.5     11.374     12.583
REMARK  5 active torsions:
REMARK  status: ('A' for Active; 'I' for Inactive)
REMARK    1  A    between atoms: C2_2  and  C7_7 
REMARK    2  A    between atoms: C2_2  and  C8_8 
REMARK    3  A    between atoms: C3_3  and  C10_10 
REMARK    4  A    between atoms: C8_8  and  C10_10 
REMARK    5  A    between atoms: C9_9  and  C10_10 
ROOT
HETATM    1  C10 UNL     1     -34.312  14.776  -3.152  1.00 20.00     0.058 C 
ENDROOT
BRANCH   1   2
HETATM    2  C3  UNL     1     -35.244  13.867  -3.956  1.00 20.00     0.127 C 
HETATM    3  C4  UNL     1     -36.652  14.360  -4.177  1.00 20.00     0.091 C 
HETATM    4  O11 UNL     1     -34.886  12.771  -4.390  1.00 20.00    -0.298 OA
ENDBRANCH   1   2
BRANCH   1   5
HETATM    5  C8  UNL     1     -33.138  15.298  -4.003  1.00 20.00     0.045 C 
BRANCH   5   6
HETATM    6  C2  UNL     1     -33.543  16.266  -5.100  1.00 20.00    -0.089 C 
HETATM    7  C1  UNL     1     -33.502  17.593  -4.892  1.00 20.00     0.014 C 
BRANCH   6   8
HETATM    8  C7  UNL     1     -34.005  15.710  -6.427  1.00 20.00     0.029 C 
HETATM    9  C5  UNL     1     -35.183  16.471  -7.019  1.00 20.00     0.010 C 
ENDBRANCH   6   8
ENDBRANCH   5   6
ENDBRANCH   1   5
BRANCH   1  10
HETATM   10  C9  UNL     1     -35.116  15.915  -2.497  1.00 20.00     0.008 C 
HETATM   11  C6  UNL     1     -34.498  16.507  -1.238  1.00 20.00     0.006 C 
ENDBRANCH   1  10
TORSDOF 5
ENDMDL
MODEL 5
REMARK VINA RESULT:      -4.4     10.896     12.721
REMARK  5 active torsions:
REMARK  status: ('A' for Active; 'I' for Inactive)
REMARK    1  A    between atoms: C2_2  and  C7_7 
REMARK    2  A    between atoms: C2_2  and  C8_8 
REMARK    3  A    between atoms: C3_3  and  C10_10 
REMARK    4  A    between atoms: C8_8  and  C10_10 
REMARK    5  A    between atoms: C9_9  and  C10_10 
ROOT
HETATM    1  C10 UNL     1     -34.862  15.121  -4.320  1.00 20.00     0.058 C 
ENDROOT
BRANCH   1   2
HETATM    2  C3  UNL     1     -34.389  13.683  -4.100  1.00 20.00     0.127 C 
HETATM    3  C4  UNL     1     -32.987  13.502  -3.575  1.00 20.00     0.091 C 
HETATM    4  O11 UNL     1     -35.095  12.708  -4.358  1.00 20.00    -0.298 OA
ENDBRANCH   1   2
BRANCH   1   5
HETATM    5  C8  UNL     1     -33.769  16.149  -3.971  1.00 20.00     0.045 C 
BRANCH   5   6
HETATM    6  C2  UNL     1     -34.048  16.956  -2.715  1.00 20.00    -0.089 C 
HETATM    7  C1  UNL     1     -33.789  18.275  -2.676  1.00 20.00     0.014 C 
BRANCH   6   8
HETATM    8  C7  UNL     1     -34.613  16.248  -1.505  1.00 20.00     0.029 C 
HETATM    9  C5  UNL     1     -34.677  17.133  -0.268  1.00 20.00     0.010 C 
ENDBRANCH   6   8
ENDBRANCH   5   6
ENDBRANCH   1   5
BRANCH   1  10
HETATM   10  C9  UNL     1     -35.394  15.292  -5.755  1.00 20.00     0.008 C 
HETATM   11  C6  UNL     1     -34.335  15.268  -6.849  1.00 20.00     0.006 C 
ENDBRANCH   1  10
TORSDOF 5
ENDMDL
MODEL 6
REMARK VINA RESULT:      -4.3     11.176     12.313
REMARK  5 active torsions:
REMARK  status: ('A' for Active; 'I' for Inactive)
REMARK    1  A    between atoms: C2_2  and  C7_7 
REMARK    2  A    between atoms: C2_2  and  C8_8 
REMARK    3  A    between atoms: C3_3  and  C10_10 
REMARK    4  A    between atoms: C8_8  and  C10_10 
REMARK    5  A    between atoms: C9_9  and  C10_10 
ROOT
HETATM    1  C10 UNL     1     -35.666  15.080  -3.749  1.00 20.00     0.058 C 
ENDROOT
BRANCH   1   2
HETATM    2  C3  UNL     1     -37.187  15.179  -3.621  1.00 20.00     0.127 C 
HETATM    3  C4  UNL     1     -37.760  16.549  -3.359  1.00 20.00     0.091 C 
HETATM    4  O11 UNL     1     -37.923  14.194  -3.701  1.00 20.00    -0.298 OA
ENDBRANCH   1   2
BRANCH   1   5
HETATM    5  C8  UNL     1     -34.952  15.423  -2.427  1.00 20.00     0.045 C 
BRANCH   5   6
HETATM    6  C2  UNL     1     -34.124  16.695  -2.476  1.00 20.00    -0.089 C 
HETATM    7  C1  UNL     1     -33.708  17.196  -3.652  1.00 20.00     0.014 C 
BRANCH   6   8
HETATM    8  C7  UNL     1     -33.766  17.382  -1.179  1.00 20.00     0.029 C 
HETATM    9  C5  UNL     1     -34.778  17.133  -0.069  1.00 20.00     0.010 C 
ENDBRANCH   6   8
ENDBRANCH   5   6
ENDBRANCH   1   5
BRANCH   1  10
HETATM   10  C9  UNL     1     -35.267  13.695  -4.291  1.00 20.00     0.008 C 
HETATM   11  C6  UNL     1     -33.806  13.315  -4.093  1.00 20.00     0.006 C 
ENDBRANCH   1  10
TORSDOF 5
ENDMDL
MODEL 7
REMARK VINA RESULT:      -4.3     11.185     12.245
REMARK  5 active torsions:
REMARK  status: ('A' for Active; 'I' for Inactive)
REMARK    1  A    between atoms: C2_2  and  C7_7 
REMARK    2  A    between atoms: C2_2  and  C8_8 
REMARK    3  A    between atoms: C3_3  and  C10_10 
REMARK    4  A    between atoms: C8_8  and  C10_10 
REMARK    5  A    between atoms: C9_9  and  C10_10 
ROOT
HETATM    1  C10 UNL     1     -34.610  14.923  -3.254  1.00 20.00     0.058 C 
ENDROOT
BRANCH   1   2
HETATM    2  C3  UNL     1     -34.039  13.700  -3.974  1.00 20.00     0.127 C 
HETATM    3  C4  UNL     1     -34.796  13.204  -5.179  1.00 20.00     0.091 C 
HETATM    4  O11 UNL     1     -33.024  13.119  -3.587  1.00 20.00    -0.298 OA
ENDBRANCH   1   2
BRANCH   1   5
HETATM    5  C8  UNL     1     -33.508  15.921  -2.847  1.00 20.00     0.045 C 
BRANCH   5   6
HETATM    6  C2  UNL     1     -33.979  17.026  -1.919  1.00 20.00    -0.089 C 
HETATM    7  C1  UNL     1     -33.753  18.317  -2.221  1.00 20.00     0.014 C 
BRANCH   6   8
HETATM    8  C7  UNL     1     -34.697  16.650  -0.644  1.00 20.00     0.029 C 
HETATM    9  C5  UNL     1     -34.630  17.733   0.424  1.00 20.00     0.010 C 
ENDBRANCH   6   8
ENDBRANCH   5   6
ENDBRANCH   1   5
BRANCH   1  10
HETATM   10  C9  UNL     1     -35.710  15.577  -4.110  1.00 20.00     0.008 C 
HETATM   11  C6  UNL     1     -37.097  15.600  -3.481  1.00 20.00     0.006 C 
ENDBRANCH   1  10
TORSDOF 5
ENDMDL
MODEL 8
REMARK VINA RESULT:      -4.3     11.545     12.492
REMARK  5 active torsions:
REMARK  status: ('A' for Active; 'I' for Inactive)
REMARK    1  A    between atoms: C2_2  and  C7_7 
REMARK    2  A    between atoms: C2_2  and  C8_8 
REMARK    3  A    between atoms: C3_3  and  C10_10 
REMARK    4  A    between atoms: C8_8  and  C10_10 
REMARK    5  A    between atoms: C9_9  and  C10_10 
ROOT
HETATM    1  C10 UNL     1     -35.103  14.664  -3.470  1.00 20.00     0.058 C 
ENDROOT
BRANCH   1   2
HETATM    2  C3  UNL     1     -34.852  13.779  -4.691  1.00 20.00     0.127 C 
HETATM    3  C4  UNL     1     -34.624  14.482  -6.006  1.00 20.00     0.091 C 
HETATM    4  O11 UNL     1     -34.856  12.549  -4.629  1.00 20.00    -0.298 OA
ENDBRANCH   1   2
BRANCH   1   5
HETATM    5  C8  UNL     1     -33.854  15.480  -3.081  1.00 20.00     0.045 C 
BRANCH   5   6
HETATM    6  C2  UNL     1     -34.146  16.699  -2.225  1.00 20.00    -0.089 C 
HETATM    7  C1  UNL     1     -34.580  16.561  -0.960  1.00 20.00     0.014 C 
BRANCH   6   8
HETATM    8  C7  UNL     1     -33.951  18.073  -2.825  1.00 20.00     0.029 C 
HETATM    9  C5  UNL     1     -33.659  18.039  -4.318  1.00 20.00     0.010 C 
ENDBRANCH   6   8
ENDBRANCH   5   6
ENDBRANCH   1   5
BRANCH   1  10
HETATM   10  C9  UNL     1     -36.337  15.554  -3.703  1.00 20.00     0.008 C 
HETATM   11  C6  UNL     1     -37.657  14.809  -3.856  1.00 20.00     0.006 C 
ENDBRANCH   1  10
TORSDOF 5
ENDMDL
MODEL 9
REMARK VINA RESULT:      -4.3     11.532     12.837
REMARK  5 active torsions:
REMARK  status: ('A' for Active; 'I' for Inactive)
REMARK    1  A    between atoms: C2_2  and  C7_7 
REMARK    2  A    between atoms: C2_2  and  C8_8 
REMARK    3  A    between atoms: C3_3  and  C10_10 
REMARK    4  A    between atoms: C8_8  and  C10_10 
REMARK    5  A    between atoms: C9_9  and  C10_10 
ROOT
HETATM    1  C10 UNL     1     -34.544  15.303  -4.477  1.00 20.00     0.058 C 
ENDROOT
BRANCH   1   2
HETATM    2  C3  UNL     1     -34.707  13.982  -5.230  1.00 20.00     0.127 C 
HETATM    3  C4  UNL     1     -35.082  14.072  -6.688  1.00 20.00     0.091 C 
HETATM    4  O11 UNL     1     -34.569  12.887  -4.683  1.00 20.00    -0.298 OA
ENDBRANCH   1   2
BRANCH   1   5
HETATM    5  C8  UNL     1     -34.539  15.100  -2.949  1.00 20.00     0.045 C 
BRANCH   5   6
HETATM    6  C2  UNL     1     -35.173  16.235  -2.166  1.00 20.00    -0.089 C 
HETATM    7  C1  UNL     1     -36.242  16.890  -2.653  1.00 20.00     0.014 C 
BRANCH   6   8
HETATM    8  C7  UNL     1     -34.574  16.625  -0.835  1.00 20.00     0.029 C 
HETATM    9  C5  UNL     1     -33.508  17.706  -0.950  1.00 20.00     0.010 C 
ENDBRANCH   6   8
ENDBRANCH   5   6
ENDBRANCH   1   5
BRANCH   1  10
HETATM   10  C9  UNL     1     -33.292  16.048  -4.976  1.00 20.00     0.008 C 
HETATM   11  C6  UNL     1     -33.494  17.526  -5.282  1.00 20.00     0.006 C 
ENDBRANCH   1  10
TORSDOF 5
ENDMDL
