MODEL 1
REMARK VINA RESULT:      -4.3      0.000      0.000
REMARK  5 active torsions:
REMARK  status: ('A' for Active; 'I' for Inactive)
REMARK    1  A    between atoms: C4_4  and  C5_5 
REMARK    2  A    between atoms: C4_4  and  C8_8 
REMARK    3  A    between atoms: C5_5  and  O9_9 
REMARK    4  A    between atoms: C6_6  and  C8_8 
REMARK    5  A    between atoms: C7_7  and  C8_8 
ROOT
HETATM    1  C8  UNL     1     -33.858   6.200   4.089  1.00 20.00     0.005 C 
ENDROOT
BRANCH   1   2
HETATM    2  C4  UNL     1     -32.475   6.258   3.395  1.00 20.00     0.032 C 
BRANCH   2   3
HETATM    3  C5  UNL     1     -31.920   7.666   3.193  1.00 20.00     0.167 C 
BRANCH   3   4
HETATM    4  O9  UNL     1     -31.948   7.973   1.804  1.00 20.00    -0.396 OA
HETATM    5  C3  UNL     1     -32.358   9.313   1.576  1.00 20.00     0.201 C 
ENDBRANCH   3   4
ENDBRANCH   2   3
ENDBRANCH   1   2
BRANCH   1   6
HETATM    6  C6  UNL     1     -34.873   5.337   3.310  1.00 20.00     0.119 C 
HETATM    7 CL10 UNL     1     -36.501   6.054   3.239  1.00 20.00    -0.130 Cl
ENDBRANCH   1   6
BRANCH   1   8
HETATM    8  C7  UNL     1     -33.722   5.780   5.592  1.00 20.00    -0.017 C 
HETATM    9  C1  UNL     1     -33.819   6.983   6.543  1.00 20.00     0.010 C 
HETATM   10  C2  UNL     1     -34.779   4.751   6.012  1.00 20.00     0.010 C 
ENDBRANCH   1   8
TORSDOF 5
ENDMDL
MODEL 2
REMARK VINA RESULT:      -4.0      1.931      2.624
REMARK  5 active torsions:
REMARK  status: ('A' for Active; 'I' for Inactive)
REMARK    1  A    between atoms: C4_4  and  C5_5 
REMARK    2  A    between atoms: C4_4  and  C8_8 
REMARK    3  A    between atoms: C5_5  and  O9_9 
REMARK    4  A    between atoms: C6_6  and  C8_8 
REMARK    5  A    between atoms: C7_7  and  C8_8 
ROOT
HETATM    1  C8  UNL     1     -33.700   5.928   5.051  1.00 20.00     0.005 C 
ENDROOT
BRANCH   1   2
HETATM    2  C4  UNL     1     -33.474   7.041   3.997  1.00 20.00     0.032 C 
BRANCH   2   3
HETATM    3  C5  UNL     1     -32.342   6.768   3.011  1.00 20.00     0.167 C 
BRANCH   3   4
HETATM    4  O9  UNL     1     -31.654   7.987   2.757  1.00 20.00    -0.396 OA
HETATM    5  C3  UNL     1     -32.046   8.558   1.518  1.00 20.00     0.201 C 
ENDBRANCH   3   4
ENDBRANCH   2   3
ENDBRANCH   1   2
BRANCH   1   6
HETATM    6  C6  UNL     1     -34.138   6.491   6.419  1.00 20.00     0.119 C 
HETATM    7 CL10 UNL     1     -32.999   7.687   7.087  1.00 20.00    -0.130 Cl
ENDBRANCH   1   6
BRANCH   1   8
HETATM    8  C7  UNL     1     -34.663   4.818   4.507  1.00 20.00    -0.017 C 
HETATM    9  C1  UNL     1     -35.208   3.921   5.629  1.00 20.00     0.010 C 
HETATM   10  C2  UNL     1     -35.854   5.401   3.737  1.00 20.00     0.010 C 
ENDBRANCH   1   8
TORSDOF 5
ENDMDL
MODEL 3
REMARK VINA RESULT:      -4.0     10.942     12.070
REMARK  5 active torsions:
REMARK  status: ('A' for Active; 'I' for Inactive)
REMARK    1  A    between atoms: C4_4  and  C5_5 
REMARK    2  A    between atoms: C4_4  and  C8_8 
REMARK    3  A    between atoms: C5_5  and  O9_9 
REMARK    4  A    between atoms: C6_6  and  C8_8 
REMARK    5  A    between atoms: C7_7  and  C8_8 
ROOT
HETATM    1  C8  UNL     1     -33.563  16.138  -3.135  1.00 20.00     0.005 C 
ENDROOT
BRANCH   1   2
HETATM    2  C4  UNL     1     -33.262  14.811  -3.875  1.00 20.00     0.032 C 
BRANCH   2   3
HETATM    3  C5  UNL     1     -34.127  13.630  -3.445  1.00 20.00     0.167 C 
BRANCH   3   4
HETATM    4  O9  UNL     1     -34.456  12.862  -4.598  1.00 20.00    -0.396 OA
HETATM    5  C3  UNL     1     -35.075  13.660  -5.596  1.00 20.00     0.201 C 
ENDBRANCH   3   4
ENDBRANCH   2   3
ENDBRANCH   1   2
BRANCH   1   6
HETATM    6  C6  UNL     1     -33.619  17.348  -4.093  1.00 20.00     0.119 C 
HETATM    7 CL10 UNL     1     -33.614  16.886  -5.812  1.00 20.00    -0.130 Cl
ENDBRANCH   1   6
BRANCH   1   8
HETATM    8  C7  UNL     1     -34.838  16.010  -2.233  1.00 20.00    -0.017 C 
HETATM    9  C1  UNL     1     -34.623  16.607  -0.835  1.00 20.00     0.010 C 
HETATM   10  C2  UNL     1     -36.068  16.681  -2.858  1.00 20.00     0.010 C 
ENDBRANCH   1   8
TORSDOF 5
ENDMDL
MODEL 4
REMARK VINA RESULT:      -3.9     11.290     11.987
REMARK  5 active torsions:
REMARK  status: ('A' for Active; 'I' for Inactive)
REMARK    1  A    between atoms: C4_4  and  C5_5 
REMARK    2  A    between atoms: C4_4  and  C8_8 
REMARK    3  A    between atoms: C5_5  and  O9_9 
REMARK    4  A    between atoms: C6_6  and  C8_8 
REMARK    5  A    between atoms: C7_7  and  C8_8 
ROOT
HETATM    1  C8  UNL     1     -34.518  15.566  -2.536  1.00 20.00     0.005 C 
ENDROOT
BRANCH   1   2
HETATM    2  C4  UNL     1     -35.985  15.800  -2.976  1.00 20.00     0.032 C 
BRANCH   2   3
HETATM    3  C5  UNL     1     -36.458  14.907  -4.120  1.00 20.00     0.167 C 
BRANCH   3   4
HETATM    4  O9  UNL     1     -37.604  14.182  -3.688  1.00 20.00    -0.396 OA
HETATM    5  C3  UNL     1     -38.784  14.966  -3.787  1.00 20.00     0.201 C 
ENDBRANCH   3   4
ENDBRANCH   2   3
ENDBRANCH   1   2
BRANCH   1   6
HETATM    6  C6  UNL     1     -33.596  15.212  -3.722  1.00 20.00     0.119 C 
HETATM    7 CL10 UNL     1     -33.117  13.498  -3.756  1.00 20.00    -0.130 Cl
ENDBRANCH   1   6
BRANCH   1   8
HETATM    8  C7  UNL     1     -33.984  16.763  -1.678  1.00 20.00    -0.017 C 
HETATM    9  C1  UNL     1     -34.022  18.092  -2.448  1.00 20.00     0.010 C 
HETATM   10  C2  UNL     1     -34.768  16.944  -0.372  1.00 20.00     0.010 C 
ENDBRANCH   1   8
TORSDOF 5
ENDMDL
MODEL 5
REMARK VINA RESULT:      -3.8     10.929     12.087
REMARK  5 active torsions:
REMARK  status: ('A' for Active; 'I' for Inactive)
REMARK    1  A    between atoms: C4_4  and  C5_5 
REMARK    2  A    between atoms: C4_4  and  C8_8 
REMARK    3  A    between atoms: C5_5  and  O9_9 
REMARK    4  A    between atoms: C6_6  and  C8_8 
REMARK    5  A    between atoms: C7_7  and  C8_8 
ROOT
HETATM    1  C8  UNL     1     -33.568  16.155  -3.168  1.00 20.00     0.005 C 
ENDROOT
BRANCH   1   2
HETATM    2  C4  UNL     1     -34.460  14.889  -3.113  1.00 20.00     0.032 C 
BRANCH   2   3
HETATM    3  C5  UNL     1     -33.794  13.616  -3.628  1.00 20.00     0.167 C 
BRANCH   3   4
HETATM    4  O9  UNL     1     -34.741  12.886  -4.399  1.00 20.00    -0.396 OA
HETATM    5  C3  UNL     1     -35.040  13.548  -5.619  1.00 20.00     0.201 C 
ENDBRANCH   3   4
ENDBRANCH   2   3
ENDBRANCH   1   2
BRANCH   1   6
HETATM    6  C6  UNL     1     -33.890  17.050  -4.384  1.00 20.00     0.119 C 
HETATM    7 CL10 UNL     1     -35.623  17.092  -4.789  1.00 20.00    -0.130 Cl
ENDBRANCH   1   6
BRANCH   1   8
HETATM    8  C7  UNL     1     -33.600  16.932  -1.808  1.00 20.00    -0.017 C 
HETATM    9  C1  UNL     1     -33.636  18.454  -2.009  1.00 20.00     0.010 C 
HETATM   10  C2  UNL     1     -34.797  16.535  -0.935  1.00 20.00     0.010 C 
ENDBRANCH   1   8
TORSDOF 5
ENDMDL
MODEL 6
REMARK VINA RESULT:      -3.8     11.277     12.181
REMARK  5 active torsions:
REMARK  status: ('A' for Active; 'I' for Inactive)
REMARK    1  A    between atoms: C4_4  and  C5_5 
REMARK    2  A    between atoms: C4_4  and  C8_8 
REMARK    3  A    between atoms: C5_5  and  O9_9 
REMARK    4  A    between atoms: C6_6  and  C8_8 
REMARK    5  A    between atoms: C7_7  and  C8_8 
ROOT
HETATM    1  C8  UNL     1     -34.292  14.930  -3.029  1.00 20.00     0.005 C 
ENDROOT
BRANCH   1   2
HETATM    2  C4  UNL     1     -33.150  15.432  -3.948  1.00 20.00     0.032 C 
BRANCH   2   3
HETATM    3  C5  UNL     1     -33.381  16.811  -4.559  1.00 20.00     0.167 C 
BRANCH   3   4
HETATM    4  O9  UNL     1     -33.759  16.648  -5.922  1.00 20.00    -0.396 OA
HETATM    5  C3  UNL     1     -35.073  17.132  -6.160  1.00 20.00     0.201 C 
ENDBRANCH   3   4
ENDBRANCH   2   3
ENDBRANCH   1   2
BRANCH   1   6
HETATM    6  C6  UNL     1     -35.114  16.088  -2.424  1.00 20.00     0.119 C 
HETATM    7 CL10 UNL     1     -34.575  16.558  -0.793  1.00 20.00    -0.130 Cl
ENDBRANCH   1   6
BRANCH   1   8
HETATM    8  C7  UNL     1     -35.178  13.863  -3.756  1.00 20.00    -0.017 C 
HETATM    9  C1  UNL     1     -36.561  14.415  -4.133  1.00 20.00     0.010 C 
HETATM   10  C2  UNL     1     -34.516  13.320  -5.029  1.00 20.00     0.010 C 
ENDBRANCH   1   8
TORSDOF 5
ENDMDL
MODEL 7
REMARK VINA RESULT:      -3.7     10.883     11.982
REMARK  5 active torsions:
REMARK  status: ('A' for Active; 'I' for Inactive)
REMARK    1  A    between atoms: C4_4  and  C5_5 
REMARK    2  A    between atoms: C4_4  and  C8_8 
REMARK    3  A    between atoms: C5_5  and  O9_9 
REMARK    4  A    between atoms: C6_6  and  C8_8 
REMARK    5  A    between atoms: C7_7  and  C8_8 
ROOT
HETATM    1  C8  UNL     1     -34.897  15.317  -3.547  1.00 20.00     0.005 C 
ENDROOT
BRANCH   1   2
HETATM    2  C4  UNL     1     -36.379  15.316  -3.095  1.00 20.00     0.032 C 
BRANCH   2   3
HETATM    3  C5  UNL     1     -37.393  15.202  -4.230  1.00 20.00     0.167 C 
BRANCH   3   4
HETATM    4  O9  UNL     1     -38.367  14.227  -3.875  1.00 20.00    -0.396 OA
HETATM    5  C3  UNL     1     -39.646  14.556  -4.396  1.00 20.00     0.201 C 
ENDBRANCH   3   4
ENDBRANCH   2   3
ENDBRANCH   1   2
BRANCH   1   6
HETATM    6  C6  UNL     1     -34.025  16.274  -2.706  1.00 20.00     0.119 C 
HETATM    7 CL10 UNL     1     -34.579  16.435  -1.022  1.00 20.00    -0.130 Cl
ENDBRANCH   1   6
BRANCH   1   8
HETATM    8  C7  UNL     1     -34.323  13.861  -3.615  1.00 20.00    -0.017 C 
HETATM    9  C1  UNL     1     -34.694  13.149  -4.924  1.00 20.00     0.010 C 
HETATM   10  C2  UNL     1     -32.796  13.826  -3.465  1.00 20.00     0.010 C 
ENDBRANCH   1   8
TORSDOF 5
ENDMDL
MODEL 8
REMARK VINA RESULT:      -3.6     11.166     12.305
REMARK  5 active torsions:
REMARK  status: ('A' for Active; 'I' for Inactive)
REMARK    1  A    between atoms: C4_4  and  C5_5 
REMARK    2  A    between atoms: C4_4  and  C8_8 
REMARK    3  A    between atoms: C5_5  and  O9_9 
REMARK    4  A    between atoms: C6_6  and  C8_8 
REMARK    5  A    between atoms: C7_7  and  C8_8 
ROOT
HETATM    1  C8  UNL     1     -35.333  15.118  -3.184  1.00 20.00     0.005 C 
ENDROOT
BRANCH   1   2
HETATM    2  C4  UNL     1     -36.123  15.948  -4.227  1.00 20.00     0.032 C 
BRANCH   2   3
HETATM    3  C5  UNL     1     -36.191  15.327  -5.619  1.00 20.00     0.167 C 
BRANCH   3   4
HETATM    4  O9  UNL     1     -35.338  16.063  -6.489  1.00 20.00    -0.396 OA
HETATM    5  C3  UNL     1     -34.358  15.228  -7.088  1.00 20.00     0.201 C 
ENDBRANCH   3   4
ENDBRANCH   2   3
ENDBRANCH   1   2
BRANCH   1   6
HETATM    6  C6  UNL     1     -34.813  13.785  -3.764  1.00 20.00     0.119 C 
HETATM    7 CL10 UNL     1     -33.040  13.630  -3.694  1.00 20.00    -0.130 Cl
ENDBRANCH   1   6
BRANCH   1   8
HETATM    8  C7  UNL     1     -34.208  15.975  -2.510  1.00 20.00    -0.017 C 
HETATM    9  C1  UNL     1     -33.796  17.177  -3.373  1.00 20.00     0.010 C 
HETATM   10  C2  UNL     1     -34.618  16.496  -1.127  1.00 20.00     0.010 C 
ENDBRANCH   1   8
TORSDOF 5
ENDMDL
MODEL 9
REMARK VINA RESULT:      -3.6     11.144     12.075
REMARK  5 active torsions:
REMARK  status: ('A' for Active; 'I' for Inactive)
REMARK    1  A    between atoms: C4_4  and  C5_5 
REMARK    2  A    between atoms: C4_4  and  C8_8 
REMARK    3  A    between atoms: C5_5  and  O9_9 
REMARK    4  A    between atoms: C6_6  and  C8_8 
REMARK    5  A    between atoms: C7_7  and  C8_8 
ROOT
HETATM    1  C8  UNL     1     -34.964  15.452  -3.434  1.00 20.00     0.005 C 
ENDROOT
BRANCH   1   2
HETATM    2  C4  UNL     1     -33.988  16.047  -2.387  1.00 20.00     0.032 C 
BRANCH   2   3
HETATM    3  C5  UNL     1     -34.642  16.479  -1.078  1.00 20.00     0.167 C 
BRANCH   3   4
HETATM    4  O9  UNL     1     -33.893  17.558  -0.528  1.00 20.00    -0.396 OA
HETATM    5  C3  UNL     1     -34.458  18.016   0.691  1.00 20.00     0.201 C 
ENDBRANCH   3   4
ENDBRANCH   2   3
ENDBRANCH   1   2
BRANCH   1   6
HETATM    6  C6  UNL     1     -35.093  16.341  -4.690  1.00 20.00     0.119 C 
HETATM    7 CL10 UNL     1     -33.525  16.903  -5.320  1.00 20.00    -0.130 Cl
ENDBRANCH   1   6
BRANCH   1   8
HETATM    8  C7  UNL     1     -34.602  13.965  -3.768  1.00 20.00    -0.017 C 
HETATM    9  C1  UNL     1     -35.012  13.574  -5.195  1.00 20.00     0.010 C 
HETATM   10  C2  UNL     1     -33.105  13.675  -3.603  1.00 20.00     0.010 C 
ENDBRANCH   1   8
TORSDOF 5
ENDMDL
