MODEL 1
REMARK VINA RESULT:      -4.4      0.000      0.000
REMARK  4 active torsions:
REMARK  status: ('A' for Active; 'I' for Inactive)
REMARK    1  A    between atoms: C3_3  and  C5_5 
REMARK    2  A    between atoms: C4_4  and  C7_7 
REMARK    3  A    between atoms: C5_5  and  C7_7 
REMARK    4  A    between atoms: C6_6  and  C7_7 
ROOT
HETATM    1  C7  UNL     1     -34.141   6.142   4.311  1.00 20.00    -0.001 C 
ENDROOT
BRANCH   1   2
HETATM    2  C4  UNL     1     -33.480   6.018   5.705  1.00 20.00     0.001 C 
HETATM    3  C2  UNL     1     -33.815   7.169   6.645  1.00 20.00     0.005 C 
ENDBRANCH   1   2
BRANCH   1   4
HETATM    4  C5  UNL     1     -33.085   6.118   3.182  1.00 20.00     0.005 C 
BRANCH   4   5
HETATM    5  C3  UNL     1     -32.019   7.219   3.238  1.00 20.00    -0.004 C 
HETATM    6  C1  UNL     1     -32.082   8.183   2.063  1.00 20.00     0.005 C 
ENDBRANCH   4   5
ENDBRANCH   1   4
BRANCH   1   7
HETATM    7  C6  UNL     1     -35.249   5.083   4.147  1.00 20.00     0.119 C 
HETATM    8 CL8  UNL     1     -35.169   3.775   5.354  1.00 20.00    -0.130 Cl
ENDBRANCH   1   7
TORSDOF 4
ENDMDL
MODEL 2
REMARK VINA RESULT:      -4.2      1.532      1.669
REMARK  4 active torsions:
REMARK  status: ('A' for Active; 'I' for Inactive)
REMARK    1  A    between atoms: C3_3  and  C5_5 
REMARK    2  A    between atoms: C4_4  and  C7_7 
REMARK    3  A    between atoms: C5_5  and  C7_7 
REMARK    4  A    between atoms: C6_6  and  C7_7 
ROOT
HETATM    1  C7  UNL     1     -33.964   6.378   4.329  1.00 20.00    -0.001 C 
ENDROOT
BRANCH   1   2
HETATM    2  C4  UNL     1     -34.041   6.042   5.838  1.00 20.00     0.001 C 
HETATM    3  C2  UNL     1     -34.802   4.758   6.141  1.00 20.00     0.005 C 
ENDBRANCH   1   2
BRANCH   1   4
HETATM    4  C5  UNL     1     -32.519   6.245   3.795  1.00 20.00     0.005 C 
BRANCH   4   5
HETATM    5  C3  UNL     1     -31.798   7.560   3.477  1.00 20.00    -0.004 C 
HETATM    6  C1  UNL     1     -32.105   8.100   2.089  1.00 20.00     0.005 C 
ENDBRANCH   4   5
ENDBRANCH   1   4
BRANCH   1   7
HETATM    7  C6  UNL     1     -34.996   5.548   3.542  1.00 20.00     0.119 C 
HETATM    8 CL8  UNL     1     -34.375   4.921   1.994  1.00 20.00    -0.130 Cl
ENDBRANCH   1   7
TORSDOF 4
ENDMDL
MODEL 3
REMARK VINA RESULT:      -4.1      1.909      2.501
REMARK  4 active torsions:
REMARK  status: ('A' for Active; 'I' for Inactive)
REMARK    1  A    between atoms: C3_3  and  C5_5 
REMARK    2  A    between atoms: C4_4  and  C7_7 
REMARK    3  A    between atoms: C5_5  and  C7_7 
REMARK    4  A    between atoms: C6_6  and  C7_7 
ROOT
HETATM    1  C7  UNL     1     -33.848   5.809   4.969  1.00 20.00    -0.001 C 
ENDROOT
BRANCH   1   2
HETATM    2  C4  UNL     1     -34.848   4.681   4.619  1.00 20.00     0.001 C 
HETATM    3  C2  UNL     1     -35.275   3.847   5.820  1.00 20.00     0.005 C 
ENDBRANCH   1   2
BRANCH   1   4
HETATM    4  C5  UNL     1     -33.672   6.793   3.789  1.00 20.00     0.005 C 
BRANCH   4   5
HETATM    5  C3  UNL     1     -32.282   6.824   3.143  1.00 20.00    -0.004 C 
HETATM    6  C1  UNL     1     -32.068   8.018   2.224  1.00 20.00     0.005 C 
ENDBRANCH   4   5
ENDBRANCH   1   4
BRANCH   1   7
HETATM    7  C6  UNL     1     -34.250   6.491   6.291  1.00 20.00     0.119 C 
HETATM    8 CL8  UNL     1     -32.995   7.573   6.946  1.00 20.00    -0.130 Cl
ENDBRANCH   1   7
TORSDOF 4
ENDMDL
MODEL 4
REMARK VINA RESULT:      -4.1      1.616      3.525
REMARK  4 active torsions:
REMARK  status: ('A' for Active; 'I' for Inactive)
REMARK    1  A    between atoms: C3_3  and  C5_5 
REMARK    2  A    between atoms: C4_4  and  C7_7 
REMARK    3  A    between atoms: C5_5  and  C7_7 
REMARK    4  A    between atoms: C6_6  and  C7_7 
ROOT
HETATM    1  C7  UNL     1     -33.410   5.681   3.929  1.00 20.00    -0.001 C 
ENDROOT
BRANCH   1   2
HETATM    2  C4  UNL     1     -32.107   6.279   3.345  1.00 20.00     0.001 C 
HETATM    3  C2  UNL     1     -32.315   7.594   2.605  1.00 20.00     0.005 C 
ENDBRANCH   1   2
BRANCH   1   4
HETATM    4  C5  UNL     1     -33.926   6.514   5.125  1.00 20.00     0.005 C 
BRANCH   4   5
HETATM    5  C3  UNL     1     -34.343   5.717   6.367  1.00 20.00    -0.004 C 
HETATM    6  C1  UNL     1     -34.696   4.268   6.067  1.00 20.00     0.005 C 
ENDBRANCH   4   5
ENDBRANCH   1   4
BRANCH   1   7
HETATM    7  C6  UNL     1     -34.455   5.483   2.814  1.00 20.00     0.119 C 
HETATM    8 CL8  UNL     1     -36.120   5.859   3.323  1.00 20.00    -0.130 Cl
ENDBRANCH   1   7
TORSDOF 4
ENDMDL
MODEL 5
REMARK VINA RESULT:      -4.1      1.429      2.266
REMARK  4 active torsions:
REMARK  status: ('A' for Active; 'I' for Inactive)
REMARK    1  A    between atoms: C3_3  and  C5_5 
REMARK    2  A    between atoms: C4_4  and  C7_7 
REMARK    3  A    between atoms: C5_5  and  C7_7 
REMARK    4  A    between atoms: C6_6  and  C7_7 
ROOT
HETATM    1  C7  UNL     1     -33.392   5.906   4.102  1.00 20.00    -0.001 C 
ENDROOT
BRANCH   1   2
HETATM    2  C4  UNL     1     -34.834   5.454   3.767  1.00 20.00     0.001 C 
HETATM    3  C2  UNL     1     -35.314   4.272   4.599  1.00 20.00     0.005 C 
ENDBRANCH   1   2
BRANCH   1   4
HETATM    4  C5  UNL     1     -32.604   6.270   2.823  1.00 20.00     0.005 C 
BRANCH   4   5
HETATM    5  C3  UNL     1     -31.839   7.598   2.861  1.00 20.00    -0.004 C 
HETATM    6  C1  UNL     1     -32.101   8.484   1.653  1.00 20.00     0.005 C 
ENDBRANCH   4   5
ENDBRANCH   1   4
BRANCH   1   7
HETATM    7  C6  UNL     1     -33.414   7.028   5.158  1.00 20.00     0.119 C 
HETATM    8 CL8  UNL     1     -34.107   6.524   6.720  1.00 20.00    -0.130 Cl
ENDBRANCH   1   7
TORSDOF 4
ENDMDL
MODEL 6
REMARK VINA RESULT:      -4.0      2.466      4.235
REMARK  4 active torsions:
REMARK  status: ('A' for Active; 'I' for Inactive)
REMARK    1  A    between atoms: C3_3  and  C5_5 
REMARK    2  A    between atoms: C4_4  and  C7_7 
REMARK    3  A    between atoms: C5_5  and  C7_7 
REMARK    4  A    between atoms: C6_6  and  C7_7 
ROOT
HETATM    1  C7  UNL     1     -33.832   6.637   4.233  1.00 20.00    -0.001 C 
ENDROOT
BRANCH   1   2
HETATM    2  C4  UNL     1     -34.866   5.748   3.501  1.00 20.00     0.001 C 
HETATM    3  C2  UNL     1     -34.292   5.000   2.304  1.00 20.00     0.005 C 
ENDBRANCH   1   2
BRANCH   1   4
HETATM    4  C5  UNL     1     -33.820   6.353   5.753  1.00 20.00     0.005 C 
BRANCH   4   5
HETATM    5  C3  UNL     1     -34.860   5.344   6.254  1.00 20.00    -0.004 C 
HETATM    6  C1  UNL     1     -34.466   3.895   6.012  1.00 20.00     0.005 C 
ENDBRANCH   4   5
ENDBRANCH   1   4
BRANCH   1   7
HETATM    7  C6  UNL     1     -32.448   6.508   3.567  1.00 20.00     0.119 C 
HETATM    8 CL8  UNL     1     -32.046   7.869   2.490  1.00 20.00    -0.130 Cl
ENDBRANCH   1   7
TORSDOF 4
ENDMDL
MODEL 7
REMARK VINA RESULT:      -3.9      2.335      3.687
REMARK  4 active torsions:
REMARK  status: ('A' for Active; 'I' for Inactive)
REMARK    1  A    between atoms: C3_3  and  C5_5 
REMARK    2  A    between atoms: C4_4  and  C7_7 
REMARK    3  A    between atoms: C5_5  and  C7_7 
REMARK    4  A    between atoms: C6_6  and  C7_7 
ROOT
HETATM    1  C7  UNL     1     -33.330   5.967   4.218  1.00 20.00    -0.001 C 
ENDROOT
BRANCH   1   2
HETATM    2  C4  UNL     1     -33.366   7.212   5.137  1.00 20.00     0.001 C 
HETATM    3  C2  UNL     1     -33.728   6.895   6.582  1.00 20.00     0.005 C 
ENDBRANCH   1   2
BRANCH   1   4
HETATM    4  C5  UNL     1     -34.732   5.645   3.650  1.00 20.00     0.005 C 
BRANCH   4   5
HETATM    5  C3  UNL     1     -35.588   4.684   4.484  1.00 20.00    -0.004 C 
HETATM    6  C1  UNL     1     -34.781   3.851   5.468  1.00 20.00     0.005 C 
ENDBRANCH   4   5
ENDBRANCH   1   4
BRANCH   1   7
HETATM    7  C6  UNL     1     -32.245   6.131   3.136  1.00 20.00     0.119 C 
HETATM    8 CL8  UNL     1     -32.138   7.783   2.478  1.00 20.00    -0.130 Cl
ENDBRANCH   1   7
TORSDOF 4
ENDMDL
MODEL 8
REMARK VINA RESULT:      -3.8     11.775     12.601
REMARK  4 active torsions:
REMARK  status: ('A' for Active; 'I' for Inactive)
REMARK    1  A    between atoms: C3_3  and  C5_5 
REMARK    2  A    between atoms: C4_4  and  C7_7 
REMARK    3  A    between atoms: C5_5  and  C7_7 
REMARK    4  A    between atoms: C6_6  and  C7_7 
ROOT
HETATM    1  C7  UNL     1     -33.542  16.150  -2.951  1.00 20.00    -0.001 C 
ENDROOT
BRANCH   1   2
HETATM    2  C4  UNL     1     -34.765  15.995  -2.016  1.00 20.00     0.001 C 
HETATM    3  C2  UNL     1     -34.615  16.722  -0.686  1.00 20.00     0.005 C 
ENDBRANCH   1   2
BRANCH   1   4
HETATM    4  C5  UNL     1     -33.177  14.808  -3.628  1.00 20.00     0.005 C 
BRANCH   4   5
HETATM    5  C3  UNL     1     -34.262  13.725  -3.599  1.00 20.00    -0.004 C 
HETATM    6  C1  UNL     1     -34.751  13.321  -4.981  1.00 20.00     0.005 C 
ENDBRANCH   4   5
ENDBRANCH   1   4
BRANCH   1   7
HETATM    7  C6  UNL     1     -33.769  17.305  -3.945  1.00 20.00     0.119 C 
HETATM    8 CL8  UNL     1     -33.519  16.841  -5.647  1.00 20.00    -0.130 Cl
ENDBRANCH   1   7
TORSDOF 4
ENDMDL
MODEL 9
REMARK VINA RESULT:      -3.8      1.615      3.786
REMARK  4 active torsions:
REMARK  status: ('A' for Active; 'I' for Inactive)
REMARK    1  A    between atoms: C3_3  and  C5_5 
REMARK    2  A    between atoms: C4_4  and  C7_7 
REMARK    3  A    between atoms: C5_5  and  C7_7 
REMARK    4  A    between atoms: C6_6  and  C7_7 
ROOT
HETATM    1  C7  UNL     1     -33.481   6.547   3.908  1.00 20.00    -0.001 C 
ENDROOT
BRANCH   1   2
HETATM    2  C4  UNL     1     -32.296   6.693   2.923  1.00 20.00     0.001 C 
HETATM    3  C2  UNL     1     -32.183   8.079   2.302  1.00 20.00     0.005 C 
ENDBRANCH   1   2
BRANCH   1   4
HETATM    4  C5  UNL     1     -34.466   5.448   3.446  1.00 20.00     0.005 C 
BRANCH   4   5
HETATM    5  C3  UNL     1     -35.493   4.987   4.488  1.00 20.00    -0.004 C 
HETATM    6  C1  UNL     1     -34.985   3.870   5.387  1.00 20.00     0.005 C 
ENDBRANCH   4   5
ENDBRANCH   1   4
BRANCH   1   7
HETATM    7  C6  UNL     1     -32.963   6.353   5.346  1.00 20.00     0.119 C 
HETATM    8 CL8  UNL     1     -33.950   7.179   6.577  1.00 20.00    -0.130 Cl
ENDBRANCH   1   7
TORSDOF 4
ENDMDL
