MODEL 1
REMARK VINA RESULT:      -5.2      0.000      0.000
REMARK  2 active torsions:
REMARK  status: ('A' for Active; 'I' for Inactive)
REMARK    1  A    between atoms: C4_4  and  C7_7 
REMARK    2  A    between atoms: C7_7  and  C8_8 
ROOT
HETATM    1  C1  UNL     1     -34.488  13.486  -4.070  1.00 20.00     0.218 C 
HETATM    2  C2  UNL     1     -34.945  14.810  -3.506  1.00 20.00     0.113 C 
HETATM    3  C3  UNL     1     -32.549  14.646  -3.403  1.00 20.00     0.132 C 
HETATM    4  C4  UNL     1     -33.672  15.680  -3.531  1.00 20.00    -0.020 C 
HETATM    5  C5  UNL     1     -33.564  16.438  -4.864  1.00 20.00     0.017 C 
HETATM    6  N9  UNL     1     -33.102  13.456  -3.990  1.00 20.00    -0.360 N 
HETATM    7  O10 UNL     1     -35.224  12.602  -4.481  1.00 20.00    -0.274 OA
HETATM    8  H25 UNL     1     -32.538  12.676  -4.313  1.00 20.00     0.162 HD
ENDROOT
BRANCH   4   9
HETATM    9  C7  UNL     1     -33.651  16.677  -2.372  1.00 20.00     0.011 C 
BRANCH   9  10
HETATM   10  C8  UNL     1     -34.729  16.344  -1.351  1.00 20.00    -0.004 C 
HETATM   11  C6  UNL     1     -34.619  17.247  -0.132  1.00 20.00     0.005 C 
ENDBRANCH   9  10
ENDBRANCH   4   9
TORSDOF 2
ENDMDL
MODEL 2
REMARK VINA RESULT:      -4.8      1.067      1.360
REMARK  2 active torsions:
REMARK  status: ('A' for Active; 'I' for Inactive)
REMARK    1  A    between atoms: C4_4  and  C7_7 
REMARK    2  A    between atoms: C7_7  and  C8_8 
ROOT
HETATM    1  C1  UNL     1     -34.445  13.672  -4.664  1.00 20.00     0.218 C 
HETATM    2  C2  UNL     1     -34.527  14.236  -3.266  1.00 20.00     0.113 C 
HETATM    3  C3  UNL     1     -33.665  15.892  -4.780  1.00 20.00     0.132 C 
HETATM    4  C4  UNL     1     -34.464  15.762  -3.480  1.00 20.00    -0.020 C 
HETATM    5  C5  UNL     1     -35.878  16.341  -3.651  1.00 20.00     0.017 C 
HETATM    6  N9  UNL     1     -33.950  14.674  -5.488  1.00 20.00    -0.360 N 
HETATM    7  O10 UNL     1     -34.732  12.528  -4.982  1.00 20.00    -0.274 OA
HETATM    8  H25 UNL     1     -33.804  14.559  -6.486  1.00 20.00     0.162 HD
ENDROOT
BRANCH   4   9
HETATM    9  C7  UNL     1     -33.761  16.463  -2.316  1.00 20.00     0.011 C 
BRANCH   9  10
HETATM   10  C8  UNL     1     -34.654  16.497  -1.086  1.00 20.00    -0.004 C 
HETATM   11  C6  UNL     1     -34.238  17.616  -0.144  1.00 20.00     0.005 C 
ENDBRANCH   9  10
ENDBRANCH   4   9
TORSDOF 2
ENDMDL
MODEL 3
REMARK VINA RESULT:      -4.4      1.623      1.918
REMARK  2 active torsions:
REMARK  status: ('A' for Active; 'I' for Inactive)
REMARK    1  A    between atoms: C4_4  and  C7_7 
REMARK    2  A    between atoms: C7_7  and  C8_8 
ROOT
HETATM    1  C1  UNL     1     -34.975  14.316  -6.017  1.00 20.00     0.218 C 
HETATM    2  C2  UNL     1     -35.082  15.515  -5.105  1.00 20.00     0.113 C 
HETATM    3  C3  UNL     1     -34.719  13.520  -3.814  1.00 20.00     0.132 C 
HETATM    4  C4  UNL     1     -34.457  15.029  -3.782  1.00 20.00    -0.020 C 
HETATM    5  C5  UNL     1     -32.947  15.317  -3.763  1.00 20.00     0.017 C 
HETATM    6  N9  UNL     1     -34.760  13.203  -5.215  1.00 20.00    -0.360 N 
HETATM    7  O10 UNL     1     -35.098  14.340  -7.232  1.00 20.00    -0.274 OA
HETATM    8  H25 UNL     1     -34.643  12.263  -5.581  1.00 20.00     0.162 HD
ENDROOT
BRANCH   4   9
HETATM    9  C7  UNL     1     -35.119  15.689  -2.573  1.00 20.00     0.011 C 
BRANCH   9  10
HETATM   10  C8  UNL     1     -34.118  16.531  -1.798  1.00 20.00    -0.004 C 
HETATM   11  C6  UNL     1     -34.671  16.916  -0.435  1.00 20.00     0.005 C 
ENDBRANCH   9  10
ENDBRANCH   4   9
TORSDOF 2
ENDMDL
MODEL 4
REMARK VINA RESULT:      -4.2      1.571      2.105
REMARK  2 active torsions:
REMARK  status: ('A' for Active; 'I' for Inactive)
REMARK    1  A    between atoms: C4_4  and  C7_7 
REMARK    2  A    between atoms: C7_7  and  C8_8 
ROOT
HETATM    1  C1  UNL     1     -34.440  14.938  -5.997  1.00 20.00     0.218 C 
HETATM    2  C2  UNL     1     -33.684  15.950  -5.170  1.00 20.00     0.113 C 
HETATM    3  C3  UNL     1     -34.984  14.518  -3.743  1.00 20.00     0.132 C 
HETATM    4  C4  UNL     1     -33.699  15.351  -3.750  1.00 20.00    -0.020 C 
HETATM    5  C5  UNL     1     -32.469  14.454  -3.531  1.00 20.00     0.017 C 
HETATM    6  N9  UNL     1     -35.161  14.140  -5.119  1.00 20.00    -0.360 N 
HETATM    7  O10 UNL     1     -34.433  14.876  -7.217  1.00 20.00    -0.274 OA
HETATM    8  H25 UNL     1     -35.752  13.370  -5.417  1.00 20.00     0.162 HD
ENDROOT
BRANCH   4   9
HETATM    9  C7  UNL     1     -33.732  16.443  -2.680  1.00 20.00     0.011 C 
BRANCH   9  10
HETATM   10  C8  UNL     1     -34.814  16.159  -1.650  1.00 20.00    -0.004 C 
HETATM   11  C6  UNL     1     -34.618  17.015  -0.408  1.00 20.00     0.005 C 
ENDBRANCH   9  10
ENDBRANCH   4   9
TORSDOF 2
ENDMDL
MODEL 5
REMARK VINA RESULT:      -4.2      2.425      2.924
REMARK  2 active torsions:
REMARK  status: ('A' for Active; 'I' for Inactive)
REMARK    1  A    between atoms: C4_4  and  C7_7 
REMARK    2  A    between atoms: C7_7  and  C8_8 
ROOT
HETATM    1  C1  UNL     1     -36.340  14.259  -4.095  1.00 20.00     0.218 C 
HETATM    2  C2  UNL     1     -35.647  15.543  -4.481  1.00 20.00     0.113 C 
HETATM    3  C3  UNL     1     -34.062  13.738  -4.395  1.00 20.00     0.132 C 
HETATM    4  C4  UNL     1     -34.318  15.072  -5.103  1.00 20.00    -0.020 C 
HETATM    5  C5  UNL     1     -34.478  14.860  -6.618  1.00 20.00     0.017 C 
HETATM    6  N9  UNL     1     -35.377  13.258  -4.070  1.00 20.00    -0.360 N 
HETATM    7  O10 UNL     1     -37.526  14.151  -3.820  1.00 20.00    -0.274 OA
HETATM    8  H25 UNL     1     -35.581  12.289  -3.846  1.00 20.00     0.162 HD
ENDROOT
BRANCH   4   9
HETATM    9  C7  UNL     1     -33.190  16.071  -4.843  1.00 20.00     0.011 C 
BRANCH   9  10
HETATM   10  C8  UNL     1     -33.750  17.449  -4.526  1.00 20.00    -0.004 C 
HETATM   11  C6  UNL     1     -33.548  18.399  -5.696  1.00 20.00     0.005 C 
ENDBRANCH   9  10
ENDBRANCH   4   9
TORSDOF 2
ENDMDL
MODEL 6
REMARK VINA RESULT:      -4.2      1.574      3.075
REMARK  2 active torsions:
REMARK  status: ('A' for Active; 'I' for Inactive)
REMARK    1  A    between atoms: C4_4  and  C7_7 
REMARK    2  A    between atoms: C7_7  and  C8_8 
ROOT
HETATM    1  C1  UNL     1     -35.090  13.799  -4.143  1.00 20.00     0.218 C 
HETATM    2  C2  UNL     1     -33.915  14.707  -3.875  1.00 20.00     0.113 C 
HETATM    3  C3  UNL     1     -35.935  15.996  -4.061  1.00 20.00     0.132 C 
HETATM    4  C4  UNL     1     -34.566  16.013  -3.376  1.00 20.00    -0.020 C 
HETATM    5  C5  UNL     1     -34.723  15.987  -1.847  1.00 20.00     0.017 C 
HETATM    6  N9  UNL     1     -36.222  14.598  -4.233  1.00 20.00    -0.360 N 
HETATM    7  O10 UNL     1     -35.028  12.587  -4.290  1.00 20.00    -0.274 OA
HETATM    8  H25 UNL     1     -37.155  14.234  -4.401  1.00 20.00     0.162 HD
ENDROOT
BRANCH   4   9
HETATM    9  C7  UNL     1     -33.748  17.239  -3.786  1.00 20.00     0.011 C 
BRANCH   9  10
HETATM   10  C8  UNL     1     -33.378  17.176  -5.259  1.00 20.00    -0.004 C 
HETATM   11  C6  UNL     1     -33.668  18.499  -5.949  1.00 20.00     0.005 C 
ENDBRANCH   9  10
ENDBRANCH   4   9
TORSDOF 2
ENDMDL
MODEL 7
REMARK VINA RESULT:      -4.2      2.295      3.888
REMARK  2 active torsions:
REMARK  status: ('A' for Active; 'I' for Inactive)
REMARK    1  A    between atoms: C4_4  and  C7_7 
REMARK    2  A    between atoms: C7_7  and  C8_8 
ROOT
HETATM    1  C1  UNL     1     -36.977  14.695  -3.799  1.00 20.00     0.218 C 
HETATM    2  C2  UNL     1     -36.000  14.594  -4.944  1.00 20.00     0.113 C 
HETATM    3  C3  UNL     1     -35.112  16.012  -3.218  1.00 20.00     0.132 C 
HETATM    4  C4  UNL     1     -34.664  15.060  -4.331  1.00 20.00    -0.020 C 
HETATM    5  C5  UNL     1     -33.894  13.864  -3.746  1.00 20.00     0.017 C 
HETATM    6  N9  UNL     1     -36.406  15.517  -2.836  1.00 20.00    -0.360 N 
HETATM    7  O10 UNL     1     -38.081  14.172  -3.763  1.00 20.00    -0.274 OA
HETATM    8  H25 UNL     1     -36.855  15.744  -1.954  1.00 20.00     0.162 HD
ENDROOT
BRANCH   4   9
HETATM    9  C7  UNL     1     -33.791  15.774  -5.364  1.00 20.00     0.011 C 
BRANCH   9  10
HETATM   10  C8  UNL     1     -34.316  15.539  -6.772  1.00 20.00    -0.004 C 
HETATM   11  C6  UNL     1     -34.574  16.859  -7.481  1.00 20.00     0.005 C 
ENDBRANCH   9  10
ENDBRANCH   4   9
TORSDOF 2
ENDMDL
MODEL 8
REMARK VINA RESULT:      -4.1     10.815     11.586
REMARK  2 active torsions:
REMARK  status: ('A' for Active; 'I' for Inactive)
REMARK    1  A    between atoms: C4_4  and  C7_7 
REMARK    2  A    between atoms: C7_7  and  C8_8 
ROOT
HETATM    1  C1  UNL     1     -34.805   4.769   4.680  1.00 20.00     0.218 C 
HETATM    2  C2  UNL     1     -34.562   5.455   3.358  1.00 20.00     0.113 C 
HETATM    3  C3  UNL     1     -33.510   6.684   5.136  1.00 20.00     0.132 C 
HETATM    4  C4  UNL     1     -33.367   6.387   3.640  1.00 20.00    -0.020 C 
HETATM    5  C5  UNL     1     -32.041   5.663   3.355  1.00 20.00     0.017 C 
HETATM    6  N9  UNL     1     -34.169   5.519   5.660  1.00 20.00    -0.360 N 
HETATM    7  O10 UNL     1     -35.475   3.759   4.839  1.00 20.00    -0.274 OA
HETATM    8  H25 UNL     1     -34.170   5.271   6.645  1.00 20.00     0.162 HD
ENDROOT
BRANCH   4   9
HETATM    9  C7  UNL     1     -33.442   7.665   2.804  1.00 20.00     0.011 C 
BRANCH   9  10
HETATM   10  C8  UNL     1     -32.077   8.022   2.235  1.00 20.00    -0.004 C 
HETATM   11  C6  UNL     1     -32.202   9.073   1.144  1.00 20.00     0.005 C 
ENDBRANCH   9  10
ENDBRANCH   4   9
TORSDOF 2
ENDMDL
MODEL 9
REMARK VINA RESULT:      -4.1      2.472      3.233
REMARK  2 active torsions:
REMARK  status: ('A' for Active; 'I' for Inactive)
REMARK    1  A    between atoms: C4_4  and  C7_7 
REMARK    2  A    between atoms: C7_7  and  C8_8 
ROOT
HETATM    1  C1  UNL     1     -33.419  13.793  -4.018  1.00 20.00     0.218 C 
HETATM    2  C2  UNL     1     -34.901  13.704  -4.287  1.00 20.00     0.113 C 
HETATM    3  C3  UNL     1     -34.082  15.887  -4.869  1.00 20.00     0.132 C 
HETATM    4  C4  UNL     1     -35.173  14.881  -5.246  1.00 20.00    -0.020 C 
HETATM    5  C5  UNL     1     -35.017  14.432  -6.708  1.00 20.00     0.017 C 
HETATM    6  N9  UNL     1     -33.007  15.069  -4.379  1.00 20.00    -0.360 N 
HETATM    7  O10 UNL     1     -32.734  12.904  -3.533  1.00 20.00    -0.274 OA
HETATM    8  H25 UNL     1     -32.046  15.390  -4.306  1.00 20.00     0.162 HD
ENDROOT
BRANCH   4   9
HETATM    9  C7  UNL     1     -36.571  15.463  -5.036  1.00 20.00     0.011 C 
BRANCH   9  10
HETATM   10  C8  UNL     1     -37.236  14.851  -3.813  1.00 20.00    -0.004 C 
HETATM   11  C6  UNL     1     -38.737  14.722  -4.018  1.00 20.00     0.005 C 
ENDBRANCH   9  10
ENDBRANCH   4   9
TORSDOF 2
ENDMDL
