MODEL 1
REMARK VINA RESULT:      -5.0      0.000      0.000
REMARK  1 active torsions:
REMARK  status: ('A' for Active; 'I' for Inactive)
REMARK    1  A    between atoms: C5_5  and  C6_6 
ROOT
HETATM    1  C1  UNL     1     -34.387  13.813  -4.525  1.00 20.00     0.218 C 
HETATM    2  C2  UNL     1     -34.559  14.450  -3.168  1.00 20.00     0.110 C 
HETATM    3  C5  UNL     1     -34.023  15.872  -3.381  1.00 20.00     0.026 C 
HETATM    4  C7  UNL     1     -34.344  16.165  -4.863  1.00 20.00     0.030 C 
HETATM    5  C8  UNL     1     -33.315  17.112  -5.484  1.00 20.00     0.038 C 
HETATM    6  C9  UNL     1     -35.759  16.709  -5.100  1.00 20.00     0.038 C 
HETATM    7  N10 UNL     1     -34.240  14.841  -5.450  1.00 20.00    -0.352 N 
HETATM    8  O11 UNL     1     -34.413  12.614  -4.751  1.00 20.00    -0.274 OA
HETATM    9  H26 UNL     1     -34.075  14.681  -6.440  1.00 20.00     0.163 HD
ENDROOT
BRANCH   3  10
HETATM   10  C6  UNL     1     -34.574  16.859  -2.362  1.00 20.00    -0.008 A 
HETATM   11  C3  UNL     1     -34.688  16.463  -0.921  1.00 20.00     0.005 A 
HETATM   12  C4  UNL     1     -33.659  17.473  -1.345  1.00 20.00     0.005 A 
ENDBRANCH   3  10
TORSDOF 1
ENDMDL
MODEL 2
REMARK VINA RESULT:      -4.8      1.797      2.339
REMARK  1 active torsions:
REMARK  status: ('A' for Active; 'I' for Inactive)
REMARK    1  A    between atoms: C5_5  and  C6_6 
ROOT
HETATM    1  C1  UNL     1     -36.729  14.559  -3.719  1.00 20.00     0.218 C 
HETATM    2  C2  UNL     1     -36.202  15.725  -2.919  1.00 20.00     0.110 C 
HETATM    3  C5  UNL     1     -34.715  15.387  -2.750  1.00 20.00     0.026 C 
HETATM    4  C7  UNL     1     -34.374  14.592  -4.030  1.00 20.00     0.030 C 
HETATM    5  C8  UNL     1     -33.272  13.561  -3.774  1.00 20.00     0.038 C 
HETATM    6  C9  UNL     1     -33.993  15.471  -5.228  1.00 20.00     0.038 C 
HETATM    7  N10 UNL     1     -35.637  13.932  -4.307  1.00 20.00    -0.352 N 
HETATM    8  O11 UNL     1     -37.907  14.262  -3.842  1.00 20.00    -0.274 OA
HETATM    9  H26 UNL     1     -35.716  13.093  -4.876  1.00 20.00     0.163 HD
ENDROOT
BRANCH   3  10
HETATM   10  C6  UNL     1     -33.866  16.619  -2.474  1.00 20.00    -0.008 A 
HETATM   11  C3  UNL     1     -34.524  17.949  -2.259  1.00 20.00     0.005 A 
HETATM   12  C4  UNL     1     -33.869  17.238  -1.108  1.00 20.00     0.005 A 
ENDBRANCH   3  10
TORSDOF 1
ENDMDL
MODEL 3
REMARK VINA RESULT:      -4.6      2.257      3.914
REMARK  1 active torsions:
REMARK  status: ('A' for Active; 'I' for Inactive)
REMARK    1  A    between atoms: C5_5  and  C6_6 
ROOT
HETATM    1  C1  UNL     1     -37.092  14.704  -3.895  1.00 20.00     0.218 C 
HETATM    2  C2  UNL     1     -36.515  15.024  -5.252  1.00 20.00     0.110 C 
HETATM    3  C5  UNL     1     -35.256  15.833  -4.913  1.00 20.00     0.026 C 
HETATM    4  C7  UNL     1     -34.806  15.253  -3.553  1.00 20.00     0.030 C 
HETATM    5  C8  UNL     1     -34.102  16.309  -2.698  1.00 20.00     0.038 C 
HETATM    6  C9  UNL     1     -33.920  14.005  -3.669  1.00 20.00     0.038 C 
HETATM    7  N10 UNL     1     -36.078  14.880  -2.960  1.00 20.00    -0.352 N 
HETATM    8  O11 UNL     1     -38.233  14.325  -3.684  1.00 20.00    -0.274 OA
HETATM    9  H26 UNL     1     -36.214  14.760  -1.961  1.00 20.00     0.163 HD
ENDROOT
BRANCH   3  10
HETATM   10  C6  UNL     1     -34.227  15.805  -6.034  1.00 20.00    -0.008 A 
HETATM   11  C3  UNL     1     -34.468  14.962  -7.250  1.00 20.00     0.005 A 
HETATM   12  C4  UNL     1     -34.534  16.461  -7.346  1.00 20.00     0.005 A 
ENDBRANCH   3  10
TORSDOF 1
ENDMDL
MODEL 4
REMARK VINA RESULT:      -4.5      1.724      2.672
REMARK  1 active torsions:
REMARK  status: ('A' for Active; 'I' for Inactive)
REMARK    1  A    between atoms: C5_5  and  C6_6 
ROOT
HETATM    1  C1  UNL     1     -34.349  16.134  -5.947  1.00 20.00     0.218 C 
HETATM    2  C2  UNL     1     -33.659  16.640  -4.704  1.00 20.00     0.110 C 
HETATM    3  C5  UNL     1     -34.649  16.280  -3.587  1.00 20.00     0.026 C 
HETATM    4  C7  UNL     1     -35.338  15.000  -4.109  1.00 20.00     0.030 C 
HETATM    5  C8  UNL     1     -36.777  14.890  -3.601  1.00 20.00     0.038 C 
HETATM    6  C9  UNL     1     -34.576  13.706  -3.790  1.00 20.00     0.038 C 
HETATM    7  N10 UNL     1     -35.318  15.223  -5.543  1.00 20.00    -0.352 N 
HETATM    8  O11 UNL     1     -34.066  16.454  -7.091  1.00 20.00    -0.274 OA
HETATM    9  H26 UNL     1     -35.950  14.758  -6.189  1.00 20.00     0.163 HD
ENDROOT
BRANCH   3  10
HETATM   10  C6  UNL     1     -33.977  16.179  -2.225  1.00 20.00    -0.008 A 
HETATM   11  C3  UNL     1     -33.629  17.426  -1.468  1.00 20.00     0.005 A 
HETATM   12  C4  UNL     1     -34.742  16.537  -0.986  1.00 20.00     0.005 A 
ENDBRANCH   3  10
TORSDOF 1
ENDMDL
MODEL 5
REMARK VINA RESULT:      -4.5      1.693      2.343
REMARK  1 active torsions:
REMARK  status: ('A' for Active; 'I' for Inactive)
REMARK    1  A    between atoms: C5_5  and  C6_6 
ROOT
HETATM    1  C1  UNL     1     -36.339  15.454  -4.606  1.00 20.00     0.218 C 
HETATM    2  C2  UNL     1     -36.095  16.231  -3.336  1.00 20.00     0.110 C 
HETATM    3  C5  UNL     1     -34.849  15.554  -2.748  1.00 20.00     0.026 C 
HETATM    4  C7  UNL     1     -34.075  15.069  -3.994  1.00 20.00     0.030 C 
HETATM    5  C8  UNL     1     -33.275  13.799  -3.699  1.00 20.00     0.038 C 
HETATM    6  C9  UNL     1     -33.154  16.131  -4.610  1.00 20.00     0.038 C 
HETATM    7  N10 UNL     1     -35.160  14.786  -4.918  1.00 20.00    -0.352 N 
HETATM    8  O11 UNL     1     -37.379  15.455  -5.246  1.00 20.00    -0.274 OA
HETATM    9  H26 UNL     1     -35.066  14.162  -5.714  1.00 20.00     0.163 HD
ENDROOT
BRANCH   3  10
HETATM   10  C6  UNL     1     -34.090  16.463  -1.793  1.00 20.00    -0.008 A 
HETATM   11  C3  UNL     1     -34.567  17.865  -1.554  1.00 20.00     0.005 A 
HETATM   12  C4  UNL     1     -34.694  16.830  -0.470  1.00 20.00     0.005 A 
ENDBRANCH   3  10
TORSDOF 1
ENDMDL
MODEL 6
REMARK VINA RESULT:      -4.4      1.910      2.627
REMARK  1 active torsions:
REMARK  status: ('A' for Active; 'I' for Inactive)
REMARK    1  A    between atoms: C5_5  and  C6_6 
ROOT
HETATM    1  C1  UNL     1     -33.336  13.773  -3.837  1.00 20.00     0.218 C 
HETATM    2  C2  UNL     1     -34.842  13.720  -3.914  1.00 20.00     0.110 C 
HETATM    3  C5  UNL     1     -35.239  15.201  -3.975  1.00 20.00     0.026 C 
HETATM    4  C7  UNL     1     -34.049  15.869  -4.700  1.00 20.00     0.030 C 
HETATM    5  C8  UNL     1     -33.847  17.313  -4.235  1.00 20.00     0.038 C 
HETATM    6  C9  UNL     1     -34.147  15.825  -6.230  1.00 20.00     0.038 C 
HETATM    7  N10 UNL     1     -32.942  15.034  -4.270  1.00 20.00    -0.352 N 
HETATM    8  O11 UNL     1     -32.614  12.852  -3.490  1.00 20.00    -0.274 OA
HETATM    9  H26 UNL     1     -31.973  15.341  -4.284  1.00 20.00     0.163 HD
ENDROOT
BRANCH   3  10
HETATM   10  C6  UNL     1     -36.612  15.411  -4.596  1.00 20.00    -0.008 A 
HETATM   11  C3  UNL     1     -37.833  14.869  -3.914  1.00 20.00     0.005 A 
HETATM   12  C4  UNL     1     -37.588  16.352  -3.955  1.00 20.00     0.005 A 
ENDBRANCH   3  10
TORSDOF 1
ENDMDL
MODEL 7
REMARK VINA RESULT:      -4.3      2.388      3.854
REMARK  1 active torsions:
REMARK  status: ('A' for Active; 'I' for Inactive)
REMARK    1  A    between atoms: C5_5  and  C6_6 
ROOT
HETATM    1  C1  UNL     1     -33.682  17.888  -4.493  1.00 20.00     0.218 C 
HETATM    2  C2  UNL     1     -33.596  16.403  -4.748  1.00 20.00     0.110 C 
HETATM    3  C5  UNL     1     -33.779  15.799  -3.350  1.00 20.00     0.026 C 
HETATM    4  C7  UNL     1     -34.694  16.815  -2.630  1.00 20.00     0.030 C 
HETATM    5  C8  UNL     1     -34.417  16.853  -1.126  1.00 20.00     0.038 C 
HETATM    6  C9  UNL     1     -36.192  16.590  -2.876  1.00 20.00     0.038 C 
HETATM    7  N10 UNL     1     -34.291  18.062  -3.256  1.00 20.00    -0.352 N 
HETATM    8  O11 UNL     1     -33.311  18.760  -5.263  1.00 20.00    -0.274 OA
HETATM    9  H26 UNL     1     -34.440  18.973  -2.831  1.00 20.00     0.163 HD
ENDROOT
BRANCH   3  10
HETATM   10  C6  UNL     1     -34.274  14.360  -3.398  1.00 20.00    -0.008 A 
HETATM   11  C3  UNL     1     -34.497  13.690  -4.721  1.00 20.00     0.005 A 
HETATM   12  C4  UNL     1     -33.350  13.267  -3.845  1.00 20.00     0.005 A 
ENDBRANCH   3  10
TORSDOF 1
ENDMDL
MODEL 8
REMARK VINA RESULT:      -4.3      2.803      4.036
REMARK  1 active torsions:
REMARK  status: ('A' for Active; 'I' for Inactive)
REMARK    1  A    between atoms: C5_5  and  C6_6 
ROOT
HETATM    1  C1  UNL     1     -35.274  17.171  -1.285  1.00 20.00     0.218 C 
HETATM    2  C2  UNL     1     -34.187  16.324  -1.899  1.00 20.00     0.110 C 
HETATM    3  C5  UNL     1     -34.964  15.383  -2.829  1.00 20.00     0.026 C 
HETATM    4  C7  UNL     1     -36.183  16.225  -3.266  1.00 20.00     0.030 C 
HETATM    5  C8  UNL     1     -37.406  15.346  -3.538  1.00 20.00     0.038 C 
HETATM    6  C9  UNL     1     -35.916  17.130  -4.477  1.00 20.00     0.038 C 
HETATM    7  N10 UNL     1     -36.400  17.053  -2.093  1.00 20.00    -0.352 N 
HETATM    8  O11 UNL     1     -35.154  17.857  -0.282  1.00 20.00    -0.274 OA
HETATM    9  H26 UNL     1     -37.287  17.502  -1.882  1.00 20.00     0.163 HD
ENDROOT
BRANCH   3  10
HETATM   10  C6  UNL     1     -34.096  14.821  -3.946  1.00 20.00    -0.008 A 
HETATM   11  C3  UNL     1     -33.126  13.715  -3.656  1.00 20.00     0.005 A 
HETATM   12  C4  UNL     1     -34.357  13.442  -4.475  1.00 20.00     0.005 A 
ENDBRANCH   3  10
TORSDOF 1
ENDMDL
MODEL 9
REMARK VINA RESULT:      -4.3      1.983      2.894
REMARK  1 active torsions:
REMARK  status: ('A' for Active; 'I' for Inactive)
REMARK    1  A    between atoms: C5_5  and  C6_6 
ROOT
HETATM    1  C1  UNL     1     -35.121  13.712  -4.072  1.00 20.00     0.218 C 
HETATM    2  C2  UNL     1     -36.358  14.520  -4.379  1.00 20.00     0.110 C 
HETATM    3  C5  UNL     1     -36.347  15.599  -3.288  1.00 20.00     0.026 C 
HETATM    4  C7  UNL     1     -34.844  15.816  -3.003  1.00 20.00     0.030 C 
HETATM    5  C8  UNL     1     -34.601  16.224  -1.549  1.00 20.00     0.038 C 
HETATM    6  C9  UNL     1     -34.169  16.822  -3.944  1.00 20.00     0.038 C 
HETATM    7  N10 UNL     1     -34.306  14.491  -3.259  1.00 20.00    -0.352 N 
HETATM    8  O11 UNL     1     -34.884  12.594  -4.501  1.00 20.00    -0.274 OA
HETATM    9  H26 UNL     1     -33.421  14.166  -2.880  1.00 20.00     0.163 HD
ENDROOT
BRANCH   3  10
HETATM   10  C6  UNL     1     -37.145  16.834  -3.683  1.00 20.00    -0.008 A 
HETATM   11  C3  UNL     1     -38.641  16.820  -3.588  1.00 20.00     0.005 A 
HETATM   12  C4  UNL     1     -37.833  17.648  -2.629  1.00 20.00     0.005 A 
ENDBRANCH   3  10
TORSDOF 1
ENDMDL
