MODEL 1
REMARK VINA RESULT:      -4.5      0.000      0.000
REMARK  1 active torsions:
REMARK  status: ('A' for Active; 'I' for Inactive)
REMARK    1  A    between atoms: C4_4  and  C8_8 
ROOT
HETATM    1  C1  UNL     1     -36.453  14.252  -4.141  1.00 20.00     0.218 C 
HETATM    2  C2  UNL     1     -35.835  15.510  -4.701  1.00 20.00     0.114 C 
HETATM    3  C3  UNL     1     -34.225  13.709  -4.740  1.00 20.00     0.088 C 
HETATM    4  C4  UNL     1     -34.620  14.995  -5.503  1.00 20.00    -0.016 C 
HETATM    5  C5  UNL     1     -33.230  13.896  -3.597  1.00 20.00     0.033 C 
HETATM    6  C6  UNL     1     -33.522  16.059  -5.583  1.00 20.00     0.018 C 
HETATM    7  N9  UNL     1     -35.491  13.252  -4.206  1.00 20.00    -0.356 N 
HETATM    8  O10 UNL     1     -37.584  14.161  -3.690  1.00 20.00    -0.274 OA
HETATM    9  H25 UNL     1     -35.658  12.293  -3.909  1.00 20.00     0.162 HD
ENDROOT
BRANCH   4  10
HETATM   10  C8  UNL     1     -35.058  14.636  -6.939  1.00 20.00     0.007 C 
HETATM   11  C7  UNL     1     -35.158  15.851  -7.800  1.00 20.00     0.006 C 
ENDBRANCH   4  10
TORSDOF 1
ENDMDL
MODEL 2
REMARK VINA RESULT:      -4.5      2.477      3.720
REMARK  1 active torsions:
REMARK  status: ('A' for Active; 'I' for Inactive)
REMARK    1  A    between atoms: C4_4  and  C8_8 
ROOT
HETATM    1  C1  UNL     1     -33.458  13.681  -3.716  1.00 20.00     0.218 C 
HETATM    2  C2  UNL     1     -33.239  15.172  -3.809  1.00 20.00     0.114 C 
HETATM    3  C3  UNL     1     -35.590  14.665  -4.043  1.00 20.00     0.088 C 
HETATM    4  C4  UNL     1     -34.635  15.766  -3.523  1.00 20.00    -0.016 C 
HETATM    5  C5  UNL     1     -35.986  14.773  -5.513  1.00 20.00     0.033 C 
HETATM    6  C6  UNL     1     -34.802  17.132  -4.194  1.00 20.00     0.018 C 
HETATM    7  N9  UNL     1     -34.823  13.454  -3.838  1.00 20.00    -0.356 N 
HETATM    8  O10 UNL     1     -32.578  12.845  -3.588  1.00 20.00    -0.274 OA
HETATM    9  H25 UNL     1     -35.245  12.529  -3.789  1.00 20.00     0.162 HD
ENDROOT
BRANCH   4  10
HETATM   10  C8  UNL     1     -34.824  15.943  -2.000  1.00 20.00     0.007 C 
HETATM   11  C7  UNL     1     -33.913  16.993  -1.456  1.00 20.00     0.006 C 
ENDBRANCH   4  10
TORSDOF 1
ENDMDL
MODEL 3
REMARK VINA RESULT:      -4.4      2.257      3.617
REMARK  1 active torsions:
REMARK  status: ('A' for Active; 'I' for Inactive)
REMARK    1  A    between atoms: C4_4  and  C8_8 
ROOT
HETATM    1  C1  UNL     1     -35.062  13.833  -4.188  1.00 20.00     0.218 C 
HETATM    2  C2  UNL     1     -33.895  14.760  -3.947  1.00 20.00     0.114 C 
HETATM    3  C3  UNL     1     -35.942  16.032  -4.121  1.00 20.00     0.088 C 
HETATM    4  C4  UNL     1     -34.559  16.055  -3.429  1.00 20.00    -0.016 C 
HETATM    5  C5  UNL     1     -36.007  16.699  -5.493  1.00 20.00     0.033 C 
HETATM    6  C6  UNL     1     -33.698  17.281  -3.749  1.00 20.00     0.018 C 
HETATM    7  N9  UNL     1     -36.207  14.615  -4.260  1.00 20.00    -0.356 N 
HETATM    8  O10 UNL     1     -34.985  12.621  -4.322  1.00 20.00    -0.274 OA
HETATM    9  H25 UNL     1     -37.140  14.234  -4.398  1.00 20.00     0.162 HD
ENDROOT
BRANCH   4  10
HETATM   10  C8  UNL     1     -34.740  15.972  -1.898  1.00 20.00     0.007 C 
HETATM   11  C7  UNL     1     -33.989  17.056  -1.199  1.00 20.00     0.006 C 
ENDBRANCH   4  10
TORSDOF 1
ENDMDL
MODEL 4
REMARK VINA RESULT:      -4.4      2.129      3.392
REMARK  1 active torsions:
REMARK  status: ('A' for Active; 'I' for Inactive)
REMARK    1  A    between atoms: C4_4  and  C8_8 
ROOT
HETATM    1  C1  UNL     1     -36.660  14.813  -3.893  1.00 20.00     0.218 C 
HETATM    2  C2  UNL     1     -35.286  14.277  -3.571  1.00 20.00     0.114 C 
HETATM    3  C3  UNL     1     -35.131  16.582  -4.277  1.00 20.00     0.088 C 
HETATM    4  C4  UNL     1     -34.438  15.550  -3.357  1.00 20.00    -0.016 C 
HETATM    5  C5  UNL     1     -34.619  16.637  -5.714  1.00 20.00     0.033 C 
HETATM    6  C6  UNL     1     -32.963  15.289  -3.677  1.00 20.00     0.018 C 
HETATM    7  N9  UNL     1     -36.509  16.140  -4.273  1.00 20.00    -0.356 N 
HETATM    8  O10 UNL     1     -37.697  14.169  -3.850  1.00 20.00    -0.274 OA
HETATM    9  H25 UNL     1     -37.289  16.744  -4.524  1.00 20.00     0.162 HD
ENDROOT
BRANCH   4  10
HETATM   10  C8  UNL     1     -34.545  16.006  -1.886  1.00 20.00     0.007 C 
HETATM   11  C7  UNL     1     -33.790  17.271  -1.650  1.00 20.00     0.006 C 
ENDBRANCH   4  10
TORSDOF 1
ENDMDL
MODEL 5
REMARK VINA RESULT:      -4.4      1.790      2.065
REMARK  1 active torsions:
REMARK  status: ('A' for Active; 'I' for Inactive)
REMARK    1  A    between atoms: C4_4  and  C8_8 
ROOT
HETATM    1  C1  UNL     1     -34.569  13.644  -4.622  1.00 20.00     0.218 C 
HETATM    2  C2  UNL     1     -35.507  14.761  -5.012  1.00 20.00     0.114 C 
HETATM    3  C3  UNL     1     -33.453  15.675  -4.126  1.00 20.00     0.088 C 
HETATM    4  C4  UNL     1     -34.580  15.990  -5.139  1.00 20.00    -0.016 C 
HETATM    5  C5  UNL     1     -33.691  16.163  -2.699  1.00 20.00     0.033 C 
HETATM    6  C6  UNL     1     -35.345  17.288  -4.868  1.00 20.00     0.018 C 
HETATM    7  N9  UNL     1     -33.405  14.229  -4.141  1.00 20.00    -0.356 N 
HETATM    8  O10 UNL     1     -34.822  12.452  -4.697  1.00 20.00    -0.274 OA
HETATM    9  H25 UNL     1     -32.597  13.695  -3.828  1.00 20.00     0.162 HD
ENDROOT
BRANCH   4  10
HETATM   10  C8  UNL     1     -33.995  16.056  -6.566  1.00 20.00     0.007 C 
HETATM   11  C7  UNL     1     -35.024  15.721  -7.594  1.00 20.00     0.006 C 
ENDBRANCH   4  10
TORSDOF 1
ENDMDL
MODEL 6
REMARK VINA RESULT:      -4.3      2.209      2.830
REMARK  1 active torsions:
REMARK  status: ('A' for Active; 'I' for Inactive)
REMARK    1  A    between atoms: C4_4  and  C8_8 
ROOT
HETATM    1  C1  UNL     1     -33.196  13.842  -3.790  1.00 20.00     0.218 C 
HETATM    2  C2  UNL     1     -34.696  13.945  -3.924  1.00 20.00     0.114 C 
HETATM    3  C3  UNL     1     -33.667  16.059  -4.481  1.00 20.00     0.088 C 
HETATM    4  C4  UNL     1     -34.898  15.186  -4.820  1.00 20.00    -0.016 C 
HETATM    5  C5  UNL     1     -33.845  17.030  -3.316  1.00 20.00     0.033 C 
HETATM    6  C6  UNL     1     -36.252  15.847  -4.548  1.00 20.00     0.018 C 
HETATM    7  N9  UNL     1     -32.662  15.075  -4.139  1.00 20.00    -0.356 N 
HETATM    8  O10 UNL     1     -32.587  12.853  -3.412  1.00 20.00    -0.274 OA
HETATM    9  H25 UNL     1     -31.663  15.271  -4.154  1.00 20.00     0.162 HD
ENDROOT
BRANCH   4  10
HETATM   10  C8  UNL     1     -34.849  14.769  -6.306  1.00 20.00     0.007 C 
HETATM   11  C7  UNL     1     -34.422  15.902  -7.178  1.00 20.00     0.006 C 
ENDBRANCH   4  10
TORSDOF 1
ENDMDL
MODEL 7
REMARK VINA RESULT:      -4.3     11.371     12.894
REMARK  1 active torsions:
REMARK  status: ('A' for Active; 'I' for Inactive)
REMARK    1  A    between atoms: C4_4  and  C8_8 
ROOT
HETATM    1  C1  UNL     1     -41.631   3.652  -2.476  1.00 20.00     0.218 C 
HETATM    2  C2  UNL     1     -40.703   4.159  -1.399  1.00 20.00     0.114 C 
HETATM    3  C3  UNL     1     -42.509   5.727  -1.741  1.00 20.00     0.088 C 
HETATM    4  C4  UNL     1     -41.556   5.200  -0.642  1.00 20.00    -0.016 C 
HETATM    5  C5  UNL     1     -41.997   6.919  -2.545  1.00 20.00     0.033 C 
HETATM    6  C6  UNL     1     -40.672   6.268   0.009  1.00 20.00     0.018 C 
HETATM    7  N9  UNL     1     -42.654   4.582  -2.614  1.00 20.00    -0.356 N 
HETATM    8  O10 UNL     1     -41.474   2.625  -3.118  1.00 20.00    -0.274 OA
HETATM    9  H25 UNL     1     -43.429   4.471  -3.265  1.00 20.00     0.162 HD
ENDROOT
BRANCH   4  10
HETATM   10  C8  UNL     1     -42.373   4.500   0.466  1.00 20.00     0.007 C 
HETATM   11  C7  UNL     1     -43.313   5.448   1.133  1.00 20.00     0.006 C 
ENDBRANCH   4  10
TORSDOF 1
ENDMDL
MODEL 8
REMARK VINA RESULT:      -4.3      1.310      2.542
REMARK  1 active torsions:
REMARK  status: ('A' for Active; 'I' for Inactive)
REMARK    1  A    between atoms: C4_4  and  C8_8 
ROOT
HETATM    1  C1  UNL     1     -37.212  14.711  -3.917  1.00 20.00     0.218 C 
HETATM    2  C2  UNL     1     -36.495  14.747  -5.245  1.00 20.00     0.114 C 
HETATM    3  C3  UNL     1     -35.116  15.748  -3.533  1.00 20.00     0.088 C 
HETATM    4  C4  UNL     1     -35.015  14.954  -4.857  1.00 20.00    -0.016 C 
HETATM    5  C5  UNL     1     -35.158  17.267  -3.673  1.00 20.00     0.033 C 
HETATM    6  C6  UNL     1     -34.245  15.662  -5.976  1.00 20.00     0.018 C 
HETATM    7  N9  UNL     1     -36.366  15.280  -2.974  1.00 20.00    -0.356 N 
HETATM    8  O10 UNL     1     -38.341  14.283  -3.736  1.00 20.00    -0.274 OA
HETATM    9  H25 UNL     1     -36.600  15.361  -1.986  1.00 20.00     0.162 HD
ENDROOT
BRANCH   4  10
HETATM   10  C8  UNL     1     -34.348  13.586  -4.596  1.00 20.00     0.007 C 
HETATM   11  C7  UNL     1     -33.180  13.714  -3.676  1.00 20.00     0.006 C 
ENDBRANCH   4  10
TORSDOF 1
ENDMDL
MODEL 9
REMARK VINA RESULT:      -4.3      3.047      4.179
REMARK  1 active torsions:
REMARK  status: ('A' for Active; 'I' for Inactive)
REMARK    1  A    between atoms: C4_4  and  C8_8 
ROOT
HETATM    1  C1  UNL     1     -33.697  17.353  -5.266  1.00 20.00     0.218 C 
HETATM    2  C2  UNL     1     -34.912  17.231  -4.378  1.00 20.00     0.114 C 
HETATM    3  C3  UNL     1     -33.740  15.120  -4.474  1.00 20.00     0.088 C 
HETATM    4  C4  UNL     1     -34.620  15.974  -3.530  1.00 20.00    -0.016 C 
HETATM    5  C5  UNL     1     -34.493  14.166  -5.398  1.00 20.00     0.033 C 
HETATM    6  C6  UNL     1     -35.919  15.301  -3.077  1.00 20.00     0.018 C 
HETATM    7  N9  UNL     1     -33.057  16.121  -5.267  1.00 20.00    -0.356 N 
HETATM    8  O10 UNL     1     -33.372  18.355  -5.884  1.00 20.00    -0.274 OA
HETATM    9  H25 UNL     1     -32.194  15.937  -5.774  1.00 20.00     0.162 HD
ENDROOT
BRANCH   4  10
HETATM   10  C8  UNL     1     -33.810  16.367  -2.276  1.00 20.00     0.007 C 
HETATM   11  C7  UNL     1     -34.693  16.520  -1.082  1.00 20.00     0.006 C 
ENDBRANCH   4  10
TORSDOF 1
ENDMDL
