MODEL 1
REMARK VINA RESULT:      -4.6      0.000      0.000
REMARK  1 active torsions:
REMARK  status: ('A' for Active; 'I' for Inactive)
REMARK    1  A    between atoms: C3_3  and  C8_8 
ROOT
HETATM    1  C1  UNL     1     -36.730  14.552  -3.735  1.00 20.00     0.218 C 
HETATM    2  C2  UNL     1     -36.216  15.713  -2.922  1.00 20.00     0.109 C 
HETATM    3  C3  UNL     1     -34.729  15.381  -2.744  1.00 20.00     0.021 C 
HETATM    4  C4  UNL     1     -34.373  14.598  -4.028  1.00 20.00     0.029 C 
HETATM    5  C5  UNL     1     -33.268  13.571  -3.771  1.00 20.00     0.038 C 
HETATM    6  C6  UNL     1     -33.987  15.490  -5.215  1.00 20.00     0.038 C 
HETATM    7  N9  UNL     1     -35.631  13.934  -4.320  1.00 20.00    -0.352 N 
HETATM    8  O10 UNL     1     -37.906  14.250  -3.870  1.00 20.00    -0.274 OA
HETATM    9  H25 UNL     1     -35.700  13.100  -4.895  1.00 20.00     0.163 HD
ENDROOT
BRANCH   3  10
HETATM   10  C8  UNL     1     -33.887  16.616  -2.450  1.00 20.00     0.003 C 
HETATM   11  C7  UNL     1     -34.074  17.097  -1.048  1.00 20.00     0.005 C 
ENDBRANCH   3  10
TORSDOF 1
ENDMDL
MODEL 2
REMARK VINA RESULT:      -4.6      1.807      2.351
REMARK  1 active torsions:
REMARK  status: ('A' for Active; 'I' for Inactive)
REMARK    1  A    between atoms: C3_3  and  C8_8 
ROOT
HETATM    1  C1  UNL     1     -34.584  13.786  -4.525  1.00 20.00     0.218 C 
HETATM    2  C2  UNL     1     -34.283  14.449  -3.204  1.00 20.00     0.109 C 
HETATM    3  C3  UNL     1     -33.738  15.822  -3.621  1.00 20.00     0.021 C 
HETATM    4  C4  UNL     1     -34.479  16.121  -4.945  1.00 20.00     0.029 C 
HETATM    5  C5  UNL     1     -33.626  16.977  -5.883  1.00 20.00     0.038 C 
HETATM    6  C6  UNL     1     -35.854  16.774  -4.755  1.00 20.00     0.038 C 
HETATM    7  N9  UNL     1     -34.655  14.786  -5.487  1.00 20.00    -0.352 N 
HETATM    8  O10 UNL     1     -34.764  12.588  -4.689  1.00 20.00    -0.274 OA
HETATM    9  H25 UNL     1     -34.815  14.602  -6.472  1.00 20.00     0.163 HD
ENDROOT
BRANCH   3  10
HETATM   10  C8  UNL     1     -33.876  16.863  -2.519  1.00 20.00     0.003 C 
HETATM   11  C7  UNL     1     -34.635  16.334  -1.345  1.00 20.00     0.005 C 
ENDBRANCH   3  10
TORSDOF 1
ENDMDL
MODEL 3
REMARK VINA RESULT:      -4.3      1.191      2.934
REMARK  1 active torsions:
REMARK  status: ('A' for Active; 'I' for Inactive)
REMARK    1  A    between atoms: C3_3  and  C8_8 
ROOT
HETATM    1  C1  UNL     1     -36.982  14.692  -3.929  1.00 20.00     0.218 C 
HETATM    2  C2  UNL     1     -36.401  14.988  -5.289  1.00 20.00     0.109 C 
HETATM    3  C3  UNL     1     -35.158  15.826  -4.960  1.00 20.00     0.021 C 
HETATM    4  C4  UNL     1     -34.709  15.288  -3.583  1.00 20.00     0.029 C 
HETATM    5  C5  UNL     1     -34.029  16.377  -2.750  1.00 20.00     0.038 C 
HETATM    6  C6  UNL     1     -33.802  14.054  -3.662  1.00 20.00     0.038 C 
HETATM    7  N9  UNL     1     -35.979  14.909  -2.991  1.00 20.00    -0.352 N 
HETATM    8  O10 UNL     1     -38.120  14.300  -3.717  1.00 20.00    -0.274 OA
HETATM    9  H25 UNL     1     -36.121  14.812  -1.991  1.00 20.00     0.163 HD
ENDROOT
BRANCH   3  10
HETATM   10  C8  UNL     1     -34.119  15.788  -6.073  1.00 20.00     0.003 C 
HETATM   11  C7  UNL     1     -34.555  14.925  -7.213  1.00 20.00     0.005 C 
ENDBRANCH   3  10
TORSDOF 1
ENDMDL
MODEL 4
REMARK VINA RESULT:      -4.3      2.431      3.409
REMARK  1 active torsions:
REMARK  status: ('A' for Active; 'I' for Inactive)
REMARK    1  A    between atoms: C3_3  and  C8_8 
ROOT
HETATM    1  C1  UNL     1     -33.370  13.800  -3.865  1.00 20.00     0.218 C 
HETATM    2  C2  UNL     1     -34.875  13.774  -3.956  1.00 20.00     0.109 C 
HETATM    3  C3  UNL     1     -35.244  15.262  -4.022  1.00 20.00     0.021 C 
HETATM    4  C4  UNL     1     -34.035  15.907  -4.737  1.00 20.00     0.029 C 
HETATM    5  C5  UNL     1     -33.812  17.347  -4.273  1.00 20.00     0.038 C 
HETATM    6  C6  UNL     1     -34.120  15.863  -6.268  1.00 20.00     0.038 C 
HETATM    7  N9  UNL     1     -32.947  15.052  -4.295  1.00 20.00    -0.352 N 
HETATM    8  O10 UNL     1     -32.668  12.865  -3.509  1.00 20.00    -0.274 OA
HETATM    9  H25 UNL     1     -31.974  15.341  -4.301  1.00 20.00     0.163 HD
ENDROOT
BRANCH   3  10
HETATM   10  C8  UNL     1     -36.609  15.496  -4.657  1.00 20.00     0.003 C 
HETATM   11  C7  UNL     1     -37.711  14.897  -3.846  1.00 20.00     0.005 C 
ENDBRANCH   3  10
TORSDOF 1
ENDMDL
MODEL 5
REMARK VINA RESULT:      -4.2      2.565      3.910
REMARK  1 active torsions:
REMARK  status: ('A' for Active; 'I' for Inactive)
REMARK    1  A    between atoms: C3_3  and  C8_8 
ROOT
HETATM    1  C1  UNL     1     -33.663  17.360  -4.602  1.00 20.00     0.218 C 
HETATM    2  C2  UNL     1     -33.508  15.872  -4.791  1.00 20.00     0.109 C 
HETATM    3  C3  UNL     1     -33.764  15.315  -3.384  1.00 20.00     0.021 C 
HETATM    4  C4  UNL     1     -34.760  16.324  -2.768  1.00 20.00     0.029 C 
HETATM    5  C5  UNL     1     -34.586  16.429  -1.252  1.00 20.00     0.038 C 
HETATM    6  C6  UNL     1     -36.229  16.033  -3.103  1.00 20.00     0.038 C 
HETATM    7  N9  UNL     1     -34.359  17.560  -3.416  1.00 20.00    -0.352 N 
HETATM    8  O10 UNL     1     -33.270  18.216  -5.382  1.00 20.00    -0.274 OA
HETATM    9  H25 UNL     1     -34.567  18.479  -3.040  1.00 20.00     0.163 HD
ENDROOT
BRANCH   3  10
HETATM   10  C8  UNL     1     -34.204  13.858  -3.406  1.00 20.00     0.003 C 
HETATM   11  C7  UNL     1     -34.391  13.352  -4.800  1.00 20.00     0.005 C 
ENDBRANCH   3  10
TORSDOF 1
ENDMDL
MODEL 6
REMARK VINA RESULT:      -4.2      2.254      3.021
REMARK  1 active torsions:
REMARK  status: ('A' for Active; 'I' for Inactive)
REMARK    1  A    between atoms: C3_3  and  C8_8 
ROOT
HETATM    1  C1  UNL     1     -33.461  14.012  -4.045  1.00 20.00     0.218 C 
HETATM    2  C2  UNL     1     -33.165  15.433  -3.636  1.00 20.00     0.109 C 
HETATM    3  C3  UNL     1     -33.381  16.219  -4.937  1.00 20.00     0.021 C 
HETATM    4  C4  UNL     1     -34.472  15.412  -5.675  1.00 20.00     0.029 C 
HETATM    5  C5  UNL     1     -34.323  15.524  -7.193  1.00 20.00     0.038 C 
HETATM    6  C6  UNL     1     -35.904  15.781  -5.266  1.00 20.00     0.038 C 
HETATM    7  N9  UNL     1     -34.184  14.059  -5.231  1.00 20.00    -0.352 N 
HETATM    8  O10 UNL     1     -33.143  13.015  -3.412  1.00 20.00    -0.274 OA
HETATM    9  H25 UNL     1     -34.480  13.232  -5.737  1.00 20.00     0.163 HD
ENDROOT
BRANCH   3  10
HETATM   10  C8  UNL     1     -33.682  17.690  -4.685  1.00 20.00     0.003 C 
HETATM   11  C7  UNL     1     -33.804  17.993  -3.226  1.00 20.00     0.005 C 
ENDBRANCH   3  10
TORSDOF 1
ENDMDL
MODEL 7
REMARK VINA RESULT:      -4.2      2.423      2.860
REMARK  1 active torsions:
REMARK  status: ('A' for Active; 'I' for Inactive)
REMARK    1  A    between atoms: C3_3  and  C8_8 
ROOT
HETATM    1  C1  UNL     1     -33.703  16.947  -5.344  1.00 20.00     0.218 C 
HETATM    2  C2  UNL     1     -34.034  17.334  -3.925  1.00 20.00     0.109 C 
HETATM    3  C3  UNL     1     -34.602  16.036  -3.336  1.00 20.00     0.021 C 
HETATM    4  C4  UNL     1     -33.853  14.926  -4.106  1.00 20.00     0.029 C 
HETATM    5  C5  UNL     1     -34.712  13.669  -4.257  1.00 20.00     0.038 C 
HETATM    6  C6  UNL     1     -32.494  14.555  -3.499  1.00 20.00     0.038 C 
HETATM    7  N9  UNL     1     -33.641  15.560  -5.396  1.00 20.00    -0.352 N 
HETATM    8  O10 UNL     1     -33.495  17.731  -6.259  1.00 20.00    -0.274 OA
HETATM    9  H25 UNL     1     -33.466  15.040  -6.250  1.00 20.00     0.163 HD
ENDROOT
BRANCH   3  10
HETATM   10  C8  UNL     1     -34.500  15.992  -1.817  1.00 20.00     0.003 C 
HETATM   11  C7  UNL     1     -33.864  17.226  -1.265  1.00 20.00     0.005 C 
ENDBRANCH   3  10
TORSDOF 1
ENDMDL
MODEL 8
REMARK VINA RESULT:      -4.2      1.869      2.940
REMARK  1 active torsions:
REMARK  status: ('A' for Active; 'I' for Inactive)
REMARK    1  A    between atoms: C3_3  and  C8_8 
ROOT
HETATM    1  C1  UNL     1     -35.047  13.705  -4.160  1.00 20.00     0.218 C 
HETATM    2  C2  UNL     1     -36.127  14.635  -4.654  1.00 20.00     0.109 C 
HETATM    3  C3  UNL     1     -36.159  15.730  -3.579  1.00 20.00     0.021 C 
HETATM    4  C4  UNL     1     -34.700  15.788  -3.073  1.00 20.00     0.029 C 
HETATM    5  C5  UNL     1     -34.633  16.201  -1.601  1.00 20.00     0.038 C 
HETATM    6  C6  UNL     1     -33.786  16.695  -3.908  1.00 20.00     0.038 C 
HETATM    7  N9  UNL     1     -34.280  14.408  -3.238  1.00 20.00    -0.352 N 
HETATM    8  O10 UNL     1     -34.875  12.557  -4.542  1.00 20.00    -0.274 OA
HETATM    9  H25 UNL     1     -33.504  13.997  -2.730  1.00 20.00     0.163 HD
ENDROOT
BRANCH   3  10
HETATM   10  C8  UNL     1     -36.748  17.036  -4.096  1.00 20.00     0.003 C 
HETATM   11  C7  UNL     1     -37.191  16.924  -5.519  1.00 20.00     0.005 C 
ENDBRANCH   3  10
TORSDOF 1
ENDMDL
MODEL 9
REMARK VINA RESULT:      -4.2      1.734      3.072
REMARK  1 active torsions:
REMARK  status: ('A' for Active; 'I' for Inactive)
REMARK    1  A    between atoms: C3_3  and  C8_8 
ROOT
HETATM    1  C1  UNL     1     -35.042  13.814  -4.251  1.00 20.00     0.218 C 
HETATM    2  C2  UNL     1     -33.966  14.734  -4.772  1.00 20.00     0.109 C 
HETATM    3  C3  UNL     1     -34.579  16.127  -4.582  1.00 20.00     0.021 C 
HETATM    4  C4  UNL     1     -35.484  15.962  -3.340  1.00 20.00     0.029 C 
HETATM    5  C5  UNL     1     -36.696  16.894  -3.400  1.00 20.00     0.038 C 
HETATM    6  C6  UNL     1     -34.751  16.152  -2.006  1.00 20.00     0.038 C 
HETATM    7  N9  UNL     1     -35.897  14.576  -3.464  1.00 20.00    -0.352 N 
HETATM    8  O10 UNL     1     -35.109  12.613  -4.467  1.00 20.00    -0.274 OA
HETATM    9  H25 UNL     1     -36.729  14.201  -3.019  1.00 20.00     0.163 HD
ENDROOT
BRANCH   3  10
HETATM   10  C8  UNL     1     -33.524  17.223  -4.510  1.00 20.00     0.003 C 
HETATM   11  C7  UNL     1     -33.617  18.164  -5.667  1.00 20.00     0.005 C 
ENDBRANCH   3  10
TORSDOF 1
ENDMDL
