MODEL 1
REMARK VINA RESULT:      -4.8      0.000      0.000
REMARK  1 active torsions:
REMARK  status: ('A' for Active; 'I' for Inactive)
REMARK    1  A    between atoms: C3_3  and  C8_8 
ROOT
HETATM    1  C1  UNL     1     -34.705  13.677  -4.576  1.00 20.00     0.218 C 
HETATM    2  C2  UNL     1     -34.225  14.145  -3.225  1.00 20.00     0.109 C 
HETATM    3  C3  UNL     1     -34.686  15.608  -3.180  1.00 20.00     0.021 C 
HETATM    4  C4  UNL     1     -34.643  16.051  -4.659  1.00 20.00     0.029 C 
HETATM    5  C5  UNL     1     -33.267  16.548  -5.123  1.00 20.00     0.038 C 
HETATM    6  C6  UNL     1     -35.704  17.113  -4.958  1.00 20.00     0.038 C 
HETATM    7  N9  UNL     1     -34.956  14.808  -5.344  1.00 20.00    -0.352 N 
HETATM    8  O10 UNL     1     -34.811  12.511  -4.923  1.00 20.00    -0.274 OA
HETATM    9  H25 UNL     1     -35.322  14.770  -6.291  1.00 20.00     0.163 HD
ENDROOT
BRANCH   3  10
HETATM   10  C8  UNL     1     -33.874  16.444  -2.200  1.00 20.00     0.003 C 
HETATM   11  C7  UNL     1     -34.595  16.640  -0.905  1.00 20.00     0.005 C 
ENDBRANCH   3  10
TORSDOF 1
ENDMDL
MODEL 2
REMARK VINA RESULT:      -4.7      0.990      1.163
REMARK  1 active torsions:
REMARK  status: ('A' for Active; 'I' for Inactive)
REMARK    1  A    between atoms: C3_3  and  C8_8 
ROOT
HETATM    1  C1  UNL     1     -34.989  13.599  -4.376  1.00 20.00     0.218 C 
HETATM    2  C2  UNL     1     -34.077  14.213  -3.343  1.00 20.00     0.109 C 
HETATM    3  C3  UNL     1     -34.937  15.335  -2.744  1.00 20.00     0.021 C 
HETATM    4  C4  UNL     1     -35.842  15.769  -3.918  1.00 20.00     0.029 C 
HETATM    5  C5  UNL     1     -35.206  16.815  -4.843  1.00 20.00     0.038 C 
HETATM    6  C6  UNL     1     -37.199  16.273  -3.424  1.00 20.00     0.038 C 
HETATM    7  N9  UNL     1     -35.994  14.520  -4.645  1.00 20.00    -0.352 N 
HETATM    8  O10 UNL     1     -34.831  12.505  -4.895  1.00 20.00    -0.274 OA
HETATM    9  H25 UNL     1     -36.760  14.339  -5.287  1.00 20.00     0.163 HD
ENDROOT
BRANCH   3  10
HETATM   10  C8  UNL     1     -34.098  16.428  -2.096  1.00 20.00     0.003 C 
HETATM   11  C7  UNL     1     -34.575  16.752  -0.717  1.00 20.00     0.005 C 
ENDBRANCH   3  10
TORSDOF 1
ENDMDL
MODEL 3
REMARK VINA RESULT:      -4.4      1.724      2.132
REMARK  1 active torsions:
REMARK  status: ('A' for Active; 'I' for Inactive)
REMARK    1  A    between atoms: C3_3  and  C8_8 
ROOT
HETATM    1  C1  UNL     1     -36.873  14.616  -3.899  1.00 20.00     0.218 C 
HETATM    2  C2  UNL     1     -36.205  15.497  -2.872  1.00 20.00     0.109 C 
HETATM    3  C3  UNL     1     -34.979  16.035  -3.622  1.00 20.00     0.021 C 
HETATM    4  C4  UNL     1     -34.622  14.897  -4.604  1.00 20.00     0.029 C 
HETATM    5  C5  UNL     1     -33.719  13.812  -4.001  1.00 20.00     0.038 C 
HETATM    6  C6  UNL     1     -33.991  15.441  -5.887  1.00 20.00     0.038 C 
HETATM    7  N9  UNL     1     -35.930  14.329  -4.878  1.00 20.00    -0.352 N 
HETATM    8  O10 UNL     1     -38.024  14.212  -3.839  1.00 20.00    -0.274 OA
HETATM    9  H25 UNL     1     -36.136  13.775  -5.704  1.00 20.00     0.163 HD
ENDROOT
BRANCH   3  10
HETATM   10  C8  UNL     1     -33.873  16.487  -2.678  1.00 20.00     0.003 C 
HETATM   11  C7  UNL     1     -34.360  16.617  -1.271  1.00 20.00     0.005 C 
ENDBRANCH   3  10
TORSDOF 1
ENDMDL
MODEL 4
REMARK VINA RESULT:      -4.4      2.218      3.110
REMARK  1 active torsions:
REMARK  status: ('A' for Active; 'I' for Inactive)
REMARK    1  A    between atoms: C3_3  and  C8_8 
ROOT
HETATM    1  C1  UNL     1     -33.549  17.210  -5.032  1.00 20.00     0.218 C 
HETATM    2  C2  UNL     1     -34.135  17.526  -3.678  1.00 20.00     0.109 C 
HETATM    3  C3  UNL     1     -33.780  16.284  -2.849  1.00 20.00     0.021 C 
HETATM    4  C4  UNL     1     -33.772  15.140  -3.887  1.00 20.00     0.029 C 
HETATM    5  C5  UNL     1     -35.152  14.518  -4.142  1.00 20.00     0.038 C 
HETATM    6  C6  UNL     1     -32.773  14.045  -3.508  1.00 20.00     0.038 C 
HETATM    7  N9  UNL     1     -33.336  15.838  -5.085  1.00 20.00    -0.352 N 
HETATM    8  O10 UNL     1     -33.344  18.025  -5.919  1.00 20.00    -0.274 OA
HETATM    9  H25 UNL     1     -32.917  15.369  -5.882  1.00 20.00     0.163 HD
ENDROOT
BRANCH   3  10
HETATM   10  C8  UNL     1     -34.701  16.103  -1.650  1.00 20.00     0.003 C 
HETATM   11  C7  UNL     1     -34.386  17.070  -0.555  1.00 20.00     0.005 C 
ENDBRANCH   3  10
TORSDOF 1
ENDMDL
MODEL 5
REMARK VINA RESULT:      -4.3      2.203      3.001
REMARK  1 active torsions:
REMARK  status: ('A' for Active; 'I' for Inactive)
REMARK    1  A    between atoms: C3_3  and  C8_8 
ROOT
HETATM    1  C1  UNL     1     -37.283  14.728  -3.601  1.00 20.00     0.218 C 
HETATM    2  C2  UNL     1     -36.061  14.287  -4.369  1.00 20.00     0.109 C 
HETATM    3  C3  UNL     1     -34.903  14.820  -3.514  1.00 20.00     0.021 C 
HETATM    4  C4  UNL     1     -35.485  16.095  -2.864  1.00 20.00     0.029 C 
HETATM    5  C5  UNL     1     -35.359  17.353  -3.736  1.00 20.00     0.038 C 
HETATM    6  C6  UNL     1     -34.868  16.356  -1.489  1.00 20.00     0.038 C 
HETATM    7  N9  UNL     1     -36.889  15.743  -2.738  1.00 20.00    -0.352 N 
HETATM    8  O10 UNL     1     -38.411  14.285  -3.755  1.00 20.00    -0.274 OA
HETATM    9  H25 UNL     1     -37.519  16.194  -2.082  1.00 20.00     0.163 HD
ENDROOT
BRANCH   3  10
HETATM   10  C8  UNL     1     -33.621  14.994  -4.316  1.00 20.00     0.003 C 
HETATM   11  C7  UNL     1     -32.420  14.537  -3.551  1.00 20.00     0.005 C 
ENDBRANCH   3  10
TORSDOF 1
ENDMDL
MODEL 6
REMARK VINA RESULT:      -4.3      1.749      2.840
REMARK  1 active torsions:
REMARK  status: ('A' for Active; 'I' for Inactive)
REMARK    1  A    between atoms: C3_3  and  C8_8 
ROOT
HETATM    1  C1  UNL     1     -34.316  16.106  -5.977  1.00 20.00     0.218 C 
HETATM    2  C2  UNL     1     -34.902  16.746  -4.743  1.00 20.00     0.109 C 
HETATM    3  C3  UNL     1     -34.340  15.884  -3.604  1.00 20.00     0.021 C 
HETATM    4  C4  UNL     1     -34.189  14.486  -4.243  1.00 20.00     0.029 C 
HETATM    5  C5  UNL     1     -35.466  13.635  -4.192  1.00 20.00     0.038 C 
HETATM    6  C6  UNL     1     -33.026  13.708  -3.625  1.00 20.00     0.038 C 
HETATM    7  N9  UNL     1     -33.900  14.827  -5.625  1.00 20.00    -0.352 N 
HETATM    8  O10 UNL     1     -34.262  16.623  -7.082  1.00 20.00    -0.274 OA
HETATM    9  H25 UNL     1     -33.438  14.194  -6.271  1.00 20.00     0.163 HD
ENDROOT
BRANCH   3  10
HETATM   10  C8  UNL     1     -35.187  15.964  -2.342  1.00 20.00     0.003 C 
HETATM   11  C7  UNL     1     -34.440  16.592  -1.209  1.00 20.00     0.005 C 
ENDBRANCH   3  10
TORSDOF 1
ENDMDL
MODEL 7
REMARK VINA RESULT:      -4.3      2.040      3.180
REMARK  1 active torsions:
REMARK  status: ('A' for Active; 'I' for Inactive)
REMARK    1  A    between atoms: C3_3  and  C8_8 
ROOT
HETATM    1  C1  UNL     1     -37.000  14.792  -3.712  1.00 20.00     0.218 C 
HETATM    2  C2  UNL     1     -35.861  14.791  -4.701  1.00 20.00     0.109 C 
HETATM    3  C3  UNL     1     -34.685  15.333  -3.877  1.00 20.00     0.021 C 
HETATM    4  C4  UNL     1     -35.357  16.283  -2.861  1.00 20.00     0.029 C 
HETATM    5  C5  UNL     1     -35.582  17.706  -3.390  1.00 20.00     0.038 C 
HETATM    6  C6  UNL     1     -34.580  16.338  -1.544  1.00 20.00     0.038 C 
HETATM    7  N9  UNL     1     -36.645  15.639  -2.669  1.00 20.00    -0.352 N 
HETATM    8  O10 UNL     1     -38.049  14.181  -3.843  1.00 20.00    -0.274 OA
HETATM    9  H25 UNL     1     -37.229  15.792  -1.851  1.00 20.00     0.163 HD
ENDROOT
BRANCH   3  10
HETATM   10  C8  UNL     1     -33.594  15.939  -4.750  1.00 20.00     0.003 C 
HETATM   11  C7  UNL     1     -33.951  15.890  -6.201  1.00 20.00     0.005 C 
ENDBRANCH   3  10
TORSDOF 1
ENDMDL
MODEL 8
REMARK VINA RESULT:      -4.2      1.271      2.939
REMARK  1 active torsions:
REMARK  status: ('A' for Active; 'I' for Inactive)
REMARK    1  A    between atoms: C3_3  and  C8_8 
ROOT
HETATM    1  C1  UNL     1     -34.647  13.707  -4.637  1.00 20.00     0.218 C 
HETATM    2  C2  UNL     1     -34.312  14.713  -5.710  1.00 20.00     0.109 C 
HETATM    3  C3  UNL     1     -33.795  15.916  -4.909  1.00 20.00     0.021 C 
HETATM    4  C4  UNL     1     -34.577  15.833  -3.579  1.00 20.00     0.029 C 
HETATM    5  C5  UNL     1     -35.953  16.512  -3.620  1.00 20.00     0.038 C 
HETATM    6  C6  UNL     1     -33.760  16.391  -2.412  1.00 20.00     0.038 C 
HETATM    7  N9  UNL     1     -34.758  14.399  -3.437  1.00 20.00    -0.352 N 
HETATM    8  O10 UNL     1     -34.821  12.512  -4.820  1.00 20.00    -0.274 OA
HETATM    9  H25 UNL     1     -34.948  13.946  -2.548  1.00 20.00     0.163 HD
ENDROOT
BRANCH   3  10
HETATM   10  C8  UNL     1     -33.910  17.223  -5.681  1.00 20.00     0.003 C 
HETATM   11  C7  UNL     1     -34.475  17.012  -7.050  1.00 20.00     0.005 C 
ENDBRANCH   3  10
TORSDOF 1
ENDMDL
MODEL 9
REMARK VINA RESULT:      -4.2      1.855      2.665
REMARK  1 active torsions:
REMARK  status: ('A' for Active; 'I' for Inactive)
REMARK    1  A    between atoms: C3_3  and  C8_8 
ROOT
HETATM    1  C1  UNL     1     -33.560  13.913  -3.691  1.00 20.00     0.218 C 
HETATM    2  C2  UNL     1     -35.061  13.963  -3.833  1.00 20.00     0.109 C 
HETATM    3  C3  UNL     1     -35.342  15.460  -4.024  1.00 20.00     0.021 C 
HETATM    4  C4  UNL     1     -34.215  16.149  -3.223  1.00 20.00     0.029 C 
HETATM    5  C5  UNL     1     -34.528  16.328  -1.731  1.00 20.00     0.038 C 
HETATM    6  C6  UNL     1     -33.834  17.498  -3.836  1.00 20.00     0.038 C 
HETATM    7  N9  UNL     1     -33.129  15.195  -3.370  1.00 20.00    -0.352 N 
HETATM    8  O10 UNL     1     -32.873  12.909  -3.805  1.00 20.00    -0.274 OA
HETATM    9  H25 UNL     1     -32.151  15.441  -3.250  1.00 20.00     0.163 HD
ENDROOT
BRANCH   3  10
HETATM   10  C8  UNL     1     -36.768  15.836  -3.646  1.00 20.00     0.003 C 
HETATM   11  C7  UNL     1     -37.738  14.750  -3.983  1.00 20.00     0.005 C 
ENDBRANCH   3  10
TORSDOF 1
ENDMDL
