MODEL 1
REMARK VINA RESULT:      -4.3      0.000      0.000
REMARK  4 active torsions:
REMARK  status: ('A' for Active; 'I' for Inactive)
REMARK    1  A    between atoms: C5_5  and  C6_6 
REMARK    2  A    between atoms: C6_6  and  S10_10 
REMARK    3  A    between atoms: C7_7  and  C8_8 
REMARK    4  A    between atoms: C7_7  and  S10_10 
ROOT
HETATM    1  C1  UNL     1     -34.720  13.744  -4.900  1.00 20.00     0.074 C 
HETATM    2  C7  UNL     1     -34.595  15.156  -5.298  1.00 20.00     0.157 C 
HETATM    3  N9  UNL     1     -34.823  12.631  -4.587  1.00 20.00    -0.196 NA
ENDROOT
BRANCH   2   4
HETATM    4  C8  UNL     1     -34.366  15.341  -6.820  1.00 20.00     0.005 C 
HETATM    5  C3  UNL     1     -34.487  16.821  -7.215  1.00 20.00     0.011 C 
HETATM    6  C4  UNL     1     -35.287  14.501  -7.714  1.00 20.00     0.011 C 
ENDBRANCH   2   4
BRANCH   2   7
HETATM    7  S10 UNL     1     -33.293  15.986  -4.310  1.00 20.00    -0.149 SA
BRANCH   7   8
HETATM    8  C6  UNL     1     -34.376  16.916  -3.207  1.00 20.00     0.075 C 
BRANCH   8   9
HETATM    9  C5  UNL     1     -34.787  16.061  -2.015  1.00 20.00     0.006 C 
HETATM   10  C2  UNL     1     -34.500  16.776  -0.702  1.00 20.00     0.006 C 
ENDBRANCH   8   9
ENDBRANCH   7   8
ENDBRANCH   2   7
TORSDOF 4
ENDMDL
MODEL 2
REMARK VINA RESULT:      -4.1     11.417     12.795
REMARK  4 active torsions:
REMARK  status: ('A' for Active; 'I' for Inactive)
REMARK    1  A    between atoms: C5_5  and  C6_6 
REMARK    2  A    between atoms: C6_6  and  S10_10 
REMARK    3  A    between atoms: C7_7  and  C8_8 
REMARK    4  A    between atoms: C7_7  and  S10_10 
ROOT
HETATM    1  C1  UNL     1     -33.652   6.698   5.526  1.00 20.00     0.074 C 
HETATM    2  C7  UNL     1     -33.915   6.395   4.110  1.00 20.00     0.157 C 
HETATM    3  N9  UNL     1     -33.449   6.941   6.643  1.00 20.00    -0.196 NA
ENDROOT
BRANCH   2   4
HETATM    4  C8  UNL     1     -34.894   5.211   3.913  1.00 20.00     0.005 C 
HETATM    5  C3  UNL     1     -36.286   5.714   3.504  1.00 20.00     0.011 C 
HETATM    6  C4  UNL     1     -35.026   4.280   5.124  1.00 20.00     0.011 C 
ENDBRANCH   2   4
BRANCH   2   7
HETATM    7  S10 UNL     1     -32.339   6.132   3.210  1.00 20.00    -0.149 SA
BRANCH   7   8
HETATM    8  C6  UNL     1     -31.850   7.862   3.059  1.00 20.00     0.075 C 
BRANCH   8   9
HETATM    9  C5  UNL     1     -31.904   8.307   1.602  1.00 20.00     0.006 C 
HETATM   10  C2  UNL     1     -32.485   9.709   1.479  1.00 20.00     0.006 C 
ENDBRANCH   8   9
ENDBRANCH   7   8
ENDBRANCH   2   7
TORSDOF 4
ENDMDL
MODEL 3
REMARK VINA RESULT:      -4.1      1.972      4.260
REMARK  4 active torsions:
REMARK  status: ('A' for Active; 'I' for Inactive)
REMARK    1  A    between atoms: C5_5  and  C6_6 
REMARK    2  A    between atoms: C6_6  and  S10_10 
REMARK    3  A    between atoms: C7_7  and  C8_8 
REMARK    4  A    between atoms: C7_7  and  S10_10 
ROOT
HETATM    1  C1  UNL     1     -36.719  14.345  -3.767  1.00 20.00     0.074 C 
HETATM    2  C7  UNL     1     -35.259  14.181  -3.671  1.00 20.00     0.157 C 
HETATM    3  N9  UNL     1     -37.870  14.473  -3.839  1.00 20.00    -0.196 NA
ENDROOT
BRANCH   2   4
HETATM    4  C8  UNL     1     -34.514  15.512  -3.397  1.00 20.00     0.005 C 
HETATM    5  C3  UNL     1     -33.010  15.363  -3.668  1.00 20.00     0.011 C 
HETATM    6  C4  UNL     1     -34.722  16.086  -1.990  1.00 20.00     0.011 C 
ENDBRANCH   2   4
BRANCH   2   7
HETATM    7  S10 UNL     1     -34.611  13.334  -5.162  1.00 20.00    -0.149 SA
BRANCH   7   8
HETATM    8  C6  UNL     1     -35.386  14.391  -6.401  1.00 20.00     0.075 C 
BRANCH   8   9
HETATM    9  C5  UNL     1     -34.329  15.165  -7.181  1.00 20.00     0.006 C 
HETATM   10  C2  UNL     1     -34.494  16.666  -6.988  1.00 20.00     0.006 C 
ENDBRANCH   8   9
ENDBRANCH   7   8
ENDBRANCH   2   7
TORSDOF 4
ENDMDL
MODEL 4
REMARK VINA RESULT:      -4.0      1.890      2.017
REMARK  4 active torsions:
REMARK  status: ('A' for Active; 'I' for Inactive)
REMARK    1  A    between atoms: C5_5  and  C6_6 
REMARK    2  A    between atoms: C6_6  and  S10_10 
REMARK    3  A    between atoms: C7_7  and  C8_8 
REMARK    4  A    between atoms: C7_7  and  S10_10 
ROOT
HETATM    1  C1  UNL     1     -36.879  14.535  -4.186  1.00 20.00     0.074 C 
HETATM    2  C7  UNL     1     -35.571  14.808  -4.806  1.00 20.00     0.157 C 
HETATM    3  N9  UNL     1     -37.910  14.326  -3.698  1.00 20.00    -0.196 NA
ENDROOT
BRANCH   2   4
HETATM    4  C8  UNL     1     -35.560  14.559  -6.335  1.00 20.00     0.005 C 
HETATM    5  C3  UNL     1     -34.297  15.153  -6.977  1.00 20.00     0.011 C 
HETATM    6  C4  UNL     1     -36.798  15.075  -7.079  1.00 20.00     0.011 C 
ENDBRANCH   2   4
BRANCH   2   7
HETATM    7  S10 UNL     1     -34.251  13.863  -3.954  1.00 20.00    -0.149 SA
BRANCH   7   8
HETATM    8  C6  UNL     1     -33.228  15.264  -3.457  1.00 20.00     0.075 C 
BRANCH   8   9
HETATM    9  C5  UNL     1     -34.102  16.433  -3.015  1.00 20.00     0.006 C 
HETATM   10  C2  UNL     1     -34.504  16.296  -1.554  1.00 20.00     0.006 C 
ENDBRANCH   8   9
ENDBRANCH   7   8
ENDBRANCH   2   7
TORSDOF 4
ENDMDL
MODEL 5
REMARK VINA RESULT:      -4.0      1.738      2.134
REMARK  4 active torsions:
REMARK  status: ('A' for Active; 'I' for Inactive)
REMARK    1  A    between atoms: C5_5  and  C6_6 
REMARK    2  A    between atoms: C6_6  and  S10_10 
REMARK    3  A    between atoms: C7_7  and  C8_8 
REMARK    4  A    between atoms: C7_7  and  S10_10 
ROOT
HETATM    1  C1  UNL     1     -37.064  14.882  -4.281  1.00 20.00     0.074 C 
HETATM    2  C7  UNL     1     -36.036  15.658  -4.995  1.00 20.00     0.157 C 
HETATM    3  N9  UNL     1     -37.877  14.269  -3.723  1.00 20.00    -0.196 NA
ENDROOT
BRANCH   2   4
HETATM    4  C8  UNL     1     -34.764  14.832  -5.315  1.00 20.00     0.005 C 
HETATM    5  C3  UNL     1     -34.407  14.933  -6.805  1.00 20.00     0.011 C 
HETATM    6  C4  UNL     1     -34.841  13.355  -4.910  1.00 20.00     0.011 C 
ENDBRANCH   2   4
BRANCH   2   7
HETATM    7  S10 UNL     1     -35.637  17.191  -4.072  1.00 20.00    -0.149 SA
BRANCH   7   8
HETATM    8  C6  UNL     1     -34.221  16.561  -3.150  1.00 20.00     0.075 C 
BRANCH   8   9
HETATM    9  C5  UNL     1     -34.654  16.076  -1.771  1.00 20.00     0.006 C 
HETATM   10  C2  UNL     1     -34.325  17.106  -0.700  1.00 20.00     0.006 C 
ENDBRANCH   8   9
ENDBRANCH   7   8
ENDBRANCH   2   7
TORSDOF 4
ENDMDL
MODEL 6
REMARK VINA RESULT:      -4.0      2.095      4.283
REMARK  4 active torsions:
REMARK  status: ('A' for Active; 'I' for Inactive)
REMARK    1  A    between atoms: C5_5  and  C6_6 
REMARK    2  A    between atoms: C6_6  and  S10_10 
REMARK    3  A    between atoms: C7_7  and  C8_8 
REMARK    4  A    between atoms: C7_7  and  S10_10 
ROOT
HETATM    1  C1  UNL     1     -34.693  16.171  -1.816  1.00 20.00     0.074 C 
HETATM    2  C7  UNL     1     -34.765  15.653  -3.193  1.00 20.00     0.157 C 
HETATM    3  N9  UNL     1     -34.642  16.579  -0.731  1.00 20.00    -0.196 NA
ENDROOT
BRANCH   2   4
HETATM    4  C8  UNL     1     -34.403  14.149  -3.295  1.00 20.00     0.005 C 
HETATM    5  C3  UNL     1     -32.933  13.968  -3.703  1.00 20.00     0.011 C 
HETATM    6  C4  UNL     1     -35.296  13.337  -4.242  1.00 20.00     0.011 C 
ENDBRANCH   2   4
BRANCH   2   7
HETATM    7  S10 UNL     1     -33.741  16.677  -4.316  1.00 20.00    -0.149 SA
BRANCH   7   8
HETATM    8  C6  UNL     1     -34.797  16.573  -5.775  1.00 20.00     0.075 C 
BRANCH   8   9
HETATM    9  C5  UNL     1     -34.110  15.774  -6.877  1.00 20.00     0.006 C 
HETATM   10  C2  UNL     1     -35.083  14.809  -7.541  1.00 20.00     0.006 C 
ENDBRANCH   8   9
ENDBRANCH   7   8
ENDBRANCH   2   7
TORSDOF 4
ENDMDL
MODEL 7
REMARK VINA RESULT:      -4.0      2.676      3.049
REMARK  4 active torsions:
REMARK  status: ('A' for Active; 'I' for Inactive)
REMARK    1  A    between atoms: C5_5  and  C6_6 
REMARK    2  A    between atoms: C6_6  and  S10_10 
REMARK    3  A    between atoms: C7_7  and  C8_8 
REMARK    4  A    between atoms: C7_7  and  S10_10 
ROOT
HETATM    1  C1  UNL     1     -36.771  15.013  -3.653  1.00 20.00     0.074 C 
HETATM    2  C7  UNL     1     -35.594  15.895  -3.588  1.00 20.00     0.157 C 
HETATM    3  N9  UNL     1     -37.699  14.318  -3.710  1.00 20.00    -0.196 NA
ENDROOT
BRANCH   2   4
HETATM    4  C8  UNL     1     -34.266  15.122  -3.382  1.00 20.00     0.005 C 
HETATM    5  C3  UNL     1     -33.124  15.778  -4.172  1.00 20.00     0.011 C 
HETATM    6  C4  UNL     1     -34.332  13.630  -3.729  1.00 20.00     0.011 C 
ENDBRANCH   2   4
BRANCH   2   7
HETATM    7  S10 UNL     1     -35.833  17.188  -2.310  1.00 20.00    -0.149 SA
BRANCH   7   8
HETATM    8  C6  UNL     1     -34.729  16.503  -1.058  1.00 20.00     0.075 C 
BRANCH   8   9
HETATM    9  C5  UNL     1     -34.369  17.564  -0.025  1.00 20.00     0.006 C 
HETATM   10  C2  UNL     1     -33.098  18.303  -0.419  1.00 20.00     0.006 C 
ENDBRANCH   8   9
ENDBRANCH   7   8
ENDBRANCH   2   7
TORSDOF 4
ENDMDL
MODEL 8
REMARK VINA RESULT:      -3.9      1.958      4.849
REMARK  4 active torsions:
REMARK  status: ('A' for Active; 'I' for Inactive)
REMARK    1  A    between atoms: C5_5  and  C6_6 
REMARK    2  A    between atoms: C6_6  and  S10_10 
REMARK    3  A    between atoms: C7_7  and  C8_8 
REMARK    4  A    between atoms: C7_7  and  S10_10 
ROOT
HETATM    1  C1  UNL     1     -35.816  16.286  -2.892  1.00 20.00     0.074 C 
HETATM    2  C7  UNL     1     -34.504  15.897  -2.350  1.00 20.00     0.157 C 
HETATM    3  N9  UNL     1     -36.853  16.589  -3.315  1.00 20.00    -0.196 NA
ENDROOT
BRANCH   2   4
HETATM    4  C8  UNL     1     -33.919  16.942  -1.366  1.00 20.00     0.005 C 
HETATM    5  C3  UNL     1     -34.810  17.083  -0.123  1.00 20.00     0.011 C 
HETATM    6  C4  UNL     1     -33.674  18.329  -1.975  1.00 20.00     0.011 C 
ENDBRANCH   2   4
BRANCH   2   7
HETATM    7  S10 UNL     1     -33.336  15.518  -3.712  1.00 20.00    -0.149 SA
BRANCH   7   8
HETATM    8  C6  UNL     1     -33.580  13.731  -3.754  1.00 20.00     0.075 C 
BRANCH   8   9
HETATM    9  C5  UNL     1     -34.568  13.352  -4.852  1.00 20.00     0.006 C 
HETATM   10  C2  UNL     1     -34.666  14.449  -5.903  1.00 20.00     0.006 C 
ENDBRANCH   8   9
ENDBRANCH   7   8
ENDBRANCH   2   7
TORSDOF 4
ENDMDL
MODEL 9
REMARK VINA RESULT:      -3.8      2.052      4.122
REMARK  4 active torsions:
REMARK  status: ('A' for Active; 'I' for Inactive)
REMARK    1  A    between atoms: C5_5  and  C6_6 
REMARK    2  A    between atoms: C6_6  and  S10_10 
REMARK    3  A    between atoms: C7_7  and  C8_8 
REMARK    4  A    between atoms: C7_7  and  S10_10 
ROOT
HETATM    1  C1  UNL     1     -37.106  14.712  -3.929  1.00 20.00     0.074 C 
HETATM    2  C7  UNL     1     -35.748  15.171  -4.266  1.00 20.00     0.157 C 
HETATM    3  N9  UNL     1     -38.175  14.347  -3.665  1.00 20.00    -0.196 NA
ENDROOT
BRANCH   2   4
HETATM    4  C8  UNL     1     -34.679  14.714  -3.242  1.00 20.00     0.005 C 
HETATM    5  C3  UNL     1     -34.076  15.919  -2.506  1.00 20.00     0.011 C 
HETATM    6  C4  UNL     1     -33.548  13.862  -3.831  1.00 20.00     0.011 C 
ENDBRANCH   2   4
BRANCH   2   7
HETATM    7  S10 UNL     1     -35.728  16.989  -4.503  1.00 20.00    -0.149 SA
BRANCH   7   8
HETATM    8  C6  UNL     1     -34.798  17.025  -6.049  1.00 20.00     0.075 C 
BRANCH   8   9
HETATM    9  C5  UNL     1     -35.396  16.048  -7.055  1.00 20.00     0.006 C 
HETATM   10  C2  UNL     1     -34.378  14.993  -7.466  1.00 20.00     0.006 C 
ENDBRANCH   8   9
ENDBRANCH   7   8
ENDBRANCH   2   7
TORSDOF 4
ENDMDL
