MODEL 1
REMARK VINA RESULT:      -4.6      0.000      0.000
REMARK  0 active torsions:
REMARK  status: ('A' for Active; 'I' for Inactive)
ROOT
HETATM    1  C1  UNL     1     -33.800  16.916  -4.773  1.00 20.00     0.010 A 
HETATM    2  C2  UNL     1     -33.686  17.543  -3.530  1.00 20.00     0.019 A 
HETATM    3  C3  UNL     1     -34.585  15.579  -2.407  1.00 20.00     0.026 A 
HETATM    4  C4  UNL     1     -34.299  15.624  -4.816  1.00 20.00    -0.033 A 
HETATM    5  C5  UNL     1     -34.683  14.961  -3.642  1.00 20.00    -0.049 A 
HETATM    6  C6  UNL     1     -34.077  16.879  -2.356  1.00 20.00     0.011 A 
HETATM    7  C7  UNL     1     -35.219  13.598  -3.949  1.00 20.00     0.041 C 
HETATM    8  C8  UNL     1     -34.660  13.375  -5.364  1.00 20.00     0.030 C 
HETATM    9  C9  UNL     1     -34.537  14.764  -6.017  1.00 20.00     0.116 C 
HETATM   10 CL10 UNL     1     -36.049  15.237  -6.821  1.00 20.00    -0.120 Cl
HETATM   11 BR11 UNL     1     -33.921  17.759  -0.688  1.00 20.00    -0.051 Br
ENDROOT
TORSDOF 0
ENDMDL
MODEL 2
REMARK VINA RESULT:      -4.6      1.675      2.422
REMARK  0 active torsions:
REMARK  status: ('A' for Active; 'I' for Inactive)
ROOT
HETATM    1  C1  UNL     1     -33.620  18.605  -2.508  1.00 20.00     0.010 A 
HETATM    2  C2  UNL     1     -33.959  18.814  -1.169  1.00 20.00     0.019 A 
HETATM    3  C3  UNL     1     -34.633  16.488  -0.928  1.00 20.00     0.026 A 
HETATM    4  C4  UNL     1     -33.787  17.336  -3.039  1.00 20.00    -0.033 A 
HETATM    5  C5  UNL     1     -34.284  16.286  -2.253  1.00 20.00    -0.049 A 
HETATM    6  C6  UNL     1     -34.463  17.763  -0.386  1.00 20.00     0.011 A 
HETATM    7  C7  UNL     1     -34.405  15.030  -3.056  1.00 20.00     0.041 C 
HETATM    8  C8  UNL     1     -33.482  15.350  -4.244  1.00 20.00     0.030 C 
HETATM    9  C9  UNL     1     -33.523  16.876  -4.439  1.00 20.00     0.116 C 
HETATM   10 CL10 UNL     1     -34.860  17.358  -5.505  1.00 20.00    -0.120 Cl
HETATM   11 BR11 UNL     1     -34.922  18.081   1.422  1.00 20.00    -0.051 Br
ENDROOT
TORSDOF 0
ENDMDL
MODEL 3
REMARK VINA RESULT:      -4.5      5.121      6.898
REMARK  0 active torsions:
REMARK  status: ('A' for Active; 'I' for Inactive)
ROOT
HETATM    1  C1  UNL     1     -32.726  18.850   0.304  1.00 20.00     0.010 A 
HETATM    2  C2  UNL     1     -32.914  18.176  -0.905  1.00 20.00     0.019 A 
HETATM    3  C3  UNL     1     -34.886  17.052  -0.026  1.00 20.00     0.026 A 
HETATM    4  C4  UNL     1     -33.626  18.619   1.332  1.00 20.00    -0.033 A 
HETATM    5  C5  UNL     1     -34.699  17.732   1.165  1.00 20.00    -0.049 A 
HETATM    6  C6  UNL     1     -33.986  17.283  -1.068  1.00 20.00     0.011 A 
HETATM    7  C7  UNL     1     -35.505  17.628   2.422  1.00 20.00     0.041 C 
HETATM    8  C8  UNL     1     -35.062  18.901   3.162  1.00 20.00     0.030 C 
HETATM    9  C9  UNL     1     -33.619  19.195   2.714  1.00 20.00     0.116 C 
HETATM   10 CL10 UNL     1     -32.438  18.341   3.729  1.00 20.00    -0.120 Cl
HETATM   11 BR11 UNL     1     -34.207  16.379  -2.715  1.00 20.00    -0.051 Br
ENDROOT
TORSDOF 0
ENDMDL
MODEL 4
REMARK VINA RESULT:      -4.5      5.368      6.854
REMARK  0 active torsions:
REMARK  status: ('A' for Active; 'I' for Inactive)
ROOT
HETATM    1  C1  UNL     1     -34.995  18.197   2.262  1.00 20.00     0.010 A 
HETATM    2  C2  UNL     1     -34.511  18.316   3.567  1.00 20.00     0.019 A 
HETATM    3  C3  UNL     1     -32.287  18.858   2.741  1.00 20.00     0.026 A 
HETATM    4  C4  UNL     1     -34.118  18.417   1.212  1.00 20.00    -0.033 A 
HETATM    5  C5  UNL     1     -32.777  18.750   1.451  1.00 20.00    -0.049 A 
HETATM    6  C6  UNL     1     -33.166  18.643   3.804  1.00 20.00     0.011 A 
HETATM    7  C7  UNL     1     -32.028  18.904   0.165  1.00 20.00     0.041 C 
HETATM    8  C8  UNL     1     -33.187  19.092  -0.829  1.00 20.00     0.030 C 
HETATM    9  C9  UNL     1     -34.392  18.324  -0.257  1.00 20.00     0.116 C 
HETATM   10 CL10 UNL     1     -34.383  16.625  -0.775  1.00 20.00    -0.120 Cl
HETATM   11 BR11 UNL     1     -32.538  18.786   5.583  1.00 20.00    -0.051 Br
ENDROOT
TORSDOF 0
ENDMDL
MODEL 5
REMARK VINA RESULT:      -4.4      3.384      4.823
REMARK  0 active torsions:
REMARK  status: ('A' for Active; 'I' for Inactive)
ROOT
HETATM    1  C1  UNL     1     -33.601  18.050  -3.386  1.00 20.00     0.010 A 
HETATM    2  C2  UNL     1     -33.721  16.890  -4.154  1.00 20.00     0.019 A 
HETATM    3  C3  UNL     1     -34.611  15.664  -2.249  1.00 20.00     0.026 A 
HETATM    4  C4  UNL     1     -33.994  18.003  -2.058  1.00 20.00    -0.033 A 
HETATM    5  C5  UNL     1     -34.500  16.821  -1.497  1.00 20.00    -0.049 A 
HETATM    6  C6  UNL     1     -34.221  15.705  -3.590  1.00 20.00     0.011 A 
HETATM    7  C7  UNL     1     -34.821  17.012  -0.048  1.00 20.00     0.041 C 
HETATM    8  C8  UNL     1     -34.894  18.546   0.036  1.00 20.00     0.030 C 
HETATM    9  C9  UNL     1     -33.937  19.096  -1.037  1.00 20.00     0.116 C 
HETATM   10 CL10 UNL     1     -32.284  19.262  -0.408  1.00 20.00    -0.120 Cl
HETATM   11 BR11 UNL     1     -34.362  14.148  -4.655  1.00 20.00    -0.051 Br
ENDROOT
TORSDOF 0
ENDMDL
MODEL 6
REMARK VINA RESULT:      -4.4      2.749      3.390
REMARK  0 active torsions:
REMARK  status: ('A' for Active; 'I' for Inactive)
ROOT
HETATM    1  C1  UNL     1     -33.657  16.886  -3.976  1.00 20.00     0.010 A 
HETATM    2  C2  UNL     1     -33.588  17.930  -4.902  1.00 20.00     0.019 A 
HETATM    3  C3  UNL     1     -34.489  16.500  -6.653  1.00 20.00     0.026 A 
HETATM    4  C4  UNL     1     -34.149  15.662  -4.401  1.00 20.00    -0.033 A 
HETATM    5  C5  UNL     1     -34.566  15.474  -5.727  1.00 20.00    -0.049 A 
HETATM    6  C6  UNL     1     -34.000  17.738  -6.230  1.00 20.00     0.011 A 
HETATM    7  C7  UNL     1     -35.021  14.066  -5.948  1.00 20.00     0.041 C 
HETATM    8  C8  UNL     1     -35.268  13.606  -4.501  1.00 20.00     0.030 C 
HETATM    9  C9  UNL     1     -34.293  14.398  -3.612  1.00 20.00     0.116 C 
HETATM   10 CL10 UNL     1     -32.724  13.577  -3.477  1.00 20.00    -0.120 Cl
HETATM   11 BR11 UNL     1     -33.884  19.169  -7.462  1.00 20.00    -0.051 Br
ENDROOT
TORSDOF 0
ENDMDL
MODEL 7
REMARK VINA RESULT:      -4.4      3.335      4.271
REMARK  0 active torsions:
REMARK  status: ('A' for Active; 'I' for Inactive)
ROOT
HETATM    1  C1  UNL     1     -34.403  15.001  -6.491  1.00 20.00     0.010 A 
HETATM    2  C2  UNL     1     -35.531  15.003  -7.315  1.00 20.00     0.019 A 
HETATM    3  C3  UNL     1     -36.991  15.311  -5.393  1.00 20.00     0.026 A 
HETATM    4  C4  UNL     1     -34.584  15.159  -5.127  1.00 20.00    -0.033 A 
HETATM    5  C5  UNL     1     -35.867  15.319  -4.584  1.00 20.00    -0.049 A 
HETATM    6  C6  UNL     1     -36.815  15.156  -6.769  1.00 20.00     0.011 A 
HETATM    7  C7  UNL     1     -35.805  15.437  -3.094  1.00 20.00     0.041 C 
HETATM    8  C8  UNL     1     -34.327  15.805  -2.890  1.00 20.00     0.030 C 
HETATM    9  C9  UNL     1     -33.545  15.163  -4.050  1.00 20.00     0.116 C 
HETATM   10 CL10 UNL     1     -33.058  13.500  -3.661  1.00 20.00    -0.120 Cl
HETATM   11 BR11 UNL     1     -38.324  15.146  -7.911  1.00 20.00    -0.051 Br
ENDROOT
TORSDOF 0
ENDMDL
MODEL 8
REMARK VINA RESULT:      -4.3      3.129      4.885
REMARK  0 active torsions:
REMARK  status: ('A' for Active; 'I' for Inactive)
ROOT
HETATM    1  C1  UNL     1     -34.763  15.550  -2.282  1.00 20.00     0.010 A 
HETATM    2  C2  UNL     1     -34.740  15.303  -3.657  1.00 20.00     0.019 A 
HETATM    3  C3  UNL     1     -33.763  17.491  -4.081  1.00 20.00     0.026 A 
HETATM    4  C4  UNL     1     -34.278  16.765  -1.824  1.00 20.00    -0.033 A 
HETATM    5  C5  UNL     1     -33.778  17.724  -2.716  1.00 20.00    -0.049 A 
HETATM    6  C6  UNL     1     -34.245  16.267  -4.550  1.00 20.00     0.011 A 
HETATM    7  C7  UNL     1     -33.348  18.958  -1.988  1.00 20.00     0.041 C 
HETATM    8  C8  UNL     1     -33.213  18.420  -0.553  1.00 20.00     0.030 C 
HETATM    9  C9  UNL     1     -34.223  17.266  -0.415  1.00 20.00     0.116 C 
HETATM   10 CL10 UNL     1     -35.820  17.860   0.088  1.00 20.00    -0.120 Cl
HETATM   11 BR11 UNL     1     -34.237  15.907  -6.407  1.00 20.00    -0.051 Br
ENDROOT
TORSDOF 0
ENDMDL
MODEL 9
REMARK VINA RESULT:      -4.3      1.376      2.299
REMARK  0 active torsions:
REMARK  status: ('A' for Active; 'I' for Inactive)
ROOT
HETATM    1  C1  UNL     1     -35.292  15.517  -2.630  1.00 20.00     0.010 A 
HETATM    2  C2  UNL     1     -34.789  16.552  -1.838  1.00 20.00     0.019 A 
HETATM    3  C3  UNL     1     -33.614  17.503  -3.745  1.00 20.00     0.026 A 
HETATM    4  C4  UNL     1     -34.953  15.492  -3.973  1.00 20.00    -0.033 A 
HETATM    5  C5  UNL     1     -34.126  16.480  -4.526  1.00 20.00    -0.049 A 
HETATM    6  C6  UNL     1     -33.956  17.537  -2.392  1.00 20.00     0.011 A 
HETATM    7  C7  UNL     1     -33.879  16.218  -5.978  1.00 20.00     0.041 C 
HETATM    8  C8  UNL     1     -35.030  15.252  -6.302  1.00 20.00     0.030 C 
HETATM    9  C9  UNL     1     -35.341  14.481  -5.007  1.00 20.00     0.116 C 
HETATM   10 CL10 UNL     1     -34.327  13.031  -4.857  1.00 20.00    -0.120 Cl
HETATM   11 BR11 UNL     1     -33.284  18.921  -1.291  1.00 20.00    -0.051 Br
ENDROOT
TORSDOF 0
ENDMDL
