MODEL 1
REMARK VINA RESULT:      -3.8      0.000      0.000
REMARK  1 active torsions:
REMARK  status: ('A' for Active; 'I' for Inactive)
REMARK    1  A    between atoms: C3_3  and  C6_6 
ROOT
HETATM    1  C1  UNL     1     -34.365  13.707  -3.446  1.00 20.00     0.131 A 
HETATM    2  C2  UNL     1     -34.880  13.676  -5.577  1.00 20.00     0.166 A 
HETATM    3  C3  UNL     1     -34.186  15.046  -3.722  1.00 20.00     0.005 A 
HETATM    4  N7  UNL     1     -34.764  12.919  -4.509  1.00 20.00    -0.265 NA
HETATM    5  S8  UNL     1     -34.526  15.342  -5.376  1.00 20.00    -0.085 SA
ENDROOT
BRANCH   3   6
HETATM    6  C6  UNL     1     -33.759  16.177  -2.806  1.00 20.00     0.019 C 
HETATM    7  C4  UNL     1     -34.622  16.233  -1.543  1.00 20.00     0.015 C 
HETATM    8  C5  UNL     1     -33.768  17.524  -3.532  1.00 20.00     0.015 C 
ENDBRANCH   3   6
TORSDOF 1
ENDMDL
MODEL 2
REMARK VINA RESULT:      -3.8      1.386      1.436
REMARK  1 active torsions:
REMARK  status: ('A' for Active; 'I' for Inactive)
REMARK    1  A    between atoms: C3_3  and  C6_6 
ROOT
HETATM    1  C1  UNL     1     -35.982  15.078  -3.357  1.00 20.00     0.131 A 
HETATM    2  C2  UNL     1     -35.207  13.309  -4.397  1.00 20.00     0.166 A 
HETATM    3  C3  UNL     1     -34.642  15.243  -3.078  1.00 20.00     0.005 A 
HETATM    4  N7  UNL     1     -36.308  13.970  -4.114  1.00 20.00    -0.265 NA
HETATM    5  S8  UNL     1     -33.745  13.965  -3.785  1.00 20.00    -0.085 SA
ENDROOT
BRANCH   3   6
HETATM    6  C6  UNL     1     -33.942  16.333  -2.286  1.00 20.00     0.019 C 
HETATM    7  C4  UNL     1     -34.628  16.577  -0.940  1.00 20.00     0.015 C 
HETATM    8  C5  UNL     1     -33.835  17.631  -3.088  1.00 20.00     0.015 C 
ENDBRANCH   3   6
TORSDOF 1
ENDMDL
MODEL 3
REMARK VINA RESULT:      -3.7      1.178      1.724
REMARK  1 active torsions:
REMARK  status: ('A' for Active; 'I' for Inactive)
REMARK    1  A    between atoms: C3_3  and  C6_6 
ROOT
HETATM    1  C1  UNL     1     -33.586  14.457  -3.461  1.00 20.00     0.131 A 
HETATM    2  C2  UNL     1     -35.087  13.209  -4.461  1.00 20.00     0.166 A 
HETATM    3  C3  UNL     1     -34.687  15.266  -3.274  1.00 20.00     0.005 A 
HETATM    4  N7  UNL     1     -33.813  13.276  -4.141  1.00 20.00    -0.265 NA
HETATM    5  S8  UNL     1     -36.067  14.529  -3.975  1.00 20.00    -0.085 SA
ENDROOT
BRANCH   3   6
HETATM    6  C6  UNL     1     -34.797  16.611  -2.580  1.00 20.00     0.019 C 
HETATM    7  C4  UNL     1     -33.813  17.627  -3.166  1.00 20.00     0.015 C 
HETATM    8  C5  UNL     1     -34.612  16.481  -1.067  1.00 20.00     0.015 C 
ENDBRANCH   3   6
TORSDOF 1
ENDMDL
MODEL 4
REMARK VINA RESULT:      -3.6      1.936      3.475
REMARK  1 active torsions:
REMARK  status: ('A' for Active; 'I' for Inactive)
REMARK    1  A    between atoms: C3_3  and  C6_6 
ROOT
HETATM    1  C1  UNL     1     -34.792  13.256  -5.376  1.00 20.00     0.131 A 
HETATM    2  C2  UNL     1     -34.101  13.993  -3.429  1.00 20.00     0.166 A 
HETATM    3  C3  UNL     1     -34.418  14.528  -5.756  1.00 20.00     0.005 A 
HETATM    4  N7  UNL     1     -34.610  12.947  -4.042  1.00 20.00    -0.265 NA
HETATM    5  S8  UNL     1     -33.816  15.380  -4.396  1.00 20.00    -0.085 SA
ENDROOT
BRANCH   3   6
HETATM    6  C6  UNL     1     -34.479  15.190  -7.120  1.00 20.00     0.019 C 
HETATM    7  C4  UNL     1     -34.449  16.716  -7.005  1.00 20.00     0.015 C 
HETATM    8  C5  UNL     1     -35.699  14.726  -7.918  1.00 20.00     0.015 C 
ENDBRANCH   3   6
TORSDOF 1
ENDMDL
MODEL 5
REMARK VINA RESULT:      -3.6     11.791     12.674
REMARK  1 active torsions:
REMARK  status: ('A' for Active; 'I' for Inactive)
REMARK    1  A    between atoms: C3_3  and  C6_6 
ROOT
HETATM    1  C1  UNL     1     -33.668   6.529   5.821  1.00 20.00     0.131 A 
HETATM    2  C2  UNL     1     -35.184   4.949   5.937  1.00 20.00     0.166 A 
HETATM    3  C3  UNL     1     -33.710   6.184   4.487  1.00 20.00     0.005 A 
HETATM    4  N7  UNL     1     -34.513   5.823   6.655  1.00 20.00    -0.265 NA
HETATM    5  S8  UNL     1     -34.849   4.924   4.256  1.00 20.00    -0.085 SA
ENDROOT
BRANCH   3   6
HETATM    6  C6  UNL     1     -32.930   6.746   3.314  1.00 20.00     0.019 C 
HETATM    7  C4  UNL     1     -32.498   5.642   2.345  1.00 20.00     0.015 C 
HETATM    8  C5  UNL     1     -31.724   7.565   3.780  1.00 20.00     0.015 C 
ENDBRANCH   3   6
TORSDOF 1
ENDMDL
MODEL 6
REMARK VINA RESULT:      -3.4      1.493      1.858
REMARK  1 active torsions:
REMARK  status: ('A' for Active; 'I' for Inactive)
REMARK    1  A    between atoms: C3_3  and  C6_6 
ROOT
HETATM    1  C1  UNL     1     -33.291  14.540  -3.787  1.00 20.00     0.131 A 
HETATM    2  C2  UNL     1     -34.654  13.177  -4.831  1.00 20.00     0.166 A 
HETATM    3  C3  UNL     1     -33.759  15.411  -4.749  1.00 20.00     0.005 A 
HETATM    4  N7  UNL     1     -33.804  13.258  -3.832  1.00 20.00    -0.265 NA
HETATM    5  S8  UNL     1     -34.885  14.602  -5.757  1.00 20.00    -0.085 SA
ENDROOT
BRANCH   3   6
HETATM    6  C6  UNL     1     -33.415  16.869  -4.987  1.00 20.00     0.019 C 
HETATM    7  C4  UNL     1     -33.841  17.747  -3.808  1.00 20.00     0.015 C 
HETATM    8  C5  UNL     1     -34.018  17.383  -6.296  1.00 20.00     0.015 C 
ENDBRANCH   3   6
TORSDOF 1
ENDMDL
MODEL 7
REMARK VINA RESULT:      -3.4     12.233     13.567
REMARK  1 active torsions:
REMARK  status: ('A' for Active; 'I' for Inactive)
REMARK    1  A    between atoms: C3_3  and  C6_6 
ROOT
HETATM    1  C1  UNL     1     -40.899   4.531  -1.247  1.00 20.00     0.131 A 
HETATM    2  C2  UNL     1     -41.364   6.665  -1.450  1.00 20.00     0.166 A 
HETATM    3  C3  UNL     1     -41.898   4.437  -2.193  1.00 20.00     0.005 A 
HETATM    4  N7  UNL     1     -40.591   5.809  -0.820  1.00 20.00    -0.265 NA
HETATM    5  S8  UNL     1     -42.483   6.003  -2.569  1.00 20.00    -0.085 SA
ENDROOT
BRANCH   3   6
HETATM    6  C6  UNL     1     -42.479   3.210  -2.871  1.00 20.00     0.019 C 
HETATM    7  C4  UNL     1     -43.415   2.442  -1.935  1.00 20.00     0.015 C 
HETATM    8  C5  UNL     1     -41.380   2.295  -3.417  1.00 20.00     0.015 C 
ENDBRANCH   3   6
TORSDOF 1
ENDMDL
MODEL 8
REMARK VINA RESULT:      -3.3      2.373      2.659
REMARK  1 active torsions:
REMARK  status: ('A' for Active; 'I' for Inactive)
REMARK    1  A    between atoms: C3_3  and  C6_6 
ROOT
HETATM    1  C1  UNL     1     -36.078  14.399  -3.763  1.00 20.00     0.131 A 
HETATM    2  C2  UNL     1     -38.054  15.346  -3.679  1.00 20.00     0.166 A 
HETATM    3  C3  UNL     1     -35.685  15.669  -3.397  1.00 20.00     0.005 A 
HETATM    4  N7  UNL     1     -37.437  14.212  -3.925  1.00 20.00    -0.265 NA
HETATM    5  S8  UNL     1     -37.062  16.678  -3.248  1.00 20.00    -0.085 SA
ENDROOT
BRANCH   3   6
HETATM    6  C6  UNL     1     -34.294  16.216  -3.138  1.00 20.00     0.019 C 
HETATM    7  C4  UNL     1     -33.210  15.226  -3.571  1.00 20.00     0.015 C 
HETATM    8  C5  UNL     1     -34.111  16.619  -1.672  1.00 20.00     0.015 C 
ENDBRANCH   3   6
TORSDOF 1
ENDMDL
MODEL 9
REMARK VINA RESULT:      -3.3     12.104     13.081
REMARK  1 active torsions:
REMARK  status: ('A' for Active; 'I' for Inactive)
REMARK    1  A    between atoms: C3_3  and  C6_6 
ROOT
HETATM    1  C1  UNL     1     -34.932   4.493   4.702  1.00 20.00     0.131 A 
HETATM    2  C2  UNL     1     -34.832   5.119   6.801  1.00 20.00     0.166 A 
HETATM    3  C3  UNL     1     -34.195   5.646   4.539  1.00 20.00     0.005 A 
HETATM    4  N7  UNL     1     -35.298   4.188   5.999  1.00 20.00    -0.265 NA
HETATM    5  S8  UNL     1     -33.945   6.389   6.064  1.00 20.00    -0.085 SA
ENDROOT
BRANCH   3   6
HETATM    6  C6  UNL     1     -33.634   6.269   3.274  1.00 20.00     0.019 C 
HETATM    7  C4  UNL     1     -33.714   5.304   2.089  1.00 20.00     0.015 C 
HETATM    8  C5  UNL     1     -32.202   6.767   3.478  1.00 20.00     0.015 C 
ENDBRANCH   3   6
TORSDOF 1
ENDMDL
