MODEL 1
REMARK VINA RESULT:      -4.3      0.000      0.000
REMARK  0 active torsions:
REMARK  status: ('A' for Active; 'I' for Inactive)
ROOT
HETATM    1  C1  UNL     1     -35.254   4.276   5.838  1.00 20.00     0.019 A 
HETATM    2  C2  UNL     1     -34.631   5.315   6.612  1.00 20.00     0.031 A 
HETATM    3  C3  UNL     1     -35.115   4.265   4.507  1.00 20.00     0.094 A 
HETATM    4  C4  UNL     1     -33.913   6.275   6.017  1.00 20.00     0.102 A 
HETATM    5  C5  UNL     1     -33.743   6.283   4.526  1.00 20.00     0.268 A 
HETATM    6  C6  UNL     1     -34.268   5.165   2.394  1.00 20.00     0.159 C 
HETATM    7  N7  UNL     1     -34.381   5.234   3.845  1.00 20.00    -0.328 N 
HETATM    8  O8  UNL     1     -33.081   7.168   3.984  1.00 20.00    -0.266 OA
HETATM    9 CL9  UNL     1     -33.158   7.528   6.922  1.00 20.00    -0.078 Cl
ENDROOT
TORSDOF 0
ENDMDL
MODEL 2
REMARK VINA RESULT:      -4.2      2.111      2.952
REMARK  0 active torsions:
REMARK  status: ('A' for Active; 'I' for Inactive)
ROOT
HETATM    1  C1  UNL     1     -35.213   4.346   5.953  1.00 20.00     0.019 A 
HETATM    2  C2  UNL     1     -35.124   4.260   4.520  1.00 20.00     0.031 A 
HETATM    3  C3  UNL     1     -34.609   5.352   6.596  1.00 20.00     0.094 A 
HETATM    4  C4  UNL     1     -34.443   5.175   3.820  1.00 20.00     0.102 A 
HETATM    5  C5  UNL     1     -33.757   6.311   4.520  1.00 20.00     0.268 A 
HETATM    6  C6  UNL     1     -33.260   7.393   6.678  1.00 20.00     0.159 C 
HETATM    7  N7  UNL     1     -33.893   6.323   5.917  1.00 20.00    -0.328 N 
HETATM    8  O8  UNL     1     -33.132   7.150   3.872  1.00 20.00    -0.266 OA
HETATM    9 CL9  UNL     1     -34.322   5.093   2.107  1.00 20.00    -0.078 Cl
ENDROOT
TORSDOF 0
ENDMDL
MODEL 3
REMARK VINA RESULT:      -4.1     10.024     10.898
REMARK  0 active torsions:
REMARK  status: ('A' for Active; 'I' for Inactive)
ROOT
HETATM    1  C1  UNL     1     -40.738   6.065  -0.462  1.00 20.00     0.019 A 
HETATM    2  C2  UNL     1     -40.837   4.751  -1.039  1.00 20.00     0.031 A 
HETATM    3  C3  UNL     1     -41.466   7.068  -0.966  1.00 20.00     0.094 A 
HETATM    4  C4  UNL     1     -41.649   4.518  -2.077  1.00 20.00     0.102 A 
HETATM    5  C5  UNL     1     -42.476   5.628  -2.659  1.00 20.00     0.268 A 
HETATM    6  C6  UNL     1     -43.088   8.012  -2.538  1.00 20.00     0.159 C 
HETATM    7  N7  UNL     1     -42.322   6.878  -2.038  1.00 20.00    -0.328 N 
HETATM    8  O8  UNL     1     -43.222   5.409  -3.612  1.00 20.00    -0.266 OA
HETATM    9 CL9  UNL     1     -41.785   2.956  -2.783  1.00 20.00    -0.078 Cl
ENDROOT
TORSDOF 0
ENDMDL
MODEL 4
REMARK VINA RESULT:      -4.1      9.898     10.734
REMARK  0 active torsions:
REMARK  status: ('A' for Active; 'I' for Inactive)
ROOT
HETATM    1  C1  UNL     1     -40.667   5.857  -0.493  1.00 20.00     0.019 A 
HETATM    2  C2  UNL     1     -41.401   6.993  -0.981  1.00 20.00     0.031 A 
HETATM    3  C3  UNL     1     -40.835   4.661  -1.068  1.00 20.00     0.094 A 
HETATM    4  C4  UNL     1     -42.253   6.868  -2.006  1.00 20.00     0.102 A 
HETATM    5  C5  UNL     1     -42.458   5.536  -2.667  1.00 20.00     0.268 A 
HETATM    6  C6  UNL     1     -41.839   3.151  -2.713  1.00 20.00     0.159 C 
HETATM    7  N7  UNL     1     -41.703   4.481  -2.131  1.00 20.00    -0.328 N 
HETATM    8  O8  UNL     1     -43.242   5.427  -3.609  1.00 20.00    -0.266 OA
HETATM    9 CL9  UNL     1     -43.141   8.212  -2.608  1.00 20.00    -0.078 Cl
ENDROOT
TORSDOF 0
ENDMDL
MODEL 5
REMARK VINA RESULT:      -3.9     12.351     12.839
REMARK  0 active torsions:
REMARK  status: ('A' for Active; 'I' for Inactive)
ROOT
HETATM    1  C1  UNL     1     -35.198  16.676  -2.621  1.00 20.00     0.019 A 
HETATM    2  C2  UNL     1     -34.077  15.794  -2.801  1.00 20.00     0.031 A 
HETATM    3  C3  UNL     1     -36.413  16.298  -3.035  1.00 20.00     0.094 A 
HETATM    4  C4  UNL     1     -34.233  14.598  -3.379  1.00 20.00     0.102 A 
HETATM    5  C5  UNL     1     -35.586  14.153  -3.852  1.00 20.00     0.268 A 
HETATM    6  C6  UNL     1     -37.975  14.720  -4.065  1.00 20.00     0.159 C 
HETATM    7  N7  UNL     1     -36.626  15.071  -3.638  1.00 20.00    -0.328 N 
HETATM    8  O8  UNL     1     -35.724  13.051  -4.382  1.00 20.00    -0.266 OA
HETATM    9 CL9  UNL     1     -32.907  13.526  -3.605  1.00 20.00    -0.078 Cl
ENDROOT
TORSDOF 0
ENDMDL
MODEL 6
REMARK VINA RESULT:      -3.8     12.675     13.558
REMARK  0 active torsions:
REMARK  status: ('A' for Active; 'I' for Inactive)
ROOT
HETATM    1  C1  UNL     1     -34.952  13.395  -4.328  1.00 20.00     0.019 A 
HETATM    2  C2  UNL     1     -34.551  14.252  -3.246  1.00 20.00     0.031 A 
HETATM    3  C3  UNL     1     -34.857  13.829  -5.590  1.00 20.00     0.094 A 
HETATM    4  C4  UNL     1     -34.083  15.483  -3.485  1.00 20.00     0.102 A 
HETATM    5  C5  UNL     1     -33.967  15.992  -4.892  1.00 20.00     0.268 A 
HETATM    6  C6  UNL     1     -34.299  15.505  -7.285  1.00 20.00     0.159 C 
HETATM    7  N7  UNL     1     -34.378  15.093  -5.889  1.00 20.00    -0.328 N 
HETATM    8  O8  UNL     1     -33.535  17.124  -5.106  1.00 20.00    -0.266 OA
HETATM    9 CL9  UNL     1     -33.597  16.526  -2.207  1.00 20.00    -0.078 Cl
ENDROOT
TORSDOF 0
ENDMDL
MODEL 7
REMARK VINA RESULT:      -3.8     12.449     12.774
REMARK  0 active torsions:
REMARK  status: ('A' for Active; 'I' for Inactive)
ROOT
HETATM    1  C1  UNL     1     -34.321  13.616  -4.095  1.00 20.00     0.019 A 
HETATM    2  C2  UNL     1     -33.680  14.640  -3.314  1.00 20.00     0.031 A 
HETATM    3  C3  UNL     1     -35.638  13.683  -4.323  1.00 20.00     0.094 A 
HETATM    4  C4  UNL     1     -34.385  15.660  -2.811  1.00 20.00     0.102 A 
HETATM    5  C5  UNL     1     -35.863  15.755  -3.054  1.00 20.00     0.268 A 
HETATM    6  C6  UNL     1     -37.840  14.732  -4.112  1.00 20.00     0.159 C 
HETATM    7  N7  UNL     1     -36.410  14.718  -3.826  1.00 20.00    -0.328 N 
HETATM    8  O8  UNL     1     -36.507  16.696  -2.590  1.00 20.00    -0.266 OA
HETATM    9 CL9  UNL     1     -33.640  16.895  -1.875  1.00 20.00    -0.078 Cl
ENDROOT
TORSDOF 0
ENDMDL
MODEL 8
REMARK VINA RESULT:      -3.7      1.650      2.795
REMARK  0 active torsions:
REMARK  status: ('A' for Active; 'I' for Inactive)
ROOT
HETATM    1  C1  UNL     1     -34.497   5.161   2.963  1.00 20.00     0.019 A 
HETATM    2  C2  UNL     1     -33.386   6.071   2.877  1.00 20.00     0.031 A 
HETATM    3  C3  UNL     1     -35.043   4.892   4.154  1.00 20.00     0.094 A 
HETATM    4  C4  UNL     1     -32.891   6.653   3.975  1.00 20.00     0.102 A 
HETATM    5  C5  UNL     1     -33.488   6.366   5.322  1.00 20.00     0.268 A 
HETATM    6  C6  UNL     1     -35.209   5.134   6.585  1.00 20.00     0.159 C 
HETATM    7  N7  UNL     1     -34.568   5.469   5.319  1.00 20.00    -0.328 N 
HETATM    8  O8  UNL     1     -33.030   6.905   6.329  1.00 20.00    -0.266 OA
HETATM    9 CL9  UNL     1     -31.565   7.745   3.897  1.00 20.00    -0.078 Cl
ENDROOT
TORSDOF 0
ENDMDL
MODEL 9
REMARK VINA RESULT:      -3.7     13.211     14.179
REMARK  0 active torsions:
REMARK  status: ('A' for Active; 'I' for Inactive)
ROOT
HETATM    1  C1  UNL     1     -33.963  16.312  -2.533  1.00 20.00     0.019 A 
HETATM    2  C2  UNL     1     -34.208  14.977  -3.010  1.00 20.00     0.031 A 
HETATM    3  C3  UNL     1     -33.766  17.304  -3.408  1.00 20.00     0.094 A 
HETATM    4  C4  UNL     1     -34.239  14.715  -4.322  1.00 20.00     0.102 A 
HETATM    5  C5  UNL     1     -34.020  15.812  -5.322  1.00 20.00     0.268 A 
HETATM    6  C6  UNL     1     -33.568  18.209  -5.674  1.00 20.00     0.159 C 
HETATM    7  N7  UNL     1     -33.790  17.084  -4.774  1.00 20.00    -0.328 N 
HETATM    8  O8  UNL     1     -34.051  15.566  -6.527  1.00 20.00    -0.266 OA
HETATM    9 CL9  UNL     1     -34.530  13.128  -4.917  1.00 20.00    -0.078 Cl
ENDROOT
TORSDOF 0
ENDMDL
