MODEL 1
REMARK VINA RESULT:      -4.4      0.000      0.000
REMARK  2 active torsions:
REMARK  status: ('A' for Active; 'I' for Inactive)
REMARK    1  A    between atoms: C3_3  and  C7_7 
REMARK    2  A    between atoms: C7_7  and  C8_8 
ROOT
HETATM    1  C1  UNL     1     -34.716  13.707  -5.269  1.00 20.00     0.111 C 
HETATM    2  C2  UNL     1     -34.506  15.103  -5.852  1.00 20.00     0.227 C 
HETATM    3  C3  UNL     1     -33.139  15.338  -3.927  1.00 20.00     0.282 C 
HETATM    4  C4  UNL     1     -34.538  15.082  -7.375  1.00 20.00     0.043 C 
HETATM    5  N9  UNL     1     -33.201  15.596  -5.372  1.00 20.00     0.102 N 
HETATM    6  S10 UNL     1     -34.115  13.846  -3.571  1.00 20.00    -0.132 SA
HETATM    7  H27 UNL     1     -32.469  15.045  -5.824  1.00 20.00     0.317 HD
ENDROOT
BRANCH   3   8
HETATM    8  C7  UNL     1     -33.675  16.527  -3.137  1.00 20.00     0.050 C 
BRANCH   8   9
HETATM    9  C8  UNL     1     -34.858  16.172  -2.221  1.00 20.00    -0.020 C 
HETATM   10  C5  UNL     1     -34.637  16.626  -0.778  1.00 20.00     0.009 C 
HETATM   11  C6  UNL     1     -36.142  16.798  -2.770  1.00 20.00     0.009 C 
ENDBRANCH   8   9
ENDBRANCH   3   8
TORSDOF 2
ENDMDL
MODEL 2
REMARK VINA RESULT:      -4.2      0.929      1.235
REMARK  2 active torsions:
REMARK  status: ('A' for Active; 'I' for Inactive)
REMARK    1  A    between atoms: C3_3  and  C7_7 
REMARK    2  A    between atoms: C7_7  and  C8_8 
ROOT
HETATM    1  C1  UNL     1     -34.464  13.765  -5.181  1.00 20.00     0.111 C 
HETATM    2  C2  UNL     1     -34.432  15.148  -5.829  1.00 20.00     0.227 C 
HETATM    3  C3  UNL     1     -33.286  15.693  -3.824  1.00 20.00     0.282 C 
HETATM    4  C4  UNL     1     -34.333  15.051  -7.346  1.00 20.00     0.043 C 
HETATM    5  N9  UNL     1     -33.268  15.870  -5.283  1.00 20.00     0.102 N 
HETATM    6  S10 UNL     1     -34.036  14.079  -3.455  1.00 20.00    -0.132 SA
HETATM    7  H27 UNL     1     -32.422  15.427  -5.645  1.00 20.00     0.317 HD
ENDROOT
BRANCH   3   8
HETATM    8  C7  UNL     1     -34.070  16.813  -3.148  1.00 20.00     0.050 C 
BRANCH   8   9
HETATM    9  C8  UNL     1     -33.638  17.073  -1.696  1.00 20.00    -0.020 C 
HETATM   10  C5  UNL     1     -33.306  18.543  -1.439  1.00 20.00     0.009 C 
HETATM   11  C6  UNL     1     -34.742  16.617  -0.739  1.00 20.00     0.009 C 
ENDBRANCH   8   9
ENDBRANCH   3   8
TORSDOF 2
ENDMDL
MODEL 3
REMARK VINA RESULT:      -4.1      1.340      1.580
REMARK  2 active torsions:
REMARK  status: ('A' for Active; 'I' for Inactive)
REMARK    1  A    between atoms: C3_3  and  C7_7 
REMARK    2  A    between atoms: C7_7  and  C8_8 
ROOT
HETATM    1  C1  UNL     1     -36.308  15.036  -5.649  1.00 20.00     0.111 C 
HETATM    2  C2  UNL     1     -34.815  15.149  -5.951  1.00 20.00     0.227 C 
HETATM    3  C3  UNL     1     -34.645  14.185  -3.790  1.00 20.00     0.282 C 
HETATM    4  C4  UNL     1     -34.530  14.962  -7.436  1.00 20.00     0.043 C 
HETATM    5  N9  UNL     1     -34.120  14.116  -5.160  1.00 20.00     0.102 N 
HETATM    6  S10 UNL     1     -36.375  14.740  -3.869  1.00 20.00    -0.132 SA
HETATM    7  H27 UNL     1     -34.364  13.203  -5.548  1.00 20.00     0.317 HD
ENDROOT
BRANCH   3   8
HETATM    8  C7  UNL     1     -33.817  15.139  -2.935  1.00 20.00     0.050 C 
BRANCH   8   9
HETATM    9  C8  UNL     1     -34.591  16.389  -2.487  1.00 20.00    -0.020 C 
HETATM   10  C5  UNL     1     -34.601  16.557  -0.968  1.00 20.00     0.009 C 
HETATM   11  C6  UNL     1     -33.987  17.633  -3.142  1.00 20.00     0.009 C 
ENDBRANCH   8   9
ENDBRANCH   3   8
TORSDOF 2
ENDMDL
MODEL 4
REMARK VINA RESULT:      -4.0     12.774     13.784
REMARK  2 active torsions:
REMARK  status: ('A' for Active; 'I' for Inactive)
REMARK    1  A    between atoms: C3_3  and  C7_7 
REMARK    2  A    between atoms: C7_7  and  C8_8 
ROOT
HETATM    1  C1  UNL     1     -43.248   2.229  -2.223  1.00 20.00     0.111 C 
HETATM    2  C2  UNL     1     -42.111   2.620  -3.165  1.00 20.00     0.227 C 
HETATM    3  C3  UNL     1     -41.752   4.277  -1.505  1.00 20.00     0.282 C 
HETATM    4  C4  UNL     1     -41.527   1.402  -3.871  1.00 20.00     0.043 C 
HETATM    5  N9  UNL     1     -41.075   3.292  -2.359  1.00 20.00     0.102 N 
HETATM    6  S10 UNL     1     -43.417   3.652  -1.124  1.00 20.00    -0.132 SA
HETATM    7  H27 UNL     1     -40.641   2.593  -1.753  1.00 20.00     0.317 HD
ENDROOT
BRANCH   3   8
HETATM    8  C7  UNL     1     -41.837   5.633  -2.197  1.00 20.00     0.050 C 
BRANCH   8   9
HETATM    9  C8  UNL     1     -41.336   6.798  -1.327  1.00 20.00    -0.020 C 
HETATM   10  C5  UNL     1     -42.459   7.757  -0.932  1.00 20.00     0.009 C 
HETATM   11  C6  UNL     1     -40.658   6.249  -0.070  1.00 20.00     0.009 C 
ENDBRANCH   8   9
ENDBRANCH   3   8
TORSDOF 2
ENDMDL
MODEL 5
REMARK VINA RESULT:      -4.0      1.954      2.866
REMARK  2 active torsions:
REMARK  status: ('A' for Active; 'I' for Inactive)
REMARK    1  A    between atoms: C3_3  and  C7_7 
REMARK    2  A    between atoms: C7_7  and  C8_8 
ROOT
HETATM    1  C1  UNL     1     -33.913  15.562  -4.735  1.00 20.00     0.111 C 
HETATM    2  C2  UNL     1     -34.491  14.537  -3.762  1.00 20.00     0.227 C 
HETATM    3  C3  UNL     1     -35.135  16.500  -2.596  1.00 20.00     0.282 C 
HETATM    4  C4  UNL     1     -34.980  13.290  -4.489  1.00 20.00     0.043 C 
HETATM    5  N9  UNL     1     -35.605  15.182  -3.043  1.00 20.00     0.102 N 
HETATM    6  S10 UNL     1     -33.910  17.105  -3.796  1.00 20.00    -0.132 SA
HETATM    7  H27 UNL     1     -36.369  15.326  -3.705  1.00 20.00     0.317 HD
ENDROOT
BRANCH   3   8
HETATM    8  C7  UNL     1     -34.521  16.418  -1.202  1.00 20.00     0.050 C 
BRANCH   8   9
HETATM    9  C8  UNL     1     -34.579  17.745  -0.428  1.00 20.00    -0.020 C 
HETATM   10  C5  UNL     1     -35.297  17.607   0.915  1.00 20.00     0.009 C 
HETATM   11  C6  UNL     1     -33.161  18.276  -0.205  1.00 20.00     0.009 C 
ENDBRANCH   8   9
ENDBRANCH   3   8
TORSDOF 2
ENDMDL
MODEL 6
REMARK VINA RESULT:      -3.8      1.855      4.325
REMARK  2 active torsions:
REMARK  status: ('A' for Active; 'I' for Inactive)
REMARK    1  A    between atoms: C3_3  and  C7_7 
REMARK    2  A    between atoms: C7_7  and  C8_8 
ROOT
HETATM    1  C1  UNL     1     -33.977  14.323  -3.050  1.00 20.00     0.111 C 
HETATM    2  C2  UNL     1     -34.811  15.597  -2.936  1.00 20.00     0.227 C 
HETATM    3  C3  UNL     1     -36.330  14.322  -4.238  1.00 20.00     0.282 C 
HETATM    4  C4  UNL     1     -34.580  16.298  -1.602  1.00 20.00     0.043 C 
HETATM    5  N9  UNL     1     -36.229  15.217  -3.077  1.00 20.00     0.102 N 
HETATM    6  S10 UNL     1     -34.771  13.396  -4.382  1.00 20.00    -0.132 SA
HETATM    7  H27 UNL     1     -36.500  14.689  -2.246  1.00 20.00     0.317 HD
ENDROOT
BRANCH   3   8
HETATM    8  C7  UNL     1     -36.601  15.111  -5.515  1.00 20.00     0.050 C 
BRANCH   8   9
HETATM    9  C8  UNL     1     -35.455  15.036  -6.537  1.00 20.00    -0.020 C 
HETATM   10  C5  UNL     1     -35.931  14.575  -7.915  1.00 20.00     0.009 C 
HETATM   11  C6  UNL     1     -34.777  16.402  -6.654  1.00 20.00     0.009 C 
ENDBRANCH   8   9
ENDBRANCH   3   8
TORSDOF 2
ENDMDL
MODEL 7
REMARK VINA RESULT:      -3.7      1.743      4.339
REMARK  2 active torsions:
REMARK  status: ('A' for Active; 'I' for Inactive)
REMARK    1  A    between atoms: C3_3  and  C7_7 
REMARK    2  A    between atoms: C7_7  and  C8_8 
ROOT
HETATM    1  C1  UNL     1     -36.089  17.106  -2.789  1.00 20.00     0.111 C 
HETATM    2  C2  UNL     1     -34.763  16.520  -2.309  1.00 20.00     0.227 C 
HETATM    3  C3  UNL     1     -34.021  17.342  -4.407  1.00 20.00     0.282 C 
HETATM    4  C4  UNL     1     -34.620  16.629  -0.795  1.00 20.00     0.043 C 
HETATM    5  N9  UNL     1     -33.678  17.259  -2.981  1.00 20.00     0.102 N 
HETATM    6  S10 UNL     1     -35.833  17.379  -4.556  1.00 20.00    -0.132 SA
HETATM    7  H27 UNL     1     -33.660  18.209  -2.604  1.00 20.00     0.317 HD
ENDROOT
BRANCH   3   8
HETATM    8  C7  UNL     1     -33.446  16.158  -5.177  1.00 20.00     0.050 C 
BRANCH   8   9
HETATM    9  C8  UNL     1     -34.518  15.182  -5.690  1.00 20.00    -0.020 C 
HETATM   10  C5  UNL     1     -34.436  14.966  -7.201  1.00 20.00     0.009 C 
HETATM   11  C6  UNL     1     -34.384  13.840  -4.967  1.00 20.00     0.009 C 
ENDBRANCH   8   9
ENDBRANCH   3   8
TORSDOF 2
ENDMDL
MODEL 8
REMARK VINA RESULT:      -3.7      2.279      4.754
REMARK  2 active torsions:
REMARK  status: ('A' for Active; 'I' for Inactive)
REMARK    1  A    between atoms: C3_3  and  C7_7 
REMARK    2  A    between atoms: C7_7  and  C8_8 
ROOT
HETATM    1  C1  UNL     1     -34.578  18.448  -2.090  1.00 20.00     0.111 C 
HETATM    2  C2  UNL     1     -35.485  17.527  -1.275  1.00 20.00     0.227 C 
HETATM    3  C3  UNL     1     -34.361  15.858  -2.531  1.00 20.00     0.282 C 
HETATM    4  C4  UNL     1     -35.746  18.090   0.117  1.00 20.00     0.043 C 
HETATM    5  N9  UNL     1     -34.822  16.214  -1.182  1.00 20.00     0.102 N 
HETATM    6  S10 UNL     1     -33.966  17.393  -3.422  1.00 20.00    -0.132 SA
HETATM    7  H27 UNL     1     -34.000  16.315  -0.584  1.00 20.00     0.317 HD
ENDROOT
BRANCH   3   8
HETATM    8  C7  UNL     1     -35.426  15.065  -3.281  1.00 20.00     0.050 C 
BRANCH   8   9
HETATM    9  C8  UNL     1     -34.863  13.862  -4.056  1.00 20.00    -0.020 C 
HETATM   10  C5  UNL     1     -35.040  14.007  -5.567  1.00 20.00     0.009 C 
HETATM   11  C6  UNL     1     -33.379  13.682  -3.723  1.00 20.00     0.009 C 
ENDBRANCH   8   9
ENDBRANCH   3   8
TORSDOF 2
ENDMDL
MODEL 9
REMARK VINA RESULT:      -3.7      1.880      4.457
REMARK  2 active torsions:
REMARK  status: ('A' for Active; 'I' for Inactive)
REMARK    1  A    between atoms: C3_3  and  C7_7 
REMARK    2  A    between atoms: C7_7  and  C8_8 
ROOT
HETATM    1  C1  UNL     1     -34.045  18.372  -2.625  1.00 20.00     0.111 C 
HETATM    2  C2  UNL     1     -34.594  17.014  -2.193  1.00 20.00     0.227 C 
HETATM    3  C3  UNL     1     -33.720  16.363  -4.300  1.00 20.00     0.282 C 
HETATM    4  C4  UNL     1     -34.502  16.829  -0.683  1.00 20.00     0.043 C 
HETATM    5  N9  UNL     1     -33.811  15.974  -2.886  1.00 20.00     0.102 N 
HETATM    6  S10 UNL     1     -33.740  18.178  -4.394  1.00 20.00    -0.132 SA
HETATM    7  H27 UNL     1     -32.867  15.975  -2.496  1.00 20.00     0.317 HD
ENDROOT
BRANCH   3   8
HETATM    8  C7  UNL     1     -34.875  15.774  -5.104  1.00 20.00     0.050 C 
BRANCH   8   9
HETATM    9  C8  UNL     1     -34.512  14.469  -5.831  1.00 20.00    -0.020 C 
HETATM   10  C5  UNL     1     -34.769  13.231  -4.972  1.00 20.00     0.009 C 
HETATM   11  C6  UNL     1     -35.306  14.367  -7.136  1.00 20.00     0.009 C 
ENDBRANCH   8   9
ENDBRANCH   3   8
TORSDOF 2
ENDMDL
