MODEL 1
REMARK VINA RESULT:      -3.7      0.000      0.000
REMARK  1 active torsions:
REMARK  status: ('A' for Active; 'I' for Inactive)
REMARK    1  A    between atoms: C2_2  and  C6_6 
ROOT
HETATM    1  C1  UNL     1     -34.099  13.989  -3.425  1.00 20.00     0.111 C 
HETATM    2  C2  UNL     1     -34.608  15.430  -3.415  1.00 20.00     0.231 C 
HETATM    3  C3  UNL     1     -35.026  14.966  -5.690  1.00 20.00     0.278 C 
HETATM    4  C4  UNL     1     -34.417  15.074  -7.082  1.00 20.00     0.054 C 
HETATM    5  N7  UNL     1     -34.446  15.963  -4.779  1.00 20.00     0.102 N 
HETATM    6  S8  UNL     1     -34.726  13.317  -4.981  1.00 20.00    -0.132 SA
HETATM    7  H21 UNL     1     -34.922  16.858  -4.876  1.00 20.00     0.317 HD
ENDROOT
BRANCH   2   8
HETATM    8  C6  UNL     1     -33.840  16.287  -2.416  1.00 20.00     0.032 C 
HETATM    9  C5  UNL     1     -34.613  16.496  -1.153  1.00 20.00     0.007 C 
ENDBRANCH   2   8
TORSDOF 1
ENDMDL
MODEL 2
REMARK VINA RESULT:      -3.6      2.324      3.042
REMARK  1 active torsions:
REMARK  status: ('A' for Active; 'I' for Inactive)
REMARK    1  A    between atoms: C2_2  and  C6_6 
ROOT
HETATM    1  C1  UNL     1     -34.091  15.944  -2.920  1.00 20.00     0.111 C 
HETATM    2  C2  UNL     1     -33.197  15.142  -3.864  1.00 20.00     0.231 C 
HETATM    3  C3  UNL     1     -33.343  17.105  -5.163  1.00 20.00     0.278 C 
HETATM    4  C4  UNL     1     -34.134  17.759  -6.289  1.00 20.00     0.054 C 
HETATM    5  N7  UNL     1     -33.439  15.641  -5.229  1.00 20.00     0.102 N 
HETATM    6  S8  UNL     1     -33.973  17.636  -3.541  1.00 20.00    -0.132 SA
HETATM    7  H21 UNL     1     -32.751  15.264  -5.879  1.00 20.00     0.317 HD
ENDROOT
BRANCH   2   8
HETATM    8  C6  UNL     1     -33.493  13.649  -3.783  1.00 20.00     0.032 C 
HETATM    9  C5  UNL     1     -34.828  13.315  -4.368  1.00 20.00     0.007 C 
ENDBRANCH   2   8
TORSDOF 1
ENDMDL
MODEL 3
REMARK VINA RESULT:      -3.6      1.762      2.235
REMARK  1 active torsions:
REMARK  status: ('A' for Active; 'I' for Inactive)
REMARK    1  A    between atoms: C2_2  and  C6_6 
ROOT
HETATM    1  C1  UNL     1     -33.969  17.203  -3.522  1.00 20.00     0.111 C 
HETATM    2  C2  UNL     1     -33.877  16.118  -2.450  1.00 20.00     0.231 C 
HETATM    3  C3  UNL     1     -33.765  14.705  -4.334  1.00 20.00     0.278 C 
HETATM    4  C4  UNL     1     -34.619  13.860  -5.270  1.00 20.00     0.054 C 
HETATM    5  N7  UNL     1     -34.419  14.878  -3.030  1.00 20.00     0.102 N 
HETATM    6  S8  UNL     1     -33.474  16.356  -5.040  1.00 20.00    -0.132 SA
HETATM    7  H21 UNL     1     -34.229  14.082  -2.424  1.00 20.00     0.317 HD
ENDROOT
BRANCH   2   8
HETATM    8  C6  UNL     1     -34.655  16.504  -1.197  1.00 20.00     0.032 C 
HETATM    9  C5  UNL     1     -34.000  17.626  -0.458  1.00 20.00     0.007 C 
ENDBRANCH   2   8
TORSDOF 1
ENDMDL
MODEL 4
REMARK VINA RESULT:      -3.5      2.147      2.455
REMARK  1 active torsions:
REMARK  status: ('A' for Active; 'I' for Inactive)
REMARK    1  A    between atoms: C2_2  and  C6_6 
ROOT
HETATM    1  C1  UNL     1     -34.014  16.668  -3.907  1.00 20.00     0.111 C 
HETATM    2  C2  UNL     1     -34.172  16.063  -2.513  1.00 20.00     0.231 C 
HETATM    3  C3  UNL     1     -35.894  14.852  -3.577  1.00 20.00     0.278 C 
HETATM    4  C4  UNL     1     -37.390  14.865  -3.861  1.00 20.00     0.054 C 
HETATM    5  N7  UNL     1     -35.575  15.635  -2.376  1.00 20.00     0.102 N 
HETATM    6  S8  UNL     1     -34.967  15.562  -4.972  1.00 20.00    -0.132 SA
HETATM    7  H21 UNL     1     -35.700  15.072  -1.536  1.00 20.00     0.317 HD
ENDROOT
BRANCH   2   8
HETATM    8  C6  UNL     1     -33.813  17.067  -1.424  1.00 20.00     0.032 C 
HETATM    9  C5  UNL     1     -34.782  17.024  -0.287  1.00 20.00     0.007 C 
ENDBRANCH   2   8
TORSDOF 1
ENDMDL
MODEL 5
REMARK VINA RESULT:      -3.5     11.680     12.857
REMARK  1 active torsions:
REMARK  status: ('A' for Active; 'I' for Inactive)
REMARK    1  A    between atoms: C2_2  and  C6_6 
ROOT
HETATM    1  C1  UNL     1     -32.921   6.979   5.115  1.00 20.00     0.111 C 
HETATM    2  C2  UNL     1     -33.489   6.625   3.742  1.00 20.00     0.231 C 
HETATM    3  C3  UNL     1     -34.913   5.256   5.030  1.00 20.00     0.278 C 
HETATM    4  C4  UNL     1     -35.068   3.844   5.580  1.00 20.00     0.054 C 
HETATM    5  N7  UNL     1     -34.057   5.269   3.836  1.00 20.00     0.102 N 
HETATM    6  S8  UNL     1     -34.160   6.352   6.272  1.00 20.00    -0.132 SA
HETATM    7  H21 UNL     1     -34.599   5.046   3.003  1.00 20.00     0.317 HD
ENDROOT
BRANCH   2   8
HETATM    8  C6  UNL     1     -32.413   6.677   2.662  1.00 20.00     0.032 C 
HETATM    9  C5  UNL     1     -32.115   8.080   2.241  1.00 20.00     0.007 C 
ENDBRANCH   2   8
TORSDOF 1
ENDMDL
MODEL 6
REMARK VINA RESULT:      -3.4     13.111     14.172
REMARK  1 active torsions:
REMARK  status: ('A' for Active; 'I' for Inactive)
REMARK    1  A    between atoms: C2_2  and  C6_6 
ROOT
HETATM    1  C1  UNL     1     -42.869   4.366  -3.034  1.00 20.00     0.111 C 
HETATM    2  C2  UNL     1     -42.037   3.240  -2.422  1.00 20.00     0.231 C 
HETATM    3  C3  UNL     1     -41.658   4.855  -0.745  1.00 20.00     0.278 C 
HETATM    4  C4  UNL     1     -40.694   5.952  -0.313  1.00 20.00     0.054 C 
HETATM    5  N7  UNL     1     -40.987   3.866  -1.599  1.00 20.00     0.102 N 
HETATM    6  S8  UNL     1     -43.051   5.554  -1.685  1.00 20.00    -0.132 SA
HETATM    7  H21 UNL     1     -40.508   3.168  -1.032  1.00 20.00     0.317 HD
ENDROOT
BRANCH   2   8
HETATM    8  C6  UNL     1     -41.414   2.357  -3.497  1.00 20.00     0.032 C 
HETATM    9  C5  UNL     1     -42.067   1.014  -3.562  1.00 20.00     0.007 C 
ENDBRANCH   2   8
TORSDOF 1
ENDMDL
MODEL 7
REMARK VINA RESULT:      -3.4      2.656      4.229
REMARK  1 active torsions:
REMARK  status: ('A' for Active; 'I' for Inactive)
REMARK    1  A    between atoms: C2_2  and  C6_6 
ROOT
HETATM    1  C1  UNL     1     -33.850  16.475  -3.720  1.00 20.00     0.111 C 
HETATM    2  C2  UNL     1     -35.074  15.656  -3.313  1.00 20.00     0.231 C 
HETATM    3  C3  UNL     1     -35.093  17.168  -1.503  1.00 20.00     0.278 C 
HETATM    4  C4  UNL     1     -34.605  17.354  -0.073  1.00 20.00     0.054 C 
HETATM    5  N7  UNL     1     -35.194  15.743  -1.848  1.00 20.00     0.102 N 
HETATM    6  S8  UNL     1     -33.949  17.951  -2.682  1.00 20.00    -0.132 SA
HETATM    7  H21 UNL     1     -36.084  15.360  -1.535  1.00 20.00     0.317 HD
ENDROOT
BRANCH   2   8
HETATM    8  C6  UNL     1     -34.943  14.202  -3.751  1.00 20.00     0.032 C 
HETATM    9  C5  UNL     1     -33.514  13.770  -3.828  1.00 20.00     0.007 C 
ENDBRANCH   2   8
TORSDOF 1
ENDMDL
MODEL 8
REMARK VINA RESULT:      -3.3      2.026      2.368
REMARK  1 active torsions:
REMARK  status: ('A' for Active; 'I' for Inactive)
REMARK    1  A    between atoms: C2_2  and  C6_6 
ROOT
HETATM    1  C1  UNL     1     -34.341  17.172  -5.055  1.00 20.00     0.111 C 
HETATM    2  C2  UNL     1     -33.421  15.972  -4.835  1.00 20.00     0.231 C 
HETATM    3  C3  UNL     1     -34.267  15.336  -6.943  1.00 20.00     0.278 C 
HETATM    4  C4  UNL     1     -35.360  14.514  -7.613  1.00 20.00     0.054 C 
HETATM    5  N7  UNL     1     -33.987  14.840  -5.588  1.00 20.00     0.102 N 
HETATM    6  S8  UNL     1     -34.763  17.081  -6.810  1.00 20.00    -0.132 SA
HETATM    7  H21 UNL     1     -33.330  14.062  -5.619  1.00 20.00     0.317 HD
ENDROOT
BRANCH   2   8
HETATM    8  C6  UNL     1     -33.303  15.622  -3.356  1.00 20.00     0.032 C 
HETATM    9  C5  UNL     1     -34.642  15.544  -2.695  1.00 20.00     0.007 C 
ENDBRANCH   2   8
TORSDOF 1
ENDMDL
MODEL 9
REMARK VINA RESULT:      -3.3      2.154      2.558
REMARK  1 active torsions:
REMARK  status: ('A' for Active; 'I' for Inactive)
REMARK    1  A    between atoms: C2_2  and  C6_6 
ROOT
HETATM    1  C1  UNL     1     -34.405  18.002  -3.218  1.00 20.00     0.111 C 
HETATM    2  C2  UNL     1     -33.869  16.706  -2.610  1.00 20.00     0.231 C 
HETATM    3  C3  UNL     1     -33.468  16.180  -4.874  1.00 20.00     0.278 C 
HETATM    4  C4  UNL     1     -34.079  15.488  -6.086  1.00 20.00     0.054 C 
HETATM    5  N7  UNL     1     -34.025  15.648  -3.623  1.00 20.00     0.102 N 
HETATM    6  S8  UNL     1     -33.797  17.969  -4.919  1.00 20.00    -0.132 SA
HETATM    7  H21 UNL     1     -33.532  14.802  -3.341  1.00 20.00     0.317 HD
ENDROOT
BRANCH   2   8
HETATM    8  C6  UNL     1     -34.616  16.336  -1.335  1.00 20.00     0.032 C 
HETATM    9  C5  UNL     1     -34.452  17.375  -0.272  1.00 20.00     0.007 C 
ENDBRANCH   2   8
TORSDOF 1
ENDMDL
