MODEL 1
REMARK VINA RESULT:      -4.9      0.000      0.000
REMARK  2 active torsions:
REMARK  status: ('A' for Active; 'I' for Inactive)
REMARK    1  A    between atoms: C3_3  and  C7_7 
REMARK    2  A    between atoms: C7_7  and  C8_8 
ROOT
HETATM    1  C1  UNL     1     -34.119  16.689  -1.403  1.00 20.00     0.012 C 
HETATM    2  C2  UNL     1     -34.797  16.096  -2.197  1.00 20.00    -0.116 C 
HETATM    3  C8  UNL     1     -35.632  15.372  -3.160  1.00 20.00     0.113 C 
ENDROOT
BRANCH   3   4
HETATM    4  C7  UNL     1     -34.795  14.897  -4.381  1.00 20.00     0.058 C 
HETATM    5  C5  UNL     1     -33.697  15.897  -4.865  1.00 20.00     0.021 C 
HETATM    6  C4  UNL     1     -34.115  15.599  -6.315  1.00 20.00     0.003 C 
HETATM    7  C6  UNL     1     -35.469  15.111  -5.773  1.00 20.00     0.021 C 
BRANCH   4   8
HETATM    8  C3  UNL     1     -34.273  13.474  -4.168  1.00 20.00     0.182 C 
HETATM    9  O9  UNL     1     -33.105  13.393  -3.695  1.00 20.00    -0.647 OA
HETATM   10  O10 UNL     1     -35.081  12.560  -4.494  1.00 20.00    -0.647 OA
ENDBRANCH   4   8
ENDBRANCH   3   4
TORSDOF 2
ENDMDL
MODEL 2
REMARK VINA RESULT:      -4.8      0.047      1.024
REMARK  2 active torsions:
REMARK  status: ('A' for Active; 'I' for Inactive)
REMARK    1  A    between atoms: C3_3  and  C7_7 
REMARK    2  A    between atoms: C7_7  and  C8_8 
ROOT
HETATM    1  C1  UNL     1     -34.143  16.669  -1.432  1.00 20.00     0.012 C 
HETATM    2  C2  UNL     1     -34.823  16.086  -2.232  1.00 20.00    -0.116 C 
HETATM    3  C8  UNL     1     -35.662  15.375  -3.201  1.00 20.00     0.113 C 
ENDROOT
BRANCH   3   4
HETATM    4  C7  UNL     1     -34.823  14.884  -4.413  1.00 20.00     0.058 C 
HETATM    5  C5  UNL     1     -33.728  15.879  -4.912  1.00 20.00     0.021 C 
HETATM    6  C4  UNL     1     -34.143  15.557  -6.358  1.00 20.00     0.003 C 
HETATM    7  C6  UNL     1     -35.496  15.074  -5.809  1.00 20.00     0.021 C 
BRANCH   4   8
HETATM    8  C3  UNL     1     -34.297  13.466  -4.178  1.00 20.00     0.182 C 
HETATM    9  O9  UNL     1     -35.097  12.537  -4.482  1.00 20.00    -0.647 OA
HETATM   10  O10 UNL     1     -33.127  13.406  -3.709  1.00 20.00    -0.647 OA
ENDBRANCH   4   8
ENDBRANCH   3   4
TORSDOF 2
ENDMDL
MODEL 3
REMARK VINA RESULT:      -4.7      1.164      1.722
REMARK  2 active torsions:
REMARK  status: ('A' for Active; 'I' for Inactive)
REMARK    1  A    between atoms: C3_3  and  C7_7 
REMARK    2  A    between atoms: C7_7  and  C8_8 
ROOT
HETATM    1  C1  UNL     1     -34.499  16.354  -1.590  1.00 20.00     0.012 C 
HETATM    2  C2  UNL     1     -34.121  15.865  -2.620  1.00 20.00    -0.116 C 
HETATM    3  C8  UNL     1     -33.649  15.269  -3.874  1.00 20.00     0.113 C 
ENDROOT
BRANCH   3   4
HETATM    4  C7  UNL     1     -34.839  14.924  -4.812  1.00 20.00     0.058 C 
HETATM    5  C5  UNL     1     -34.483  14.824  -6.329  1.00 20.00     0.021 C 
HETATM    6  C4  UNL     1     -35.770  15.602  -6.648  1.00 20.00     0.003 C 
HETATM    7  C6  UNL     1     -35.749  16.131  -5.204  1.00 20.00     0.021 C 
BRANCH   4   8
HETATM    8  C3  UNL     1     -35.620  13.717  -4.287  1.00 20.00     0.182 C 
HETATM    9  O9  UNL     1     -36.784  13.969  -3.868  1.00 20.00    -0.647 OA
HETATM   10  O10 UNL     1     -34.998  12.620  -4.341  1.00 20.00    -0.647 OA
ENDBRANCH   4   8
ENDBRANCH   3   4
TORSDOF 2
ENDMDL
MODEL 4
REMARK VINA RESULT:      -4.7      1.046      2.972
REMARK  2 active torsions:
REMARK  status: ('A' for Active; 'I' for Inactive)
REMARK    1  A    between atoms: C3_3  and  C7_7 
REMARK    2  A    between atoms: C7_7  and  C8_8 
ROOT
HETATM    1  C1  UNL     1     -33.648  18.108  -5.696  1.00 20.00     0.012 C 
HETATM    2  C2  UNL     1     -33.836  16.923  -5.645  1.00 20.00    -0.116 C 
HETATM    3  C8  UNL     1     -34.066  15.476  -5.594  1.00 20.00     0.113 C 
ENDROOT
BRANCH   3   4
HETATM    4  C7  UNL     1     -34.309  14.999  -4.135  1.00 20.00     0.058 C 
HETATM    5  C5  UNL     1     -35.616  15.535  -3.468  1.00 20.00     0.021 C 
HETATM    6  C4  UNL     1     -34.813  15.788  -2.180  1.00 20.00     0.003 C 
HETATM    7  C6  UNL     1     -33.535  15.795  -3.037  1.00 20.00     0.021 C 
BRANCH   4   8
HETATM    8  C3  UNL     1     -34.143  13.482  -4.019  1.00 20.00     0.182 C 
HETATM    9  O9  UNL     1     -35.165  12.803  -4.317  1.00 20.00    -0.647 OA
HETATM   10  O10 UNL     1     -33.001  13.102  -3.640  1.00 20.00    -0.647 OA
ENDBRANCH   4   8
ENDBRANCH   3   4
TORSDOF 2
ENDMDL
MODEL 5
REMARK VINA RESULT:      -4.7      0.873      3.433
REMARK  2 active torsions:
REMARK  status: ('A' for Active; 'I' for Inactive)
REMARK    1  A    between atoms: C3_3  and  C7_7 
REMARK    2  A    between atoms: C7_7  and  C8_8 
ROOT
HETATM    1  C1  UNL     1     -35.109  14.651  -7.532  1.00 20.00     0.012 C 
HETATM    2  C2  UNL     1     -34.452  15.059  -6.613  1.00 20.00    -0.116 C 
HETATM    3  C8  UNL     1     -33.642  15.561  -5.498  1.00 20.00     0.113 C 
ENDROOT
BRANCH   3   4
HETATM    4  C7  UNL     1     -34.177  15.035  -4.137  1.00 20.00     0.058 C 
HETATM    5  C5  UNL     1     -35.603  15.535  -3.744  1.00 20.00     0.021 C 
HETATM    6  C4  UNL     1     -35.092  15.756  -2.310  1.00 20.00     0.003 C 
HETATM    7  C6  UNL     1     -33.664  15.804  -2.879  1.00 20.00     0.021 C 
BRANCH   4   8
HETATM    8  C3  UNL     1     -34.012  13.517  -4.033  1.00 20.00     0.182 C 
HETATM    9  O9  UNL     1     -35.055  12.844  -4.266  1.00 20.00    -0.647 OA
HETATM   10  O10 UNL     1     -32.849  13.130  -3.728  1.00 20.00    -0.647 OA
ENDBRANCH   4   8
ENDBRANCH   3   4
TORSDOF 2
ENDMDL
MODEL 6
REMARK VINA RESULT:      -4.4      1.555      2.329
REMARK  2 active torsions:
REMARK  status: ('A' for Active; 'I' for Inactive)
REMARK    1  A    between atoms: C3_3  and  C7_7 
REMARK    2  A    between atoms: C7_7  and  C8_8 
ROOT
HETATM    1  C1  UNL     1     -34.479  16.626  -0.878  1.00 20.00     0.012 C 
HETATM    2  C2  UNL     1     -34.902  16.416  -1.982  1.00 20.00    -0.116 C 
HETATM    3  C8  UNL     1     -35.427  16.164  -3.328  1.00 20.00     0.113 C 
ENDROOT
BRANCH   3   4
HETATM    4  C7  UNL     1     -34.527  15.162  -4.102  1.00 20.00     0.058 C 
HETATM    5  C5  UNL     1     -35.117  14.643  -5.452  1.00 20.00     0.021 C 
HETATM    6  C4  UNL     1     -34.634  13.230  -5.080  1.00 20.00     0.003 C 
HETATM    7  C6  UNL     1     -34.603  13.682  -3.609  1.00 20.00     0.021 C 
BRANCH   4   8
HETATM    8  C3  UNL     1     -33.096  15.691  -4.224  1.00 20.00     0.182 C 
HETATM    9  O9  UNL     1     -32.967  16.742  -4.912  1.00 20.00    -0.647 OA
HETATM   10  O10 UNL     1     -32.225  15.006  -3.619  1.00 20.00    -0.647 OA
ENDBRANCH   4   8
ENDBRANCH   3   4
TORSDOF 2
ENDMDL
MODEL 7
REMARK VINA RESULT:      -4.4      1.102      1.956
REMARK  2 active torsions:
REMARK  status: ('A' for Active; 'I' for Inactive)
REMARK    1  A    between atoms: C3_3  and  C7_7 
REMARK    2  A    between atoms: C7_7  and  C8_8 
ROOT
HETATM    1  C1  UNL     1     -38.364  14.736  -3.999  1.00 20.00     0.012 C 
HETATM    2  C2  UNL     1     -37.222  14.946  -3.695  1.00 20.00    -0.116 C 
HETATM    3  C8  UNL     1     -35.830  15.206  -3.316  1.00 20.00     0.113 C 
ENDROOT
BRANCH   3   4
HETATM    4  C7  UNL     1     -34.857  14.848  -4.474  1.00 20.00     0.058 C 
HETATM    5  C5  UNL     1     -33.778  15.930  -4.797  1.00 20.00     0.021 C 
HETATM    6  C4  UNL     1     -34.041  15.696  -6.294  1.00 20.00     0.003 C 
HETATM    7  C6  UNL     1     -35.410  15.108  -5.912  1.00 20.00     0.021 C 
BRANCH   4   8
HETATM    8  C3  UNL     1     -34.277  13.444  -4.289  1.00 20.00     0.182 C 
HETATM    9  O9  UNL     1     -33.156  13.396  -3.711  1.00 20.00    -0.647 OA
HETATM   10  O10 UNL     1     -34.998  12.510  -4.738  1.00 20.00    -0.647 OA
ENDBRANCH   4   8
ENDBRANCH   3   4
TORSDOF 2
ENDMDL
MODEL 8
REMARK VINA RESULT:      -4.2      1.901      2.560
REMARK  2 active torsions:
REMARK  status: ('A' for Active; 'I' for Inactive)
REMARK    1  A    between atoms: C3_3  and  C7_7 
REMARK    2  A    between atoms: C7_7  and  C8_8 
ROOT
HETATM    1  C1  UNL     1     -34.346  16.767  -0.875  1.00 20.00     0.012 C 
HETATM    2  C2  UNL     1     -34.155  16.599  -2.049  1.00 20.00    -0.116 C 
HETATM    3  C8  UNL     1     -33.917  16.402  -3.482  1.00 20.00     0.113 C 
ENDROOT
BRANCH   3   4
HETATM    4  C7  UNL     1     -34.785  15.240  -4.039  1.00 20.00     0.058 C 
HETATM    5  C5  UNL     1     -34.444  13.824  -3.474  1.00 20.00     0.021 C 
HETATM    6  C4  UNL     1     -34.575  13.262  -4.900  1.00 20.00     0.003 C 
HETATM    7  C6  UNL     1     -34.341  14.686  -5.431  1.00 20.00     0.021 C 
BRANCH   4   8
HETATM    8  C3  UNL     1     -36.274  15.583  -3.967  1.00 20.00     0.182 C 
HETATM    9  O9  UNL     1     -36.959  14.852  -3.199  1.00 20.00    -0.647 OA
HETATM   10  O10 UNL     1     -36.628  16.559  -4.686  1.00 20.00    -0.647 OA
ENDBRANCH   4   8
ENDBRANCH   3   4
TORSDOF 2
ENDMDL
MODEL 9
REMARK VINA RESULT:      -4.1      1.650      2.422
REMARK  2 active torsions:
REMARK  status: ('A' for Active; 'I' for Inactive)
REMARK    1  A    between atoms: C3_3  and  C7_7 
REMARK    2  A    between atoms: C7_7  and  C8_8 
ROOT
HETATM    1  C1  UNL     1     -33.606  18.033  -5.734  1.00 20.00     0.012 C 
HETATM    2  C2  UNL     1     -34.028  17.110  -5.092  1.00 20.00    -0.116 C 
HETATM    3  C8  UNL     1     -34.538  15.987  -4.300  1.00 20.00     0.113 C 
ENDROOT
BRANCH   3   4
HETATM    4  C7  UNL     1     -35.286  14.963  -5.198  1.00 20.00     0.058 C 
HETATM    5  C5  UNL     1     -34.527  14.535  -6.494  1.00 20.00     0.021 C 
HETATM    6  C4  UNL     1     -35.851  14.654  -7.267  1.00 20.00     0.003 C 
HETATM    7  C6  UNL     1     -36.366  15.573  -6.147  1.00 20.00     0.021 C 
BRANCH   4   8
HETATM    8  C3  UNL     1     -35.799  13.781  -4.372  1.00 20.00     0.182 C 
HETATM    9  O9  UNL     1     -35.045  12.767  -4.356  1.00 20.00    -0.647 OA
HETATM   10  O10 UNL     1     -36.913  13.971  -3.809  1.00 20.00    -0.647 OA
ENDBRANCH   4   8
ENDBRANCH   3   4
TORSDOF 2
ENDMDL
