MODEL 1
REMARK VINA RESULT:      -4.0      0.000      0.000
REMARK  1 active torsions:
REMARK  status: ('A' for Active; 'I' for Inactive)
REMARK    1  A    between atoms: C2_2  and  C8_8 
ROOT
HETATM    1  C1  UNL     1     -36.830  15.079  -3.384  1.00 20.00     0.284 C 
HETATM    2  C2  UNL     1     -34.593  16.108  -3.066  1.00 20.00     0.233 C 
HETATM    3  C3  UNL     1     -36.511  14.773  -4.848  1.00 20.00     0.071 C 
HETATM    4  C4  UNL     1     -34.060  14.712  -3.457  1.00 20.00     0.076 C 
HETATM    5  C5  UNL     1     -36.745  15.962  -5.778  1.00 20.00     0.023 C 
HETATM    6  C6  UNL     1     -32.542  14.667  -3.643  1.00 20.00     0.023 C 
HETATM    7  N9  UNL     1     -36.037  16.146  -2.785  1.00 20.00     0.090 N 
HETATM    8  S10 UNL     1     -34.804  14.153  -5.045  1.00 20.00    -0.156 SA
HETATM    9  H27 UNL     1     -36.416  17.053  -3.107  1.00 20.00     0.316 HD
ENDROOT
BRANCH   2  10
HETATM   10  C8  UNL     1     -33.869  16.692  -1.844  1.00 20.00     0.032 C 
HETATM   11  C7  UNL     1     -34.753  16.710  -0.644  1.00 20.00     0.007 C 
ENDBRANCH   2  10
TORSDOF 1
ENDMDL
MODEL 2
REMARK VINA RESULT:      -3.9      1.795      2.807
REMARK  1 active torsions:
REMARK  status: ('A' for Active; 'I' for Inactive)
REMARK    1  A    between atoms: C2_2  and  C8_8 
ROOT
HETATM    1  C1  UNL     1     -33.325  15.592  -4.387  1.00 20.00     0.284 C 
HETATM    2  C2  UNL     1     -34.871  15.882  -2.466  1.00 20.00     0.233 C 
HETATM    3  C3  UNL     1     -34.419  14.899  -5.199  1.00 20.00     0.071 C 
HETATM    4  C4  UNL     1     -35.719  16.700  -3.464  1.00 20.00     0.076 C 
HETATM    5  C5  UNL     1     -34.558  13.412  -4.877  1.00 20.00     0.023 C 
HETATM    6  C6  UNL     1     -37.088  17.105  -2.914  1.00 20.00     0.023 C 
HETATM    7  N9  UNL     1     -33.513  15.569  -2.941  1.00 20.00     0.090 N 
HETATM    8  S10 UNL     1     -36.031  15.733  -4.999  1.00 20.00    -0.156 SA
HETATM    9  H27 UNL     1     -33.244  14.633  -2.594  1.00 20.00     0.316 HD
ENDROOT
BRANCH   2  10
HETATM   10  C8  UNL     1     -34.735  16.575  -1.102  1.00 20.00     0.032 C 
HETATM   11  C7  UNL     1     -33.582  17.519  -1.085  1.00 20.00     0.007 C 
ENDBRANCH   2  10
TORSDOF 1
ENDMDL
MODEL 3
REMARK VINA RESULT:      -3.8      1.445      1.647
REMARK  1 active torsions:
REMARK  status: ('A' for Active; 'I' for Inactive)
REMARK    1  A    between atoms: C2_2  and  C8_8 
ROOT
HETATM    1  C1  UNL     1     -36.182  16.717  -5.125  1.00 20.00     0.284 C 
HETATM    2  C2  UNL     1     -34.097  16.159  -3.897  1.00 20.00     0.233 C 
HETATM    3  C3  UNL     1     -35.668  16.006  -6.377  1.00 20.00     0.071 C 
HETATM    4  C4  UNL     1     -34.508  14.695  -4.169  1.00 20.00     0.076 C 
HETATM    5  C5  UNL     1     -34.742  16.875  -7.226  1.00 20.00     0.023 C 
HETATM    6  C6  UNL     1     -33.438  13.676  -3.767  1.00 20.00     0.023 C 
HETATM    7  N9  UNL     1     -35.152  17.144  -4.185  1.00 20.00     0.090 N 
HETATM    8  S10 UNL     1     -34.839  14.433  -5.960  1.00 20.00    -0.156 SA
HETATM    9  H27 UNL     1     -34.714  18.006  -4.552  1.00 20.00     0.316 HD
ENDROOT
BRANCH   2  10
HETATM   10  C8  UNL     1     -33.638  16.382  -2.449  1.00 20.00     0.032 C 
HETATM   11  C7  UNL     1     -34.790  16.359  -1.503  1.00 20.00     0.007 C 
ENDBRANCH   2  10
TORSDOF 1
ENDMDL
MODEL 4
REMARK VINA RESULT:      -3.8      1.406      1.427
REMARK  1 active torsions:
REMARK  status: ('A' for Active; 'I' for Inactive)
REMARK    1  A    between atoms: C2_2  and  C8_8 
ROOT
HETATM    1  C1  UNL     1     -37.037  14.807  -3.807  1.00 20.00     0.284 C 
HETATM    2  C2  UNL     1     -35.108  16.285  -3.297  1.00 20.00     0.233 C 
HETATM    3  C3  UNL     1     -37.325  15.580  -5.094  1.00 20.00     0.071 C 
HETATM    4  C4  UNL     1     -34.549  15.769  -4.641  1.00 20.00     0.076 C 
HETATM    5  C5  UNL     1     -38.147  16.847  -4.865  1.00 20.00     0.023 C 
HETATM    6  C6  UNL     1     -33.277  16.491  -5.091  1.00 20.00     0.023 C 
HETATM    7  N9  UNL     1     -36.273  15.536  -2.800  1.00 20.00     0.090 N 
HETATM    8  S10 UNL     1     -35.785  15.989  -5.987  1.00 20.00    -0.156 SA
HETATM    9  H27 UNL     1     -36.913  16.192  -2.320  1.00 20.00     0.316 HD
ENDROOT
BRANCH   2  10
HETATM   10  C8  UNL     1     -34.051  16.288  -2.183  1.00 20.00     0.032 C 
HETATM   11  C7  UNL     1     -34.654  16.628  -0.863  1.00 20.00     0.007 C 
ENDBRANCH   2  10
TORSDOF 1
ENDMDL
MODEL 5
REMARK VINA RESULT:      -3.7      2.425      4.418
REMARK  1 active torsions:
REMARK  status: ('A' for Active; 'I' for Inactive)
REMARK    1  A    between atoms: C2_2  and  C8_8 
ROOT
HETATM    1  C1  UNL     1     -35.352  13.889  -4.255  1.00 20.00     0.284 C 
HETATM    2  C2  UNL     1     -34.486  14.875  -6.363  1.00 20.00     0.233 C 
HETATM    3  C3  UNL     1     -34.232  14.552  -3.453  1.00 20.00     0.071 C 
HETATM    4  C4  UNL     1     -34.744  16.226  -5.661  1.00 20.00     0.076 C 
HETATM    5  C5  UNL     1     -32.925  13.762  -3.476  1.00 20.00     0.023 C 
HETATM    6  C6  UNL     1     -34.210  17.430  -6.441  1.00 20.00     0.023 C 
HETATM    7  N9  UNL     1     -35.080  13.716  -5.677  1.00 20.00     0.090 N 
HETATM    8  S10 UNL     1     -33.935  16.266  -4.009  1.00 20.00    -0.156 SA
HETATM    9  H27 UNL     1     -34.452  12.902  -5.791  1.00 20.00     0.316 HD
ENDROOT
BRANCH   2  10
HETATM   10  C8  UNL     1     -34.989  14.860  -7.814  1.00 20.00     0.032 C 
HETATM   11  C7  UNL     1     -36.477  14.800  -7.874  1.00 20.00     0.007 C 
ENDBRANCH   2  10
TORSDOF 1
ENDMDL
MODEL 6
REMARK VINA RESULT:      -3.7      2.046      3.672
REMARK  1 active torsions:
REMARK  status: ('A' for Active; 'I' for Inactive)
REMARK    1  A    between atoms: C2_2  and  C8_8 
ROOT
HETATM    1  C1  UNL     1     -36.463  17.261  -2.286  1.00 20.00     0.284 C 
HETATM    2  C2  UNL     1     -35.169  15.612  -3.616  1.00 20.00     0.233 C 
HETATM    3  C3  UNL     1     -35.179  17.801  -1.655  1.00 20.00     0.071 C 
HETATM    4  C4  UNL     1     -34.486  16.859  -4.219  1.00 20.00     0.076 C 
HETATM    5  C5  UNL     1     -34.699  16.973  -0.464  1.00 20.00     0.023 C 
HETATM    6  C6  UNL     1     -33.299  16.526  -5.127  1.00 20.00     0.023 C 
HETATM    7  N9  UNL     1     -36.372  15.908  -2.822  1.00 20.00     0.090 N 
HETATM    8  S10 UNL     1     -33.841  17.955  -2.889  1.00 20.00    -0.156 SA
HETATM    9  H27 UNL     1     -36.424  15.242  -2.032  1.00 20.00     0.316 HD
ENDROOT
BRANCH   2  10
HETATM   10  C8  UNL     1     -35.563  14.582  -4.686  1.00 20.00     0.032 C 
HETATM   11  C7  UNL     1     -34.984  13.241  -4.389  1.00 20.00     0.007 C 
ENDBRANCH   2  10
TORSDOF 1
ENDMDL
MODEL 7
REMARK VINA RESULT:      -3.7      2.147      4.258
REMARK  1 active torsions:
REMARK  status: ('A' for Active; 'I' for Inactive)
REMARK    1  A    between atoms: C2_2  and  C8_8 
ROOT
HETATM    1  C1  UNL     1     -33.035  15.258  -3.720  1.00 20.00     0.284 C 
HETATM    2  C2  UNL     1     -34.469  16.068  -5.579  1.00 20.00     0.233 C 
HETATM    3  C3  UNL     1     -34.035  15.778  -2.687  1.00 20.00     0.071 C 
HETATM    4  C4  UNL     1     -35.523  15.109  -4.985  1.00 20.00     0.076 C 
HETATM    5  C5  UNL     1     -33.870  17.266  -2.383  1.00 20.00     0.023 C 
HETATM    6  C6  UNL     1     -36.902  15.237  -5.637  1.00 20.00     0.023 C 
HETATM    7  N9  UNL     1     -33.114  15.889  -5.033  1.00 20.00     0.090 N 
HETATM    8  S10 UNL     1     -35.757  15.431  -3.188  1.00 20.00    -0.156 SA
HETATM    9  H27 UNL     1     -32.650  16.812  -4.978  1.00 20.00     0.316 HD
ENDROOT
BRANCH   2  10
HETATM   10  C8  UNL     1     -34.369  15.959  -7.108  1.00 20.00     0.032 C 
HETATM   11  C7  UNL     1     -34.590  17.280  -7.763  1.00 20.00     0.007 C 
ENDBRANCH   2  10
TORSDOF 1
ENDMDL
MODEL 8
REMARK VINA RESULT:      -3.7      2.593      3.730
REMARK  1 active torsions:
REMARK  status: ('A' for Active; 'I' for Inactive)
REMARK    1  A    between atoms: C2_2  and  C8_8 
ROOT
HETATM    1  C1  UNL     1     -33.561  16.968  -5.513  1.00 20.00     0.284 C 
HETATM    2  C2  UNL     1     -34.709  14.772  -5.360  1.00 20.00     0.233 C 
HETATM    3  C3  UNL     1     -34.765  17.578  -6.231  1.00 20.00     0.071 C 
HETATM    4  C4  UNL     1     -35.769  15.551  -4.551  1.00 20.00     0.076 C 
HETATM    5  C5  UNL     1     -34.777  17.297  -7.733  1.00 20.00     0.023 C 
HETATM    6  C6  UNL     1     -37.019  14.727  -4.231  1.00 20.00     0.023 C 
HETATM    7  N9  UNL     1     -33.460  15.515  -5.591  1.00 20.00     0.090 N 
HETATM    8  S10 UNL     1     -36.338  17.033  -5.482  1.00 20.00    -0.156 SA
HETATM    9  H27 UNL     1     -33.090  15.266  -6.524  1.00 20.00     0.316 HD
ENDROOT
BRANCH   2  10
HETATM   10  C8  UNL     1     -34.336  13.433  -4.706  1.00 20.00     0.032 C 
HETATM   11  C7  UNL     1     -33.273  13.610  -3.675  1.00 20.00     0.007 C 
ENDBRANCH   2  10
TORSDOF 1
ENDMDL
MODEL 9
REMARK VINA RESULT:      -3.7      1.776      2.283
REMARK  1 active torsions:
REMARK  status: ('A' for Active; 'I' for Inactive)
REMARK    1  A    between atoms: C2_2  and  C8_8 
ROOT
HETATM    1  C1  UNL     1     -33.993  14.363  -4.458  1.00 20.00     0.284 C 
HETATM    2  C2  UNL     1     -34.304  16.530  -3.286  1.00 20.00     0.233 C 
HETATM    3  C3  UNL     1     -34.765  14.878  -5.673  1.00 20.00     0.071 C 
HETATM    4  C4  UNL     1     -33.534  17.119  -4.488  1.00 20.00     0.076 C 
HETATM    5  C5  UNL     1     -36.280  14.762  -5.518  1.00 20.00     0.023 C 
HETATM    6  C6  UNL     1     -33.496  18.649  -4.498  1.00 20.00     0.023 C 
HETATM    7  N9  UNL     1     -34.265  15.060  -3.206  1.00 20.00     0.090 N 
HETATM    8  S10 UNL     1     -34.308  16.600  -6.075  1.00 20.00    -0.156 SA
HETATM    9  H27 UNL     1     -35.169  14.721  -2.835  1.00 20.00     0.316 HD
ENDROOT
BRANCH   2  10
HETATM   10  C8  UNL     1     -33.805  17.079  -1.941  1.00 20.00     0.032 C 
HETATM   11  C7  UNL     1     -34.670  16.627  -0.814  1.00 20.00     0.007 C 
ENDBRANCH   2  10
TORSDOF 1
ENDMDL
