MODEL 1
REMARK VINA RESULT:      -3.8      0.000      0.000
REMARK  0 active torsions:
REMARK  status: ('A' for Active; 'I' for Inactive)
ROOT
HETATM    1  C1  UNL     1     -36.645  14.440  -4.344  1.00 20.00     0.080 C 
HETATM    2  C2  UNL     1     -33.679  13.751  -3.614  1.00 20.00     0.013 C 
HETATM    3  C3  UNL     1     -34.449  13.422  -4.888  1.00 20.00     0.036 C 
HETATM    4  C4  UNL     1     -33.153  15.164  -3.785  1.00 20.00     0.076 C 
HETATM    5  C5  UNL     1     -35.419  14.582  -5.148  1.00 20.00     0.093 C 
HETATM    6  C6  UNL     1     -35.777  14.689  -6.630  1.00 20.00     0.043 C 
HETATM    7  N7  UNL     1     -37.612  14.328  -3.711  1.00 20.00    -0.196 NA
HETATM    8  S8  UNL     1     -34.486  16.069  -4.619  1.00 20.00    -0.144 SA
ENDROOT
TORSDOF 0
ENDMDL
MODEL 2
REMARK VINA RESULT:      -3.8      1.863      2.319
REMARK  0 active torsions:
REMARK  status: ('A' for Active; 'I' for Inactive)
ROOT
HETATM    1  C1  UNL     1     -34.651  13.847  -4.766  1.00 20.00     0.080 C 
HETATM    2  C2  UNL     1     -33.731  16.068  -2.759  1.00 20.00     0.013 C 
HETATM    3  C3  UNL     1     -33.205  15.769  -4.158  1.00 20.00     0.036 C 
HETATM    4  C4  UNL     1     -34.955  16.947  -2.941  1.00 20.00     0.076 C 
HETATM    5  C5  UNL     1     -34.391  15.278  -4.998  1.00 20.00     0.093 C 
HETATM    6  C6  UNL     1     -34.165  15.532  -6.488  1.00 20.00     0.043 C 
HETATM    7  N7  UNL     1     -34.855  12.718  -4.583  1.00 20.00    -0.196 NA
HETATM    8  S8  UNL     1     -35.805  16.281  -4.399  1.00 20.00    -0.144 SA
ENDROOT
TORSDOF 0
ENDMDL
MODEL 3
REMARK VINA RESULT:      -3.7      1.099      1.474
REMARK  0 active torsions:
REMARK  status: ('A' for Active; 'I' for Inactive)
ROOT
HETATM    1  C1  UNL     1     -37.138  14.731  -4.076  1.00 20.00     0.080 C 
HETATM    2  C2  UNL     1     -34.524  13.185  -4.842  1.00 20.00     0.013 C 
HETATM    3  C3  UNL     1     -35.215  14.320  -5.589  1.00 20.00     0.036 C 
HETATM    4  C4  UNL     1     -33.653  13.837  -3.784  1.00 20.00     0.076 C 
HETATM    5  C5  UNL     1     -35.838  15.248  -4.537  1.00 20.00     0.093 C 
HETATM    6  C6  UNL     1     -36.003  16.669  -5.073  1.00 20.00     0.043 C 
HETATM    7  N7  UNL     1     -38.163  14.323  -3.713  1.00 20.00    -0.196 NA
HETATM    8  S8  UNL     1     -34.629  15.233  -3.159  1.00 20.00    -0.144 SA
ENDROOT
TORSDOF 0
ENDMDL
MODEL 4
REMARK VINA RESULT:      -3.7      1.932      2.986
REMARK  0 active torsions:
REMARK  status: ('A' for Active; 'I' for Inactive)
ROOT
HETATM    1  C1  UNL     1     -34.541  13.720  -4.165  1.00 20.00     0.080 C 
HETATM    2  C2  UNL     1     -35.825  16.325  -2.992  1.00 20.00     0.013 C 
HETATM    3  C3  UNL     1     -34.565  15.595  -2.539  1.00 20.00     0.036 C 
HETATM    4  C4  UNL     1     -35.408  17.224  -4.142  1.00 20.00     0.076 C 
HETATM    5  C5  UNL     1     -33.908  14.997  -3.791  1.00 20.00     0.093 C 
HETATM    6  C6  UNL     1     -32.406  14.796  -3.592  1.00 20.00     0.043 C 
HETATM    7  N7  UNL     1     -35.040  12.713  -4.459  1.00 20.00    -0.196 NA
HETATM    8  S8  UNL     1     -34.206  16.253  -5.092  1.00 20.00    -0.144 SA
ENDROOT
TORSDOF 0
ENDMDL
MODEL 5
REMARK VINA RESULT:      -3.7      1.090      1.572
REMARK  0 active torsions:
REMARK  status: ('A' for Active; 'I' for Inactive)
ROOT
HETATM    1  C1  UNL     1     -36.580  14.420  -4.046  1.00 20.00     0.080 C 
HETATM    2  C2  UNL     1     -34.252  15.966  -2.632  1.00 20.00     0.013 C 
HETATM    3  C3  UNL     1     -34.278  14.524  -3.125  1.00 20.00     0.036 C 
HETATM    4  C4  UNL     1     -33.893  16.822  -3.833  1.00 20.00     0.076 C 
HETATM    5  C5  UNL     1     -35.149  14.488  -4.388  1.00 20.00     0.093 C 
HETATM    6  C6  UNL     1     -34.773  13.315  -5.293  1.00 20.00     0.043 C 
HETATM    7  N7  UNL     1     -37.708  14.367  -3.776  1.00 20.00    -0.196 NA
HETATM    8  S8  UNL     1     -34.776  16.074  -5.230  1.00 20.00    -0.144 SA
ENDROOT
TORSDOF 0
ENDMDL
MODEL 6
REMARK VINA RESULT:      -3.7      2.393      3.438
REMARK  0 active torsions:
REMARK  status: ('A' for Active; 'I' for Inactive)
ROOT
HETATM    1  C1  UNL     1     -33.618  16.590  -4.426  1.00 20.00     0.080 C 
HETATM    2  C2  UNL     1     -34.146  13.505  -4.555  1.00 20.00     0.013 C 
HETATM    3  C3  UNL     1     -33.478  14.314  -3.448  1.00 20.00     0.036 C 
HETATM    4  C4  UNL     1     -35.641  13.602  -4.313  1.00 20.00     0.076 C 
HETATM    5  C5  UNL     1     -34.168  15.684  -3.403  1.00 20.00     0.093 C 
HETATM    6  C6  UNL     1     -34.049  16.325  -2.021  1.00 20.00     0.043 C 
HETATM    7  N7  UNL     1     -33.184  17.304  -5.233  1.00 20.00    -0.196 NA
HETATM    8  S8  UNL     1     -35.925  15.309  -3.771  1.00 20.00    -0.144 SA
ENDROOT
TORSDOF 0
ENDMDL
MODEL 7
REMARK VINA RESULT:      -3.6      1.874      2.585
REMARK  0 active torsions:
REMARK  status: ('A' for Active; 'I' for Inactive)
ROOT
HETATM    1  C1  UNL     1     -35.066  13.756  -4.438  1.00 20.00     0.080 C 
HETATM    2  C2  UNL     1     -34.099  16.148  -6.214  1.00 20.00     0.013 C 
HETATM    3  C3  UNL     1     -35.490  15.880  -5.648  1.00 20.00     0.036 C 
HETATM    4  C4  UNL     1     -33.316  16.840  -5.114  1.00 20.00     0.076 C 
HETATM    5  C5  UNL     1     -35.305  15.201  -4.284  1.00 20.00     0.093 C 
HETATM    6  C6  UNL     1     -36.512  15.436  -3.376  1.00 20.00     0.043 C 
HETATM    7  N7  UNL     1     -34.877  12.617  -4.559  1.00 20.00    -0.196 NA
HETATM    8  S8  UNL     1     -33.822  16.015  -3.579  1.00 20.00    -0.144 SA
ENDROOT
TORSDOF 0
ENDMDL
MODEL 8
REMARK VINA RESULT:      -3.5      2.204      3.139
REMARK  0 active torsions:
REMARK  status: ('A' for Active; 'I' for Inactive)
ROOT
HETATM    1  C1  UNL     1     -34.423  16.076  -2.294  1.00 20.00     0.080 C 
HETATM    2  C2  UNL     1     -36.243  14.280  -4.102  1.00 20.00     0.013 C 
HETATM    3  C3  UNL     1     -35.627  15.638  -4.419  1.00 20.00     0.036 C 
HETATM    4  C4  UNL     1     -35.175  13.244  -4.403  1.00 20.00     0.076 C 
HETATM    5  C5  UNL     1     -34.267  15.699  -3.710  1.00 20.00     0.093 C 
HETATM    6  C6  UNL     1     -33.317  16.673  -4.407  1.00 20.00     0.043 C 
HETATM    7  N7  UNL     1     -34.546  16.373  -1.178  1.00 20.00    -0.196 NA
HETATM    8  S8  UNL     1     -33.620  13.989  -3.840  1.00 20.00    -0.144 SA
ENDROOT
TORSDOF 0
ENDMDL
MODEL 9
REMARK VINA RESULT:      -3.5      1.120      1.120
REMARK  0 active torsions:
REMARK  status: ('A' for Active; 'I' for Inactive)
ROOT
HETATM    1  C1  UNL     1     -36.154  15.305  -5.422  1.00 20.00     0.080 C 
HETATM    2  C2  UNL     1     -34.039  13.891  -3.596  1.00 20.00     0.013 C 
HETATM    3  C3  UNL     1     -34.405  13.586  -5.044  1.00 20.00     0.036 C 
HETATM    4  C4  UNL     1     -33.028  15.022  -3.639  1.00 20.00     0.076 C 
HETATM    5  C5  UNL     1     -34.763  14.919  -5.715  1.00 20.00     0.093 C 
HETATM    6  C6  UNL     1     -34.547  14.860  -7.227  1.00 20.00     0.043 C 
HETATM    7  N7  UNL     1     -37.251  15.609  -5.190  1.00 20.00    -0.196 NA
HETATM    8  S8  UNL     1     -33.603  16.122  -4.962  1.00 20.00    -0.144 SA
ENDROOT
TORSDOF 0
ENDMDL
