MODEL 1
REMARK VINA RESULT:      -4.2      0.000      0.000
REMARK  3 active torsions:
REMARK  status: ('A' for Active; 'I' for Inactive)
REMARK    1  A    between atoms: C3_3  and  C6_6 
REMARK    2  A    between atoms: C6_6  and  C8_8 
REMARK    3  A    between atoms: C7_7  and  C8_8 
ROOT
HETATM    1  C1  UNL     1     -35.093  13.349  -4.666  1.00 20.00     0.111 C 
HETATM    2  C2  UNL     1     -35.446  14.627  -5.427  1.00 20.00     0.227 C 
HETATM    3  C3  UNL     1     -33.761  15.525  -4.005  1.00 20.00     0.282 C 
HETATM    4  C4  UNL     1     -34.770  14.724  -6.796  1.00 20.00     0.043 C 
HETATM    5  N9  UNL     1     -35.097  15.773  -4.565  1.00 20.00     0.102 N 
HETATM    6  S10 UNL     1     -33.557  13.730  -3.792  1.00 20.00    -0.132 SA
HETATM    7  H27 UNL     1     -35.044  16.607  -5.154  1.00 20.00     0.317 HD
ENDROOT
BRANCH   3   8
HETATM    8  C6  UNL     1     -33.584  16.245  -2.674  1.00 20.00     0.046 C 
BRANCH   8   9
HETATM    9  C8  UNL     1     -34.838  16.131  -1.810  1.00 20.00     0.002 C 
BRANCH   9  10
HETATM   10  C7  UNL     1     -34.655  16.855  -0.476  1.00 20.00    -0.004 C 
HETATM   11  C5  UNL     1     -33.563  17.909  -0.559  1.00 20.00     0.005 C 
ENDBRANCH   9  10
ENDBRANCH   8   9
ENDBRANCH   3   8
TORSDOF 3
ENDMDL
MODEL 2
REMARK VINA RESULT:      -4.0      1.625      2.100
REMARK  3 active torsions:
REMARK  status: ('A' for Active; 'I' for Inactive)
REMARK    1  A    between atoms: C3_3  and  C6_6 
REMARK    2  A    between atoms: C6_6  and  C8_8 
REMARK    3  A    between atoms: C7_7  and  C8_8 
ROOT
HETATM    1  C1  UNL     1     -34.620  16.652  -6.502  1.00 20.00     0.111 C 
HETATM    2  C2  UNL     1     -34.313  15.188  -6.821  1.00 20.00     0.227 C 
HETATM    3  C3  UNL     1     -35.029  14.909  -4.568  1.00 20.00     0.282 C 
HETATM    4  C4  UNL     1     -35.437  14.486  -7.585  1.00 20.00     0.043 C 
HETATM    5  N9  UNL     1     -34.011  14.506  -5.549  1.00 20.00     0.102 N 
HETATM    6  S10 UNL     1     -35.543  16.612  -4.948  1.00 20.00    -0.132 SA
HETATM    7  H27 UNL     1     -34.099  13.498  -5.701  1.00 20.00     0.317 HD
ENDROOT
BRANCH   3   8
HETATM    8  C6  UNL     1     -34.487  14.819  -3.147  1.00 20.00     0.046 C 
BRANCH   8   9
HETATM    9  C8  UNL     1     -34.062  16.190  -2.627  1.00 20.00     0.002 C 
BRANCH   9  10
HETATM   10  C7  UNL     1     -34.609  16.440  -1.222  1.00 20.00    -0.004 C 
HETATM   11  C5  UNL     1     -33.904  17.606  -0.548  1.00 20.00     0.005 C 
ENDBRANCH   9  10
ENDBRANCH   8   9
ENDBRANCH   3   8
TORSDOF 3
ENDMDL
MODEL 3
REMARK VINA RESULT:      -4.0      1.446      1.720
REMARK  3 active torsions:
REMARK  status: ('A' for Active; 'I' for Inactive)
REMARK    1  A    between atoms: C3_3  and  C6_6 
REMARK    2  A    between atoms: C6_6  and  C8_8 
REMARK    3  A    between atoms: C7_7  and  C8_8 
ROOT
HETATM    1  C1  UNL     1     -35.094  13.617  -4.135  1.00 20.00     0.111 C 
HETATM    2  C2  UNL     1     -36.410  14.395  -4.121  1.00 20.00     0.227 C 
HETATM    3  C3  UNL     1     -35.081  15.939  -2.889  1.00 20.00     0.282 C 
HETATM    4  C4  UNL     1     -36.666  15.178  -5.410  1.00 20.00     0.043 C 
HETATM    5  N9  UNL     1     -36.394  15.281  -2.941  1.00 20.00     0.102 N 
HETATM    6  S10 UNL     1     -33.843  14.796  -3.574  1.00 20.00    -0.132 SA
HETATM    7  H27 UNL     1     -37.105  16.003  -3.078  1.00 20.00     0.317 HD
ENDROOT
BRANCH   3   8
HETATM    8  C6  UNL     1     -34.719  16.326  -1.461  1.00 20.00     0.046 C 
BRANCH   8   9
HETATM    9  C8  UNL     1     -33.618  17.385  -1.435  1.00 20.00     0.002 C 
BRANCH   9  10
HETATM   10  C7  UNL     1     -33.579  18.104  -0.087  1.00 20.00    -0.004 C 
HETATM   11  C5  UNL     1     -32.274  18.860   0.103  1.00 20.00     0.005 C 
ENDBRANCH   9  10
ENDBRANCH   8   9
ENDBRANCH   3   8
TORSDOF 3
ENDMDL
MODEL 4
REMARK VINA RESULT:      -4.0      1.533      1.841
REMARK  3 active torsions:
REMARK  status: ('A' for Active; 'I' for Inactive)
REMARK    1  A    between atoms: C3_3  and  C6_6 
REMARK    2  A    between atoms: C6_6  and  C8_8 
REMARK    3  A    between atoms: C7_7  and  C8_8 
ROOT
HETATM    1  C1  UNL     1     -35.763  15.478  -5.000  1.00 20.00     0.111 C 
HETATM    2  C2  UNL     1     -34.411  14.763  -5.015  1.00 20.00     0.227 C 
HETATM    3  C3  UNL     1     -34.381  15.513  -2.757  1.00 20.00     0.282 C 
HETATM    4  C4  UNL     1     -34.525  13.249  -4.830  1.00 20.00     0.043 C 
HETATM    5  N9  UNL     1     -33.567  15.377  -3.973  1.00 20.00     0.102 N 
HETATM    6  S10 UNL     1     -36.107  15.798  -3.255  1.00 20.00    -0.132 SA
HETATM    7  H27 UNL     1     -32.798  14.734  -3.769  1.00 20.00     0.317 HD
ENDROOT
BRANCH   3   8
HETATM    8  C6  UNL     1     -33.879  16.659  -1.887  1.00 20.00     0.046 C 
BRANCH   8   9
HETATM    9  C8  UNL     1     -34.696  16.780  -0.603  1.00 20.00     0.002 C 
BRANCH   9  10
HETATM   10  C7  UNL     1     -34.170  17.913   0.279  1.00 20.00    -0.004 C 
HETATM   11  C5  UNL     1     -32.938  18.564  -0.326  1.00 20.00     0.005 C 
ENDBRANCH   9  10
ENDBRANCH   8   9
ENDBRANCH   3   8
TORSDOF 3
ENDMDL
MODEL 5
REMARK VINA RESULT:      -3.9      1.319      4.698
REMARK  3 active torsions:
REMARK  status: ('A' for Active; 'I' for Inactive)
REMARK    1  A    between atoms: C3_3  and  C6_6 
REMARK    2  A    between atoms: C6_6  and  C8_8 
REMARK    3  A    between atoms: C7_7  and  C8_8 
ROOT
HETATM    1  C1  UNL     1     -34.038  17.167  -3.234  1.00 20.00     0.111 C 
HETATM    2  C2  UNL     1     -35.140  16.784  -2.246  1.00 20.00     0.227 C 
HETATM    3  C3  UNL     1     -34.691  14.617  -3.120  1.00 20.00     0.282 C 
HETATM    4  C4  UNL     1     -34.641  16.639  -0.807  1.00 20.00     0.043 C 
HETATM    5  N9  UNL     1     -35.766  15.541  -2.732  1.00 20.00     0.102 N 
HETATM    6  S10 UNL     1     -33.290  15.599  -3.735  1.00 20.00    -0.132 SA
HETATM    7  H27 UNL     1     -36.280  15.119  -1.954  1.00 20.00     0.317 HD
ENDROOT
BRANCH   3   8
HETATM    8  C6  UNL     1     -35.168  13.639  -4.187  1.00 20.00     0.046 C 
BRANCH   8   9
HETATM    9  C8  UNL     1     -34.602  13.996  -5.560  1.00 20.00     0.002 C 
BRANCH   9  10
HETATM   10  C7  UNL     1     -35.684  14.579  -6.467  1.00 20.00    -0.004 C 
HETATM   11  C5  UNL     1     -35.180  14.763  -7.889  1.00 20.00     0.005 C 
ENDBRANCH   9  10
ENDBRANCH   8   9
ENDBRANCH   3   8
TORSDOF 3
ENDMDL
MODEL 6
REMARK VINA RESULT:      -3.9      1.800      4.898
REMARK  3 active torsions:
REMARK  status: ('A' for Active; 'I' for Inactive)
REMARK    1  A    between atoms: C3_3  and  C6_6 
REMARK    2  A    between atoms: C6_6  and  C8_8 
REMARK    3  A    between atoms: C7_7  and  C8_8 
ROOT
HETATM    1  C1  UNL     1     -33.400  13.694  -3.728  1.00 20.00     0.111 C 
HETATM    2  C2  UNL     1     -33.057  15.185  -3.715  1.00 20.00     0.227 C 
HETATM    3  C3  UNL     1     -34.425  15.160  -5.663  1.00 20.00     0.282 C 
HETATM    4  C4  UNL     1     -33.922  15.997  -2.749  1.00 20.00     0.043 C 
HETATM    5  N9  UNL     1     -33.173  15.683  -5.099  1.00 20.00     0.102 N 
HETATM    6  S10 UNL     1     -34.748  13.531  -4.921  1.00 20.00    -0.132 SA
HETATM    7  H27 UNL     1     -33.244  16.703  -5.063  1.00 20.00     0.317 HD
ENDROOT
BRANCH   3   8
HETATM    8  C6  UNL     1     -34.338  15.049  -7.180  1.00 20.00     0.046 C 
BRANCH   8   9
HETATM    9  C8  UNL     1     -35.658  14.568  -7.778  1.00 20.00     0.002 C 
BRANCH   9  10
HETATM   10  C7  UNL     1     -36.736  15.646  -7.670  1.00 20.00    -0.004 C 
HETATM   11  C5  UNL     1     -38.131  15.042  -7.674  1.00 20.00     0.005 C 
ENDBRANCH   9  10
ENDBRANCH   8   9
ENDBRANCH   3   8
TORSDOF 3
ENDMDL
MODEL 7
REMARK VINA RESULT:      -3.8      2.587      5.163
REMARK  3 active torsions:
REMARK  status: ('A' for Active; 'I' for Inactive)
REMARK    1  A    between atoms: C3_3  and  C6_6 
REMARK    2  A    between atoms: C6_6  and  C8_8 
REMARK    3  A    between atoms: C7_7  and  C8_8 
ROOT
HETATM    1  C1  UNL     1     -35.597  18.874  -0.872  1.00 20.00     0.111 C 
HETATM    2  C2  UNL     1     -35.345  17.789   0.176  1.00 20.00     0.227 C 
HETATM    3  C3  UNL     1     -33.844  17.009  -1.499  1.00 20.00     0.282 C 
HETATM    4  C4  UNL     1     -34.373  18.223   1.275  1.00 20.00     0.043 C 
HETATM    5  N9  UNL     1     -34.866  16.586  -0.530  1.00 20.00     0.102 N 
HETATM    6  S10 UNL     1     -34.267  18.679  -2.081  1.00 20.00    -0.132 SA
HETATM    7  H27 UNL     1     -34.418  15.974   0.155  1.00 20.00     0.317 HD
ENDROOT
BRANCH   3   8
HETATM    8  C6  UNL     1     -33.765  16.038  -2.670  1.00 20.00     0.046 C 
BRANCH   8   9
HETATM    9  C8  UNL     1     -35.117  15.380  -2.938  1.00 20.00     0.002 C 
BRANCH   9  10
HETATM   10  C7  UNL     1     -34.953  14.091  -3.742  1.00 20.00    -0.004 C 
HETATM   11  C5  UNL     1     -33.493  13.680  -3.844  1.00 20.00     0.005 C 
ENDBRANCH   9  10
ENDBRANCH   8   9
ENDBRANCH   3   8
TORSDOF 3
ENDMDL
MODEL 8
REMARK VINA RESULT:      -3.8     13.006     15.133
REMARK  3 active torsions:
REMARK  status: ('A' for Active; 'I' for Inactive)
REMARK    1  A    between atoms: C3_3  and  C6_6 
REMARK    2  A    between atoms: C6_6  and  C8_8 
REMARK    3  A    between atoms: C7_7  and  C8_8 
ROOT
HETATM    1  C1  UNL     1     -42.050   4.613   0.388  1.00 20.00     0.111 C 
HETATM    2  C2  UNL     1     -40.918   4.962  -0.579  1.00 20.00     0.227 C 
HETATM    3  C3  UNL     1     -42.341   3.822  -2.109  1.00 20.00     0.282 C 
HETATM    4  C4  UNL     1     -40.994   6.397  -1.107  1.00 20.00     0.043 C 
HETATM    5  N9  UNL     1     -40.945   3.977  -1.676  1.00 20.00     0.102 N 
HETATM    6  S10 UNL     1     -43.417   4.069  -0.663  1.00 20.00    -0.132 SA
HETATM    7  H27 UNL     1     -40.411   4.360  -2.459  1.00 20.00     0.317 HD
ENDROOT
BRANCH   3   8
HETATM    8  C6  UNL     1     -42.575   2.446  -2.720  1.00 20.00     0.046 C 
BRANCH   8   9
HETATM    9  C8  UNL     1     -41.438   2.058  -3.664  1.00 20.00     0.002 C 
BRANCH   9  10
HETATM   10  C7  UNL     1     -41.520   0.580  -4.044  1.00 20.00    -0.004 C 
HETATM   11  C5  UNL     1     -42.643  -0.126  -3.303  1.00 20.00     0.005 C 
ENDBRANCH   9  10
ENDBRANCH   8   9
ENDBRANCH   3   8
TORSDOF 3
ENDMDL
MODEL 9
REMARK VINA RESULT:      -3.8      2.033      2.661
REMARK  3 active torsions:
REMARK  status: ('A' for Active; 'I' for Inactive)
REMARK    1  A    between atoms: C3_3  and  C6_6 
REMARK    2  A    between atoms: C6_6  and  C8_8 
REMARK    3  A    between atoms: C7_7  and  C8_8 
ROOT
HETATM    1  C1  UNL     1     -33.619  17.831  -4.913  1.00 20.00     0.111 C 
HETATM    2  C2  UNL     1     -33.307  16.336  -4.997  1.00 20.00     0.227 C 
HETATM    3  C3  UNL     1     -34.715  16.290  -3.078  1.00 20.00     0.282 C 
HETATM    4  C4  UNL     1     -34.168  15.594  -6.021  1.00 20.00     0.043 C 
HETATM    5  N9  UNL     1     -33.462  15.770  -3.644  1.00 20.00     0.102 N 
HETATM    6  S10 UNL     1     -34.988  17.962  -3.740  1.00 20.00    -0.132 SA
HETATM    7  H27 UNL     1     -33.553  14.755  -3.733  1.00 20.00     0.317 HD
ENDROOT
BRANCH   3   8
HETATM    8  C6  UNL     1     -34.657  16.321  -1.556  1.00 20.00     0.046 C 
BRANCH   8   9
HETATM    9  C8  UNL     1     -33.631  17.337  -1.059  1.00 20.00     0.002 C 
BRANCH   9  10
HETATM   10  C7  UNL     1     -34.220  18.224   0.037  1.00 20.00    -0.004 C 
HETATM   11  C5  UNL     1     -35.169  17.446   0.933  1.00 20.00     0.005 C 
ENDBRANCH   9  10
ENDBRANCH   8   9
ENDBRANCH   3   8
TORSDOF 3
ENDMDL
