MODEL 1
REMARK VINA RESULT:      -4.0      0.000      0.000
REMARK  1 active torsions:
REMARK  status: ('A' for Active; 'I' for Inactive)
REMARK    1  A    between atoms: C3_3  and  C7_7 
ROOT
HETATM    1  C1  UNL     1     -34.086  17.491  -3.274  1.00 20.00     0.111 C 
HETATM    2  C2  UNL     1     -33.841  16.434  -2.198  1.00 20.00     0.227 C 
HETATM    3  C3  UNL     1     -33.540  15.043  -4.080  1.00 20.00     0.285 C 
HETATM    4  C4  UNL     1     -34.661  16.711  -0.944  1.00 20.00     0.043 C 
HETATM    5  N8  UNL     1     -34.207  15.128  -2.774  1.00 20.00     0.102 N 
HETATM    6  S9  UNL     1     -33.483  16.717  -4.791  1.00 20.00    -0.131 SA
HETATM    7  H24 UNL     1     -33.906  14.369  -2.167  1.00 20.00     0.317 HD
ENDROOT
BRANCH   3   8
HETATM    8  C7  UNL     1     -34.272  14.086  -5.010  1.00 20.00     0.021 C 
HETATM    9  C5  UNL     1     -35.556  13.571  -4.359  1.00 20.00     0.012 C 
HETATM   10  C6  UNL     1     -34.589  14.762  -6.346  1.00 20.00     0.012 C 
ENDBRANCH   3   8
TORSDOF 1
ENDMDL
MODEL 2
REMARK VINA RESULT:      -3.9      0.555      1.268
REMARK  1 active torsions:
REMARK  status: ('A' for Active; 'I' for Inactive)
REMARK    1  A    between atoms: C3_3  and  C7_7 
ROOT
HETATM    1  C1  UNL     1     -34.058  17.761  -3.021  1.00 20.00     0.111 C 
HETATM    2  C2  UNL     1     -33.866  16.543  -2.119  1.00 20.00     0.227 C 
HETATM    3  C3  UNL     1     -33.859  15.406  -4.186  1.00 20.00     0.285 C 
HETATM    4  C4  UNL     1     -34.560  16.727  -0.774  1.00 20.00     0.043 C 
HETATM    5  N8  UNL     1     -34.421  15.377  -2.829  1.00 20.00     0.102 N 
HETATM    6  S9  UNL     1     -33.656  17.147  -4.672  1.00 20.00    -0.131 SA
HETATM    7  H24 UNL     1     -34.170  14.513  -2.354  1.00 20.00     0.317 HD
ENDROOT
BRANCH   3   8
HETATM    8  C7  UNL     1     -34.760  14.673  -5.169  1.00 20.00     0.021 C 
HETATM    9  C5  UNL     1     -34.367  14.995  -6.612  1.00 20.00     0.012 C 
HETATM   10  C6  UNL     1     -34.708  13.162  -4.931  1.00 20.00     0.012 C 
ENDBRANCH   3   8
TORSDOF 1
ENDMDL
MODEL 3
REMARK VINA RESULT:      -3.8      1.634      4.103
REMARK  1 active torsions:
REMARK  status: ('A' for Active; 'I' for Inactive)
REMARK    1  A    between atoms: C3_3  and  C7_7 
ROOT
HETATM    1  C1  UNL     1     -36.162  14.830  -5.533  1.00 20.00     0.111 C 
HETATM    2  C2  UNL     1     -34.752  14.483  -6.007  1.00 20.00     0.227 C 
HETATM    3  C3  UNL     1     -34.216  14.970  -3.762  1.00 20.00     0.285 C 
HETATM    4  C4  UNL     1     -34.545  14.856  -7.470  1.00 20.00     0.043 C 
HETATM    5  N8  UNL     1     -33.805  15.219  -5.150  1.00 20.00     0.102 N 
HETATM    6  S9  UNL     1     -36.029  14.823  -3.731  1.00 20.00    -0.131 SA
HETATM    7  H24 UNL     1     -32.852  14.897  -5.306  1.00 20.00     0.317 HD
ENDROOT
BRANCH   3   8
HETATM    8  C7  UNL     1     -33.749  16.089  -2.842  1.00 20.00     0.021 C 
HETATM    9  C5  UNL     1     -33.678  17.418  -3.596  1.00 20.00     0.012 C 
HETATM   10  C6  UNL     1     -34.672  16.216  -1.629  1.00 20.00     0.012 C 
ENDBRANCH   3   8
TORSDOF 1
ENDMDL
MODEL 4
REMARK VINA RESULT:      -3.8      1.325      1.665
REMARK  1 active torsions:
REMARK  status: ('A' for Active; 'I' for Inactive)
REMARK    1  A    between atoms: C3_3  and  C7_7 
ROOT
HETATM    1  C1  UNL     1     -34.100  17.907  -2.228  1.00 20.00     0.111 C 
HETATM    2  C2  UNL     1     -34.241  16.798  -1.187  1.00 20.00     0.227 C 
HETATM    3  C3  UNL     1     -34.411  15.445  -3.112  1.00 20.00     0.285 C 
HETATM    4  C4  UNL     1     -34.931  17.300   0.076  1.00 20.00     0.043 C 
HETATM    5  N8  UNL     1     -35.023  15.712  -1.804  1.00 20.00     0.102 N 
HETATM    6  S9  UNL     1     -33.781  17.020  -3.770  1.00 20.00    -0.131 SA
HETATM    7  H24 UNL     1     -35.004  14.878  -1.221  1.00 20.00     0.317 HD
ENDROOT
BRANCH   3   8
HETATM    8  C7  UNL     1     -35.415  14.822  -4.072  1.00 20.00     0.021 C 
HETATM    9  C5  UNL     1     -35.123  13.334  -4.273  1.00 20.00     0.012 C 
HETATM   10  C6  UNL     1     -36.845  15.018  -3.565  1.00 20.00     0.012 C 
ENDBRANCH   3   8
TORSDOF 1
ENDMDL
MODEL 5
REMARK VINA RESULT:      -3.7     12.293     14.165
REMARK  1 active torsions:
REMARK  status: ('A' for Active; 'I' for Inactive)
REMARK    1  A    between atoms: C3_3  and  C7_7 
ROOT
HETATM    1  C1  UNL     1     -43.218   3.572  -3.473  1.00 20.00     0.111 C 
HETATM    2  C2  UNL     1     -42.180   2.649  -2.837  1.00 20.00     0.227 C 
HETATM    3  C3  UNL     1     -41.850   4.513  -1.428  1.00 20.00     0.285 C 
HETATM    4  C4  UNL     1     -41.560   1.710  -3.865  1.00 20.00     0.043 C 
HETATM    5  N8  UNL     1     -41.144   3.504  -2.231  1.00 20.00     0.102 N 
HETATM    6  S9  UNL     1     -43.416   4.903  -2.267  1.00 20.00    -0.131 SA
HETATM    7  H24 UNL     1     -40.519   2.954  -1.647  1.00 20.00     0.317 HD
ENDROOT
BRANCH   3   8
HETATM    8  C7  UNL     1     -41.004   5.766  -1.254  1.00 20.00     0.021 C 
HETATM    9  C5  UNL     1     -41.645   6.958  -1.965  1.00 20.00     0.012 C 
HETATM   10  C6  UNL     1     -40.798   6.081   0.229  1.00 20.00     0.012 C 
ENDBRANCH   3   8
TORSDOF 1
ENDMDL
MODEL 6
REMARK VINA RESULT:      -3.7      1.446      4.065
REMARK  1 active torsions:
REMARK  status: ('A' for Active; 'I' for Inactive)
REMARK    1  A    between atoms: C3_3  and  C7_7 
ROOT
HETATM    1  C1  UNL     1     -35.694  15.468  -4.943  1.00 20.00     0.111 C 
HETATM    2  C2  UNL     1     -35.323  14.221  -4.143  1.00 20.00     0.227 C 
HETATM    3  C3  UNL     1     -35.126  15.790  -2.391  1.00 20.00     0.285 C 
HETATM    4  C4  UNL     1     -34.608  13.191  -5.009  1.00 20.00     0.043 C 
HETATM    5  N8  UNL     1     -34.453  14.653  -3.034  1.00 20.00     0.102 N 
HETATM    6  S9  UNL     1     -36.012  16.719  -3.679  1.00 20.00    -0.131 SA
HETATM    7  H24 UNL     1     -34.313  13.895  -2.370  1.00 20.00     0.317 HD
ENDROOT
BRANCH   3   8
HETATM    8  C7  UNL     1     -34.126  16.684  -1.671  1.00 20.00     0.021 C 
HETATM    9  C5  UNL     1     -33.826  17.937  -2.494  1.00 20.00     0.012 C 
HETATM   10  C6  UNL     1     -34.644  17.071  -0.284  1.00 20.00     0.012 C 
ENDBRANCH   3   8
TORSDOF 1
ENDMDL
MODEL 7
REMARK VINA RESULT:      -3.6      1.909      2.694
REMARK  1 active torsions:
REMARK  status: ('A' for Active; 'I' for Inactive)
REMARK    1  A    between atoms: C3_3  and  C7_7 
ROOT
HETATM    1  C1  UNL     1     -34.163  14.083  -3.462  1.00 20.00     0.111 C 
HETATM    2  C2  UNL     1     -35.144  15.181  -3.059  1.00 20.00     0.227 C 
HETATM    3  C3  UNL     1     -35.808  14.981  -5.314  1.00 20.00     0.285 C 
HETATM    4  C4  UNL     1     -34.556  16.090  -1.985  1.00 20.00     0.043 C 
HETATM    5  N8  UNL     1     -35.460  15.957  -4.271  1.00 20.00     0.102 N 
HETATM    6  S9  UNL     1     -34.799  13.491  -5.047  1.00 20.00    -0.131 SA
HETATM    7  H24 UNL     1     -36.236  16.592  -4.101  1.00 20.00     0.317 HD
ENDROOT
BRANCH   3   8
HETATM    8  C7  UNL     1     -35.569  15.554  -6.703  1.00 20.00     0.021 C 
HETATM    9  C5  UNL     1     -34.288  16.388  -6.735  1.00 20.00     0.012 C 
HETATM   10  C6  UNL     1     -35.500  14.437  -7.747  1.00 20.00     0.012 C 
ENDBRANCH   3   8
TORSDOF 1
ENDMDL
MODEL 8
REMARK VINA RESULT:      -3.5      1.835      4.015
REMARK  1 active torsions:
REMARK  status: ('A' for Active; 'I' for Inactive)
REMARK    1  A    between atoms: C3_3  and  C7_7 
ROOT
HETATM    1  C1  UNL     1     -36.242  16.176  -6.094  1.00 20.00     0.111 C 
HETATM    2  C2  UNL     1     -35.784  14.760  -6.438  1.00 20.00     0.227 C 
HETATM    3  C3  UNL     1     -35.394  14.661  -4.113  1.00 20.00     0.285 C 
HETATM    4  C4  UNL     1     -35.170  14.692  -7.831  1.00 20.00     0.043 C 
HETATM    5  N8  UNL     1     -34.796  14.358  -5.421  1.00 20.00     0.102 N 
HETATM    6  S9  UNL     1     -36.418  16.153  -4.296  1.00 20.00    -0.131 SA
HETATM    7  H24 UNL     1     -34.583  13.366  -5.497  1.00 20.00     0.317 HD
ENDROOT
BRANCH   3   8
HETATM    8  C7  UNL     1     -34.321  14.869  -3.054  1.00 20.00     0.021 C 
HETATM    9  C5  UNL     1     -32.967  15.164  -3.701  1.00 20.00     0.012 C 
HETATM   10  C6  UNL     1     -34.711  16.000  -2.100  1.00 20.00     0.012 C 
ENDBRANCH   3   8
TORSDOF 1
ENDMDL
MODEL 9
REMARK VINA RESULT:      -3.5      1.764      2.341
REMARK  1 active torsions:
REMARK  status: ('A' for Active; 'I' for Inactive)
REMARK    1  A    between atoms: C3_3  and  C7_7 
ROOT
HETATM    1  C1  UNL     1     -34.533  18.570  -1.321  1.00 20.00     0.111 C 
HETATM    2  C2  UNL     1     -34.396  17.418  -0.328  1.00 20.00     0.227 C 
HETATM    3  C3  UNL     1     -34.178  16.153  -2.308  1.00 20.00     0.285 C 
HETATM    4  C4  UNL     1     -35.212  17.667   0.935  1.00 20.00     0.043 C 
HETATM    5  N8  UNL     1     -34.859  16.194  -1.006  1.00 20.00     0.102 N 
HETATM    6  S9  UNL     1     -33.971  17.865  -2.887  1.00 20.00    -0.131 SA
HETATM    7  H24 UNL     1     -34.632  15.369  -0.456  1.00 20.00     0.317 HD
ENDROOT
BRANCH   3   8
HETATM    8  C7  UNL     1     -34.971  15.334  -3.316  1.00 20.00     0.021 C 
HETATM    9  C5  UNL     1     -35.126  16.095  -4.633  1.00 20.00     0.012 C 
HETATM   10  C6  UNL     1     -34.302  13.980  -3.562  1.00 20.00     0.012 C 
ENDBRANCH   3   8
TORSDOF 1
ENDMDL
