MODEL 1
REMARK VINA RESULT:      -4.8      0.000      0.000
REMARK  3 active torsions:
REMARK  status: ('A' for Active; 'I' for Inactive)
REMARK    1  A    between atoms: C3_3  and  C6_6 
REMARK    2  A    between atoms: C6_6  and  C8_8 
REMARK    3  A    between atoms: C7_7  and  C8_8 
ROOT
HETATM    1  C1  UNL     1     -35.651   5.153   4.115  1.00 20.00     0.285 C 
HETATM    2  C2  UNL     1     -35.104   5.103   5.542  1.00 20.00     0.073 C 
HETATM    3  C3  UNL     1     -33.740   6.476   3.734  1.00 20.00     0.282 C 
HETATM    4  C4  UNL     1     -34.436   3.775   5.880  1.00 20.00     0.023 C 
HETATM    5  N9  UNL     1     -34.519   5.354   3.208  1.00 20.00     0.098 N 
HETATM    6  S10 UNL     1     -33.869   6.436   5.553  1.00 20.00    -0.128 SA
HETATM    7  H27 UNL     1     -33.944   4.511   3.211  1.00 20.00     0.317 HD
ENDROOT
BRANCH   3   8
HETATM    8  C6  UNL     1     -32.290   6.366   3.291  1.00 20.00     0.046 C 
BRANCH   8   9
HETATM    9  C8  UNL     1     -31.674   7.744   3.051  1.00 20.00     0.002 C 
BRANCH   9  10
HETATM   10  C7  UNL     1     -31.929   8.225   1.623  1.00 20.00    -0.004 C 
HETATM   11  C5  UNL     1     -32.508   9.631   1.605  1.00 20.00     0.005 C 
ENDBRANCH   9  10
ENDBRANCH   8   9
ENDBRANCH   3   8
TORSDOF 3
ENDMDL
MODEL 2
REMARK VINA RESULT:      -4.2     11.489     12.070
REMARK  3 active torsions:
REMARK  status: ('A' for Active; 'I' for Inactive)
REMARK    1  A    between atoms: C3_3  and  C6_6 
REMARK    2  A    between atoms: C6_6  and  C8_8 
REMARK    3  A    between atoms: C7_7  and  C8_8 
ROOT
HETATM    1  C1  UNL     1     -34.597  13.263  -4.838  1.00 20.00     0.285 C 
HETATM    2  C2  UNL     1     -35.187  14.388  -5.689  1.00 20.00     0.073 C 
HETATM    3  C3  UNL     1     -33.384  15.028  -3.859  1.00 20.00     0.282 C 
HETATM    4  C4  UNL     1     -36.599  14.780  -5.269  1.00 20.00     0.023 C 
HETATM    5  N9  UNL     1     -34.184  13.841  -3.557  1.00 20.00     0.098 N 
HETATM    6  S10 UNL     1     -34.046  15.770  -5.387  1.00 20.00    -0.128 SA
HETATM    7  H27 UNL     1     -35.018  14.117  -3.039  1.00 20.00     0.317 HD
ENDROOT
BRANCH   3   8
HETATM    8  C6  UNL     1     -33.449  16.015  -2.705  1.00 20.00     0.046 C 
BRANCH   8   9
HETATM    9  C8  UNL     1     -34.763  15.888  -1.935  1.00 20.00     0.002 C 
BRANCH   9  10
HETATM   10  C7  UNL     1     -34.793  16.829  -0.730  1.00 20.00    -0.004 C 
HETATM   11  C5  UNL     1     -33.593  17.763  -0.723  1.00 20.00     0.005 C 
ENDBRANCH   9  10
ENDBRANCH   8   9
ENDBRANCH   3   8
TORSDOF 3
ENDMDL
MODEL 3
REMARK VINA RESULT:      -4.1     11.746     12.641
REMARK  3 active torsions:
REMARK  status: ('A' for Active; 'I' for Inactive)
REMARK    1  A    between atoms: C3_3  and  C6_6 
REMARK    2  A    between atoms: C6_6  and  C8_8 
REMARK    3  A    between atoms: C7_7  and  C8_8 
ROOT
HETATM    1  C1  UNL     1     -34.092  15.212  -6.341  1.00 20.00     0.285 C 
HETATM    2  C2  UNL     1     -35.222  14.455  -5.642  1.00 20.00     0.073 C 
HETATM    3  C3  UNL     1     -34.364  16.705  -4.540  1.00 20.00     0.282 C 
HETATM    4  C4  UNL     1     -34.740  13.223  -4.886  1.00 20.00     0.023 C 
HETATM    5  N9  UNL     1     -33.366  15.974  -5.321  1.00 20.00     0.098 N 
HETATM    6  S10 UNL     1     -35.873  15.684  -4.471  1.00 20.00    -0.128 SA
HETATM    7  H27 UNL     1     -32.873  15.319  -4.714  1.00 20.00     0.317 HD
ENDROOT
BRANCH   3   8
HETATM    8  C6  UNL     1     -33.837  16.987  -3.142  1.00 20.00     0.046 C 
BRANCH   8   9
HETATM    9  C8  UNL     1     -34.417  16.011  -2.119  1.00 20.00     0.002 C 
BRANCH   9  10
HETATM   10  C7  UNL     1     -34.605  16.681  -0.758  1.00 20.00    -0.004 C 
HETATM   11  C5  UNL     1     -33.630  17.832  -0.565  1.00 20.00     0.005 C 
ENDBRANCH   9  10
ENDBRANCH   8   9
ENDBRANCH   3   8
TORSDOF 3
ENDMDL
MODEL 4
REMARK VINA RESULT:      -4.1     11.485     11.948
REMARK  3 active torsions:
REMARK  status: ('A' for Active; 'I' for Inactive)
REMARK    1  A    between atoms: C3_3  and  C6_6 
REMARK    2  A    between atoms: C6_6  and  C8_8 
REMARK    3  A    between atoms: C7_7  and  C8_8 
ROOT
HETATM    1  C1  UNL     1     -36.380  14.324  -4.139  1.00 20.00     0.285 C 
HETATM    2  C2  UNL     1     -35.196  13.639  -4.823  1.00 20.00     0.073 C 
HETATM    3  C3  UNL     1     -34.681  15.407  -2.919  1.00 20.00     0.282 C 
HETATM    4  C4  UNL     1     -34.906  14.191  -6.214  1.00 20.00     0.023 C 
HETATM    5  N9  UNL     1     -35.925  15.630  -3.658  1.00 20.00     0.098 N 
HETATM    6  S10 UNL     1     -33.809  14.014  -3.709  1.00 20.00    -0.128 SA
HETATM    7  H27 UNL     1     -35.738  16.228  -4.463  1.00 20.00     0.317 HD
ENDROOT
BRANCH   3   8
HETATM    8  C6  UNL     1     -33.825  16.662  -2.936  1.00 20.00     0.046 C 
BRANCH   8   9
HETATM    9  C8  UNL     1     -33.675  17.254  -1.535  1.00 20.00     0.002 C 
BRANCH   9  10
HETATM   10  C7  UNL     1     -34.708  16.669  -0.572  1.00 20.00    -0.004 C 
HETATM   11  C5  UNL     1     -34.945  17.589   0.616  1.00 20.00     0.005 C 
ENDBRANCH   9  10
ENDBRANCH   8   9
ENDBRANCH   3   8
TORSDOF 3
ENDMDL
MODEL 5
REMARK VINA RESULT:      -4.0     11.929     13.024
REMARK  3 active torsions:
REMARK  status: ('A' for Active; 'I' for Inactive)
REMARK    1  A    between atoms: C3_3  and  C6_6 
REMARK    2  A    between atoms: C6_6  and  C8_8 
REMARK    3  A    between atoms: C7_7  and  C8_8 
ROOT
HETATM    1  C1  UNL     1     -34.534  15.249  -6.569  1.00 20.00     0.285 C 
HETATM    2  C2  UNL     1     -35.647  16.215  -6.160  1.00 20.00     0.073 C 
HETATM    3  C3  UNL     1     -33.478  16.104  -4.645  1.00 20.00     0.282 C 
HETATM    4  C4  UNL     1     -36.838  15.518  -5.514  1.00 20.00     0.023 C 
HETATM    5  N9  UNL     1     -33.806  14.867  -5.357  1.00 20.00     0.098 N 
HETATM    6  S10 UNL     1     -34.827  17.292  -4.947  1.00 20.00    -0.128 SA
HETATM    7  H27 UNL     1     -34.416  14.293  -4.776  1.00 20.00     0.317 HD
ENDROOT
BRANCH   3   8
HETATM    8  C6  UNL     1     -33.320  15.830  -3.158  1.00 20.00     0.046 C 
BRANCH   8   9
HETATM    9  C8  UNL     1     -34.676  15.666  -2.473  1.00 20.00     0.002 C 
BRANCH   9  10
HETATM   10  C7  UNL     1     -34.744  16.472  -1.176  1.00 20.00    -0.004 C 
HETATM   11  C5  UNL     1     -33.614  17.486  -1.091  1.00 20.00     0.005 C 
ENDBRANCH   9  10
ENDBRANCH   8   9
ENDBRANCH   3   8
TORSDOF 3
ENDMDL
MODEL 6
REMARK VINA RESULT:      -3.9     11.467     12.593
REMARK  3 active torsions:
REMARK  status: ('A' for Active; 'I' for Inactive)
REMARK    1  A    between atoms: C3_3  and  C6_6 
REMARK    2  A    between atoms: C6_6  and  C8_8 
REMARK    3  A    between atoms: C7_7  and  C8_8 
ROOT
HETATM    1  C1  UNL     1     -36.565  15.138  -6.096  1.00 20.00     0.285 C 
HETATM    2  C2  UNL     1     -35.252  14.462  -6.494  1.00 20.00     0.073 C 
HETATM    3  C3  UNL     1     -35.891  14.521  -3.924  1.00 20.00     0.282 C 
HETATM    4  C4  UNL     1     -34.146  15.454  -6.835  1.00 20.00     0.023 C 
HETATM    5  N9  UNL     1     -36.417  15.629  -4.724  1.00 20.00     0.098 N 
HETATM    6  S10 UNL     1     -34.804  13.528  -5.000  1.00 20.00    -0.128 SA
HETATM    7  H27 UNL     1     -35.745  16.397  -4.722  1.00 20.00     0.317 HD
ENDROOT
BRANCH   3   8
HETATM    8  C6  UNL     1     -35.126  15.053  -2.724  1.00 20.00     0.046 C 
BRANCH   8   9
HETATM    9  C8  UNL     1     -34.168  16.174  -3.125  1.00 20.00     0.002 C 
BRANCH   9  10
HETATM   10  C7  UNL     1     -33.730  16.990  -1.909  1.00 20.00    -0.004 C 
HETATM   11  C5  UNL     1     -34.621  16.721  -0.707  1.00 20.00     0.005 C 
ENDBRANCH   9  10
ENDBRANCH   8   9
ENDBRANCH   3   8
TORSDOF 3
ENDMDL
MODEL 7
REMARK VINA RESULT:      -3.8     11.363     12.352
REMARK  3 active torsions:
REMARK  status: ('A' for Active; 'I' for Inactive)
REMARK    1  A    between atoms: C3_3  and  C6_6 
REMARK    2  A    between atoms: C6_6  and  C8_8 
REMARK    3  A    between atoms: C7_7  and  C8_8 
ROOT
HETATM    1  C1  UNL     1     -36.308  17.233  -2.410  1.00 20.00     0.285 C 
HETATM    2  C2  UNL     1     -34.878  17.449  -1.912  1.00 20.00     0.073 C 
HETATM    3  C3  UNL     1     -35.288  15.574  -3.736  1.00 20.00     0.282 C 
HETATM    4  C4  UNL     1     -34.631  16.862  -0.527  1.00 20.00     0.023 C 
HETATM    5  N9  UNL     1     -36.422  15.840  -2.849  1.00 20.00     0.098 N 
HETATM    6  S10 UNL     1     -33.877  16.566  -3.146  1.00 20.00    -0.128 SA
HETATM    7  H27 UNL     1     -36.362  15.234  -2.031  1.00 20.00     0.317 HD
ENDROOT
BRANCH   3   8
HETATM    8  C6  UNL     1     -34.950  14.093  -3.730  1.00 20.00     0.046 C 
BRANCH   8   9
HETATM    9  C8  UNL     1     -34.591  13.596  -5.130  1.00 20.00     0.002 C 
BRANCH   9  10
HETATM   10  C7  UNL     1     -35.360  14.364  -6.205  1.00 20.00    -0.004 C 
HETATM   11  C5  UNL     1     -34.425  14.933  -7.259  1.00 20.00     0.005 C 
ENDBRANCH   9  10
ENDBRANCH   8   9
ENDBRANCH   3   8
TORSDOF 3
ENDMDL
MODEL 8
REMARK VINA RESULT:      -3.8     11.288     12.918
REMARK  3 active torsions:
REMARK  status: ('A' for Active; 'I' for Inactive)
REMARK    1  A    between atoms: C3_3  and  C6_6 
REMARK    2  A    between atoms: C6_6  and  C8_8 
REMARK    3  A    between atoms: C7_7  and  C8_8 
ROOT
HETATM    1  C1  UNL     1     -35.644  15.528  -3.083  1.00 20.00     0.285 C 
HETATM    2  C2  UNL     1     -34.634  14.387  -3.216  1.00 20.00     0.073 C 
HETATM    3  C3  UNL     1     -34.024  16.722  -4.307  1.00 20.00     0.282 C 
HETATM    4  C4  UNL     1     -35.034  13.351  -4.259  1.00 20.00     0.023 C 
HETATM    5  N9  UNL     1     -35.455  16.428  -4.223  1.00 20.00     0.098 N 
HETATM    6  S10 UNL     1     -33.119  15.243  -3.743  1.00 20.00    -0.128 SA
HETATM    7  H27 UNL     1     -35.752  15.946  -5.072  1.00 20.00     0.317 HD
ENDROOT
BRANCH   3   8
HETATM    8  C6  UNL     1     -33.641  17.081  -5.733  1.00 20.00     0.046 C 
BRANCH   8   9
HETATM    9  C8  UNL     1     -34.698  16.607  -6.730  1.00 20.00     0.002 C 
BRANCH   9  10
HETATM   10  C7  UNL     1     -34.317  15.259  -7.344  1.00 20.00    -0.004 C 
HETATM   11  C5  UNL     1     -35.545  14.488  -7.800  1.00 20.00     0.005 C 
ENDBRANCH   9  10
ENDBRANCH   8   9
ENDBRANCH   3   8
TORSDOF 3
ENDMDL
MODEL 9
REMARK VINA RESULT:      -3.8     11.350     12.506
REMARK  3 active torsions:
REMARK  status: ('A' for Active; 'I' for Inactive)
REMARK    1  A    between atoms: C3_3  and  C6_6 
REMARK    2  A    between atoms: C6_6  and  C8_8 
REMARK    3  A    between atoms: C7_7  and  C8_8 
ROOT
HETATM    1  C1  UNL     1     -36.387  17.299  -2.639  1.00 20.00     0.285 C 
HETATM    2  C2  UNL     1     -35.136  17.684  -1.848  1.00 20.00     0.073 C 
HETATM    3  C3  UNL     1     -34.837  16.983  -4.384  1.00 20.00     0.282 C 
HETATM    4  C4  UNL     1     -34.673  16.593  -0.890  1.00 20.00     0.023 C 
HETATM    5  N9  UNL     1     -35.978  16.375  -3.699  1.00 20.00     0.098 N 
HETATM    6  S10 UNL     1     -33.891  17.934  -3.148  1.00 20.00    -0.128 SA
HETATM    7  H27 UNL     1     -35.688  15.495  -3.273  1.00 20.00     0.317 HD
ENDROOT
BRANCH   3   8
HETATM    8  C6  UNL     1     -33.970  15.909  -5.021  1.00 20.00     0.046 C 
BRANCH   8   9
HETATM    9  C8  UNL     1     -33.027  15.275  -3.999  1.00 20.00     0.002 C 
BRANCH   9  10
HETATM   10  C7  UNL     1     -33.427  13.830  -3.698  1.00 20.00    -0.004 C 
HETATM   11  C5  UNL     1     -34.382  13.286  -4.749  1.00 20.00     0.005 C 
ENDBRANCH   9  10
ENDBRANCH   8   9
ENDBRANCH   3   8
TORSDOF 3
ENDMDL
