MODEL 1
REMARK VINA RESULT:      -4.1      0.000      0.000
REMARK  2 active torsions:
REMARK  status: ('A' for Active; 'I' for Inactive)
REMARK    1  A    between atoms: C3_3  and  C6_6 
REMARK    2  A    between atoms: C6_6  and  C7_7 
ROOT
HETATM    1  C1  UNL     1     -33.310  13.937  -3.738  1.00 20.00     0.285 C 
HETATM    2  C2  UNL     1     -34.776  13.791  -4.143  1.00 20.00     0.073 C 
HETATM    3  C3  UNL     1     -33.912  16.222  -3.538  1.00 20.00     0.282 C 
HETATM    4  C4  UNL     1     -34.968  13.641  -5.648  1.00 20.00     0.023 C 
HETATM    5  N8  UNL     1     -32.885  15.306  -4.044  1.00 20.00     0.098 N 
HETATM    6  S9  UNL     1     -35.513  15.352  -3.578  1.00 20.00    -0.128 SA
HETATM    7  H24 UNL     1     -32.006  15.487  -3.550  1.00 20.00     0.317 HD
ENDROOT
BRANCH   3   8
HETATM    8  C6  UNL     1     -33.608  16.695  -2.119  1.00 20.00     0.046 C 
BRANCH   8   9
HETATM    9  C7  UNL     1     -34.765  16.391  -1.170  1.00 20.00    -0.002 C 
HETATM   10  C5  UNL     1     -34.751  17.314   0.037  1.00 20.00     0.005 C 
ENDBRANCH   8   9
ENDBRANCH   3   8
TORSDOF 2
ENDMDL
MODEL 2
REMARK VINA RESULT:      -4.0      1.159      1.397
REMARK  2 active torsions:
REMARK  status: ('A' for Active; 'I' for Inactive)
REMARK    1  A    between atoms: C3_3  and  C6_6 
REMARK    2  A    between atoms: C6_6  and  C7_7 
ROOT
HETATM    1  C1  UNL     1     -34.432  13.694  -4.948  1.00 20.00     0.285 C 
HETATM    2  C2  UNL     1     -35.259  14.572  -5.886  1.00 20.00     0.073 C 
HETATM    3  C3  UNL     1     -34.013  15.768  -3.876  1.00 20.00     0.282 C 
HETATM    4  C4  UNL     1     -34.558  14.860  -7.209  1.00 20.00     0.023 C 
HETATM    5  N8  UNL     1     -33.388  14.528  -4.345  1.00 20.00     0.098 N 
HETATM    6  S9  UNL     1     -35.452  16.111  -4.941  1.00 20.00    -0.128 SA
HETATM    7  H24 UNL     1     -33.001  14.025  -3.540  1.00 20.00     0.317 HD
ENDROOT
BRANCH   3   8
HETATM    8  C6  UNL     1     -34.452  15.672  -2.418  1.00 20.00     0.046 C 
BRANCH   8   9
HETATM    9  C7  UNL     1     -33.985  16.882  -1.613  1.00 20.00    -0.002 C 
HETATM   10  C5  UNL     1     -34.725  16.991  -0.290  1.00 20.00     0.005 C 
ENDBRANCH   8   9
ENDBRANCH   3   8
TORSDOF 2
ENDMDL
MODEL 3
REMARK VINA RESULT:      -3.9      0.999      4.143
REMARK  2 active torsions:
REMARK  status: ('A' for Active; 'I' for Inactive)
REMARK    1  A    between atoms: C3_3  and  C6_6 
REMARK    2  A    between atoms: C6_6  and  C7_7 
ROOT
HETATM    1  C1  UNL     1     -33.043  15.866  -4.107  1.00 20.00     0.285 C 
HETATM    2  C2  UNL     1     -34.196  16.472  -3.307  1.00 20.00     0.073 C 
HETATM    3  C3  UNL     1     -34.324  13.884  -3.866  1.00 20.00     0.282 C 
HETATM    4  C4  UNL     1     -33.851  16.694  -1.839  1.00 20.00     0.023 C 
HETATM    5  N8  UNL     1     -32.968  14.437  -3.790  1.00 20.00     0.098 N 
HETATM    6  S9  UNL     1     -35.499  15.215  -3.453  1.00 20.00    -0.128 SA
HETATM    7  H24 UNL     1     -32.383  13.982  -4.498  1.00 20.00     0.317 HD
ENDROOT
BRANCH   3   8
HETATM    8  C6  UNL     1     -34.635  13.322  -5.250  1.00 20.00     0.046 C 
BRANCH   8   9
HETATM    9  C7  UNL     1     -35.455  14.306  -6.081  1.00 20.00    -0.002 C 
HETATM   10  C5  UNL     1     -34.659  14.833  -7.264  1.00 20.00     0.005 C 
ENDBRANCH   8   9
ENDBRANCH   3   8
TORSDOF 2
ENDMDL
MODEL 4
REMARK VINA RESULT:      -3.7      1.631      1.833
REMARK  2 active torsions:
REMARK  status: ('A' for Active; 'I' for Inactive)
REMARK    1  A    between atoms: C3_3  and  C6_6 
REMARK    2  A    between atoms: C6_6  and  C7_7 
ROOT
HETATM    1  C1  UNL     1     -35.840  15.687  -4.227  1.00 20.00     0.285 C 
HETATM    2  C2  UNL     1     -34.926  15.832  -5.443  1.00 20.00     0.073 C 
HETATM    3  C3  UNL     1     -33.781  15.771  -3.053  1.00 20.00     0.282 C 
HETATM    4  C4  UNL     1     -34.706  14.519  -6.185  1.00 20.00     0.023 C 
HETATM    5  N8  UNL     1     -35.067  15.072  -3.144  1.00 20.00     0.098 N 
HETATM    6  S9  UNL     1     -33.363  16.399  -4.712  1.00 20.00    -0.128 SA
HETATM    7  H24 UNL     1     -35.580  15.205  -2.267  1.00 20.00     0.317 HD
ENDROOT
BRANCH   3   8
HETATM    8  C6  UNL     1     -33.825  16.922  -2.053  1.00 20.00     0.046 C 
BRANCH   8   9
HETATM    9  C7  UNL     1     -34.671  16.569  -0.832  1.00 20.00    -0.002 C 
HETATM   10  C5  UNL     1     -34.532  17.614   0.262  1.00 20.00     0.005 C 
ENDBRANCH   8   9
ENDBRANCH   3   8
TORSDOF 2
ENDMDL
MODEL 5
REMARK VINA RESULT:      -3.7      1.678      1.915
REMARK  2 active torsions:
REMARK  status: ('A' for Active; 'I' for Inactive)
REMARK    1  A    between atoms: C3_3  and  C6_6 
REMARK    2  A    between atoms: C6_6  and  C7_7 
ROOT
HETATM    1  C1  UNL     1     -35.905  15.590  -4.143  1.00 20.00     0.285 C 
HETATM    2  C2  UNL     1     -34.736  14.779  -4.702  1.00 20.00     0.073 C 
HETATM    3  C3  UNL     1     -34.438  15.851  -2.297  1.00 20.00     0.282 C 
HETATM    4  C4  UNL     1     -34.953  13.274  -4.604  1.00 20.00     0.023 C 
HETATM    5  N8  UNL     1     -35.823  15.559  -2.680  1.00 20.00     0.098 N 
HETATM    6  S9  UNL     1     -33.349  15.275  -3.640  1.00 20.00    -0.128 SA
HETATM    7  H24 UNL     1     -36.432  16.295  -2.308  1.00 20.00     0.317 HD
ENDROOT
BRANCH   3   8
HETATM    8  C6  UNL     1     -34.216  17.339  -2.044  1.00 20.00     0.046 C 
BRANCH   8   9
HETATM    9  C7  UNL     1     -33.794  17.603  -0.601  1.00 20.00    -0.002 C 
HETATM   10  C5  UNL     1     -34.940  17.355   0.367  1.00 20.00     0.005 C 
ENDBRANCH   8   9
ENDBRANCH   3   8
TORSDOF 2
ENDMDL
MODEL 6
REMARK VINA RESULT:      -3.6     11.288     11.972
REMARK  2 active torsions:
REMARK  status: ('A' for Active; 'I' for Inactive)
REMARK    1  A    between atoms: C3_3  and  C6_6 
REMARK    2  A    between atoms: C6_6  and  C7_7 
ROOT
HETATM    1  C1  UNL     1     -34.211   6.410   5.789  1.00 20.00     0.285 C 
HETATM    2  C2  UNL     1     -35.120   5.291   5.282  1.00 20.00     0.073 C 
HETATM    3  C3  UNL     1     -33.220   6.156   3.649  1.00 20.00     0.282 C 
HETATM    4  C4  UNL     1     -34.763   3.925   5.856  1.00 20.00     0.023 C 
HETATM    5  N8  UNL     1     -32.932   6.318   5.078  1.00 20.00     0.098 N 
HETATM    6  S9  UNL     1     -34.824   5.306   3.490  1.00 20.00    -0.128 SA
HETATM    7  H24 UNL     1     -32.423   7.197   5.217  1.00 20.00     0.317 HD
ENDROOT
BRANCH   3   8
HETATM    8  C6  UNL     1     -33.262   7.496   2.919  1.00 20.00     0.046 C 
BRANCH   8   9
HETATM    9  C7  UNL     1     -31.887   7.884   2.383  1.00 20.00    -0.002 C 
HETATM   10  C5  UNL     1     -31.998   8.784   1.164  1.00 20.00     0.005 C 
ENDBRANCH   8   9
ENDBRANCH   3   8
TORSDOF 2
ENDMDL
MODEL 7
REMARK VINA RESULT:      -3.5      1.681      4.335
REMARK  2 active torsions:
REMARK  status: ('A' for Active; 'I' for Inactive)
REMARK    1  A    between atoms: C3_3  and  C6_6 
REMARK    2  A    between atoms: C6_6  and  C7_7 
ROOT
HETATM    1  C1  UNL     1     -35.140  17.554  -3.314  1.00 20.00     0.285 C 
HETATM    2  C2  UNL     1     -35.236  16.324  -2.412  1.00 20.00     0.073 C 
HETATM    3  C3  UNL     1     -33.422  16.282  -4.344  1.00 20.00     0.282 C 
HETATM    4  C4  UNL     1     -34.578  16.528  -1.052  1.00 20.00     0.023 C 
HETATM    5  N8  UNL     1     -33.779  17.618  -3.856  1.00 20.00     0.098 N 
HETATM    6  S9  UNL     1     -34.336  15.057  -3.351  1.00 20.00    -0.128 SA
HETATM    7  H24 UNL     1     -33.778  18.272  -4.645  1.00 20.00     0.317 HD
ENDROOT
BRANCH   3   8
HETATM    8  C6  UNL     1     -33.752  16.108  -5.824  1.00 20.00     0.046 C 
BRANCH   8   9
HETATM    9  C7  UNL     1     -34.511  14.808  -6.077  1.00 20.00    -0.002 C 
HETATM   10  C5  UNL     1     -34.984  14.711  -7.518  1.00 20.00     0.005 C 
ENDBRANCH   8   9
ENDBRANCH   3   8
TORSDOF 2
ENDMDL
MODEL 8
REMARK VINA RESULT:      -3.5      2.363      2.807
REMARK  2 active torsions:
REMARK  status: ('A' for Active; 'I' for Inactive)
REMARK    1  A    between atoms: C3_3  and  C6_6 
REMARK    2  A    between atoms: C6_6  and  C7_7 
ROOT
HETATM    1  C1  UNL     1     -36.045  16.122  -5.534  1.00 20.00     0.285 C 
HETATM    2  C2  UNL     1     -34.998  17.085  -6.092  1.00 20.00     0.073 C 
HETATM    3  C3  UNL     1     -34.137  15.087  -4.578  1.00 20.00     0.282 C 
HETATM    4  C4  UNL     1     -34.676  16.832  -7.561  1.00 20.00     0.023 C 
HETATM    5  N8  UNL     1     -35.394  14.832  -5.288  1.00 20.00     0.098 N 
HETATM    6  S9  UNL     1     -33.538  16.737  -5.070  1.00 20.00    -0.128 SA
HETATM    7  H24 UNL     1     -36.008  14.273  -4.686  1.00 20.00     0.317 HD
ENDROOT
BRANCH   3   8
HETATM    8  C6  UNL     1     -34.312  15.024  -3.063  1.00 20.00     0.046 C 
BRANCH   8   9
HETATM    9  C7  UNL     1     -33.917  16.341  -2.401  1.00 20.00    -0.002 C 
HETATM   10  C5  UNL     1     -34.612  16.520  -1.060  1.00 20.00     0.005 C 
ENDBRANCH   8   9
ENDBRANCH   3   8
TORSDOF 2
ENDMDL
MODEL 9
REMARK VINA RESULT:      -3.4      2.194      2.614
REMARK  2 active torsions:
REMARK  status: ('A' for Active; 'I' for Inactive)
REMARK    1  A    between atoms: C3_3  and  C6_6 
REMARK    2  A    between atoms: C6_6  and  C7_7 
ROOT
HETATM    1  C1  UNL     1     -36.473  16.747  -3.586  1.00 20.00     0.285 C 
HETATM    2  C2  UNL     1     -35.349  16.946  -4.602  1.00 20.00     0.073 C 
HETATM    3  C3  UNL     1     -34.719  15.817  -2.288  1.00 20.00     0.282 C 
HETATM    4  C4  UNL     1     -35.368  15.913  -5.723  1.00 20.00     0.023 C 
HETATM    5  N8  UNL     1     -36.109  15.627  -2.715  1.00 20.00     0.098 N 
HETATM    6  S9  UNL     1     -33.850  16.741  -3.597  1.00 20.00    -0.128 SA
HETATM    7  H24 UNL     1     -36.716  15.651  -1.890  1.00 20.00     0.317 HD
ENDROOT
BRANCH   3   8
HETATM    8  C6  UNL     1     -34.626  16.572  -0.965  1.00 20.00     0.046 C 
BRANCH   8   9
HETATM    9  C7  UNL     1     -33.580  17.682  -1.028  1.00 20.00    -0.002 C 
HETATM   10  C5  UNL     1     -33.439  18.391   0.309  1.00 20.00     0.005 C 
ENDBRANCH   8   9
ENDBRANCH   3   8
TORSDOF 2
ENDMDL
