MODEL 1
REMARK VINA RESULT:      -4.1      0.000      0.000
REMARK  1 active torsions:
REMARK  status: ('A' for Active; 'I' for Inactive)
REMARK    1  A    between atoms: C4_4  and  C5_5 
ROOT
HETATM    1  C3  UNL     1     -33.940  15.748  -5.128  1.00 20.00     0.116 C 
HETATM    2  C5  UNL     1     -34.880  16.342  -2.742  1.00 20.00     0.286 C 
HETATM    3  C6  UNL     1     -35.055  14.836  -4.594  1.00 20.00     0.160 C 
HETATM    4  C7  UNL     1     -36.438  15.228  -5.147  1.00 20.00     0.049 C 
HETATM    5  C8  UNL     1     -34.770  13.378  -4.979  1.00 20.00     0.049 C 
HETATM    6  N9  UNL     1     -35.015  14.936  -3.125  1.00 20.00     0.107 N 
HETATM    7  S10 UNL     1     -33.922  17.185  -4.027  1.00 20.00    -0.131 SA
HETATM    8  H25 UNL     1     -34.191  14.430  -2.797  1.00 20.00     0.318 HD
ENDROOT
BRANCH   2   9
HETATM    9  C4  UNL     1     -34.196  16.451  -1.416  1.00 20.00     0.029 A 
HETATM   10  C1  UNL     1     -33.701  17.784  -0.927  1.00 20.00     0.008 A 
HETATM   11  C2  UNL     1     -34.882  17.132  -0.264  1.00 20.00     0.008 A 
ENDBRANCH   2   9
TORSDOF 1
ENDMDL
MODEL 2
REMARK VINA RESULT:      -3.9     12.903     14.662
REMARK  1 active torsions:
REMARK  status: ('A' for Active; 'I' for Inactive)
REMARK    1  A    between atoms: C4_4  and  C5_5 
ROOT
HETATM    1  C3  UNL     1     -43.299   5.886  -1.359  1.00 20.00     0.116 C 
HETATM    2  C5  UNL     1     -41.918   3.849  -2.296  1.00 20.00     0.286 C 
HETATM    3  C6  UNL     1     -42.282   5.256  -0.395  1.00 20.00     0.160 C 
HETATM    4  C7  UNL     1     -40.955   6.037  -0.362  1.00 20.00     0.049 C 
HETATM    5  C8  UNL     1     -42.861   5.218   1.026  1.00 20.00     0.049 C 
HETATM    6  N9  UNL     1     -42.079   3.868  -0.842  1.00 20.00     0.107 N 
HETATM    7  S10 UNL     1     -42.909   5.199  -2.988  1.00 20.00    -0.131 SA
HETATM    8  H25 UNL     1     -42.915   3.334  -0.601  1.00 20.00     0.318 HD
ENDROOT
BRANCH   2   9
HETATM    9  C4  UNL     1     -42.363   2.531  -2.847  1.00 20.00     0.029 A 
HETATM   10  C1  UNL     1     -42.786   2.416  -4.285  1.00 20.00     0.008 A 
HETATM   11  C2  UNL     1     -41.498   1.790  -3.829  1.00 20.00     0.008 A 
ENDBRANCH   2   9
TORSDOF 1
ENDMDL
MODEL 3
REMARK VINA RESULT:      -3.9      1.276      4.199
REMARK  1 active torsions:
REMARK  status: ('A' for Active; 'I' for Inactive)
REMARK    1  A    between atoms: C4_4  and  C5_5 
ROOT
HETATM    1  C3  UNL     1     -34.487  17.939  -2.801  1.00 20.00     0.116 C 
HETATM    2  C5  UNL     1     -34.868  15.348  -3.079  1.00 20.00     0.286 C 
HETATM    3  C6  UNL     1     -35.392  17.271  -1.754  1.00 20.00     0.160 C 
HETATM    4  C7  UNL     1     -34.630  16.939  -0.458  1.00 20.00     0.049 C 
HETATM    5  C8  UNL     1     -36.565  18.199  -1.406  1.00 20.00     0.049 C 
HETATM    6  N9  UNL     1     -35.942  16.058  -2.382  1.00 20.00     0.107 N 
HETATM    7  S10 UNL     1     -33.681  16.577  -3.680  1.00 20.00    -0.131 SA
HETATM    8  H25 UNL     1     -36.639  16.348  -3.069  1.00 20.00     0.318 HD
ENDROOT
BRANCH   2   9
HETATM    9  C4  UNL     1     -35.429  14.554  -4.216  1.00 20.00     0.029 A 
HETATM   10  C1  UNL     1     -34.599  14.301  -5.444  1.00 20.00     0.008 A 
HETATM   11  C2  UNL     1     -34.911  13.172  -4.502  1.00 20.00     0.008 A 
ENDBRANCH   2   9
TORSDOF 1
ENDMDL
MODEL 4
REMARK VINA RESULT:      -3.9      1.415      1.935
REMARK  1 active torsions:
REMARK  status: ('A' for Active; 'I' for Inactive)
REMARK    1  A    between atoms: C4_4  and  C5_5 
ROOT
HETATM    1  C3  UNL     1     -36.281  15.232  -5.160  1.00 20.00     0.116 C 
HETATM    2  C5  UNL     1     -34.825  15.497  -2.982  1.00 20.00     0.286 C 
HETATM    3  C6  UNL     1     -34.834  14.723  -5.247  1.00 20.00     0.160 C 
HETATM    4  C7  UNL     1     -34.741  13.201  -5.026  1.00 20.00     0.049 C 
HETATM    5  C8  UNL     1     -34.244  15.053  -6.625  1.00 20.00     0.049 C 
HETATM    6  N9  UNL     1     -34.065  15.462  -4.232  1.00 20.00     0.107 N 
HETATM    7  S10 UNL     1     -36.588  15.516  -3.399  1.00 20.00    -0.131 SA
HETATM    8  H25 UNL     1     -33.943  16.420  -4.565  1.00 20.00     0.318 HD
ENDROOT
BRANCH   2   9
HETATM    9  C4  UNL     1     -34.458  16.712  -2.189  1.00 20.00     0.029 A 
HETATM   10  C1  UNL     1     -35.524  17.517  -1.500  1.00 20.00     0.008 A 
HETATM   11  C2  UNL     1     -34.560  16.696  -0.689  1.00 20.00     0.008 A 
ENDBRANCH   2   9
TORSDOF 1
ENDMDL
MODEL 5
REMARK VINA RESULT:      -3.8      1.392      4.463
REMARK  1 active torsions:
REMARK  status: ('A' for Active; 'I' for Inactive)
REMARK    1  A    between atoms: C4_4  and  C5_5 
ROOT
HETATM    1  C3  UNL     1     -35.368  18.475  -1.719  1.00 20.00     0.116 C 
HETATM    2  C5  UNL     1     -34.369  16.150  -2.447  1.00 20.00     0.286 C 
HETATM    3  C6  UNL     1     -34.696  17.650  -0.610  1.00 20.00     0.160 C 
HETATM    4  C7  UNL     1     -33.246  18.100  -0.352  1.00 20.00     0.049 C 
HETATM    5  C8  UNL     1     -35.489  17.784   0.696  1.00 20.00     0.049 C 
HETATM    6  N9  UNL     1     -34.755  16.242  -1.038  1.00 20.00     0.107 N 
HETATM    7  S10 UNL     1     -34.891  17.676  -3.272  1.00 20.00    -0.131 SA
HETATM    8  H25 UNL     1     -35.720  15.924  -0.943  1.00 20.00     0.318 HD
ENDROOT
BRANCH   2   9
HETATM    9  C4  UNL     1     -35.016  14.959  -3.081  1.00 20.00     0.029 A 
HETATM   10  C1  UNL     1     -34.924  14.749  -4.567  1.00 20.00     0.008 A 
HETATM   11  C2  UNL     1     -34.172  13.843  -3.631  1.00 20.00     0.008 A 
ENDBRANCH   2   9
TORSDOF 1
ENDMDL
MODEL 6
REMARK VINA RESULT:      -3.8      1.510      1.952
REMARK  1 active torsions:
REMARK  status: ('A' for Active; 'I' for Inactive)
REMARK    1  A    between atoms: C4_4  and  C5_5 
ROOT
HETATM    1  C3  UNL     1     -35.852  14.118  -4.088  1.00 20.00     0.116 C 
HETATM    2  C5  UNL     1     -35.088  16.226  -2.707  1.00 20.00     0.286 C 
HETATM    3  C6  UNL     1     -36.863  15.272  -3.998  1.00 20.00     0.160 C 
HETATM    4  C7  UNL     1     -36.823  16.175  -5.245  1.00 20.00     0.049 C 
HETATM    5  C8  UNL     1     -38.284  14.713  -3.846  1.00 20.00     0.049 C 
HETATM    6  N9  UNL     1     -36.536  16.026  -2.776  1.00 20.00     0.107 N 
HETATM    7  S10 UNL     1     -34.287  14.801  -3.486  1.00 20.00    -0.131 SA
HETATM    8  H25 UNL     1     -36.826  15.466  -1.973  1.00 20.00     0.318 HD
ENDROOT
BRANCH   2   9
HETATM    9  C4  UNL     1     -34.655  16.362  -1.281  1.00 20.00     0.029 A 
HETATM   10  C1  UNL     1     -33.644  17.405  -0.894  1.00 20.00     0.008 A 
HETATM   11  C2  UNL     1     -35.079  17.556  -0.471  1.00 20.00     0.008 A 
ENDBRANCH   2   9
TORSDOF 1
ENDMDL
MODEL 7
REMARK VINA RESULT:      -3.6      2.294      4.388
REMARK  1 active torsions:
REMARK  status: ('A' for Active; 'I' for Inactive)
REMARK    1  A    between atoms: C4_4  and  C5_5 
ROOT
HETATM    1  C3  UNL     1     -35.548  14.616  -4.065  1.00 20.00     0.116 C 
HETATM    2  C5  UNL     1     -34.604  16.465  -5.685  1.00 20.00     0.286 C 
HETATM    3  C6  UNL     1     -34.048  14.928  -3.936  1.00 20.00     0.160 C 
HETATM    4  C7  UNL     1     -33.758  15.906  -2.782  1.00 20.00     0.049 C 
HETATM    5  C8  UNL     1     -33.263  13.633  -3.689  1.00 20.00     0.049 C 
HETATM    6  N9  UNL     1     -33.619  15.482  -5.232  1.00 20.00     0.107 N 
HETATM    7  S10 UNL     1     -36.233  15.948  -5.083  1.00 20.00    -0.131 SA
HETATM    8  H25 UNL     1     -33.590  14.717  -5.907  1.00 20.00     0.318 HD
ENDROOT
BRANCH   2   9
HETATM    9  C4  UNL     1     -34.597  16.552  -7.179  1.00 20.00     0.029 A 
HETATM   10  C1  UNL     1     -35.790  17.098  -7.911  1.00 20.00     0.008 A 
HETATM   11  C2  UNL     1     -34.514  17.890  -7.859  1.00 20.00     0.008 A 
ENDBRANCH   2   9
TORSDOF 1
ENDMDL
MODEL 8
REMARK VINA RESULT:      -3.6      1.570      2.114
REMARK  1 active torsions:
REMARK  status: ('A' for Active; 'I' for Inactive)
REMARK    1  A    between atoms: C4_4  and  C5_5 
ROOT
HETATM    1  C3  UNL     1     -35.314  16.644  -4.108  1.00 20.00     0.116 C 
HETATM    2  C5  UNL     1     -34.891  16.493  -1.513  1.00 20.00     0.286 C 
HETATM    3  C6  UNL     1     -34.151  15.744  -3.662  1.00 20.00     0.160 C 
HETATM    4  C7  UNL     1     -34.558  14.260  -3.600  1.00 20.00     0.049 C 
HETATM    5  C8  UNL     1     -32.974  15.887  -4.637  1.00 20.00     0.049 C 
HETATM    6  N9  UNL     1     -33.715  16.238  -2.345  1.00 20.00     0.107 N 
HETATM    7  S10 UNL     1     -36.246  17.010  -2.599  1.00 20.00    -0.131 SA
HETATM    8  H25 UNL     1     -33.220  17.120  -2.488  1.00 20.00     0.318 HD
ENDROOT
BRANCH   2   9
HETATM    9  C4  UNL     1     -34.588  17.555  -0.504  1.00 20.00     0.029 A 
HETATM   10  C1  UNL     1     -35.684  18.451   0.005  1.00 20.00     0.008 A 
HETATM   11  C2  UNL     1     -35.077  17.417   0.911  1.00 20.00     0.008 A 
ENDBRANCH   2   9
TORSDOF 1
ENDMDL
MODEL 9
REMARK VINA RESULT:      -3.6     12.702     14.327
REMARK  1 active torsions:
REMARK  status: ('A' for Active; 'I' for Inactive)
REMARK    1  A    between atoms: C4_4  and  C5_5 
ROOT
HETATM    1  C3  UNL     1     -41.259   6.235  -0.606  1.00 20.00     0.116 C 
HETATM    2  C5  UNL     1     -42.485   4.058  -1.438  1.00 20.00     0.286 C 
HETATM    3  C6  UNL     1     -42.778   6.183  -0.376  1.00 20.00     0.160 C 
HETATM    4  C7  UNL     1     -43.131   5.738   1.055  1.00 20.00     0.049 C 
HETATM    5  C8  UNL     1     -43.393   7.567  -0.623  1.00 20.00     0.049 C 
HETATM    6  N9  UNL     1     -43.325   5.254  -1.380  1.00 20.00     0.107 N 
HETATM    7  S10 UNL     1     -40.782   4.549  -1.062  1.00 20.00    -0.131 SA
HETATM    8  H25 UNL     1     -43.293   5.718  -2.289  1.00 20.00     0.318 HD
ENDROOT
BRANCH   2   9
HETATM    9  C4  UNL     1     -42.567   3.435  -2.796  1.00 20.00     0.029 A 
HETATM   10  C1  UNL     1     -41.510   2.469  -3.252  1.00 20.00     0.008 A 
HETATM   11  C2  UNL     1     -42.895   1.975  -2.941  1.00 20.00     0.008 A 
ENDBRANCH   2   9
TORSDOF 1
ENDMDL
