MODEL 1
REMARK VINA RESULT:      -4.1      0.000      0.000
REMARK  1 active torsions:
REMARK  status: ('A' for Active; 'I' for Inactive)
REMARK    1  A    between atoms: C3_3  and  C7_7 
ROOT
HETATM    1  C1  UNL     1     -33.683  13.791  -4.061  1.00 20.00     0.284 C 
HETATM    2  C2  UNL     1     -35.725  15.863  -3.356  1.00 20.00     0.109 C 
HETATM    3  C3  UNL     1     -34.461  15.536  -2.555  1.00 20.00     0.229 C 
HETATM    4  C4  UNL     1     -34.842  13.868  -5.061  1.00 20.00     0.071 C 
HETATM    5  C5  UNL     1     -34.536  14.768  -6.257  1.00 20.00     0.023 C 
HETATM    6  N8  UNL     1     -33.367  15.066  -3.414  1.00 20.00     0.089 N 
HETATM    7  S9  UNL     1     -36.375  14.407  -4.228  1.00 20.00    -0.161 SA
HETATM    8  H24 UNL     1     -32.524  14.949  -2.852  1.00 20.00     0.316 HD
ENDROOT
BRANCH   3   9
HETATM    9  C7  UNL     1     -33.984  16.788  -1.814  1.00 20.00     0.032 C 
HETATM   10  C6  UNL     1     -34.632  16.912  -0.476  1.00 20.00     0.007 C 
ENDBRANCH   3   9
TORSDOF 1
ENDMDL
MODEL 2
REMARK VINA RESULT:      -3.9      1.691      2.155
REMARK  1 active torsions:
REMARK  status: ('A' for Active; 'I' for Inactive)
REMARK    1  A    between atoms: C3_3  and  C7_7 
ROOT
HETATM    1  C1  UNL     1     -36.363  15.393  -3.997  1.00 20.00     0.284 C 
HETATM    2  C2  UNL     1     -33.594  15.958  -3.010  1.00 20.00     0.109 C 
HETATM    3  C3  UNL     1     -34.896  16.449  -2.369  1.00 20.00     0.229 C 
HETATM    4  C4  UNL     1     -35.268  14.767  -4.867  1.00 20.00     0.071 C 
HETATM    5  C5  UNL     1     -34.963  13.318  -4.488  1.00 20.00     0.023 C 
HETATM    6  N8  UNL     1     -36.006  15.512  -2.582  1.00 20.00     0.089 N 
HETATM    7  S9  UNL     1     -33.747  15.778  -4.812  1.00 20.00    -0.161 SA
HETATM    8  H24 UNL     1     -36.823  15.835  -2.063  1.00 20.00     0.316 HD
ENDROOT
BRANCH   3   9
HETATM    9  C7  UNL     1     -34.694  16.619  -0.861  1.00 20.00     0.032 C 
HETATM   10  C6  UNL     1     -33.718  17.706  -0.558  1.00 20.00     0.007 C 
ENDBRANCH   3   9
TORSDOF 1
ENDMDL
MODEL 3
REMARK VINA RESULT:      -3.9     11.659     12.457
REMARK  1 active torsions:
REMARK  status: ('A' for Active; 'I' for Inactive)
REMARK    1  A    between atoms: C3_3  and  C7_7 
ROOT
HETATM    1  C1  UNL     1     -34.171   6.425   6.001  1.00 20.00     0.284 C 
HETATM    2  C2  UNL     1     -34.050   5.548   3.142  1.00 20.00     0.109 C 
HETATM    3  C3  UNL     1     -33.307   6.741   3.750  1.00 20.00     0.229 C 
HETATM    4  C4  UNL     1     -35.040   5.198   5.705  1.00 20.00     0.071 C 
HETATM    5  C5  UNL     1     -34.328   3.879   6.000  1.00 20.00     0.023 C 
HETATM    6  N8  UNL     1     -32.974   6.525   5.163  1.00 20.00     0.089 N 
HETATM    7  S9  UNL     1     -35.634   5.235   3.978  1.00 20.00    -0.161 SA
HETATM    8  H24 UNL     1     -32.404   7.302   5.498  1.00 20.00     0.316 HD
ENDROOT
BRANCH   3   9
HETATM    9  C7  UNL     1     -32.003   6.980   2.982  1.00 20.00     0.032 C 
HETATM   10  C6  UNL     1     -32.093   8.188   2.112  1.00 20.00     0.007 C 
ENDBRANCH   3   9
TORSDOF 1
ENDMDL
MODEL 4
REMARK VINA RESULT:      -3.7      1.446      1.771
REMARK  1 active torsions:
REMARK  status: ('A' for Active; 'I' for Inactive)
REMARK    1  A    between atoms: C3_3  and  C7_7 
ROOT
HETATM    1  C1  UNL     1     -33.891  15.892  -5.927  1.00 20.00     0.284 C 
HETATM    2  C2  UNL     1     -34.492  14.622  -3.284  1.00 20.00     0.109 C 
HETATM    3  C3  UNL     1     -33.603  15.848  -3.512  1.00 20.00     0.229 C 
HETATM    4  C4  UNL     1     -34.809  14.670  -6.035  1.00 20.00     0.071 C 
HETATM    5  C5  UNL     1     -36.291  15.038  -6.045  1.00 20.00     0.023 C 
HETATM    6  N8  UNL     1     -34.033  16.636  -4.673  1.00 20.00     0.089 N 
HETATM    7  S9  UNL     1     -34.452  13.479  -4.697  1.00 20.00    -0.161 SA
HETATM    8  H24 UNL     1     -33.471  17.486  -4.731  1.00 20.00     0.316 HD
ENDROOT
BRANCH   3   9
HETATM    9  C7  UNL     1     -33.648  16.752  -2.277  1.00 20.00     0.032 C 
HETATM   10  C6  UNL     1     -34.735  16.345  -1.340  1.00 20.00     0.007 C 
ENDBRANCH   3   9
TORSDOF 1
ENDMDL
MODEL 5
REMARK VINA RESULT:      -3.7      1.506      1.708
REMARK  1 active torsions:
REMARK  status: ('A' for Active; 'I' for Inactive)
REMARK    1  A    between atoms: C3_3  and  C7_7 
ROOT
HETATM    1  C1  UNL     1     -33.215  16.378  -5.058  1.00 20.00     0.284 C 
HETATM    2  C2  UNL     1     -35.252  14.790  -3.546  1.00 20.00     0.109 C 
HETATM    3  C3  UNL     1     -34.176  15.692  -2.933  1.00 20.00     0.229 C 
HETATM    4  C4  UNL     1     -34.146  15.565  -5.964  1.00 20.00     0.071 C 
HETATM    5  C5  UNL     1     -35.342  16.373  -6.465  1.00 20.00     0.023 C 
HETATM    6  N8  UNL     1     -33.834  16.820  -3.808  1.00 20.00     0.089 N 
HETATM    7  S9  UNL     1     -34.706  14.049  -5.113  1.00 20.00    -0.161 SA
HETATM    8  H24 UNL     1     -33.185  17.439  -3.321  1.00 20.00     0.316 HD
ENDROOT
BRANCH   3   9
HETATM    9  C7  UNL     1     -34.677  16.255  -1.599  1.00 20.00     0.032 C 
HETATM   10  C6  UNL     1     -33.770  17.318  -1.078  1.00 20.00     0.007 C 
ENDBRANCH   3   9
TORSDOF 1
ENDMDL
MODEL 6
REMARK VINA RESULT:      -3.7      2.125      3.053
REMARK  1 active torsions:
REMARK  status: ('A' for Active; 'I' for Inactive)
REMARK    1  A    between atoms: C3_3  and  C7_7 
ROOT
HETATM    1  C1  UNL     1     -32.918  14.941  -3.685  1.00 20.00     0.284 C 
HETATM    2  C2  UNL     1     -35.283  16.567  -4.534  1.00 20.00     0.109 C 
HETATM    3  C3  UNL     1     -33.817  17.008  -4.597  1.00 20.00     0.229 C 
HETATM    4  C4  UNL     1     -34.255  14.219  -3.486  1.00 20.00     0.071 C 
HETATM    5  C5  UNL     1     -34.623  13.315  -4.661  1.00 20.00     0.023 C 
HETATM    6  N8  UNL     1     -32.907  15.877  -4.811  1.00 20.00     0.089 N 
HETATM    7  S9  UNL     1     -35.591  15.421  -3.158  1.00 20.00    -0.161 SA
HETATM    8  H24 UNL     1     -31.957  16.228  -4.935  1.00 20.00     0.316 HD
ENDROOT
BRANCH   3   9
HETATM    9  C7  UNL     1     -33.628  18.000  -5.748  1.00 20.00     0.032 C 
HETATM   10  C6  UNL     1     -34.362  17.565  -6.972  1.00 20.00     0.007 C 
ENDBRANCH   3   9
TORSDOF 1
ENDMDL
MODEL 7
REMARK VINA RESULT:      -3.7     12.461     13.656
REMARK  1 active torsions:
REMARK  status: ('A' for Active; 'I' for Inactive)
REMARK    1  A    between atoms: C3_3  and  C7_7 
ROOT
HETATM    1  C1  UNL     1     -40.801   5.076  -0.807  1.00 20.00     0.284 C 
HETATM    2  C2  UNL     1     -42.931   4.784  -2.889  1.00 20.00     0.109 C 
HETATM    3  C3  UNL     1     -41.798   3.790  -2.615  1.00 20.00     0.229 C 
HETATM    4  C4  UNL     1     -41.786   6.250  -0.838  1.00 20.00     0.071 C 
HETATM    5  C5  UNL     1     -42.929   6.093   0.163  1.00 20.00     0.023 C 
HETATM    6  N8  UNL     1     -41.387   3.795  -1.206  1.00 20.00     0.089 N 
HETATM    7  S9  UNL     1     -42.439   6.495  -2.526  1.00 20.00    -0.161 SA
HETATM    8  H24 UNL     1     -40.697   3.058  -1.054  1.00 20.00     0.316 HD
ENDROOT
BRANCH   3   9
HETATM    9  C7  UNL     1     -42.257   2.374  -2.975  1.00 20.00     0.032 C 
HETATM   10  C6  UNL     1     -41.312   1.717  -3.924  1.00 20.00     0.007 C 
ENDBRANCH   3   9
TORSDOF 1
ENDMDL
MODEL 8
REMARK VINA RESULT:      -3.7      2.010      4.068
REMARK  1 active torsions:
REMARK  status: ('A' for Active; 'I' for Inactive)
REMARK    1  A    between atoms: C3_3  and  C7_7 
ROOT
HETATM    1  C1  UNL     1     -32.945  15.244  -3.699  1.00 20.00     0.284 C 
HETATM    2  C2  UNL     1     -34.640  17.129  -5.290  1.00 20.00     0.109 C 
HETATM    3  C3  UNL     1     -33.791  15.986  -5.855  1.00 20.00     0.229 C 
HETATM    4  C4  UNL     1     -33.665  16.288  -2.838  1.00 20.00     0.071 C 
HETATM    5  C5  UNL     1     -34.992  15.781  -2.275  1.00 20.00     0.023 C 
HETATM    6  N8  UNL     1     -33.672  14.867  -4.913  1.00 20.00     0.089 N 
HETATM    7  S9  UNL     1     -33.915  17.833  -3.779  1.00 20.00    -0.161 SA
HETATM    8  H24 UNL     1     -33.177  14.097  -5.365  1.00 20.00     0.316 HD
ENDROOT
BRANCH   3   9
HETATM    9  C7  UNL     1     -34.429  15.461  -7.144  1.00 20.00     0.032 C 
HETATM   10  C6  UNL     1     -35.370  14.336  -6.871  1.00 20.00     0.007 C 
ENDBRANCH   3   9
TORSDOF 1
ENDMDL
MODEL 9
REMARK VINA RESULT:      -3.4      2.219      2.507
REMARK  1 active torsions:
REMARK  status: ('A' for Active; 'I' for Inactive)
REMARK    1  A    between atoms: C3_3  and  C7_7 
ROOT
HETATM    1  C1  UNL     1     -36.079  15.878  -5.282  1.00 20.00     0.284 C 
HETATM    2  C2  UNL     1     -33.452  17.197  -4.717  1.00 20.00     0.109 C 
HETATM    3  C3  UNL     1     -34.486  16.765  -3.673  1.00 20.00     0.229 C 
HETATM    4  C4  UNL     1     -35.274  16.197  -6.547  1.00 20.00     0.071 C 
HETATM    5  C5  UNL     1     -34.428  15.018  -7.026  1.00 20.00     0.023 C 
HETATM    6  N8  UNL     1     -35.254  15.592  -4.106  1.00 20.00     0.089 N 
HETATM    7  S9  UNL     1     -34.230  17.673  -6.289  1.00 20.00    -0.161 SA
HETATM    8  H24 UNL     1     -35.863  15.288  -3.346  1.00 20.00     0.316 HD
ENDROOT
BRANCH   3   9
HETATM    9  C7  UNL     1     -33.776  16.414  -2.362  1.00 20.00     0.032 C 
HETATM   10  C6  UNL     1     -34.677  16.591  -1.186  1.00 20.00     0.007 C 
ENDBRANCH   3   9
TORSDOF 1
ENDMDL
