MODEL 1
REMARK VINA RESULT:      -4.4      0.000      0.000
REMARK  3 active torsions:
REMARK  status: ('A' for Active; 'I' for Inactive)
REMARK    1  A    between atoms: C4_4  and  C7_7 
REMARK    2  A    between atoms: C7_7  and  O10_10 
REMARK    3  A    between atoms: C8_8  and  O10_10 
ROOT
HETATM    1  C1  UNL     1     -34.058   6.312   5.741  1.00 20.00     0.071 C 
HETATM    2  C2  UNL     1     -34.932   4.162   4.756  1.00 20.00     0.028 A 
HETATM    3  C3  UNL     1     -35.739   5.282   4.169  1.00 20.00     0.028 A 
HETATM    4  C4  UNL     1     -34.297   5.521   4.562  1.00 20.00     0.070 A 
HETATM    5  N9  UNL     1     -33.866   6.949   6.692  1.00 20.00    -0.196 NA
ENDROOT
BRANCH   4   6
HETATM    6  C7  UNL     1     -33.282   5.678   3.466  1.00 20.00     0.192 C 
BRANCH   6   7
HETATM    7  O10 UNL     1     -33.297   7.022   2.995  1.00 20.00    -0.385 OA
BRANCH   7   8
HETATM    8  C8  UNL     1     -31.994   7.461   2.640  1.00 20.00     0.113 C 
HETATM    9  C5  UNL     1     -32.106   8.642   1.688  1.00 20.00     0.039 C 
HETATM   10  C6  UNL     1     -31.227   7.823   3.903  1.00 20.00     0.039 C 
ENDBRANCH   7   8
ENDBRANCH   6   7
ENDBRANCH   4   6
TORSDOF 3
ENDMDL
MODEL 2
REMARK VINA RESULT:      -4.3     11.610     12.729
REMARK  3 active torsions:
REMARK  status: ('A' for Active; 'I' for Inactive)
REMARK    1  A    between atoms: C4_4  and  C7_7 
REMARK    2  A    between atoms: C7_7  and  O10_10 
REMARK    3  A    between atoms: C8_8  and  O10_10 
ROOT
HETATM    1  C1  UNL     1     -34.653  13.765  -4.898  1.00 20.00     0.071 C 
HETATM    2  C2  UNL     1     -34.387  15.070  -7.039  1.00 20.00     0.028 A 
HETATM    3  C3  UNL     1     -35.524  15.687  -6.279  1.00 20.00     0.028 A 
HETATM    4  C4  UNL     1     -34.386  15.032  -5.527  1.00 20.00     0.070 A 
HETATM    5  N9  UNL     1     -34.869  12.743  -4.392  1.00 20.00    -0.196 NA
ENDROOT
BRANCH   4   6
HETATM    6  C7  UNL     1     -33.417  15.920  -4.798  1.00 20.00     0.192 C 
BRANCH   6   7
HETATM    7  O10 UNL     1     -33.312  15.495  -3.443  1.00 20.00    -0.385 OA
BRANCH   7   8
HETATM    8  C8  UNL     1     -33.615  16.552  -2.543  1.00 20.00     0.113 C 
HETATM    9  C5  UNL     1     -33.833  17.834  -3.332  1.00 20.00     0.039 C 
HETATM   10  C6  UNL     1     -34.840  16.175  -1.724  1.00 20.00     0.039 C 
ENDBRANCH   7   8
ENDBRANCH   6   7
ENDBRANCH   4   6
TORSDOF 3
ENDMDL
MODEL 3
REMARK VINA RESULT:      -4.3     11.209     12.039
REMARK  3 active torsions:
REMARK  status: ('A' for Active; 'I' for Inactive)
REMARK    1  A    between atoms: C4_4  and  C7_7 
REMARK    2  A    between atoms: C7_7  and  O10_10 
REMARK    3  A    between atoms: C8_8  and  O10_10 
ROOT
HETATM    1  C1  UNL     1     -34.715  13.764  -4.063  1.00 20.00     0.071 C 
HETATM    2  C2  UNL     1     -32.792  15.310  -3.542  1.00 20.00     0.028 A 
HETATM    3  C3  UNL     1     -33.562  15.921  -4.676  1.00 20.00     0.028 A 
HETATM    4  C4  UNL     1     -34.282  15.073  -3.650  1.00 20.00     0.070 A 
HETATM    5  N9  UNL     1     -35.062  12.708  -4.396  1.00 20.00    -0.196 NA
ENDROOT
BRANCH   4   6
HETATM    6  C7  UNL     1     -35.181  15.766  -2.666  1.00 20.00     0.192 C 
BRANCH   6   7
HETATM    7  O10 UNL     1     -34.461  16.023  -1.465  1.00 20.00    -0.385 OA
BRANCH   7   8
HETATM    8  C8  UNL     1     -34.666  17.353  -1.010  1.00 20.00     0.113 C 
HETATM    9  C5  UNL     1     -35.067  17.324   0.456  1.00 20.00     0.039 C 
HETATM   10  C6  UNL     1     -33.396  18.160  -1.234  1.00 20.00     0.039 C 
ENDBRANCH   7   8
ENDBRANCH   6   7
ENDBRANCH   4   6
TORSDOF 3
ENDMDL
MODEL 4
REMARK VINA RESULT:      -4.2     11.388     12.022
REMARK  3 active torsions:
REMARK  status: ('A' for Active; 'I' for Inactive)
REMARK    1  A    between atoms: C4_4  and  C7_7 
REMARK    2  A    between atoms: C7_7  and  O10_10 
REMARK    3  A    between atoms: C8_8  and  O10_10 
ROOT
HETATM    1  C1  UNL     1     -36.714  14.417  -4.042  1.00 20.00     0.071 C 
HETATM    2  C2  UNL     1     -34.581  13.241  -4.696  1.00 20.00     0.028 A 
HETATM    3  C3  UNL     1     -34.952  14.154  -5.827  1.00 20.00     0.028 A 
HETATM    4  C4  UNL     1     -35.326  14.526  -4.409  1.00 20.00     0.070 A 
HETATM    5  N9  UNL     1     -37.833  14.328  -3.747  1.00 20.00    -0.196 NA
ENDROOT
BRANCH   4   6
HETATM    6  C7  UNL     1     -34.574  15.648  -3.751  1.00 20.00     0.192 C 
BRANCH   6   7
HETATM    7  O10 UNL     1     -34.799  15.610  -2.346  1.00 20.00    -0.385 OA
BRANCH   7   8
HETATM    8  C8  UNL     1     -34.047  16.609  -1.673  1.00 20.00     0.113 C 
HETATM    9  C5  UNL     1     -33.900  17.821  -2.580  1.00 20.00     0.039 C 
HETATM   10  C6  UNL     1     -34.740  16.961  -0.365  1.00 20.00     0.039 C 
ENDBRANCH   7   8
ENDBRANCH   6   7
ENDBRANCH   4   6
TORSDOF 3
ENDMDL
MODEL 5
REMARK VINA RESULT:      -4.1     11.358     12.076
REMARK  3 active torsions:
REMARK  status: ('A' for Active; 'I' for Inactive)
REMARK    1  A    between atoms: C4_4  and  C7_7 
REMARK    2  A    between atoms: C7_7  and  O10_10 
REMARK    3  A    between atoms: C8_8  and  O10_10 
ROOT
HETATM    1  C1  UNL     1     -35.607  13.687  -4.262  1.00 20.00     0.071 C 
HETATM    2  C2  UNL     1     -37.095  15.491  -5.206  1.00 20.00     0.028 A 
HETATM    3  C3  UNL     1     -37.910  14.714  -4.215  1.00 20.00     0.028 A 
HETATM    4  C4  UNL     1     -36.417  14.852  -4.015  1.00 20.00     0.070 A 
HETATM    5  N9  UNL     1     -34.956  12.748  -4.463  1.00 20.00    -0.196 NA
ENDROOT
BRANCH   4   6
HETATM    6  C7  UNL     1     -35.932  15.749  -2.912  1.00 20.00     0.192 C 
BRANCH   6   7
HETATM    7  O10 UNL     1     -34.582  15.426  -2.597  1.00 20.00    -0.385 OA
BRANCH   7   8
HETATM    8  C8  UNL     1     -33.903  16.534  -2.023  1.00 20.00     0.113 C 
HETATM    9  C5  UNL     1     -34.002  17.724  -2.965  1.00 20.00     0.039 C 
HETATM   10  C6  UNL     1     -34.506  16.839  -0.660  1.00 20.00     0.039 C 
ENDBRANCH   7   8
ENDBRANCH   6   7
ENDBRANCH   4   6
TORSDOF 3
ENDMDL
MODEL 6
REMARK VINA RESULT:      -4.0     11.397     12.893
REMARK  3 active torsions:
REMARK  status: ('A' for Active; 'I' for Inactive)
REMARK    1  A    between atoms: C4_4  and  C7_7 
REMARK    2  A    between atoms: C7_7  and  O10_10 
REMARK    3  A    between atoms: C8_8  and  O10_10 
ROOT
HETATM    1  C1  UNL     1     -33.712  14.322  -3.567  1.00 20.00     0.071 C 
HETATM    2  C2  UNL     1     -35.611  15.832  -2.880  1.00 20.00     0.028 A 
HETATM    3  C3  UNL     1     -34.503  16.030  -1.888  1.00 20.00     0.028 A 
HETATM    4  C4  UNL     1     -34.174  15.663  -3.319  1.00 20.00     0.070 A 
HETATM    5  N9  UNL     1     -33.342  13.241  -3.766  1.00 20.00    -0.196 NA
ENDROOT
BRANCH   4   6
HETATM    6  C7  UNL     1     -33.574  16.722  -4.200  1.00 20.00     0.192 C 
BRANCH   6   7
HETATM    7  O10 UNL     1     -33.309  16.175  -5.487  1.00 20.00    -0.385 OA
BRANCH   7   8
HETATM    8  C8  UNL     1     -34.453  16.247  -6.327  1.00 20.00     0.113 C 
HETATM    9  C5  UNL     1     -34.396  17.532  -7.139  1.00 20.00     0.039 C 
HETATM   10  C6  UNL     1     -34.498  15.015  -7.217  1.00 20.00     0.039 C 
ENDBRANCH   7   8
ENDBRANCH   6   7
ENDBRANCH   4   6
TORSDOF 3
ENDMDL
MODEL 7
REMARK VINA RESULT:      -4.0     11.379     12.617
REMARK  3 active torsions:
REMARK  status: ('A' for Active; 'I' for Inactive)
REMARK    1  A    between atoms: C4_4  and  C7_7 
REMARK    2  A    between atoms: C7_7  and  O10_10 
REMARK    3  A    between atoms: C8_8  and  O10_10 
ROOT
HETATM    1  C1  UNL     1     -35.085  13.719  -4.181  1.00 20.00     0.071 C 
HETATM    2  C2  UNL     1     -34.320  15.636  -2.734  1.00 20.00     0.028 A 
HETATM    3  C3  UNL     1     -34.582  16.188  -4.104  1.00 20.00     0.028 A 
HETATM    4  C4  UNL     1     -35.382  15.005  -3.606  1.00 20.00     0.070 A 
HETATM    5  N9  UNL     1     -34.844  12.683  -4.645  1.00 20.00    -0.196 NA
ENDROOT
BRANCH   4   6
HETATM    6  C7  UNL     1     -36.822  15.229  -3.241  1.00 20.00     0.192 C 
BRANCH   6   7
HETATM    7  O10 UNL     1     -37.617  14.179  -3.783  1.00 20.00    -0.385 OA
BRANCH   7   8
HETATM    8  C8  UNL     1     -38.844  14.671  -4.302  1.00 20.00     0.113 C 
HETATM    9  C5  UNL     1     -39.521  15.536  -3.250  1.00 20.00     0.039 C 
HETATM   10  C6  UNL     1     -38.570  15.447  -5.582  1.00 20.00     0.039 C 
ENDBRANCH   7   8
ENDBRANCH   6   7
ENDBRANCH   4   6
TORSDOF 3
ENDMDL
MODEL 8
REMARK VINA RESULT:      -4.0      1.503      1.919
REMARK  3 active torsions:
REMARK  status: ('A' for Active; 'I' for Inactive)
REMARK    1  A    between atoms: C4_4  and  C7_7 
REMARK    2  A    between atoms: C7_7  and  O10_10 
REMARK    3  A    between atoms: C8_8  and  O10_10 
ROOT
HETATM    1  C1  UNL     1     -35.489   5.689   4.003  1.00 20.00     0.071 C 
HETATM    2  C2  UNL     1     -34.438   5.977   6.276  1.00 20.00     0.028 A 
HETATM    3  C3  UNL     1     -34.356   4.520   5.928  1.00 20.00     0.028 A 
HETATM    4  C4  UNL     1     -34.317   5.559   4.828  1.00 20.00     0.070 A 
HETATM    5  N9  UNL     1     -36.435   5.795   3.339  1.00 20.00    -0.196 NA
ENDROOT
BRANCH   4   6
HETATM    6  C7  UNL     1     -33.009   5.799   4.130  1.00 20.00     0.192 C 
BRANCH   6   7
HETATM    7  O10 UNL     1     -33.194   6.758   3.094  1.00 20.00    -0.385 OA
BRANCH   7   8
HETATM    8  C8  UNL     1     -31.968   7.382   2.739  1.00 20.00     0.113 C 
HETATM    9  C5  UNL     1     -32.255   8.572   1.837  1.00 20.00     0.039 C 
HETATM   10  C6  UNL     1     -31.231   7.794   4.004  1.00 20.00     0.039 C 
ENDBRANCH   7   8
ENDBRANCH   6   7
ENDBRANCH   4   6
TORSDOF 3
ENDMDL
MODEL 9
REMARK VINA RESULT:      -4.0     11.354     12.691
REMARK  3 active torsions:
REMARK  status: ('A' for Active; 'I' for Inactive)
REMARK    1  A    between atoms: C4_4  and  C7_7 
REMARK    2  A    between atoms: C7_7  and  O10_10 
REMARK    3  A    between atoms: C8_8  and  O10_10 
ROOT
HETATM    1  C1  UNL     1     -36.853  14.427  -4.034  1.00 20.00     0.071 C 
HETATM    2  C2  UNL     1     -34.426  13.930  -3.565  1.00 20.00     0.028 A 
HETATM    3  C3  UNL     1     -34.772  13.273  -4.869  1.00 20.00     0.028 A 
HETATM    4  C4  UNL     1     -35.482  14.544  -4.456  1.00 20.00     0.070 A 
HETATM    5  N9  UNL     1     -37.958  14.330  -3.692  1.00 20.00    -0.196 NA
ENDROOT
BRANCH   4   6
HETATM    6  C7  UNL     1     -35.141  15.813  -5.186  1.00 20.00     0.192 C 
BRANCH   6   7
HETATM    7  O10 UNL     1     -35.540  16.932  -4.402  1.00 20.00    -0.385 OA
BRANCH   7   8
HETATM    8  C8  UNL     1     -34.455  17.821  -4.176  1.00 20.00     0.113 C 
HETATM    9  C5  UNL     1     -33.873  17.560  -2.795  1.00 20.00     0.039 C 
HETATM   10  C6  UNL     1     -33.417  17.632  -5.272  1.00 20.00     0.039 C 
ENDBRANCH   7   8
ENDBRANCH   6   7
ENDBRANCH   4   6
TORSDOF 3
ENDMDL
