MODEL 1
REMARK VINA RESULT:      -3.7      0.000      0.000
REMARK  1 active torsions:
REMARK  status: ('A' for Active; 'I' for Inactive)
REMARK    1  A    between atoms: C2_2  and  C6_6 
ROOT
HETATM    1  C1  UNL     1     -34.601  13.930  -5.381  1.00 20.00     0.111 C 
HETATM    2  C2  UNL     1     -34.382  15.422  -5.624  1.00 20.00     0.231 C 
HETATM    3  C3  UNL     1     -33.119  15.222  -3.625  1.00 20.00     0.278 C 
HETATM    4  C4  UNL     1     -33.714  16.201  -2.618  1.00 20.00     0.054 C 
HETATM    5  N7  UNL     1     -33.111  15.797  -4.977  1.00 20.00     0.102 N 
HETATM    6  S8  UNL     1     -34.091  13.686  -3.666  1.00 20.00    -0.132 SA
HETATM    7  H21 UNL     1     -32.349  15.365  -5.500  1.00 20.00     0.317 HD
ENDROOT
BRANCH   2   8
HETATM    8  C6  UNL     1     -34.333  15.744  -7.114  1.00 20.00     0.032 C 
HETATM    9  C5  UNL     1     -35.137  14.775  -7.918  1.00 20.00     0.007 C 
ENDBRANCH   2   8
TORSDOF 1
ENDMDL
MODEL 2
REMARK VINA RESULT:      -3.7      2.690      3.182
REMARK  1 active torsions:
REMARK  status: ('A' for Active; 'I' for Inactive)
REMARK    1  A    between atoms: C2_2  and  C6_6 
ROOT
HETATM    1  C1  UNL     1     -33.366  16.262  -4.176  1.00 20.00     0.111 C 
HETATM    2  C2  UNL     1     -33.704  15.074  -3.279  1.00 20.00     0.231 C 
HETATM    3  C3  UNL     1     -35.038  16.704  -2.187  1.00 20.00     0.278 C 
HETATM    4  C4  UNL     1     -34.581  16.758  -0.733  1.00 20.00     0.054 C 
HETATM    5  N7  UNL     1     -35.033  15.323  -2.690  1.00 20.00     0.102 N 
HETATM    6  S8  UNL     1     -33.934  17.696  -3.237  1.00 20.00    -0.132 SA
HETATM    7  H21 UNL     1     -35.728  15.255  -3.434  1.00 20.00     0.317 HD
ENDROOT
BRANCH   2   8
HETATM    8  C6  UNL     1     -33.710  13.766  -4.063  1.00 20.00     0.032 C 
HETATM    9  C5  UNL     1     -35.099  13.299  -4.353  1.00 20.00     0.007 C 
ENDBRANCH   2   8
TORSDOF 1
ENDMDL
MODEL 3
REMARK VINA RESULT:      -3.7      2.597      4.139
REMARK  1 active torsions:
REMARK  status: ('A' for Active; 'I' for Inactive)
REMARK    1  A    between atoms: C2_2  and  C6_6 
ROOT
HETATM    1  C1  UNL     1     -33.978  14.482  -3.476  1.00 20.00     0.111 C 
HETATM    2  C2  UNL     1     -34.618  15.836  -3.176  1.00 20.00     0.231 C 
HETATM    3  C3  UNL     1     -36.592  14.660  -3.770  1.00 20.00     0.278 C 
HETATM    4  C4  UNL     1     -37.233  15.417  -4.929  1.00 20.00     0.054 C 
HETATM    5  N7  UNL     1     -36.019  15.591  -2.787  1.00 20.00     0.102 N 
HETATM    6  S8  UNL     1     -35.260  13.582  -4.375  1.00 20.00    -0.132 SA
HETATM    7  H21 UNL     1     -36.020  15.130  -1.877  1.00 20.00     0.317 HD
ENDROOT
BRANCH   2   8
HETATM    8  C6  UNL     1     -33.879  16.567  -2.061  1.00 20.00     0.032 C 
HETATM    9  C5  UNL     1     -34.686  16.625  -0.805  1.00 20.00     0.007 C 
ENDBRANCH   2   8
TORSDOF 1
ENDMDL
MODEL 4
REMARK VINA RESULT:      -3.6     12.371     13.346
REMARK  1 active torsions:
REMARK  status: ('A' for Active; 'I' for Inactive)
REMARK    1  A    between atoms: C2_2  and  C6_6 
ROOT
HETATM    1  C1  UNL     1     -33.039   6.925   4.942  1.00 20.00     0.111 C 
HETATM    2  C2  UNL     1     -33.122   5.875   3.836  1.00 20.00     0.231 C 
HETATM    3  C3  UNL     1     -35.078   5.256   5.030  1.00 20.00     0.278 C 
HETATM    4  C4  UNL     1     -34.917   3.792   5.426  1.00 20.00     0.054 C 
HETATM    5  N7  UNL     1     -34.540   5.499   3.684  1.00 20.00     0.102 N 
HETATM    6  S8  UNL     1     -34.191   6.330   6.198  1.00 20.00    -0.132 SA
HETATM    7  H21 UNL     1     -35.038   6.295   3.284  1.00 20.00     0.317 HD
ENDROOT
BRANCH   2   8
HETATM    8  C6  UNL     1     -32.572   6.407   2.518  1.00 20.00     0.032 C 
HETATM    9  C5  UNL     1     -32.116   7.825   2.639  1.00 20.00     0.007 C 
ENDBRANCH   2   8
TORSDOF 1
ENDMDL
MODEL 5
REMARK VINA RESULT:      -3.5     13.318     14.198
REMARK  1 active torsions:
REMARK  status: ('A' for Active; 'I' for Inactive)
REMARK    1  A    between atoms: C2_2  and  C6_6 
ROOT
HETATM    1  C1  UNL     1     -43.072   3.438  -1.484  1.00 20.00     0.111 C 
HETATM    2  C2  UNL     1     -41.824   3.721  -2.317  1.00 20.00     0.231 C 
HETATM    3  C3  UNL     1     -41.204   4.928  -0.369  1.00 20.00     0.278 C 
HETATM    4  C4  UNL     1     -40.946   6.369  -0.798  1.00 20.00     0.054 C 
HETATM    5  N7  UNL     1     -40.713   3.982  -1.382  1.00 20.00     0.102 N 
HETATM    6  S8  UNL     1     -42.986   4.643  -0.142  1.00 20.00    -0.132 SA
HETATM    7  H21 UNL     1     -40.483   3.106  -0.911  1.00 20.00     0.317 HD
ENDROOT
BRANCH   2   8
HETATM    8  C6  UNL     1     -41.483   2.547  -3.228  1.00 20.00     0.032 C 
HETATM    9  C5  UNL     1     -42.515   1.470  -3.155  1.00 20.00     0.007 C 
ENDBRANCH   2   8
TORSDOF 1
ENDMDL
MODEL 6
REMARK VINA RESULT:      -3.5      1.237      3.626
REMARK  1 active torsions:
REMARK  status: ('A' for Active; 'I' for Inactive)
REMARK    1  A    between atoms: C2_2  and  C6_6 
ROOT
HETATM    1  C1  UNL     1     -34.147  14.223  -3.409  1.00 20.00     0.111 C 
HETATM    2  C2  UNL     1     -33.892  15.640  -3.917  1.00 20.00     0.231 C 
HETATM    3  C3  UNL     1     -35.216  14.870  -5.730  1.00 20.00     0.278 C 
HETATM    4  C4  UNL     1     -34.381  15.033  -6.996  1.00 20.00     0.054 C 
HETATM    5  N7  UNL     1     -35.007  16.000  -4.813  1.00 20.00     0.102 N 
HETATM    6  S8  UNL     1     -34.758  13.340  -4.860  1.00 20.00    -0.132 SA
HETATM    7  H21 UNL     1     -35.849  16.106  -4.246  1.00 20.00     0.317 HD
ENDROOT
BRANCH   2   8
HETATM    8  C6  UNL     1     -33.796  16.637  -2.767  1.00 20.00     0.032 C 
HETATM    9  C5  UNL     1     -34.638  16.225  -1.604  1.00 20.00     0.007 C 
ENDBRANCH   2   8
TORSDOF 1
ENDMDL
MODEL 7
REMARK VINA RESULT:      -3.4      2.131      4.210
REMARK  1 active torsions:
REMARK  status: ('A' for Active; 'I' for Inactive)
REMARK    1  A    between atoms: C2_2  and  C6_6 
ROOT
HETATM    1  C1  UNL     1     -35.393  16.848  -3.610  1.00 20.00     0.111 C 
HETATM    2  C2  UNL     1     -34.562  15.986  -2.662  1.00 20.00     0.231 C 
HETATM    3  C3  UNL     1     -34.230  14.718  -4.641  1.00 20.00     0.278 C 
HETATM    4  C4  UNL     1     -34.718  13.302  -4.354  1.00 20.00     0.054 C 
HETATM    5  N7  UNL     1     -33.545  15.286  -3.471  1.00 20.00     0.102 N 
HETATM    6  S8  UNL     1     -35.629  15.800  -5.061  1.00 20.00    -0.132 SA
HETATM    7  H21 UNL     1     -32.873  15.978  -3.803  1.00 20.00     0.317 HD
ENDROOT
BRANCH   2   8
HETATM    8  C6  UNL     1     -33.891  16.829  -1.584  1.00 20.00     0.032 C 
HETATM    9  C5  UNL     1     -34.733  16.932  -0.355  1.00 20.00     0.007 C 
ENDBRANCH   2   8
TORSDOF 1
ENDMDL
MODEL 8
REMARK VINA RESULT:      -3.4      1.324      1.349
REMARK  1 active torsions:
REMARK  status: ('A' for Active; 'I' for Inactive)
REMARK    1  A    between atoms: C2_2  and  C6_6 
ROOT
HETATM    1  C1  UNL     1     -36.135  15.111  -5.410  1.00 20.00     0.111 C 
HETATM    2  C2  UNL     1     -34.675  15.396  -5.759  1.00 20.00     0.231 C 
HETATM    3  C3  UNL     1     -34.357  14.751  -3.497  1.00 20.00     0.278 C 
HETATM    4  C4  UNL     1     -33.671  15.916  -2.790  1.00 20.00     0.054 C 
HETATM    5  N7  UNL     1     -33.835  14.581  -4.861  1.00 20.00     0.102 N 
HETATM    6  S8  UNL     1     -36.149  15.041  -3.606  1.00 20.00    -0.132 SA
HETATM    7  H21 UNL     1     -33.947  13.602  -5.122  1.00 20.00     0.317 HD
ENDROOT
BRANCH   2   8
HETATM    8  C6  UNL     1     -34.373  15.059  -7.215  1.00 20.00     0.032 C 
HETATM    9  C5  UNL     1     -35.570  14.505  -7.916  1.00 20.00     0.007 C 
ENDBRANCH   2   8
TORSDOF 1
ENDMDL
MODEL 9
REMARK VINA RESULT:      -3.3      1.938      3.965
REMARK  1 active torsions:
REMARK  status: ('A' for Active; 'I' for Inactive)
REMARK    1  A    between atoms: C2_2  and  C6_6 
ROOT
HETATM    1  C1  UNL     1     -34.554  16.758  -4.873  1.00 20.00     0.111 C 
HETATM    2  C2  UNL     1     -34.822  15.275  -4.621  1.00 20.00     0.231 C 
HETATM    3  C3  UNL     1     -34.309  15.132  -6.934  1.00 20.00     0.278 C 
HETATM    4  C4  UNL     1     -35.514  14.499  -7.622  1.00 20.00     0.054 C 
HETATM    5  N7  UNL     1     -34.062  14.508  -5.625  1.00 20.00     0.102 N 
HETATM    6  S8  UNL     1     -34.588  16.909  -6.672  1.00 20.00    -0.132 SA
HETATM    7  H21 UNL     1     -33.069  14.602  -5.413  1.00 20.00     0.317 HD
ENDROOT
BRANCH   2   8
HETATM    8  C6  UNL     1     -34.403  14.864  -3.214  1.00 20.00     0.032 C 
HETATM    9  C5  UNL     1     -34.640  15.956  -2.222  1.00 20.00     0.007 C 
ENDBRANCH   2   8
TORSDOF 1
ENDMDL
