MODEL 1
REMARK VINA RESULT:      -4.0      0.000      0.000
REMARK  1 active torsions:
REMARK  status: ('A' for Active; 'I' for Inactive)
REMARK    1  A    between atoms: C4_4  and  C7_7 
ROOT
HETATM    1  C1  UNL     1     -34.782  14.440  -6.021  1.00 20.00     0.109 C 
HETATM    2  C2  UNL     1     -34.056  14.187  -3.414  1.00 20.00     0.109 C 
HETATM    3  C3  UNL     1     -33.995  15.756  -6.006  1.00 20.00     0.226 C 
HETATM    4  C4  UNL     1     -33.324  15.522  -3.594  1.00 20.00     0.230 C 
HETATM    5  C5  UNL     1     -34.897  16.993  -6.024  1.00 20.00     0.043 C 
HETATM    6  N8  UNL     1     -32.942  15.814  -4.983  1.00 20.00     0.093 N 
HETATM    7  S9  UNL     1     -35.554  14.058  -4.426  1.00 20.00    -0.165 SA
HETATM    8  H24 UNL     1     -32.173  15.166  -5.260  1.00 20.00     0.316 HD
ENDROOT
BRANCH   4   9
HETATM    9  C7  UNL     1     -34.026  16.688  -2.895  1.00 20.00     0.032 C 
HETATM   10  C6  UNL     1     -34.502  16.305  -1.534  1.00 20.00     0.007 C 
ENDBRANCH   4   9
TORSDOF 1
ENDMDL
MODEL 2
REMARK VINA RESULT:      -3.8      1.906      2.656
REMARK  1 active torsions:
REMARK  status: ('A' for Active; 'I' for Inactive)
REMARK    1  A    between atoms: C4_4  and  C7_7 
ROOT
HETATM    1  C1  UNL     1     -34.416  15.035  -5.687  1.00 20.00     0.109 C 
HETATM    2  C2  UNL     1     -35.069  17.158  -4.119  1.00 20.00     0.109 C 
HETATM    3  C3  UNL     1     -34.737  14.165  -4.465  1.00 20.00     0.226 C 
HETATM    4  C4  UNL     1     -35.341  16.129  -3.016  1.00 20.00     0.230 C 
HETATM    5  C5  UNL     1     -33.488  13.581  -3.801  1.00 20.00     0.043 C 
HETATM    6  N8  UNL     1     -35.670  14.787  -3.514  1.00 20.00     0.093 N 
HETATM    7  S9  UNL     1     -33.738  16.657  -5.243  1.00 20.00    -0.165 SA
HETATM    8  H24 UNL     1     -36.617  14.816  -3.948  1.00 20.00     0.316 HD
ENDROOT
BRANCH   4   9
HETATM    9  C7  UNL     1     -34.271  16.129  -1.921  1.00 20.00     0.032 C 
HETATM   10  C6  UNL     1     -34.742  16.836  -0.694  1.00 20.00     0.007 C 
ENDBRANCH   4   9
TORSDOF 1
ENDMDL
MODEL 3
REMARK VINA RESULT:      -3.8      1.151      3.622
REMARK  1 active torsions:
REMARK  status: ('A' for Active; 'I' for Inactive)
REMARK    1  A    between atoms: C4_4  and  C7_7 
ROOT
HETATM    1  C1  UNL     1     -34.328  15.816  -2.803  1.00 20.00     0.109 C 
HETATM    2  C2  UNL     1     -35.219  16.820  -5.167  1.00 20.00     0.109 C 
HETATM    3  C3  UNL     1     -33.205  15.166  -3.620  1.00 20.00     0.226 C 
HETATM    4  C4  UNL     1     -34.030  16.094  -5.806  1.00 20.00     0.230 C 
HETATM    5  C5  UNL     1     -33.374  13.652  -3.769  1.00 20.00     0.043 C 
HETATM    6  N8  UNL     1     -32.910  15.851  -4.886  1.00 20.00     0.093 N 
HETATM    7  S9  UNL     1     -35.885  15.951  -3.722  1.00 20.00    -0.165 SA
HETATM    8  H24 UNL     1     -32.451  16.762  -4.672  1.00 20.00     0.316 HD
ENDROOT
BRANCH   4   9
HETATM    9  C7  UNL     1     -34.444  14.856  -6.606  1.00 20.00     0.032 C 
HETATM   10  C6  UNL     1     -35.125  15.230  -7.880  1.00 20.00     0.007 C 
ENDBRANCH   4   9
TORSDOF 1
ENDMDL
MODEL 4
REMARK VINA RESULT:      -3.7      1.414      2.041
REMARK  1 active torsions:
REMARK  status: ('A' for Active; 'I' for Inactive)
REMARK    1  A    between atoms: C4_4  and  C7_7 
ROOT
HETATM    1  C1  UNL     1     -35.664  13.678  -4.178  1.00 20.00     0.109 C 
HETATM    2  C2  UNL     1     -34.664  15.716  -2.681  1.00 20.00     0.109 C 
HETATM    3  C3  UNL     1     -34.402  13.827  -5.037  1.00 20.00     0.226 C 
HETATM    4  C4  UNL     1     -33.479  15.712  -3.653  1.00 20.00     0.230 C 
HETATM    5  C5  UNL     1     -34.679  14.466  -6.400  1.00 20.00     0.043 C 
HETATM    6  N8  UNL     1     -33.262  14.426  -4.330  1.00 20.00     0.093 N 
HETATM    7  S9  UNL     1     -36.228  15.249  -3.471  1.00 20.00    -0.165 SA
HETATM    8  H24 UNL     1     -32.905  13.738  -3.632  1.00 20.00     0.316 HD
ENDROOT
BRANCH   4   9
HETATM    9  C7  UNL     1     -33.481  16.911  -4.604  1.00 20.00     0.032 C 
HETATM   10  C6  UNL     1     -33.808  18.179  -3.887  1.00 20.00     0.007 C 
ENDBRANCH   4   9
TORSDOF 1
ENDMDL
MODEL 5
REMARK VINA RESULT:      -3.7      1.451      3.466
REMARK  1 active torsions:
REMARK  status: ('A' for Active; 'I' for Inactive)
REMARK    1  A    between atoms: C4_4  and  C7_7 
ROOT
HETATM    1  C1  UNL     1     -34.621  15.646  -2.581  1.00 20.00     0.109 C 
HETATM    2  C2  UNL     1     -34.114  17.491  -4.512  1.00 20.00     0.109 C 
HETATM    3  C3  UNL     1     -33.808  14.672  -3.442  1.00 20.00     0.226 C 
HETATM    4  C4  UNL     1     -33.340  16.378  -5.228  1.00 20.00     0.230 C 
HETATM    5  C5  UNL     1     -34.678  13.625  -4.144  1.00 20.00     0.043 C 
HETATM    6  N8  UNL     1     -32.840  15.324  -4.335  1.00 20.00     0.093 N 
HETATM    7  S9  UNL     1     -35.528  16.871  -3.562  1.00 20.00    -0.165 SA
HETATM    8  H24 UNL     1     -32.067  15.716  -3.757  1.00 20.00     0.316 HD
ENDROOT
BRANCH   4   9
HETATM    9  C7  UNL     1     -34.070  15.840  -6.461  1.00 20.00     0.032 C 
HETATM   10  C6  UNL     1     -34.595  16.946  -7.314  1.00 20.00     0.007 C 
ENDBRANCH   4   9
TORSDOF 1
ENDMDL
MODEL 6
REMARK VINA RESULT:      -3.6      1.399      1.563
REMARK  1 active torsions:
REMARK  status: ('A' for Active; 'I' for Inactive)
REMARK    1  A    between atoms: C4_4  and  C7_7 
ROOT
HETATM    1  C1  UNL     1     -36.044  14.967  -6.406  1.00 20.00     0.109 C 
HETATM    2  C2  UNL     1     -36.180  14.487  -3.733  1.00 20.00     0.109 C 
HETATM    3  C3  UNL     1     -34.521  14.923  -6.232  1.00 20.00     0.226 C 
HETATM    4  C4  UNL     1     -34.647  14.481  -3.760  1.00 20.00     0.230 C 
HETATM    5  C5  UNL     1     -33.868  16.305  -6.331  1.00 20.00     0.043 C 
HETATM    6  N8  UNL     1     -34.071  14.145  -5.070  1.00 20.00     0.093 N 
HETATM    7  S9  UNL     1     -36.905  15.619  -4.950  1.00 20.00    -0.165 SA
HETATM    8  H24 UNL     1     -34.243  13.134  -5.260  1.00 20.00     0.316 HD
ENDROOT
BRANCH   4   9
HETATM    9  C7  UNL     1     -34.033  15.730  -3.124  1.00 20.00     0.032 C 
HETATM   10  C6  UNL     1     -34.716  16.087  -1.846  1.00 20.00     0.007 C 
ENDBRANCH   4   9
TORSDOF 1
ENDMDL
MODEL 7
REMARK VINA RESULT:      -3.5      1.709      3.459
REMARK  1 active torsions:
REMARK  status: ('A' for Active; 'I' for Inactive)
REMARK    1  A    between atoms: C4_4  and  C7_7 
ROOT
HETATM    1  C1  UNL     1     -33.895  15.522  -3.168  1.00 20.00     0.109 C 
HETATM    2  C2  UNL     1     -35.183  13.485  -4.425  1.00 20.00     0.109 C 
HETATM    3  C3  UNL     1     -34.462  16.425  -4.270  1.00 20.00     0.226 C 
HETATM    4  C4  UNL     1     -35.652  14.540  -5.433  1.00 20.00     0.230 C 
HETATM    5  C5  UNL     1     -33.401  16.875  -5.278  1.00 20.00     0.043 C 
HETATM    6  N8  UNL     1     -35.685  15.908  -4.898  1.00 20.00     0.093 N 
HETATM    7  S9  UNL     1     -33.541  13.839  -3.742  1.00 20.00    -0.165 SA
HETATM    8  H24 UNL     1     -36.467  15.978  -4.211  1.00 20.00     0.316 HD
ENDROOT
BRANCH   4   9
HETATM    9  C7  UNL     1     -34.946  14.430  -6.787  1.00 20.00     0.032 C 
HETATM   10  C6  UNL     1     -35.889  14.672  -7.918  1.00 20.00     0.007 C 
ENDBRANCH   4   9
TORSDOF 1
ENDMDL
MODEL 8
REMARK VINA RESULT:      -3.4      1.163      1.375
REMARK  1 active torsions:
REMARK  status: ('A' for Active; 'I' for Inactive)
REMARK    1  A    between atoms: C4_4  and  C7_7 
ROOT
HETATM    1  C1  UNL     1     -35.044  15.820  -5.687  1.00 20.00     0.109 C 
HETATM    2  C2  UNL     1     -34.050  14.432  -3.570  1.00 20.00     0.109 C 
HETATM    3  C3  UNL     1     -34.674  17.084  -4.900  1.00 20.00     0.226 C 
HETATM    4  C4  UNL     1     -33.755  15.799  -2.943  1.00 20.00     0.230 C 
HETATM    5  C5  UNL     1     -35.893  17.812  -4.330  1.00 20.00     0.043 C 
HETATM    6  N8  UNL     1     -33.597  16.886  -3.920  1.00 20.00     0.093 N 
HETATM    7  S9  UNL     1     -35.530  14.438  -4.618  1.00 20.00    -0.165 SA
HETATM    8  H24 UNL     1     -32.701  16.744  -4.434  1.00 20.00     0.316 HD
ENDROOT
BRANCH   4   9
HETATM    9  C7  UNL     1     -34.701  16.146  -1.791  1.00 20.00     0.032 C 
HETATM   10  C6  UNL     1     -34.094  17.146  -0.865  1.00 20.00     0.007 C 
ENDBRANCH   4   9
TORSDOF 1
ENDMDL
MODEL 9
REMARK VINA RESULT:      -3.4      2.231      3.230
REMARK  1 active torsions:
REMARK  status: ('A' for Active; 'I' for Inactive)
REMARK    1  A    between atoms: C4_4  and  C7_7 
ROOT
HETATM    1  C1  UNL     1     -33.176  16.107  -4.559  1.00 20.00     0.109 C 
HETATM    2  C2  UNL     1     -35.429  15.004  -5.608  1.00 20.00     0.109 C 
HETATM    3  C3  UNL     1     -33.550  15.382  -3.260  1.00 20.00     0.226 C 
HETATM    4  C4  UNL     1     -35.634  14.364  -4.230  1.00 20.00     0.230 C 
HETATM    5  C5  UNL     1     -34.068  16.330  -2.175  1.00 20.00     0.043 C 
HETATM    6  N8  UNL     1     -34.396  14.197  -3.456  1.00 20.00     0.093 N 
HETATM    7  S9  UNL     1     -34.622  16.625  -5.522  1.00 20.00    -0.165 SA
HETATM    8  H24 UNL     1     -33.823  13.449  -3.902  1.00 20.00     0.316 HD
ENDROOT
BRANCH   4   9
HETATM    9  C7  UNL     1     -36.771  15.008  -3.434  1.00 20.00     0.032 C 
HETATM   10  C6  UNL     1     -38.096  14.764  -4.077  1.00 20.00     0.007 C 
ENDBRANCH   4   9
TORSDOF 1
ENDMDL
