MODEL 1
REMARK VINA RESULT:      -4.2      0.000      0.000
REMARK  0 active torsions:
REMARK  status: ('A' for Active; 'I' for Inactive)
ROOT
HETATM    1  C1  UNL     1     -32.570   7.231   2.881  1.00 20.00     0.125 C 
HETATM    2  C2  UNL     1     -33.610   6.271   5.000  1.00 20.00     0.074 A 
HETATM    3  C3  UNL     1     -34.962   4.881   3.899  1.00 20.00     0.167 A 
HETATM    4  C4  UNL     1     -33.425   6.405   3.644  1.00 20.00     0.156 A 
HETATM    5  C5  UNL     1     -34.607   5.281   5.166  1.00 20.00     0.059 A 
HETATM    6  N6  UNL     1     -31.866   7.909   2.255  1.00 20.00    -0.189 NA
HETATM    7  O7  UNL     1     -34.245   5.560   2.965  1.00 20.00    -0.310 OA
HETATM    8 CL8  UNL     1     -35.220   4.724   6.643  1.00 20.00    -0.082 Cl
ENDROOT
TORSDOF 0
ENDMDL
MODEL 2
REMARK VINA RESULT:      -3.7     11.934     12.533
REMARK  0 active torsions:
REMARK  status: ('A' for Active; 'I' for Inactive)
ROOT
HETATM    1  C1  UNL     1     -34.676  13.765  -4.126  1.00 20.00     0.125 C 
HETATM    2  C2  UNL     1     -34.410  15.598  -2.376  1.00 20.00     0.074 A 
HETATM    3  C3  UNL     1     -33.597  17.085  -3.825  1.00 20.00     0.167 A 
HETATM    4  C4  UNL     1     -34.339  15.045  -3.634  1.00 20.00     0.156 A 
HETATM    5  C5  UNL     1     -33.929  16.923  -2.501  1.00 20.00     0.059 A 
HETATM    6  N6  UNL     1     -34.954  12.713  -4.531  1.00 20.00    -0.189 NA
HETATM    7  O7  UNL     1     -33.845  15.946  -4.523  1.00 20.00    -0.310 OA
HETATM    8 CL8  UNL     1     -33.800  18.056  -1.249  1.00 20.00    -0.082 Cl
ENDROOT
TORSDOF 0
ENDMDL
MODEL 3
REMARK VINA RESULT:      -3.7     11.733     12.029
REMARK  0 active torsions:
REMARK  status: ('A' for Active; 'I' for Inactive)
ROOT
HETATM    1  C1  UNL     1     -37.399  14.412  -3.865  1.00 20.00     0.125 C 
HETATM    2  C2  UNL     1     -34.949  14.997  -3.478  1.00 20.00     0.074 A 
HETATM    3  C3  UNL     1     -34.184  13.195  -4.546  1.00 20.00     0.167 A 
HETATM    4  C4  UNL     1     -35.999  14.242  -3.947  1.00 20.00     0.156 A 
HETATM    5  C5  UNL     1     -33.771  14.318  -3.868  1.00 20.00     0.059 A 
HETATM    6  N6  UNL     1     -38.549  14.552  -3.799  1.00 20.00    -0.189 NA
HETATM    7  O7  UNL     1     -35.541  13.142  -4.600  1.00 20.00    -0.310 OA
HETATM    8 CL8  UNL     1     -32.184  14.815  -3.547  1.00 20.00    -0.082 Cl
ENDROOT
TORSDOF 0
ENDMDL
MODEL 4
REMARK VINA RESULT:      -3.5     11.989     12.428
REMARK  0 active torsions:
REMARK  status: ('A' for Active; 'I' for Inactive)
ROOT
HETATM    1  C1  UNL     1     -34.690  15.763  -2.237  1.00 20.00     0.125 C 
HETATM    2  C2  UNL     1     -35.114  15.464  -4.732  1.00 20.00     0.074 A 
HETATM    3  C3  UNL     1     -34.598  13.295  -4.722  1.00 20.00     0.167 A 
HETATM    4  C4  UNL     1     -34.768  15.064  -3.462  1.00 20.00     0.156 A 
HETATM    5  C5  UNL     1     -35.005  14.315  -5.550  1.00 20.00     0.059 A 
HETATM    6  N6  UNL     1     -34.628  16.337  -1.230  1.00 20.00    -0.189 NA
HETATM    7  O7  UNL     1     -34.453  13.742  -3.448  1.00 20.00    -0.310 OA
HETATM    8 CL8  UNL     1     -35.317  14.245  -7.212  1.00 20.00    -0.082 Cl
ENDROOT
TORSDOF 0
ENDMDL
MODEL 5
REMARK VINA RESULT:      -3.5     12.010     12.662
REMARK  0 active torsions:
REMARK  status: ('A' for Active; 'I' for Inactive)
ROOT
HETATM    1  C1  UNL     1     -35.577  13.582  -4.275  1.00 20.00     0.125 C 
HETATM    2  C2  UNL     1     -36.492  15.899  -3.737  1.00 20.00     0.074 A 
HETATM    3  C3  UNL     1     -38.599  15.197  -3.540  1.00 20.00     0.167 A 
HETATM    4  C4  UNL     1     -36.563  14.543  -3.960  1.00 20.00     0.156 A 
HETATM    5  C5  UNL     1     -37.814  16.323  -3.464  1.00 20.00     0.059 A 
HETATM    6  N6  UNL     1     -34.767  12.792  -4.533  1.00 20.00    -0.189 NA
HETATM    7  O7  UNL     1     -37.844  14.107  -3.841  1.00 20.00    -0.310 OA
HETATM    8 CL8  UNL     1     -38.298  17.908  -3.118  1.00 20.00    -0.082 Cl
ENDROOT
TORSDOF 0
ENDMDL
MODEL 6
REMARK VINA RESULT:      -3.5     12.761     13.856
REMARK  0 active torsions:
REMARK  status: ('A' for Active; 'I' for Inactive)
ROOT
HETATM    1  C1  UNL     1     -34.542  13.798  -4.728  1.00 20.00     0.125 C 
HETATM    2  C2  UNL     1     -34.171  16.014  -5.931  1.00 20.00     0.074 A 
HETATM    3  C3  UNL     1     -33.571  17.102  -4.078  1.00 20.00     0.167 A 
HETATM    4  C4  UNL     1     -34.207  15.165  -4.849  1.00 20.00     0.156 A 
HETATM    5  C5  UNL     1     -33.758  17.271  -5.430  1.00 20.00     0.059 A 
HETATM    6  N6  UNL     1     -34.817  12.675  -4.629  1.00 20.00    -0.189 NA
HETATM    7  O7  UNL     1     -33.841  15.820  -3.716  1.00 20.00    -0.310 OA
HETATM    8 CL8  UNL     1     -33.546  18.683  -6.341  1.00 20.00    -0.082 Cl
ENDROOT
TORSDOF 0
ENDMDL
MODEL 7
REMARK VINA RESULT:      -3.5     12.198     12.637
REMARK  0 active torsions:
REMARK  status: ('A' for Active; 'I' for Inactive)
ROOT
HETATM    1  C1  UNL     1     -34.590  16.610  -1.086  1.00 20.00     0.125 C 
HETATM    2  C2  UNL     1     -34.840  15.082  -3.110  1.00 20.00     0.074 A 
HETATM    3  C3  UNL     1     -33.461  16.282  -4.387  1.00 20.00     0.167 A 
HETATM    4  C4  UNL     1     -34.362  16.163  -2.406  1.00 20.00     0.156 A 
HETATM    5  C5  UNL     1     -34.255  15.159  -4.396  1.00 20.00     0.059 A 
HETATM    6  N6  UNL     1     -34.776  16.977  -0.001  1.00 20.00    -0.189 NA
HETATM    7  O7  UNL     1     -33.520  16.899  -3.178  1.00 20.00    -0.310 OA
HETATM    8 CL8  UNL     1     -34.504  14.070  -5.668  1.00 20.00    -0.082 Cl
ENDROOT
TORSDOF 0
ENDMDL
MODEL 8
REMARK VINA RESULT:      -3.5      3.270      3.811
REMARK  0 active torsions:
REMARK  status: ('A' for Active; 'I' for Inactive)
ROOT
HETATM    1  C1  UNL     1     -34.863   4.888   5.791  1.00 20.00     0.125 C 
HETATM    2  C2  UNL     1     -33.295   6.501   4.593  1.00 20.00     0.074 A 
HETATM    3  C3  UNL     1     -33.818   5.750   2.559  1.00 20.00     0.167 A 
HETATM    4  C4  UNL     1     -34.225   5.491   4.684  1.00 20.00     0.156 A 
HETATM    5  C5  UNL     1     -33.032   6.670   3.213  1.00 20.00     0.059 A 
HETATM    6  N6  UNL     1     -35.388   4.393   6.700  1.00 20.00    -0.189 NA
HETATM    7  O7  UNL     1     -34.549   5.029   3.448  1.00 20.00    -0.310 OA
HETATM    8 CL8  UNL     1     -31.956   7.788   2.536  1.00 20.00    -0.082 Cl
ENDROOT
TORSDOF 0
ENDMDL
MODEL 9
REMARK VINA RESULT:      -3.5     10.120     10.746
REMARK  0 active torsions:
REMARK  status: ('A' for Active; 'I' for Inactive)
ROOT
HETATM    1  C1  UNL     1     -41.918   2.392  -3.042  1.00 20.00     0.125 C 
HETATM    2  C2  UNL     1     -41.062   4.267  -1.544  1.00 20.00     0.074 A 
HETATM    3  C3  UNL     1     -42.435   5.799  -2.406  1.00 20.00     0.167 A 
HETATM    4  C4  UNL     1     -41.846   3.704  -2.524  1.00 20.00     0.156 A 
HETATM    5  C5  UNL     1     -41.445   5.627  -1.467  1.00 20.00     0.059 A 
HETATM    6  N6  UNL     1     -41.977   1.313  -3.467  1.00 20.00    -0.189 NA
HETATM    7  O7  UNL     1     -42.686   4.631  -3.054  1.00 20.00    -0.310 OA
HETATM    8 CL8  UNL     1     -40.793   6.786  -0.418  1.00 20.00    -0.082 Cl
ENDROOT
TORSDOF 0
ENDMDL
