MODEL 1
REMARK VINA RESULT:      -4.6      0.000      0.000
REMARK  4 active torsions:
REMARK  status: ('A' for Active; 'I' for Inactive)
REMARK    1  A    between atoms: C1_1  and  C4_4 
REMARK    2  A    between atoms: C1_1  and  O11_11 
REMARK    3  A    between atoms: C5_5  and  C8_8 
REMARK    4  A    between atoms: C8_8  and  C9_9 
ROOT
HETATM    1  C2  UNL     1     -35.172  15.279  -3.034  1.00 20.00     0.019 C 
HETATM    2  C3  UNL     1     -33.093  15.239  -3.495  1.00 20.00     0.019 C 
HETATM    3  C4  UNL     1     -34.212  14.169  -3.526  1.00 20.00     0.086 C 
HETATM    4  C5  UNL     1     -33.934  15.986  -2.428  1.00 20.00    -0.013 C 
ENDROOT
BRANCH   3   5
HETATM    5  C1  UNL     1     -34.518  13.601  -4.864  1.00 20.00     0.262 C 
HETATM    6  O10 UNL     1     -34.821  12.432  -5.059  1.00 20.00    -0.265 OA
BRANCH   5   7
HETATM    7  O11 UNL     1     -34.407  14.577  -5.810  1.00 20.00    -0.326 OA
HETATM    8  C7  UNL     1     -35.244  14.418  -6.959  1.00 20.00     0.213 C 
ENDBRANCH   5   7
ENDBRANCH   3   5
BRANCH   4   9
HETATM    9  C8  UNL     1     -33.919  17.499  -2.489  1.00 20.00     0.004 C 
BRANCH   9  10
HETATM   10  C9  UNL     1     -33.723  18.119  -1.105  1.00 20.00    -0.004 C 
HETATM   11  C6  UNL     1     -34.545  17.401  -0.046  1.00 20.00     0.005 C 
ENDBRANCH   9  10
ENDBRANCH   4   9
TORSDOF 4
ENDMDL
MODEL 2
REMARK VINA RESULT:      -4.2     10.990     12.162
REMARK  4 active torsions:
REMARK  status: ('A' for Active; 'I' for Inactive)
REMARK    1  A    between atoms: C1_1  and  C4_4 
REMARK    2  A    between atoms: C1_1  and  O11_11 
REMARK    3  A    between atoms: C5_5  and  C8_8 
REMARK    4  A    between atoms: C8_8  and  C9_9 
ROOT
HETATM    1  C2  UNL     1     -32.442   5.904   4.029  1.00 20.00     0.019 C 
HETATM    2  C3  UNL     1     -33.998   7.319   3.692  1.00 20.00     0.019 C 
HETATM    3  C4  UNL     1     -33.947   5.938   4.390  1.00 20.00     0.086 C 
HETATM    4  C5  UNL     1     -32.772   6.865   2.860  1.00 20.00    -0.013 C 
ENDROOT
BRANCH   3   5
HETATM    5  C1  UNL     1     -34.259   5.942   5.843  1.00 20.00     0.262 C 
HETATM    6  O10 UNL     1     -33.833   6.773   6.633  1.00 20.00    -0.265 OA
BRANCH   5   7
HETATM    7  O11 UNL     1     -35.078   4.892   6.135  1.00 20.00    -0.326 OA
HETATM    8  C7  UNL     1     -35.126   3.857   5.148  1.00 20.00     0.213 C 
ENDBRANCH   5   7
ENDBRANCH   3   5
BRANCH   4   9
HETATM    9  C8  UNL     1     -31.739   7.926   2.540  1.00 20.00     0.004 C 
BRANCH   9  10
HETATM   10  C9  UNL     1     -31.900   8.462   1.117  1.00 20.00    -0.004 C 
HETATM   11  C6  UNL     1     -32.431   9.887   1.110  1.00 20.00     0.005 C 
ENDBRANCH   9  10
ENDBRANCH   4   9
TORSDOF 4
ENDMDL
MODEL 3
REMARK VINA RESULT:      -4.1      1.489      2.470
REMARK  4 active torsions:
REMARK  status: ('A' for Active; 'I' for Inactive)
REMARK    1  A    between atoms: C1_1  and  C4_4 
REMARK    2  A    between atoms: C1_1  and  O11_11 
REMARK    3  A    between atoms: C5_5  and  C8_8 
REMARK    4  A    between atoms: C8_8  and  C9_9 
ROOT
HETATM    1  C2  UNL     1     -34.916  15.751  -2.078  1.00 20.00     0.019 C 
HETATM    2  C3  UNL     1     -33.514  17.355  -2.085  1.00 20.00     0.019 C 
HETATM    3  C4  UNL     1     -33.589  16.002  -2.835  1.00 20.00     0.086 C 
HETATM    4  C5  UNL     1     -34.391  16.711  -0.981  1.00 20.00    -0.013 C 
ENDROOT
BRANCH   3   5
HETATM    5  C1  UNL     1     -33.701  16.094  -4.313  1.00 20.00     0.262 C 
HETATM    6  O10 UNL     1     -32.894  16.675  -5.026  1.00 20.00    -0.265 OA
BRANCH   5   7
HETATM    7  O11 UNL     1     -34.822  15.439  -4.727  1.00 20.00    -0.326 OA
HETATM    8  C7  UNL     1     -34.597  14.321  -5.591  1.00 20.00     0.213 C 
ENDBRANCH   5   7
ENDBRANCH   3   5
BRANCH   4   9
HETATM    9  C8  UNL     1     -35.415  17.609  -0.318  1.00 20.00     0.004 C 
BRANCH   9  10
HETATM   10  C9  UNL     1     -35.248  17.633   1.201  1.00 20.00    -0.004 C 
HETATM   11  C6  UNL     1     -34.018  18.422   1.620  1.00 20.00     0.005 C 
ENDBRANCH   9  10
ENDBRANCH   4   9
TORSDOF 4
ENDMDL
MODEL 4
REMARK VINA RESULT:      -4.0     10.761     11.992
REMARK  4 active torsions:
REMARK  status: ('A' for Active; 'I' for Inactive)
REMARK    1  A    between atoms: C1_1  and  C4_4 
REMARK    2  A    between atoms: C1_1  and  O11_11 
REMARK    3  A    between atoms: C5_5  and  C8_8 
REMARK    4  A    between atoms: C8_8  and  C9_9 
ROOT
HETATM    1  C2  UNL     1     -33.183   6.672   4.430  1.00 20.00     0.019 C 
HETATM    2  C3  UNL     1     -33.408   5.959   2.435  1.00 20.00     0.019 C 
HETATM    3  C4  UNL     1     -33.691   5.340   3.826  1.00 20.00     0.086 C 
HETATM    4  C5  UNL     1     -32.363   6.868   3.130  1.00 20.00    -0.013 C 
ENDROOT
BRANCH   3   5
HETATM    5  C1  UNL     1     -35.112   5.009   4.104  1.00 20.00     0.262 C 
HETATM    6  O10 UNL     1     -36.062   5.627   3.642  1.00 20.00    -0.265 OA
BRANCH   5   7
HETATM    7  O11 UNL     1     -35.174   3.932   4.936  1.00 20.00    -0.326 OA
HETATM    8  C7  UNL     1     -35.039   4.223   6.330  1.00 20.00     0.213 C 
ENDBRANCH   5   7
ENDBRANCH   3   5
BRANCH   4   9
HETATM    9  C8  UNL     1     -32.243   8.286   2.610  1.00 20.00     0.004 C 
BRANCH   9  10
HETATM   10  C9  UNL     1     -31.678   8.321   1.189  1.00 20.00    -0.004 C 
HETATM   11  C6  UNL     1     -32.476   9.252   0.290  1.00 20.00     0.005 C 
ENDBRANCH   9  10
ENDBRANCH   4   9
TORSDOF 4
ENDMDL
MODEL 5
REMARK VINA RESULT:      -4.0      1.929      2.888
REMARK  4 active torsions:
REMARK  status: ('A' for Active; 'I' for Inactive)
REMARK    1  A    between atoms: C1_1  and  C4_4 
REMARK    2  A    between atoms: C1_1  and  O11_11 
REMARK    3  A    between atoms: C5_5  and  C8_8 
REMARK    4  A    between atoms: C8_8  and  C9_9 
ROOT
HETATM    1  C2  UNL     1     -34.732  16.589  -0.902  1.00 20.00     0.019 C 
HETATM    2  C3  UNL     1     -33.835  17.280  -2.706  1.00 20.00     0.019 C 
HETATM    3  C4  UNL     1     -34.546  15.965  -2.306  1.00 20.00     0.086 C 
HETATM    4  C5  UNL     1     -33.495  17.471  -1.206  1.00 20.00    -0.013 C 
ENDROOT
BRANCH   3   5
HETATM    5  C1  UNL     1     -35.798  15.662  -3.045  1.00 20.00     0.262 C 
HETATM    6  O10 UNL     1     -36.794  16.373  -3.027  1.00 20.00    -0.265 OA
BRANCH   5   7
HETATM    7  O11 UNL     1     -35.652  14.491  -3.727  1.00 20.00    -0.326 OA
HETATM    8  C7  UNL     1     -34.376  13.857  -3.595  1.00 20.00     0.213 C 
ENDBRANCH   5   7
ENDBRANCH   3   5
BRANCH   4   9
HETATM    9  C8  UNL     1     -33.525  18.890  -0.677  1.00 20.00     0.004 C 
BRANCH   9  10
HETATM   10  C9  UNL     1     -32.216  19.261   0.021  1.00 20.00    -0.004 C 
HETATM   11  C6  UNL     1     -32.263  18.943   1.508  1.00 20.00     0.005 C 
ENDBRANCH   9  10
ENDBRANCH   4   9
TORSDOF 4
ENDMDL
MODEL 6
REMARK VINA RESULT:      -4.0     10.457     11.582
REMARK  4 active torsions:
REMARK  status: ('A' for Active; 'I' for Inactive)
REMARK    1  A    between atoms: C1_1  and  C4_4 
REMARK    2  A    between atoms: C1_1  and  O11_11 
REMARK    3  A    between atoms: C5_5  and  C8_8 
REMARK    4  A    between atoms: C8_8  and  C9_9 
ROOT
HETATM    1  C2  UNL     1     -32.678   5.730   2.836  1.00 20.00     0.019 C 
HETATM    2  C3  UNL     1     -33.584   7.305   3.948  1.00 20.00     0.019 C 
HETATM    3  C4  UNL     1     -32.226   7.160   3.218  1.00 20.00     0.086 C 
HETATM    4  C5  UNL     1     -33.596   5.761   4.085  1.00 20.00    -0.013 C 
ENDROOT
BRANCH   3   5
HETATM    5  C1  UNL     1     -32.007   8.090   2.080  1.00 20.00     0.262 C 
HETATM    6  O10 UNL     1     -31.385   7.798   1.068  1.00 20.00    -0.265 OA
BRANCH   5   7
HETATM    7  O11 UNL     1     -32.600   9.287   2.350  1.00 20.00    -0.326 OA
HETATM    8  C7  UNL     1     -32.588  10.234   1.277  1.00 20.00     0.213 C 
ENDBRANCH   5   7
ENDBRANCH   3   5
BRANCH   4   9
HETATM    9  C8  UNL     1     -34.942   5.079   3.956  1.00 20.00     0.004 C 
BRANCH   9  10
HETATM   10  C9  UNL     1     -35.245   4.194   5.166  1.00 20.00    -0.004 C 
HETATM   11  C6  UNL     1     -34.714   4.802   6.454  1.00 20.00     0.005 C 
ENDBRANCH   9  10
ENDBRANCH   4   9
TORSDOF 4
ENDMDL
MODEL 7
REMARK VINA RESULT:      -4.0     10.259     11.365
REMARK  4 active torsions:
REMARK  status: ('A' for Active; 'I' for Inactive)
REMARK    1  A    between atoms: C1_1  and  C4_4 
REMARK    2  A    between atoms: C1_1  and  O11_11 
REMARK    3  A    between atoms: C5_5  and  C8_8 
REMARK    4  A    between atoms: C8_8  and  C9_9 
ROOT
HETATM    1  C2  UNL     1     -32.961   6.042   2.362  1.00 20.00     0.019 C 
HETATM    2  C3  UNL     1     -33.349   7.316   4.024  1.00 20.00     0.019 C 
HETATM    3  C4  UNL     1     -32.248   7.290   2.936  1.00 20.00     0.086 C 
HETATM    4  C5  UNL     1     -33.525   5.795   3.784  1.00 20.00    -0.013 C 
ENDROOT
BRANCH   3   5
HETATM    5  C1  UNL     1     -32.204   8.473   2.039  1.00 20.00     0.262 C 
HETATM    6  O10 UNL     1     -32.643   9.576   2.338  1.00 20.00    -0.265 OA
BRANCH   5   7
HETATM    7  O11 UNL     1     -31.608   8.131   0.862  1.00 20.00    -0.326 OA
HETATM    8  C7  UNL     1     -32.203   8.689  -0.313  1.00 20.00     0.213 C 
ENDBRANCH   5   7
ENDBRANCH   3   5
BRANCH   4   9
HETATM    9  C8  UNL     1     -34.936   5.252   3.871  1.00 20.00     0.004 C 
BRANCH   9  10
HETATM   10  C9  UNL     1     -35.096   4.277   5.037  1.00 20.00    -0.004 C 
HETATM   11  C6  UNL     1     -34.749   4.928   6.367  1.00 20.00     0.005 C 
ENDBRANCH   9  10
ENDBRANCH   4   9
TORSDOF 4
ENDMDL
MODEL 8
REMARK VINA RESULT:      -3.8     12.686     14.754
REMARK  4 active torsions:
REMARK  status: ('A' for Active; 'I' for Inactive)
REMARK    1  A    between atoms: C1_1  and  C4_4 
REMARK    2  A    between atoms: C1_1  and  O11_11 
REMARK    3  A    between atoms: C5_5  and  C8_8 
REMARK    4  A    between atoms: C8_8  and  C9_9 
ROOT
HETATM    1  C2  UNL     1     -41.237   3.574  -2.353  1.00 20.00     0.019 C 
HETATM    2  C3  UNL     1     -43.033   3.640  -3.497  1.00 20.00     0.019 C 
HETATM    3  C4  UNL     1     -42.494   4.477  -2.311  1.00 20.00     0.086 C 
HETATM    4  C5  UNL     1     -42.126   2.484  -3.002  1.00 20.00    -0.013 C 
ENDROOT
BRANCH   3   5
HETATM    5  C1  UNL     1     -42.261   5.916  -2.595  1.00 20.00     0.262 C 
HETATM    6  O10 UNL     1     -42.988   6.601  -3.301  1.00 20.00    -0.265 OA
BRANCH   5   7
HETATM    7  O11 UNL     1     -41.131   6.329  -1.953  1.00 20.00    -0.326 OA
HETATM    8  C7  UNL     1     -41.330   7.307  -0.928  1.00 20.00     0.213 C 
ENDBRANCH   5   7
ENDBRANCH   3   5
BRANCH   4   9
HETATM    9  C8  UNL     1     -41.479   1.625  -4.069  1.00 20.00     0.004 C 
BRANCH   9  10
HETATM   10  C9  UNL     1     -41.784   0.141  -3.862  1.00 20.00    -0.004 C 
HETATM   11  C6  UNL     1     -43.028  -0.064  -3.012  1.00 20.00     0.005 C 
ENDBRANCH   9  10
ENDBRANCH   4   9
TORSDOF 4
ENDMDL
MODEL 9
REMARK VINA RESULT:      -3.8      3.722      5.882
REMARK  4 active torsions:
REMARK  status: ('A' for Active; 'I' for Inactive)
REMARK    1  A    between atoms: C1_1  and  C4_4 
REMARK    2  A    between atoms: C1_1  and  O11_11 
REMARK    3  A    between atoms: C5_5  and  C8_8 
REMARK    4  A    between atoms: C8_8  and  C9_9 
ROOT
HETATM    1  C2  UNL     1     -33.501  17.626  -1.016  1.00 20.00     0.019 C 
HETATM    2  C3  UNL     1     -35.306  16.638  -1.567  1.00 20.00     0.019 C 
HETATM    3  C4  UNL     1     -34.679  17.032  -0.207  1.00 20.00     0.086 C 
HETATM    4  C5  UNL     1     -33.870  16.635  -2.149  1.00 20.00    -0.013 C 
ENDROOT
BRANCH   3   5
HETATM    5  C1  UNL     1     -35.459  18.004   0.601  1.00 20.00     0.262 C 
HETATM    6  O10 UNL     1     -36.654  18.218   0.450  1.00 20.00    -0.265 OA
BRANCH   5   7
HETATM    7  O11 UNL     1     -34.638  18.600   1.512  1.00 20.00    -0.326 OA
HETATM    8  C7  UNL     1     -34.720  18.082   2.844  1.00 20.00     0.213 C 
ENDBRANCH   5   7
ENDBRANCH   3   5
BRANCH   4   9
HETATM    9  C8  UNL     1     -33.712  17.137  -3.569  1.00 20.00     0.004 C 
BRANCH   9  10
HETATM   10  C9  UNL     1     -33.132  16.061  -4.488  1.00 20.00    -0.004 C 
HETATM   11  C6  UNL     1     -32.777  14.797  -3.720  1.00 20.00     0.005 C 
ENDBRANCH   9  10
ENDBRANCH   4   9
TORSDOF 4
ENDMDL
