MODEL 1
REMARK VINA RESULT:      -4.5      0.000      0.000
REMARK  1 active torsions:
REMARK  status: ('A' for Active; 'I' for Inactive)
REMARK    1  A    between atoms: C3_3  and  C7_7 
ROOT
HETATM    1  C1  UNL     1     -33.604  17.304  -4.215  1.00 20.00    -0.011 C 
HETATM    2  C2  UNL     1     -33.842  17.321  -2.894  1.00 20.00    -0.015 C 
HETATM    3  C4  UNL     1     -33.837  16.097  -5.076  1.00 20.00     0.040 C 
HETATM    4  C5  UNL     1     -34.399  16.141  -2.147  1.00 20.00     0.047 C 
HETATM    5  C6  UNL     1     -34.985  15.072  -3.075  1.00 20.00     0.017 C 
HETATM    6  C7  UNL     1     -34.065  14.814  -4.267  1.00 20.00     0.058 C 
HETATM    7 BR10 UNL     1     -33.515  18.839  -1.853  1.00 20.00    -0.056 Br
ENDROOT
BRANCH   6   8
HETATM    8  C3  UNL     1     -34.655  13.762  -5.156  1.00 20.00     0.127 C 
HETATM    9  C8  UNL     1     -35.125  14.208  -6.513  1.00 20.00     0.091 C 
HETATM   10  O9  UNL     1     -34.750  12.591  -4.792  1.00 20.00    -0.298 OA
ENDBRANCH   6   8
TORSDOF 1
ENDMDL
MODEL 2
REMARK VINA RESULT:      -4.3      2.400      3.324
REMARK  1 active torsions:
REMARK  status: ('A' for Active; 'I' for Inactive)
REMARK    1  A    between atoms: C3_3  and  C7_7 
ROOT
HETATM    1  C1  UNL     1     -33.677  17.301  -5.573  1.00 20.00    -0.011 C 
HETATM    2  C2  UNL     1     -34.220  17.335  -6.800  1.00 20.00    -0.015 C 
HETATM    3  C4  UNL     1     -33.660  16.069  -4.715  1.00 20.00     0.040 C 
HETATM    4  C5  UNL     1     -34.837  16.130  -7.455  1.00 20.00     0.047 C 
HETATM    5  C6  UNL     1     -34.477  14.819  -6.751  1.00 20.00     0.017 C 
HETATM    6  C7  UNL     1     -34.585  14.961  -5.233  1.00 20.00     0.058 C 
HETATM    7 BR10 UNL     1     -34.242  18.897  -7.826  1.00 20.00    -0.056 Br
ENDROOT
BRANCH   6   8
HETATM    8  C3  UNL     1     -34.234  13.666  -4.567  1.00 20.00     0.127 C 
HETATM    9  C8  UNL     1     -33.074  13.689  -3.610  1.00 20.00     0.091 C 
HETATM   10  O9  UNL     1     -34.864  12.634  -4.793  1.00 20.00    -0.298 OA
ENDBRANCH   6   8
TORSDOF 1
ENDMDL
MODEL 3
REMARK VINA RESULT:      -4.2      1.304      1.766
REMARK  1 active torsions:
REMARK  status: ('A' for Active; 'I' for Inactive)
REMARK    1  A    between atoms: C3_3  and  C7_7 
ROOT
HETATM    1  C1  UNL     1     -35.922  15.901  -2.500  1.00 20.00    -0.011 C 
HETATM    2  C2  UNL     1     -34.724  16.296  -2.043  1.00 20.00    -0.015 C 
HETATM    3  C4  UNL     1     -36.097  15.077  -3.743  1.00 20.00     0.040 C 
HETATM    4  C5  UNL     1     -33.430  15.925  -2.713  1.00 20.00     0.047 C 
HETATM    5  C6  UNL     1     -33.589  14.790  -3.729  1.00 20.00     0.017 C 
HETATM    6  C7  UNL     1     -34.828  15.001  -4.599  1.00 20.00     0.058 C 
HETATM    7 BR10 UNL     1     -34.552  17.343  -0.505  1.00 20.00    -0.056 Br
ENDROOT
BRANCH   6   8
HETATM    8  C3  UNL     1     -34.959  13.883  -5.588  1.00 20.00     0.127 C 
HETATM    9  C8  UNL     1     -35.245  14.270  -7.013  1.00 20.00     0.091 C 
HETATM   10  O9  UNL     1     -34.839  12.706  -5.251  1.00 20.00    -0.298 OA
ENDBRANCH   6   8
TORSDOF 1
ENDMDL
MODEL 4
REMARK VINA RESULT:      -4.2      3.236      4.703
REMARK  1 active torsions:
REMARK  status: ('A' for Active; 'I' for Inactive)
REMARK    1  A    between atoms: C3_3  and  C7_7 
ROOT
HETATM    1  C1  UNL     1     -35.030  15.013  -3.654  1.00 20.00    -0.011 C 
HETATM    2  C2  UNL     1     -34.458  15.493  -4.769  1.00 20.00    -0.015 C 
HETATM    3  C4  UNL     1     -34.827  15.623  -2.297  1.00 20.00     0.040 C 
HETATM    4  C5  UNL     1     -33.581  16.714  -4.777  1.00 20.00     0.047 C 
HETATM    5  C6  UNL     1     -33.692  17.536  -3.490  1.00 20.00     0.017 C 
HETATM    6  C7  UNL     1     -33.674  16.633  -2.257  1.00 20.00     0.058 C 
HETATM    7 BR10 UNL     1     -34.717  14.688  -6.435  1.00 20.00    -0.056 Br
ENDROOT
BRANCH   6   8
HETATM    8  C3  UNL     1     -33.778  17.459  -1.012  1.00 20.00     0.127 C 
HETATM    9  C8  UNL     1     -34.885  17.108  -0.056  1.00 20.00     0.091 C 
HETATM   10  O9  UNL     1     -32.995  18.380  -0.782  1.00 20.00    -0.298 OA
ENDBRANCH   6   8
TORSDOF 1
ENDMDL
MODEL 5
REMARK VINA RESULT:      -4.2      0.437      1.648
REMARK  1 active torsions:
REMARK  status: ('A' for Active; 'I' for Inactive)
REMARK    1  A    between atoms: C3_3  and  C7_7 
ROOT
HETATM    1  C1  UNL     1     -34.414  16.240  -1.974  1.00 20.00    -0.011 C 
HETATM    2  C2  UNL     1     -33.892  17.339  -2.539  1.00 20.00    -0.015 C 
HETATM    3  C4  UNL     1     -34.819  15.025  -2.758  1.00 20.00     0.040 C 
HETATM    4  C5  UNL     1     -33.627  17.453  -4.015  1.00 20.00     0.047 C 
HETATM    5  C6  UNL     1     -33.677  16.102  -4.735  1.00 20.00     0.017 C 
HETATM    6  C7  UNL     1     -34.875  15.274  -4.269  1.00 20.00     0.058 C 
HETATM    7 BR10 UNL     1     -33.425  18.841  -1.529  1.00 20.00    -0.056 Br
ENDROOT
BRANCH   6   8
HETATM    8  C3  UNL     1     -34.906  13.962  -4.991  1.00 20.00     0.127 C 
HETATM    9  C8  UNL     1     -35.076  14.014  -6.484  1.00 20.00     0.091 C 
HETATM   10  O9  UNL     1     -34.798  12.894  -4.390  1.00 20.00    -0.298 OA
ENDBRANCH   6   8
TORSDOF 1
ENDMDL
MODEL 6
REMARK VINA RESULT:      -4.2      1.264      1.443
REMARK  1 active torsions:
REMARK  status: ('A' for Active; 'I' for Inactive)
REMARK    1  A    between atoms: C3_3  and  C7_7 
ROOT
HETATM    1  C1  UNL     1     -33.685  16.269  -2.361  1.00 20.00    -0.011 C 
HETATM    2  C2  UNL     1     -34.832  16.897  -2.061  1.00 20.00    -0.015 C 
HETATM    3  C4  UNL     1     -33.602  15.127  -3.332  1.00 20.00     0.040 C 
HETATM    4  C5  UNL     1     -36.149  16.541  -2.694  1.00 20.00     0.047 C 
HETATM    5  C6  UNL     1     -35.994  15.660  -3.938  1.00 20.00     0.017 C 
HETATM    6  C7  UNL     1     -34.973  14.548  -3.700  1.00 20.00     0.058 C 
HETATM    7 BR10 UNL     1     -34.896  18.299  -0.827  1.00 20.00    -0.056 Br
ENDROOT
BRANCH   6   8
HETATM    8  C3  UNL     1     -34.843  13.698  -4.926  1.00 20.00     0.127 C 
HETATM    9  C8  UNL     1     -34.805  14.416  -6.247  1.00 20.00     0.091 C 
HETATM   10  O9  UNL     1     -34.771  12.472  -4.856  1.00 20.00    -0.298 OA
ENDBRANCH   6   8
TORSDOF 1
ENDMDL
MODEL 7
REMARK VINA RESULT:      -4.2      2.995      4.515
REMARK  1 active torsions:
REMARK  status: ('A' for Active; 'I' for Inactive)
REMARK    1  A    between atoms: C3_3  and  C7_7 
ROOT
HETATM    1  C1  UNL     1     -35.216  15.048  -4.112  1.00 20.00    -0.011 C 
HETATM    2  C2  UNL     1     -34.446  15.541  -5.095  1.00 20.00    -0.015 C 
HETATM    3  C4  UNL     1     -35.125  15.510  -2.686  1.00 20.00     0.040 C 
HETATM    4  C5  UNL     1     -33.437  16.634  -4.874  1.00 20.00     0.047 C 
HETATM    5  C6  UNL     1     -33.621  17.352  -3.534  1.00 20.00     0.017 C 
HETATM    6  C7  UNL     1     -33.876  16.354  -2.405  1.00 20.00     0.058 C 
HETATM    7 BR10 UNL     1     -34.574  14.920  -6.853  1.00 20.00    -0.056 Br
ENDROOT
BRANCH   6   8
HETATM    8  C3  UNL     1     -34.046  17.078  -1.105  1.00 20.00     0.127 C 
HETATM    9  C8  UNL     1     -33.290  18.369  -0.945  1.00 20.00     0.091 C 
HETATM   10  O9  UNL     1     -34.770  16.640  -0.212  1.00 20.00    -0.298 OA
ENDBRANCH   6   8
TORSDOF 1
ENDMDL
MODEL 8
REMARK VINA RESULT:      -4.0      3.004      4.181
REMARK  1 active torsions:
REMARK  status: ('A' for Active; 'I' for Inactive)
REMARK    1  A    between atoms: C3_3  and  C7_7 
ROOT
HETATM    1  C1  UNL     1     -37.120  15.021  -4.734  1.00 20.00    -0.011 C 
HETATM    2  C2  UNL     1     -37.107  15.075  -6.075  1.00 20.00    -0.015 C 
HETATM    3  C4  UNL     1     -35.927  14.619  -3.916  1.00 20.00     0.040 C 
HETATM    4  C5  UNL     1     -35.883  14.772  -6.895  1.00 20.00     0.047 C 
HETATM    5  C6  UNL     1     -34.599  14.744  -6.060  1.00 20.00     0.017 C 
HETATM    6  C7  UNL     1     -34.810  13.982  -4.751  1.00 20.00     0.058 C 
HETATM    7 BR10 UNL     1     -38.623  15.556  -7.057  1.00 20.00    -0.056 Br
ENDROOT
BRANCH   6   8
HETATM    8  C3  UNL     1     -33.541  13.964  -3.956  1.00 20.00     0.127 C 
HETATM    9  C8  UNL     1     -33.018  15.293  -3.484  1.00 20.00     0.091 C 
HETATM   10  O9  UNL     1     -32.955  12.912  -3.702  1.00 20.00    -0.298 OA
ENDBRANCH   6   8
TORSDOF 1
ENDMDL
MODEL 9
REMARK VINA RESULT:      -4.0      6.678      8.158
REMARK  1 active torsions:
REMARK  status: ('A' for Active; 'I' for Inactive)
REMARK    1  A    between atoms: C3_3  and  C7_7 
ROOT
HETATM    1  C1  UNL     1     -33.849  18.522   4.106  1.00 20.00    -0.011 C 
HETATM    2  C2  UNL     1     -32.821  18.865   4.898  1.00 20.00    -0.015 C 
HETATM    3  C4  UNL     1     -33.770  18.529   2.607  1.00 20.00     0.040 C 
HETATM    4  C5  UNL     1     -31.472  19.260   4.363  1.00 20.00     0.047 C 
HETATM    5  C6  UNL     1     -31.288  18.898   2.886  1.00 20.00     0.017 C 
HETATM    6  C7  UNL     1     -32.531  19.257   2.072  1.00 20.00     0.058 C 
HETATM    7 BR10 UNL     1     -32.969  18.866   6.761  1.00 20.00    -0.056 Br
ENDROOT
BRANCH   6   8
HETATM    8  C3  UNL     1     -32.325  18.900   0.632  1.00 20.00     0.127 C 
HETATM    9  C8  UNL     1     -33.464  18.206  -0.063  1.00 20.00     0.091 C 
HETATM   10  O9  UNL     1     -31.275  19.162   0.047  1.00 20.00    -0.298 OA
ENDBRANCH   6   8
TORSDOF 1
ENDMDL
