MODEL 1
REMARK VINA RESULT:      -4.3      0.000      0.000
REMARK  2 active torsions:
REMARK  status: ('A' for Active; 'I' for Inactive)
REMARK    1  A    between atoms: C6_6  and  C8_8 
REMARK    2  A    between atoms: C8_8  and  O9_9 
ROOT
HETATM    1  C1  UNL     1     -34.659  13.300  -4.326  1.00 20.00    -0.004 C 
HETATM    2  C2  UNL     1     -33.348  13.665  -3.851  1.00 20.00    -0.003 C 
HETATM    3  C3  UNL     1     -35.714  14.107  -4.141  1.00 20.00    -0.025 C 
HETATM    4  C4  UNL     1     -33.084  14.905  -3.414  1.00 20.00    -0.003 C 
HETATM    5  C5  UNL     1     -35.593  15.433  -3.437  1.00 20.00     0.054 C 
HETATM    6  C6  UNL     1     -34.143  15.979  -3.362  1.00 20.00     0.060 C 
HETATM    7 BR10 UNL     1     -33.824  17.096  -4.976  1.00 20.00    -0.079 Br
ENDROOT
BRANCH   6   8
HETATM    8  C8  UNL     1     -33.971  16.894  -2.148  1.00 20.00     0.192 C 
BRANCH   8   9
HETATM    9  O9  UNL     1     -34.569  16.268  -1.029  1.00 20.00    -0.394 OA
HETATM   10  C7  UNL     1     -34.877  17.204  -0.002  1.00 20.00     0.201 C 
ENDBRANCH   8   9
ENDBRANCH   6   8
TORSDOF 2
ENDMDL
MODEL 2
REMARK VINA RESULT:      -4.2      2.297      3.241
REMARK  2 active torsions:
REMARK  status: ('A' for Active; 'I' for Inactive)
REMARK    1  A    between atoms: C6_6  and  C8_8 
REMARK    2  A    between atoms: C8_8  and  O9_9 
ROOT
HETATM    1  C1  UNL     1     -34.784  13.411  -4.142  1.00 20.00    -0.004 C 
HETATM    2  C2  UNL     1     -35.761  14.437  -4.402  1.00 20.00    -0.003 C 
HETATM    3  C3  UNL     1     -33.523  13.720  -3.806  1.00 20.00    -0.025 C 
HETATM    4  C4  UNL     1     -35.520  15.722  -4.103  1.00 20.00    -0.003 C 
HETATM    5  C5  UNL     1     -33.058  15.147  -3.676  1.00 20.00     0.054 C 
HETATM    6  C6  UNL     1     -34.208  16.174  -3.509  1.00 20.00     0.060 C 
HETATM    7 BR10 UNL     1     -34.567  16.383  -1.565  1.00 20.00    -0.079 Br
ENDROOT
BRANCH   6   8
HETATM    8  C8  UNL     1     -33.787  17.549  -4.033  1.00 20.00     0.192 C 
BRANCH   8   9
HETATM    9  O9  UNL     1     -33.341  17.400  -5.368  1.00 20.00    -0.394 OA
HETATM   10  C7  UNL     1     -33.760  18.485  -6.188  1.00 20.00     0.201 C 
ENDBRANCH   8   9
ENDBRANCH   6   8
TORSDOF 2
ENDMDL
MODEL 3
REMARK VINA RESULT:      -4.0      2.488      3.449
REMARK  2 active torsions:
REMARK  status: ('A' for Active; 'I' for Inactive)
REMARK    1  A    between atoms: C6_6  and  C8_8 
REMARK    2  A    between atoms: C8_8  and  O9_9 
ROOT
HETATM    1  C1  UNL     1     -33.003  14.771  -3.668  1.00 20.00    -0.004 C 
HETATM    2  C2  UNL     1     -33.585  16.033  -4.049  1.00 20.00    -0.003 C 
HETATM    3  C3  UNL     1     -33.692  13.626  -3.775  1.00 20.00    -0.025 C 
HETATM    4  C4  UNL     1     -34.740  16.091  -4.728  1.00 20.00    -0.003 C 
HETATM    5  C5  UNL     1     -35.104  13.589  -4.300  1.00 20.00     0.054 C 
HETATM    6  C6  UNL     1     -35.512  14.849  -5.107  1.00 20.00     0.060 C 
HETATM    7 BR10 UNL     1     -35.064  14.528  -7.017  1.00 20.00    -0.079 Br
ENDROOT
BRANCH   6   8
HETATM    8  C8  UNL     1     -37.023  15.072  -5.036  1.00 20.00     0.192 C 
BRANCH   8   9
HETATM    9  O9  UNL     1     -37.531  14.345  -3.933  1.00 20.00    -0.394 OA
HETATM   10  C7  UNL     1     -38.779  14.865  -3.487  1.00 20.00     0.201 C 
ENDBRANCH   8   9
ENDBRANCH   6   8
TORSDOF 2
ENDMDL
MODEL 4
REMARK VINA RESULT:      -3.9      2.812      3.711
REMARK  2 active torsions:
REMARK  status: ('A' for Active; 'I' for Inactive)
REMARK    1  A    between atoms: C6_6  and  C8_8 
REMARK    2  A    between atoms: C8_8  and  O9_9 
ROOT
HETATM    1  C1  UNL     1     -34.390  15.509  -7.242  1.00 20.00    -0.004 C 
HETATM    2  C2  UNL     1     -35.284  14.409  -6.982  1.00 20.00    -0.003 C 
HETATM    3  C3  UNL     1     -34.089  16.401  -6.289  1.00 20.00    -0.025 C 
HETATM    4  C4  UNL     1     -35.670  14.104  -5.735  1.00 20.00    -0.003 C 
HETATM    5  C5  UNL     1     -34.660  16.307  -4.897  1.00 20.00     0.054 C 
HETATM    6  C6  UNL     1     -35.220  14.907  -4.537  1.00 20.00     0.060 C 
HETATM    7 BR10 UNL     1     -33.747  13.845  -3.730  1.00 20.00    -0.079 Br
ENDROOT
BRANCH   6   8
HETATM    8  C8  UNL     1     -36.319  15.018  -3.479  1.00 20.00     0.192 C 
BRANCH   8   9
HETATM    9  O9  UNL     1     -37.387  14.168  -3.853  1.00 20.00    -0.394 OA
HETATM   10  C7  UNL     1     -38.640  14.843  -3.806  1.00 20.00     0.201 C 
ENDBRANCH   8   9
ENDBRANCH   6   8
TORSDOF 2
ENDMDL
MODEL 5
REMARK VINA RESULT:      -3.9     11.372     11.953
REMARK  2 active torsions:
REMARK  status: ('A' for Active; 'I' for Inactive)
REMARK    1  A    between atoms: C6_6  and  C8_8 
REMARK    2  A    between atoms: C8_8  and  O9_9 
ROOT
HETATM    1  C1  UNL     1     -34.979   4.890   5.905  1.00 20.00    -0.004 C 
HETATM    2  C2  UNL     1     -34.088   5.972   6.242  1.00 20.00    -0.003 C 
HETATM    3  C3  UNL     1     -35.374   4.682   4.641  1.00 20.00    -0.025 C 
HETATM    4  C4  UNL     1     -33.445   6.667   5.293  1.00 20.00    -0.003 C 
HETATM    5  C5  UNL     1     -34.910   5.557   3.505  1.00 20.00     0.054 C 
HETATM    6  C6  UNL     1     -33.636   6.383   3.822  1.00 20.00     0.060 C 
HETATM    7 BR10 UNL     1     -32.055   5.299   3.297  1.00 20.00    -0.079 Br
ENDROOT
BRANCH   6   8
HETATM    8  C8  UNL     1     -33.597   7.661   2.984  1.00 20.00     0.192 C 
BRANCH   8   9
HETATM    9  O9  UNL     1     -32.260   7.891   2.583  1.00 20.00    -0.394 OA
HETATM   10  C7  UNL     1     -32.188   8.764   1.460  1.00 20.00     0.201 C 
ENDBRANCH   8   9
ENDBRANCH   6   8
TORSDOF 2
ENDMDL
MODEL 6
REMARK VINA RESULT:      -3.9     12.075     12.721
REMARK  2 active torsions:
REMARK  status: ('A' for Active; 'I' for Inactive)
REMARK    1  A    between atoms: C6_6  and  C8_8 
REMARK    2  A    between atoms: C8_8  and  O9_9 
ROOT
HETATM    1  C1  UNL     1     -34.882   4.712   6.687  1.00 20.00    -0.004 C 
HETATM    2  C2  UNL     1     -34.779   3.774   5.598  1.00 20.00    -0.003 C 
HETATM    3  C3  UNL     1     -34.483   5.984   6.550  1.00 20.00    -0.025 C 
HETATM    4  C4  UNL     1     -34.497   4.181   4.352  1.00 20.00    -0.003 C 
HETATM    5  C5  UNL     1     -33.912   6.508   5.257  1.00 20.00     0.054 C 
HETATM    6  C6  UNL     1     -34.241   5.632   4.020  1.00 20.00     0.060 C 
HETATM    7 BR10 UNL     1     -35.945   6.290   3.237  1.00 20.00    -0.079 Br
ENDROOT
BRANCH   6   8
HETATM    8  C8  UNL     1     -33.166   5.791   2.943  1.00 20.00     0.192 C 
BRANCH   8   9
HETATM    9  O9  UNL     1     -32.251   6.783   3.368  1.00 20.00    -0.394 OA
HETATM   10  C7  UNL     1     -32.084   7.802   2.387  1.00 20.00     0.201 C 
ENDBRANCH   8   9
ENDBRANCH   6   8
TORSDOF 2
ENDMDL
MODEL 7
REMARK VINA RESULT:      -3.8     12.511     13.876
REMARK  2 active torsions:
REMARK  status: ('A' for Active; 'I' for Inactive)
REMARK    1  A    between atoms: C6_6  and  C8_8 
REMARK    2  A    between atoms: C8_8  and  O9_9 
ROOT
HETATM    1  C1  UNL     1     -41.165   7.113  -0.853  1.00 20.00    -0.004 C 
HETATM    2  C2  UNL     1     -40.441   5.965  -0.365  1.00 20.00    -0.003 C 
HETATM    3  C3  UNL     1     -42.023   7.009  -1.877  1.00 20.00    -0.025 C 
HETATM    4  C4  UNL     1     -40.758   4.723  -0.758  1.00 20.00    -0.003 C 
HETATM    5  C5  UNL     1     -42.284   5.698  -2.572  1.00 20.00     0.054 C 
HETATM    6  C6  UNL     1     -41.862   4.452  -1.751  1.00 20.00     0.060 C 
HETATM    7 BR10 UNL     1     -43.417   3.887  -0.650  1.00 20.00    -0.079 Br
ENDROOT
BRANCH   6   8
HETATM    8  C8  UNL     1     -41.524   3.282  -2.677  1.00 20.00     0.192 C 
BRANCH   8   9
HETATM    9  O9  UNL     1     -42.503   2.276  -2.500  1.00 20.00    -0.394 OA
HETATM   10  C7  UNL     1     -42.552   1.386  -3.610  1.00 20.00     0.201 C 
ENDBRANCH   8   9
ENDBRANCH   6   8
TORSDOF 2
ENDMDL
MODEL 8
REMARK VINA RESULT:      -3.8      1.721      1.948
REMARK  2 active torsions:
REMARK  status: ('A' for Active; 'I' for Inactive)
REMARK    1  A    between atoms: C6_6  and  C8_8 
REMARK    2  A    between atoms: C8_8  and  O9_9 
ROOT
HETATM    1  C1  UNL     1     -34.674  14.183  -6.200  1.00 20.00    -0.004 C 
HETATM    2  C2  UNL     1     -34.306  15.575  -6.138  1.00 20.00    -0.003 C 
HETATM    3  C3  UNL     1     -34.847  13.459  -5.085  1.00 20.00    -0.025 C 
HETATM    4  C4  UNL     1     -34.343  16.255  -4.982  1.00 20.00    -0.003 C 
HETATM    5  C5  UNL     1     -34.673  14.053  -3.711  1.00 20.00     0.054 C 
HETATM    6  C6  UNL     1     -34.738  15.602  -3.679  1.00 20.00     0.060 C 
HETATM    7 BR10 UNL     1     -36.632  16.133  -3.391  1.00 20.00    -0.079 Br
ENDROOT
BRANCH   6   8
HETATM    8  C8  UNL     1     -33.937  16.154  -2.498  1.00 20.00     0.192 C 
BRANCH   8   9
HETATM    9  O9  UNL     1     -34.747  16.086  -1.340  1.00 20.00    -0.394 OA
HETATM   10  C7  UNL     1     -34.467  17.151  -0.437  1.00 20.00     0.201 C 
ENDBRANCH   8   9
ENDBRANCH   6   8
TORSDOF 2
ENDMDL
MODEL 9
REMARK VINA RESULT:      -3.8      2.395      3.747
REMARK  2 active torsions:
REMARK  status: ('A' for Active; 'I' for Inactive)
REMARK    1  A    between atoms: C6_6  and  C8_8 
REMARK    2  A    between atoms: C8_8  and  O9_9 
ROOT
HETATM    1  C1  UNL     1     -33.690  17.208  -2.716  1.00 20.00    -0.004 C 
HETATM    2  C2  UNL     1     -33.790  17.214  -4.154  1.00 20.00    -0.003 C 
HETATM    3  C3  UNL     1     -34.466  16.410  -1.968  1.00 20.00    -0.025 C 
HETATM    4  C4  UNL     1     -34.489  16.275  -4.808  1.00 20.00    -0.003 C 
HETATM    5  C5  UNL     1     -35.478  15.477  -2.581  1.00 20.00     0.054 C 
HETATM    6  C6  UNL     1     -35.236  15.181  -4.084  1.00 20.00     0.060 C 
HETATM    7 BR10 UNL     1     -34.060  13.583  -4.214  1.00 20.00    -0.079 Br
ENDROOT
BRANCH   6   8
HETATM    8  C8  UNL     1     -36.548  14.824  -4.784  1.00 20.00     0.192 C 
BRANCH   8   9
HETATM    9  O9  UNL     1     -37.419  14.243  -3.833  1.00 20.00    -0.394 OA
HETATM   10  C7  UNL     1     -38.758  14.696  -3.996  1.00 20.00     0.201 C 
ENDBRANCH   8   9
ENDBRANCH   6   8
TORSDOF 2
ENDMDL
