MODEL 1
REMARK VINA RESULT:      -3.6      0.000      0.000
REMARK  3 active torsions:
REMARK  status: ('A' for Active; 'I' for Inactive)
REMARK    1  A    between atoms: C1_1  and  C6_6 
REMARK    2  A    between atoms: C1_1  and  O9_9 
REMARK    3  A    between atoms: C7_7  and  O9_9 
ROOT
HETATM    1  C1  UNL     1     -34.195   6.043   3.981  1.00 20.00     0.274 C 
HETATM    2  O8  UNL     1     -34.903   5.468   3.164  1.00 20.00    -0.264 OA
ENDROOT
BRANCH   1   3
HETATM    3  C6  UNL     1     -33.874   5.522   5.371  1.00 20.00     0.154 C 
HETATM    4  C2  UNL     1     -34.047   6.634   6.405  1.00 20.00     0.033 C 
HETATM    5  S10 UNL     1     -35.023   4.155   5.748  1.00 20.00    -0.082 SA
ENDBRANCH   1   3
BRANCH   1   6
HETATM    6  O9  UNL     1     -33.577   7.249   3.786  1.00 20.00    -0.310 OA
BRANCH   6   7
HETATM    7  C7  UNL     1     -32.294   7.193   3.161  1.00 20.00     0.060 C 
HETATM    8  C3  UNL     1     -32.019   5.749   2.744  1.00 20.00     0.045 C 
HETATM    9  C4  UNL     1     -32.336   8.106   1.938  1.00 20.00     0.045 C 
HETATM   10  C5  UNL     1     -31.245   7.680   4.160  1.00 20.00     0.045 C 
ENDBRANCH   6   7
ENDBRANCH   1   6
TORSDOF 3
ENDMDL
MODEL 2
REMARK VINA RESULT:      -3.6      0.020      1.380
REMARK  3 active torsions:
REMARK  status: ('A' for Active; 'I' for Inactive)
REMARK    1  A    between atoms: C1_1  and  C6_6 
REMARK    2  A    between atoms: C1_1  and  O9_9 
REMARK    3  A    between atoms: C7_7  and  O9_9 
ROOT
HETATM    1  C1  UNL     1     -34.191   6.028   3.986  1.00 20.00     0.274 C 
HETATM    2  O8  UNL     1     -34.889   5.443   3.167  1.00 20.00    -0.264 OA
ENDROOT
BRANCH   1   3
HETATM    3  C6  UNL     1     -33.880   5.517   5.383  1.00 20.00     0.154 C 
HETATM    4  C2  UNL     1     -34.050   6.640   6.405  1.00 20.00     0.033 C 
HETATM    5  S10 UNL     1     -35.039   4.161   5.767  1.00 20.00    -0.082 SA
ENDBRANCH   1   3
BRANCH   1   6
HETATM    6  O9  UNL     1     -33.580   7.237   3.788  1.00 20.00    -0.310 OA
BRANCH   6   7
HETATM    7  C7  UNL     1     -32.306   7.187   3.145  1.00 20.00     0.060 C 
HETATM    8  C3  UNL     1     -32.338   8.113   1.930  1.00 20.00     0.045 C 
HETATM    9  C4  UNL     1     -31.262   7.662   4.154  1.00 20.00     0.045 C 
HETATM   10  C5  UNL     1     -32.029   5.745   2.725  1.00 20.00     0.045 C 
ENDBRANCH   6   7
ENDBRANCH   1   6
TORSDOF 3
ENDMDL
MODEL 3
REMARK VINA RESULT:      -3.5     11.690     12.993
REMARK  3 active torsions:
REMARK  status: ('A' for Active; 'I' for Inactive)
REMARK    1  A    between atoms: C1_1  and  C6_6 
REMARK    2  A    between atoms: C1_1  and  O9_9 
REMARK    3  A    between atoms: C7_7  and  O9_9 
ROOT
HETATM    1  C1  UNL     1     -33.622  16.182  -4.424  1.00 20.00     0.274 C 
HETATM    2  O8  UNL     1     -32.984  16.979  -5.101  1.00 20.00    -0.264 OA
ENDROOT
BRANCH   1   3
HETATM    3  C6  UNL     1     -34.565  15.130  -4.981  1.00 20.00     0.154 C 
HETATM    4  C2  UNL     1     -34.380  15.003  -6.492  1.00 20.00     0.033 C 
HETATM    5  S10 UNL     1     -34.176  13.535  -4.183  1.00 20.00    -0.082 SA
ENDBRANCH   1   3
BRANCH   1   6
HETATM    6  O9  UNL     1     -33.599  16.106  -3.057  1.00 20.00    -0.310 OA
BRANCH   6   7
HETATM    7  C7  UNL     1     -34.385  17.082  -2.370  1.00 20.00     0.060 C 
HETATM    8  C3  UNL     1     -35.712  17.245  -3.109  1.00 20.00     0.045 C 
HETATM    9  C4  UNL     1     -34.619  16.568  -0.951  1.00 20.00     0.045 C 
HETATM   10  C5  UNL     1     -33.610  18.399  -2.344  1.00 20.00     0.045 C 
ENDBRANCH   6   7
ENDBRANCH   1   6
TORSDOF 3
ENDMDL
MODEL 4
REMARK VINA RESULT:      -3.5     11.687     12.989
REMARK  3 active torsions:
REMARK  status: ('A' for Active; 'I' for Inactive)
REMARK    1  A    between atoms: C1_1  and  C6_6 
REMARK    2  A    between atoms: C1_1  and  O9_9 
REMARK    3  A    between atoms: C7_7  and  O9_9 
ROOT
HETATM    1  C1  UNL     1     -33.644  16.203  -4.401  1.00 20.00     0.274 C 
HETATM    2  O8  UNL     1     -33.012  17.014  -5.067  1.00 20.00    -0.264 OA
ENDROOT
BRANCH   1   3
HETATM    3  C6  UNL     1     -34.580  15.152  -4.973  1.00 20.00     0.154 C 
HETATM    4  C2  UNL     1     -34.367  15.020  -6.480  1.00 20.00     0.033 C 
HETATM    5  S10 UNL     1     -34.212  13.559  -4.163  1.00 20.00    -0.082 SA
ENDBRANCH   1   3
BRANCH   1   6
HETATM    6  O9  UNL     1     -33.621  16.108  -3.035  1.00 20.00    -0.310 OA
BRANCH   6   7
HETATM    7  C7  UNL     1     -34.395  17.084  -2.335  1.00 20.00     0.060 C 
HETATM    8  C3  UNL     1     -34.631  16.586  -0.910  1.00 20.00     0.045 C 
HETATM    9  C4  UNL     1     -33.594  18.385  -2.323  1.00 20.00     0.045 C 
HETATM   10  C5  UNL     1     -35.719  17.275  -3.072  1.00 20.00     0.045 C 
ENDBRANCH   6   7
ENDBRANCH   1   6
TORSDOF 3
ENDMDL
MODEL 5
REMARK VINA RESULT:      -3.5     11.425     12.717
REMARK  3 active torsions:
REMARK  status: ('A' for Active; 'I' for Inactive)
REMARK    1  A    between atoms: C1_1  and  C6_6 
REMARK    2  A    between atoms: C1_1  and  O9_9 
REMARK    3  A    between atoms: C7_7  and  O9_9 
ROOT
HETATM    1  C1  UNL     1     -33.449  15.934  -4.159  1.00 20.00     0.274 C 
HETATM    2  O8  UNL     1     -33.059  16.884  -4.827  1.00 20.00    -0.264 OA
ENDROOT
BRANCH   1   3
HETATM    3  C6  UNL     1     -33.838  14.578  -4.723  1.00 20.00     0.154 C 
HETATM    4  C2  UNL     1     -34.392  13.685  -3.614  1.00 20.00     0.033 C 
HETATM    5  S10 UNL     1     -35.119  14.835  -5.996  1.00 20.00    -0.082 SA
ENDBRANCH   1   3
BRANCH   1   6
HETATM    6  O9  UNL     1     -33.606  15.932  -2.799  1.00 20.00    -0.310 OA
BRANCH   6   7
HETATM    7  C7  UNL     1     -34.415  16.982  -2.268  1.00 20.00     0.060 C 
HETATM    8  C3  UNL     1     -33.672  18.305  -2.445  1.00 20.00     0.045 C 
HETATM    9  C4  UNL     1     -35.726  16.994  -3.052  1.00 20.00     0.045 C 
HETATM   10  C5  UNL     1     -34.675  16.697  -0.790  1.00 20.00     0.045 C 
ENDBRANCH   6   7
ENDBRANCH   1   6
TORSDOF 3
ENDMDL
MODEL 6
REMARK VINA RESULT:      -3.5     12.262     13.492
REMARK  3 active torsions:
REMARK  status: ('A' for Active; 'I' for Inactive)
REMARK    1  A    between atoms: C1_1  and  C6_6 
REMARK    2  A    between atoms: C1_1  and  O9_9 
REMARK    3  A    between atoms: C7_7  and  O9_9 
ROOT
HETATM    1  C1  UNL     1     -33.787  16.335  -5.090  1.00 20.00     0.274 C 
HETATM    2  O8  UNL     1     -32.630  16.189  -4.715  1.00 20.00    -0.264 OA
ENDROOT
BRANCH   1   3
HETATM    3  C6  UNL     1     -34.232  16.363  -6.543  1.00 20.00     0.154 C 
HETATM    4  C2  UNL     1     -34.464  14.941  -7.050  1.00 20.00     0.033 C 
HETATM    5  S10 UNL     1     -35.789  17.310  -6.645  1.00 20.00    -0.082 SA
ENDBRANCH   1   3
BRANCH   1   6
HETATM    6  O9  UNL     1     -34.871  16.503  -4.271  1.00 20.00    -0.310 OA
BRANCH   6   7
HETATM    7  C7  UNL     1     -35.079  15.473  -3.303  1.00 20.00     0.060 C 
HETATM    8  C3  UNL     1     -34.760  16.034  -1.919  1.00 20.00     0.045 C 
HETATM    9  C4  UNL     1     -36.546  15.053  -3.387  1.00 20.00     0.045 C 
HETATM   10  C5  UNL     1     -34.164  14.297  -3.639  1.00 20.00     0.045 C 
ENDBRANCH   6   7
ENDBRANCH   1   6
TORSDOF 3
ENDMDL
MODEL 7
REMARK VINA RESULT:      -3.4     11.538     12.798
REMARK  3 active torsions:
REMARK  status: ('A' for Active; 'I' for Inactive)
REMARK    1  A    between atoms: C1_1  and  C6_6 
REMARK    2  A    between atoms: C1_1  and  O9_9 
REMARK    3  A    between atoms: C7_7  and  O9_9 
ROOT
HETATM    1  C1  UNL     1     -35.157  14.195  -5.139  1.00 20.00     0.274 C 
HETATM    2  O8  UNL     1     -34.904  13.001  -5.237  1.00 20.00    -0.264 OA
ENDROOT
BRANCH   1   3
HETATM    3  C6  UNL     1     -35.642  15.077  -6.277  1.00 20.00     0.154 C 
HETATM    4  C2  UNL     1     -35.432  14.371  -7.616  1.00 20.00     0.033 C 
HETATM    5  S10 UNL     1     -37.420  15.401  -6.031  1.00 20.00    -0.082 SA
ENDBRANCH   1   3
BRANCH   1   6
HETATM    6  O9  UNL     1     -35.041  14.939  -3.995  1.00 20.00    -0.310 OA
BRANCH   6   7
HETATM    7  C7  UNL     1     -33.729  15.420  -3.700  1.00 20.00     0.060 C 
HETATM    8  C3  UNL     1     -33.265  16.307  -4.854  1.00 20.00     0.045 C 
HETATM    9  C4  UNL     1     -33.814  16.225  -2.405  1.00 20.00     0.045 C 
HETATM   10  C5  UNL     1     -32.799  14.220  -3.527  1.00 20.00     0.045 C 
ENDBRANCH   6   7
ENDBRANCH   1   6
TORSDOF 3
ENDMDL
MODEL 8
REMARK VINA RESULT:      -3.4     11.937     13.101
REMARK  3 active torsions:
REMARK  status: ('A' for Active; 'I' for Inactive)
REMARK    1  A    between atoms: C1_1  and  C6_6 
REMARK    2  A    between atoms: C1_1  and  O9_9 
REMARK    3  A    between atoms: C7_7  and  O9_9 
ROOT
HETATM    1  C1  UNL     1     -33.869  16.771  -4.050  1.00 20.00     0.274 C 
HETATM    2  O8  UNL     1     -33.365  17.389  -4.979  1.00 20.00    -0.264 OA
ENDROOT
BRANCH   1   3
HETATM    3  C6  UNL     1     -34.486  17.408  -2.816  1.00 20.00     0.154 C 
HETATM    4  C2  UNL     1     -34.284  16.505  -1.600  1.00 20.00     0.033 C 
HETATM    5  S10 UNL     1     -33.663  19.011  -2.530  1.00 20.00    -0.082 SA
ENDBRANCH   1   3
BRANCH   1   6
HETATM    6  O9  UNL     1     -33.960  15.408  -3.961  1.00 20.00    -0.310 OA
BRANCH   6   7
HETATM    7  C7  UNL     1     -34.921  14.794  -4.821  1.00 20.00     0.060 C 
HETATM    8  C3  UNL     1     -34.380  14.815  -6.249  1.00 20.00     0.045 C 
HETATM    9  C4  UNL     1     -35.117  13.357  -4.342  1.00 20.00     0.045 C 
HETATM   10  C5  UNL     1     -36.230  15.576  -4.723  1.00 20.00     0.045 C 
ENDBRANCH   6   7
ENDBRANCH   1   6
TORSDOF 3
ENDMDL
MODEL 9
REMARK VINA RESULT:      -3.4     11.927     12.852
REMARK  3 active torsions:
REMARK  status: ('A' for Active; 'I' for Inactive)
REMARK    1  A    between atoms: C1_1  and  C6_6 
REMARK    2  A    between atoms: C1_1  and  O9_9 
REMARK    3  A    between atoms: C7_7  and  O9_9 
ROOT
HETATM    1  C1  UNL     1     -33.690  15.687  -3.989  1.00 20.00     0.274 C 
HETATM    2  O8  UNL     1     -32.733  15.054  -3.561  1.00 20.00    -0.264 OA
ENDROOT
BRANCH   1   3
HETATM    3  C6  UNL     1     -34.559  16.616  -3.158  1.00 20.00     0.154 C 
HETATM    4  C2  UNL     1     -34.512  16.205  -1.687  1.00 20.00     0.033 C 
HETATM    5  S10 UNL     1     -33.915  18.314  -3.338  1.00 20.00    -0.082 SA
ENDBRANCH   1   3
BRANCH   1   6
HETATM    6  O9  UNL     1     -34.142  15.665  -5.282  1.00 20.00    -0.310 OA
BRANCH   6   7
HETATM    7  C7  UNL     1     -35.061  14.618  -5.597  1.00 20.00     0.060 C 
HETATM    8  C3  UNL     1     -36.456  15.041  -5.136  1.00 20.00     0.045 C 
HETATM    9  C4  UNL     1     -35.033  14.421  -7.111  1.00 20.00     0.045 C 
HETATM   10  C5  UNL     1     -34.613  13.346  -4.880  1.00 20.00     0.045 C 
ENDBRANCH   6   7
ENDBRANCH   1   6
TORSDOF 3
ENDMDL
