MODEL 1
REMARK VINA RESULT:      -3.8      0.000      0.000
REMARK  1 active torsions:
REMARK  status: ('A' for Active; 'I' for Inactive)
REMARK    1  A    between atoms: C2_2  and  O8_8 
ROOT
HETATM    1  C1  UNL     1     -36.594  16.313  -4.513  1.00 20.00     0.049 C 
HETATM    2  C2  UNL     1     -36.662  15.137  -3.510  1.00 20.00     0.131 C 
HETATM    3  C3  UNL     1     -35.494  15.539  -5.273  1.00 20.00     0.070 C 
HETATM    4  C4  UNL     1     -35.202  14.761  -3.943  1.00 20.00    -0.008 C 
HETATM    5  C5  UNL     1     -34.157  15.338  -2.981  1.00 20.00     0.018 C 
HETATM    6  C6  UNL     1     -34.949  13.270  -4.171  1.00 20.00     0.018 C 
HETATM    7 BR9  UNL     1     -34.080  16.606  -6.042  1.00 20.00    -0.090 Br
ENDROOT
BRANCH   2   8
HETATM    8  O8  UNL     1     -37.691  14.161  -3.777  1.00 20.00    -0.390 OA
HETATM    9  C7  UNL     1     -38.931  14.794  -4.021  1.00 20.00     0.202 C 
ENDBRANCH   2   8
TORSDOF 1
ENDMDL
MODEL 2
REMARK VINA RESULT:      -3.8      1.714      2.905
REMARK  1 active torsions:
REMARK  status: ('A' for Active; 'I' for Inactive)
REMARK    1  A    between atoms: C2_2  and  O8_8 
ROOT
HETATM    1  C1  UNL     1     -33.651  16.045  -4.166  1.00 20.00     0.049 C 
HETATM    2  C2  UNL     1     -34.489  15.501  -2.983  1.00 20.00     0.131 C 
HETATM    3  C3  UNL     1     -34.864  15.777  -5.085  1.00 20.00     0.070 C 
HETATM    4  C4  UNL     1     -35.358  14.725  -4.033  1.00 20.00    -0.008 C 
HETATM    5  C5  UNL     1     -34.895  13.271  -4.191  1.00 20.00     0.018 C 
HETATM    6  C6  UNL     1     -36.869  14.779  -3.803  1.00 20.00     0.018 C 
HETATM    7 BR9  UNL     1     -34.457  15.169  -6.872  1.00 20.00    -0.090 Br
ENDROOT
BRANCH   2   8
HETATM    8  O8  UNL     1     -35.164  16.505  -2.197  1.00 20.00    -0.390 OA
HETATM    9  C7  UNL     1     -34.588  16.604  -0.910  1.00 20.00     0.202 C 
ENDBRANCH   2   8
TORSDOF 1
ENDMDL
MODEL 3
REMARK VINA RESULT:      -3.7      2.416      3.145
REMARK  1 active torsions:
REMARK  status: ('A' for Active; 'I' for Inactive)
REMARK    1  A    between atoms: C2_2  and  O8_8 
ROOT
HETATM    1  C1  UNL     1     -35.790  14.849  -3.594  1.00 20.00     0.049 C 
HETATM    2  C2  UNL     1     -34.975  14.738  -4.906  1.00 20.00     0.131 C 
HETATM    3  C3  UNL     1     -35.033  16.161  -3.292  1.00 20.00     0.070 C 
HETATM    4  C4  UNL     1     -33.891  15.656  -4.239  1.00 20.00    -0.008 C 
HETATM    5  C5  UNL     1     -32.750  14.834  -3.625  1.00 20.00     0.018 C 
HETATM    6  C6  UNL     1     -33.329  16.762  -5.133  1.00 20.00     0.018 C 
HETATM    7 BR9  UNL     1     -34.609  16.488  -1.436  1.00 20.00    -0.090 Br
ENDROOT
BRANCH   2   8
HETATM    8  O8  UNL     1     -35.631  15.256  -6.081  1.00 20.00    -0.390 OA
HETATM    9  C7  UNL     1     -35.406  14.414  -7.193  1.00 20.00     0.202 C 
ENDBRANCH   2   8
TORSDOF 1
ENDMDL
MODEL 4
REMARK VINA RESULT:      -3.6      2.980      3.958
REMARK  1 active torsions:
REMARK  status: ('A' for Active; 'I' for Inactive)
REMARK    1  A    between atoms: C2_2  and  O8_8 
ROOT
HETATM    1  C1  UNL     1     -34.142  15.758  -5.791  1.00 20.00     0.049 C 
HETATM    2  C2  UNL     1     -33.228  16.679  -4.946  1.00 20.00     0.131 C 
HETATM    3  C3  UNL     1     -34.805  15.291  -4.476  1.00 20.00     0.070 C 
HETATM    4  C4  UNL     1     -33.499  15.729  -3.727  1.00 20.00    -0.008 C 
HETATM    5  C5  UNL     1     -32.381  14.693  -3.554  1.00 20.00     0.018 C 
HETATM    6  C6  UNL     1     -33.784  16.431  -2.399  1.00 20.00     0.018 C 
HETATM    7 BR9  UNL     1     -35.327  13.433  -4.402  1.00 20.00    -0.090 Br
ENDROOT
BRANCH   2   8
HETATM    8  O8  UNL     1     -33.679  18.043  -4.819  1.00 20.00    -0.390 OA
HETATM    9  C7  UNL     1     -33.692  18.685  -6.078  1.00 20.00     0.202 C 
ENDBRANCH   2   8
TORSDOF 1
ENDMDL
MODEL 5
REMARK VINA RESULT:      -3.6      2.411      3.263
REMARK  1 active torsions:
REMARK  status: ('A' for Active; 'I' for Inactive)
REMARK    1  A    between atoms: C2_2  and  O8_8 
ROOT
HETATM    1  C1  UNL     1     -34.565  16.971  -4.335  1.00 20.00     0.049 C 
HETATM    2  C2  UNL     1     -35.027  15.801  -5.238  1.00 20.00     0.131 C 
HETATM    3  C3  UNL     1     -34.247  15.934  -3.236  1.00 20.00     0.070 C 
HETATM    4  C4  UNL     1     -35.266  14.967  -3.931  1.00 20.00    -0.008 C 
HETATM    5  C5  UNL     1     -36.733  15.018  -3.486  1.00 20.00     0.018 C 
HETATM    6  C6  UNL     1     -34.775  13.520  -3.978  1.00 20.00     0.018 C 
HETATM    7 BR9  UNL     1     -34.599  16.487  -1.419  1.00 20.00    -0.090 Br
ENDROOT
BRANCH   2   8
HETATM    8  O8  UNL     1     -34.030  15.302  -6.153  1.00 20.00    -0.390 OA
HETATM    9  C7  UNL     1     -34.612  14.977  -7.399  1.00 20.00     0.202 C 
ENDBRANCH   2   8
TORSDOF 1
ENDMDL
MODEL 6
REMARK VINA RESULT:      -3.5      2.099      2.912
REMARK  1 active torsions:
REMARK  status: ('A' for Active; 'I' for Inactive)
REMARK    1  A    between atoms: C2_2  and  O8_8 
ROOT
HETATM    1  C1  UNL     1     -36.042  15.889  -4.178  1.00 20.00     0.049 C 
HETATM    2  C2  UNL     1     -34.900  16.334  -3.233  1.00 20.00     0.131 C 
HETATM    3  C3  UNL     1     -35.078  14.838  -4.770  1.00 20.00     0.070 C 
HETATM    4  C4  UNL     1     -33.889  15.728  -4.268  1.00 20.00    -0.008 C 
HETATM    5  C5  UNL     1     -33.334  16.799  -5.216  1.00 20.00     0.018 C 
HETATM    6  C6  UNL     1     -32.746  14.908  -3.666  1.00 20.00     0.018 C 
HETATM    7 BR9  UNL     1     -35.241  14.509  -6.666  1.00 20.00    -0.090 Br
ENDROOT
BRANCH   2   8
HETATM    8  O8  UNL     1     -34.921  15.738  -1.920  1.00 20.00    -0.390 OA
HETATM    9  C7  UNL     1     -34.580  16.689  -0.932  1.00 20.00     0.202 C 
ENDBRANCH   2   8
TORSDOF 1
ENDMDL
MODEL 7
REMARK VINA RESULT:      -3.5      3.188      4.058
REMARK  1 active torsions:
REMARK  status: ('A' for Active; 'I' for Inactive)
REMARK    1  A    between atoms: C2_2  and  O8_8 
ROOT
HETATM    1  C1  UNL     1     -34.830  17.933  -3.420  1.00 20.00     0.049 C 
HETATM    2  C2  UNL     1     -34.467  16.950  -4.560  1.00 20.00     0.131 C 
HETATM    3  C3  UNL     1     -33.960  17.079  -2.472  1.00 20.00     0.070 C 
HETATM    4  C4  UNL     1     -34.165  15.877  -3.457  1.00 20.00    -0.008 C 
HETATM    5  C5  UNL     1     -35.362  14.947  -3.225  1.00 20.00     0.018 C 
HETATM    6  C6  UNL     1     -32.890  15.059  -3.669  1.00 20.00     0.018 C 
HETATM    7 BR9  UNL     1     -34.602  16.901  -0.659  1.00 20.00    -0.090 Br
ENDROOT
BRANCH   2   8
HETATM    8  O8  UNL     1     -33.360  17.356  -5.391  1.00 20.00    -0.390 OA
HETATM    9  C7  UNL     1     -33.615  18.613  -5.986  1.00 20.00     0.202 C 
ENDBRANCH   2   8
TORSDOF 1
ENDMDL
MODEL 8
REMARK VINA RESULT:      -3.4     10.519     11.606
REMARK  1 active torsions:
REMARK  status: ('A' for Active; 'I' for Inactive)
REMARK    1  A    between atoms: C2_2  and  O8_8 
ROOT
HETATM    1  C1  UNL     1     -43.097   5.468  -3.009  1.00 20.00     0.049 C 
HETATM    2  C2  UNL     1     -42.470   5.047  -1.658  1.00 20.00     0.131 C 
HETATM    3  C3  UNL     1     -42.278   6.775  -2.927  1.00 20.00     0.070 C 
HETATM    4  C4  UNL     1     -42.206   6.567  -1.375  1.00 20.00    -0.008 C 
HETATM    5  C5  UNL     1     -43.312   7.185  -0.510  1.00 20.00     0.018 C 
HETATM    6  C6  UNL     1     -40.831   6.897  -0.794  1.00 20.00     0.018 C 
HETATM    7 BR9  UNL     1     -43.143   8.364  -3.602  1.00 20.00    -0.090 Br
ENDROOT
BRANCH   2   8
HETATM    8  O8  UNL     1     -41.311   4.195  -1.759  1.00 20.00    -0.390 OA
HETATM    9  C7  UNL     1     -41.543   3.137  -2.667  1.00 20.00     0.202 C 
ENDBRANCH   2   8
TORSDOF 1
ENDMDL
MODEL 9
REMARK VINA RESULT:      -3.3      2.589      3.552
REMARK  1 active torsions:
REMARK  status: ('A' for Active; 'I' for Inactive)
REMARK    1  A    between atoms: C2_2  and  O8_8 
ROOT
HETATM    1  C1  UNL     1     -33.536  15.070  -3.319  1.00 20.00     0.049 C 
HETATM    2  C2  UNL     1     -34.010  15.437  -4.746  1.00 20.00     0.131 C 
HETATM    3  C3  UNL     1     -34.678  15.951  -2.765  1.00 20.00     0.070 C 
HETATM    4  C4  UNL     1     -34.673  16.719  -4.132  1.00 20.00    -0.008 C 
HETATM    5  C5  UNL     1     -33.765  17.948  -4.268  1.00 20.00     0.018 C 
HETATM    6  C6  UNL     1     -36.079  17.038  -4.639  1.00 20.00     0.018 C 
HETATM    7 BR9  UNL     1     -34.283  16.939  -1.154  1.00 20.00    -0.090 Br
ENDROOT
BRANCH   2   8
HETATM    8  O8  UNL     1     -34.897  14.481  -5.363  1.00 20.00    -0.390 OA
HETATM    9  C7  UNL     1     -34.575  13.165  -4.958  1.00 20.00     0.202 C 
ENDBRANCH   2   8
TORSDOF 1
ENDMDL
