MODEL 1
REMARK VINA RESULT:      -4.6      0.000      0.000
REMARK  2 active torsions:
REMARK  status: ('A' for Active; 'I' for Inactive)
REMARK    1  A    between atoms: C3_3  and  O11_11 
REMARK    2  A    between atoms: C9_9  and  O11_11 
ROOT
HETATM    1  C1  UNL     1     -33.486  14.156  -3.660  1.00 20.00     0.069 C 
HETATM    2  C2  UNL     1     -34.811  13.416  -3.941  1.00 20.00     0.173 C 
HETATM    3  C3  UNL     1     -34.321  15.425  -3.350  1.00 20.00     0.135 C 
HETATM    4  C4  UNL     1     -35.469  14.811  -4.232  1.00 20.00     0.008 C 
HETATM    5  C5  UNL     1     -36.875  14.936  -3.641  1.00 20.00     0.020 C 
HETATM    6  C6  UNL     1     -35.443  15.373  -5.662  1.00 20.00     0.020 C 
HETATM    7  O10 UNL     1     -34.742  12.549  -5.041  1.00 20.00    -0.234 OA
ENDROOT
BRANCH   3   8
HETATM    8  O11 UNL     1     -34.618  15.638  -1.956  1.00 20.00    -0.380 OA
BRANCH   8   9
HETATM    9  C9  UNL     1     -34.017  16.832  -1.493  1.00 20.00     0.114 C 
HETATM   10  C7  UNL     1     -34.143  17.904  -2.565  1.00 20.00     0.039 C 
HETATM   11  C8  UNL     1     -34.680  17.252  -0.190  1.00 20.00     0.039 C 
ENDBRANCH   8   9
ENDBRANCH   3   8
TORSDOF 2
ENDMDL
MODEL 2
REMARK VINA RESULT:      -4.5      0.900      1.428
REMARK  2 active torsions:
REMARK  status: ('A' for Active; 'I' for Inactive)
REMARK    1  A    between atoms: C3_3  and  O11_11 
REMARK    2  A    between atoms: C9_9  and  O11_11 
ROOT
HETATM    1  C1  UNL     1     -34.114  14.070  -3.376  1.00 20.00     0.069 C 
HETATM    2  C2  UNL     1     -35.210  13.478  -4.288  1.00 20.00     0.173 C 
HETATM    3  C3  UNL     1     -34.705  15.474  -3.667  1.00 20.00     0.135 C 
HETATM    4  C4  UNL     1     -35.312  14.878  -4.990  1.00 20.00     0.008 C 
HETATM    5  C5  UNL     1     -36.757  15.289  -5.281  1.00 20.00     0.020 C 
HETATM    6  C6  UNL     1     -34.420  15.179  -6.204  1.00 20.00     0.020 C 
HETATM    7  O10 UNL     1     -34.750  12.435  -5.105  1.00 20.00    -0.234 OA
ENDROOT
BRANCH   3   8
HETATM    8  O11 UNL     1     -35.642  15.960  -2.685  1.00 20.00    -0.380 OA
BRANCH   8   9
HETATM    9  C9  UNL     1     -35.144  17.121  -2.049  1.00 20.00     0.114 C 
HETATM   10  C7  UNL     1     -34.588  16.744  -0.684  1.00 20.00     0.039 C 
HETATM   11  C8  UNL     1     -34.087  17.762  -2.935  1.00 20.00     0.039 C 
ENDBRANCH   8   9
ENDBRANCH   3   8
TORSDOF 2
ENDMDL
MODEL 3
REMARK VINA RESULT:      -4.3      1.881      2.868
REMARK  2 active torsions:
REMARK  status: ('A' for Active; 'I' for Inactive)
REMARK    1  A    between atoms: C3_3  and  O11_11 
REMARK    2  A    between atoms: C9_9  and  O11_11 
ROOT
HETATM    1  C1  UNL     1     -34.542  14.442  -5.885  1.00 20.00     0.069 C 
HETATM    2  C2  UNL     1     -34.346  13.819  -4.486  1.00 20.00     0.173 C 
HETATM    3  C3  UNL     1     -34.636  15.828  -5.197  1.00 20.00     0.135 C 
HETATM    4  C4  UNL     1     -35.061  15.080  -3.882  1.00 20.00     0.008 C 
HETATM    5  C5  UNL     1     -34.387  15.584  -2.604  1.00 20.00     0.020 C 
HETATM    6  C6  UNL     1     -36.588  15.069  -3.708  1.00 20.00     0.020 C 
HETATM    7  O10 UNL     1     -35.031  12.607  -4.316  1.00 20.00    -0.234 OA
ENDROOT
BRANCH   3   8
HETATM    8  O11 UNL     1     -33.403  16.574  -5.150  1.00 20.00    -0.380 OA
BRANCH   8   9
HETATM    9  C9  UNL     1     -33.609  17.910  -5.564  1.00 20.00     0.114 C 
HETATM   10  C7  UNL     1     -34.929  18.003  -6.316  1.00 20.00     0.039 C 
HETATM   11  C8  UNL     1     -33.585  18.820  -4.346  1.00 20.00     0.039 C 
ENDBRANCH   8   9
ENDBRANCH   3   8
TORSDOF 2
ENDMDL
MODEL 4
REMARK VINA RESULT:      -4.0      1.529      2.512
REMARK  2 active torsions:
REMARK  status: ('A' for Active; 'I' for Inactive)
REMARK    1  A    between atoms: C3_3  and  O11_11 
REMARK    2  A    between atoms: C9_9  and  O11_11 
ROOT
HETATM    1  C1  UNL     1     -35.164  16.476  -5.071  1.00 20.00     0.069 C 
HETATM    2  C2  UNL     1     -33.992  15.602  -5.568  1.00 20.00     0.173 C 
HETATM    3  C3  UNL     1     -34.666  16.226  -3.624  1.00 20.00     0.135 C 
HETATM    4  C4  UNL     1     -33.965  14.923  -4.153  1.00 20.00     0.008 C 
HETATM    5  C5  UNL     1     -32.543  14.696  -3.635  1.00 20.00     0.020 C 
HETATM    6  C6  UNL     1     -34.827  13.676  -3.900  1.00 20.00     0.020 C 
HETATM    7  O10 UNL     1     -34.342  14.755  -6.630  1.00 20.00    -0.234 OA
ENDROOT
BRANCH   3   8
HETATM    8  O11 UNL     1     -33.807  17.252  -3.086  1.00 20.00    -0.380 OA
BRANCH   8   9
HETATM    9  C9  UNL     1     -34.310  17.732  -1.854  1.00 20.00     0.114 C 
HETATM   10  C7  UNL     1     -34.612  16.551  -0.943  1.00 20.00     0.039 C 
HETATM   11  C8  UNL     1     -33.297  18.682  -1.236  1.00 20.00     0.039 C 
ENDBRANCH   8   9
ENDBRANCH   3   8
TORSDOF 2
ENDMDL
MODEL 5
REMARK VINA RESULT:      -4.0      1.524      4.223
REMARK  2 active torsions:
REMARK  status: ('A' for Active; 'I' for Inactive)
REMARK    1  A    between atoms: C3_3  and  O11_11 
REMARK    2  A    between atoms: C9_9  and  O11_11 
ROOT
HETATM    1  C1  UNL     1     -34.743  16.258  -1.427  1.00 20.00     0.069 C 
HETATM    2  C2  UNL     1     -33.562  17.063  -2.012  1.00 20.00     0.173 C 
HETATM    3  C3  UNL     1     -35.049  15.763  -2.864  1.00 20.00     0.135 C 
HETATM    4  C4  UNL     1     -34.298  17.036  -3.399  1.00 20.00     0.008 C 
HETATM    5  C5  UNL     1     -33.344  16.783  -4.568  1.00 20.00     0.020 C 
HETATM    6  C6  UNL     1     -35.281  18.164  -3.751  1.00 20.00     0.020 C 
HETATM    7  O10 UNL     1     -33.417  18.334  -1.439  1.00 20.00    -0.234 OA
ENDROOT
BRANCH   3   8
HETATM    8  O11 UNL     1     -34.479  14.483  -3.206  1.00 20.00    -0.380 OA
BRANCH   8   9
HETATM    9  C9  UNL     1     -35.386  13.721  -3.979  1.00 20.00     0.114 C 
HETATM   10  C7  UNL     1     -36.717  14.453  -4.054  1.00 20.00     0.039 C 
HETATM   11  C8  UNL     1     -34.790  13.483  -5.357  1.00 20.00     0.039 C 
ENDBRANCH   8   9
ENDBRANCH   3   8
TORSDOF 2
ENDMDL
MODEL 6
REMARK VINA RESULT:      -4.0      1.828      4.257
REMARK  2 active torsions:
REMARK  status: ('A' for Active; 'I' for Inactive)
REMARK    1  A    between atoms: C3_3  and  O11_11 
REMARK    2  A    between atoms: C9_9  and  O11_11 
ROOT
HETATM    1  C1  UNL     1     -35.111  17.059  -3.630  1.00 20.00     0.069 C 
HETATM    2  C2  UNL     1     -35.208  15.835  -2.695  1.00 20.00     0.173 C 
HETATM    3  C3  UNL     1     -34.837  16.078  -4.799  1.00 20.00     0.135 C 
HETATM    4  C4  UNL     1     -34.338  15.039  -3.731  1.00 20.00     0.008 C 
HETATM    5  C5  UNL     1     -34.833  13.606  -3.941  1.00 20.00     0.020 C 
HETATM    6  C6  UNL     1     -32.807  15.057  -3.599  1.00 20.00     0.020 C 
HETATM    7  O10 UNL     1     -34.608  16.040  -1.445  1.00 20.00    -0.234 OA
ENDROOT
BRANCH   3   8
HETATM    8  O11 UNL     1     -35.995  15.708  -5.573  1.00 20.00    -0.380 OA
BRANCH   8   9
HETATM    9  C9  UNL     1     -35.726  15.808  -6.958  1.00 20.00     0.114 C 
HETATM   10  C7  UNL     1     -34.543  16.741  -7.171  1.00 20.00     0.039 C 
HETATM   11  C8  UNL     1     -35.463  14.420  -7.518  1.00 20.00     0.039 C 
ENDBRANCH   8   9
ENDBRANCH   3   8
TORSDOF 2
ENDMDL
MODEL 7
REMARK VINA RESULT:      -3.9      1.638      2.100
REMARK  2 active torsions:
REMARK  status: ('A' for Active; 'I' for Inactive)
REMARK    1  A    between atoms: C3_3  and  O11_11 
REMARK    2  A    between atoms: C9_9  and  O11_11 
ROOT
HETATM    1  C1  UNL     1     -34.160  16.306  -6.066  1.00 20.00     0.069 C 
HETATM    2  C2  UNL     1     -34.387  14.803  -6.336  1.00 20.00     0.173 C 
HETATM    3  C3  UNL     1     -34.587  16.053  -4.597  1.00 20.00     0.135 C 
HETATM    4  C4  UNL     1     -35.359  14.781  -5.103  1.00 20.00     0.008 C 
HETATM    5  C5  UNL     1     -35.186  13.532  -4.237  1.00 20.00     0.020 C 
HETATM    6  C6  UNL     1     -36.852  15.077  -5.316  1.00 20.00     0.020 C 
HETATM    7  O10 UNL     1     -34.990  14.545  -7.575  1.00 20.00    -0.234 OA
ENDROOT
BRANCH   3   8
HETATM    8  O11 UNL     1     -33.502  15.829  -3.674  1.00 20.00    -0.380 OA
BRANCH   8   9
HETATM    9  C9  UNL     1     -33.620  16.674  -2.547  1.00 20.00     0.114 C 
HETATM   10  C7  UNL     1     -33.860  18.102  -3.015  1.00 20.00     0.039 C 
HETATM   11  C8  UNL     1     -34.749  16.171  -1.661  1.00 20.00     0.039 C 
ENDBRANCH   8   9
ENDBRANCH   3   8
TORSDOF 2
ENDMDL
MODEL 8
REMARK VINA RESULT:      -3.9      1.890      3.689
REMARK  2 active torsions:
REMARK  status: ('A' for Active; 'I' for Inactive)
REMARK    1  A    between atoms: C3_3  and  O11_11 
REMARK    2  A    between atoms: C9_9  and  O11_11 
ROOT
HETATM    1  C1  UNL     1     -35.346  13.613  -4.192  1.00 20.00     0.069 C 
HETATM    2  C2  UNL     1     -33.838  13.850  -4.426  1.00 20.00     0.173 C 
HETATM    3  C3  UNL     1     -35.573  15.121  -4.476  1.00 20.00     0.135 C 
HETATM    4  C4  UNL     1     -34.073  15.361  -4.071  1.00 20.00     0.008 C 
HETATM    5  C5  UNL     1     -33.299  16.310  -4.990  1.00 20.00     0.020 C 
HETATM    6  C6  UNL     1     -33.950  15.820  -2.610  1.00 20.00     0.020 C 
HETATM    7  O10 UNL     1     -33.019  13.148  -3.530  1.00 20.00    -0.234 OA
ENDROOT
BRANCH   3   8
HETATM    8  O11 UNL     1     -35.938  15.441  -5.833  1.00 20.00    -0.380 OA
BRANCH   8   9
HETATM    9  C9  UNL     1     -37.102  16.243  -5.863  1.00 20.00     0.114 C 
HETATM   10  C7  UNL     1     -38.299  15.403  -5.441  1.00 20.00     0.039 C 
HETATM   11  C8  UNL     1     -36.904  17.446  -4.954  1.00 20.00     0.039 C 
ENDBRANCH   8   9
ENDBRANCH   3   8
TORSDOF 2
ENDMDL
MODEL 9
REMARK VINA RESULT:      -3.8      1.995      3.297
REMARK  2 active torsions:
REMARK  status: ('A' for Active; 'I' for Inactive)
REMARK    1  A    between atoms: C3_3  and  O11_11 
REMARK    2  A    between atoms: C9_9  and  O11_11 
ROOT
HETATM    1  C1  UNL     1     -34.392  15.509  -2.700  1.00 20.00     0.069 C 
HETATM    2  C2  UNL     1     -33.679  14.453  -3.571  1.00 20.00     0.173 C 
HETATM    3  C3  UNL     1     -35.490  15.593  -3.792  1.00 20.00     0.135 C 
HETATM    4  C4  UNL     1     -34.428  15.049  -4.816  1.00 20.00     0.008 C 
HETATM    5  C5  UNL     1     -34.942  13.967  -5.769  1.00 20.00     0.020 C 
HETATM    6  C6  UNL     1     -33.776  16.190  -5.611  1.00 20.00     0.020 C 
HETATM    7  O10 UNL     1     -32.285  14.596  -3.589  1.00 20.00    -0.234 OA
ENDROOT
BRANCH   3   8
HETATM    8  O11 UNL     1     -36.649  14.768  -3.560  1.00 20.00    -0.380 OA
BRANCH   8   9
HETATM    9  C9  UNL     1     -37.833  15.541  -3.612  1.00 20.00     0.114 C 
HETATM   10  C7  UNL     1     -37.568  16.808  -4.411  1.00 20.00     0.039 C 
HETATM   11  C8  UNL     1     -38.948  14.707  -4.222  1.00 20.00     0.039 C 
ENDBRANCH   8   9
ENDBRANCH   3   8
TORSDOF 2
ENDMDL
