MODEL 1
REMARK VINA RESULT:      -4.0      0.000      0.000
REMARK  4 active torsions:
REMARK  status: ('A' for Active; 'I' for Inactive)
REMARK    1  A    between atoms: C2_2  and  C6_6 
REMARK    2  A    between atoms: C6_6  and  S10_10 
REMARK    3  A    between atoms: C7_7  and  C8_8 
REMARK    4  A    between atoms: C7_7  and  S10_10 
ROOT
HETATM    1  C6  UNL     1     -36.237  14.439  -4.156  1.00 20.00     0.113 C 
ENDROOT
BRANCH   1   2
HETATM    2  C2  UNL     1     -35.026  13.959  -4.932  1.00 20.00     0.087 A 
HETATM    3  C1  UNL     1     -33.833  13.411  -4.188  1.00 20.00     0.207 A 
HETATM    4  O9  UNL     1     -34.790  12.549  -4.822  1.00 20.00    -0.375 OA
HETATM    5  C3  UNL     1     -34.848  14.492  -6.317  1.00 20.00     0.049 C 
ENDBRANCH   1   2
BRANCH   1   6
HETATM    6  S10 UNL     1     -36.473  16.217  -4.385  1.00 20.00    -0.166 SA
BRANCH   6   7
HETATM    7  C7  UNL     1     -36.198  16.739  -2.663  1.00 20.00     0.077 C 
BRANCH   7   8
HETATM    8  C8  UNL     1     -34.841  16.336  -2.062  1.00 20.00    -0.013 C 
HETATM    9  C4  UNL     1     -33.655  16.846  -2.883  1.00 20.00     0.010 C 
HETATM   10  C5  UNL     1     -34.698  16.749  -0.595  1.00 20.00     0.010 C 
ENDBRANCH   7   8
ENDBRANCH   6   7
ENDBRANCH   1   6
TORSDOF 4
ENDMDL
MODEL 2
REMARK VINA RESULT:      -3.8      1.463      2.059
REMARK  4 active torsions:
REMARK  status: ('A' for Active; 'I' for Inactive)
REMARK    1  A    between atoms: C2_2  and  C6_6 
REMARK    2  A    between atoms: C6_6  and  S10_10 
REMARK    3  A    between atoms: C7_7  and  C8_8 
REMARK    4  A    between atoms: C7_7  and  S10_10 
ROOT
HETATM    1  C6  UNL     1     -34.222  15.035  -5.602  1.00 20.00     0.113 C 
ENDROOT
BRANCH   1   2
HETATM    2  C2  UNL     1     -34.251  13.970  -4.524  1.00 20.00     0.087 A 
HETATM    3  C1  UNL     1     -35.577  13.464  -4.010  1.00 20.00     0.207 A 
HETATM    4  O9  UNL     1     -34.801  12.720  -4.961  1.00 20.00    -0.375 OA
HETATM    5  C3  UNL     1     -33.029  13.825  -3.675  1.00 20.00     0.049 C 
ENDBRANCH   1   2
BRANCH   1   6
HETATM    6  S10 UNL     1     -33.297  16.483  -5.040  1.00 20.00    -0.166 SA
BRANCH   6   7
HETATM    7  C7  UNL     1     -34.451  17.044  -3.749  1.00 20.00     0.077 C 
BRANCH   7   8
HETATM    8  C8  UNL     1     -33.856  17.149  -2.335  1.00 20.00    -0.013 C 
HETATM    9  C4  UNL     1     -33.616  18.596  -1.898  1.00 20.00     0.010 C 
HETATM   10  C5  UNL     1     -34.685  16.401  -1.288  1.00 20.00     0.010 C 
ENDBRANCH   7   8
ENDBRANCH   6   7
ENDBRANCH   1   6
TORSDOF 4
ENDMDL
MODEL 3
REMARK VINA RESULT:      -3.8     10.905     11.838
REMARK  4 active torsions:
REMARK  status: ('A' for Active; 'I' for Inactive)
REMARK    1  A    between atoms: C2_2  and  C6_6 
REMARK    2  A    between atoms: C6_6  and  S10_10 
REMARK    3  A    between atoms: C7_7  and  C8_8 
REMARK    4  A    between atoms: C7_7  and  S10_10 
ROOT
HETATM    1  C6  UNL     1     -33.324   6.328   4.765  1.00 20.00     0.113 C 
ENDROOT
BRANCH   1   2
HETATM    2  C2  UNL     1     -34.520   5.414   4.939  1.00 20.00     0.087 A 
HETATM    3  C1  UNL     1     -34.420   4.222   5.861  1.00 20.00     0.207 A 
HETATM    4  O9  UNL     1     -35.077   5.434   6.261  1.00 20.00    -0.375 OA
HETATM    5  C3  UNL     1     -35.548   5.420   3.854  1.00 20.00     0.049 C 
ENDBRANCH   1   2
BRANCH   1   6
HETATM    6  S10 UNL     1     -32.622   6.148   3.109  1.00 20.00    -0.166 SA
BRANCH   6   7
HETATM    7  C7  UNL     1     -31.938   7.825   2.933  1.00 20.00     0.077 C 
BRANCH   7   8
HETATM    8  C8  UNL     1     -32.425   8.608   1.702  1.00 20.00    -0.013 C 
HETATM    9  C4  UNL     1     -32.744  10.071   2.019  1.00 20.00     0.010 C 
HETATM   10  C5  UNL     1     -31.458   8.512   0.519  1.00 20.00     0.010 C 
ENDBRANCH   7   8
ENDBRANCH   6   7
ENDBRANCH   1   6
TORSDOF 4
ENDMDL
MODEL 4
REMARK VINA RESULT:      -3.8      1.461      2.366
REMARK  4 active torsions:
REMARK  status: ('A' for Active; 'I' for Inactive)
REMARK    1  A    between atoms: C2_2  and  C6_6 
REMARK    2  A    between atoms: C6_6  and  S10_10 
REMARK    3  A    between atoms: C7_7  and  C8_8 
REMARK    4  A    between atoms: C7_7  and  S10_10 
ROOT
HETATM    1  C6  UNL     1     -34.011  14.893  -3.424  1.00 20.00     0.113 C 
ENDROOT
BRANCH   1   2
HETATM    2  C2  UNL     1     -35.124  14.180  -4.168  1.00 20.00     0.087 A 
HETATM    3  C1  UNL     1     -34.809  13.433  -5.442  1.00 20.00     0.207 A 
HETATM    4  O9  UNL     1     -34.983  12.753  -4.189  1.00 20.00    -0.375 OA
HETATM    5  C3  UNL     1     -36.522  14.643  -3.913  1.00 20.00     0.049 C 
ENDBRANCH   1   2
BRANCH   1   6
HETATM    6  S10 UNL     1     -34.507  16.580  -3.006  1.00 20.00    -0.166 SA
BRANCH   6   7
HETATM    7  C7  UNL     1     -34.622  16.377  -1.201  1.00 20.00     0.077 C 
BRANCH   7   8
HETATM    8  C8  UNL     1     -34.550  17.679  -0.386  1.00 20.00    -0.013 C 
HETATM    9  C4  UNL     1     -35.126  17.529   1.024  1.00 20.00     0.010 C 
HETATM   10  C5  UNL     1     -33.137  18.265  -0.330  1.00 20.00     0.010 C 
ENDBRANCH   7   8
ENDBRANCH   6   7
ENDBRANCH   1   6
TORSDOF 4
ENDMDL
MODEL 5
REMARK VINA RESULT:      -3.7     10.855     11.859
REMARK  4 active torsions:
REMARK  status: ('A' for Active; 'I' for Inactive)
REMARK    1  A    between atoms: C2_2  and  C6_6 
REMARK    2  A    between atoms: C6_6  and  S10_10 
REMARK    3  A    between atoms: C7_7  and  C8_8 
REMARK    4  A    between atoms: C7_7  and  S10_10 
ROOT
HETATM    1  C6  UNL     1     -34.095   6.500   3.898  1.00 20.00     0.113 C 
ENDROOT
BRANCH   1   2
HETATM    2  C2  UNL     1     -34.256   5.882   5.274  1.00 20.00     0.087 A 
HETATM    3  C1  UNL     1     -35.232   4.747   5.471  1.00 20.00     0.207 A 
HETATM    4  O9  UNL     1     -33.820   4.518   5.350  1.00 20.00    -0.375 OA
HETATM    5  C3  UNL     1     -33.845   6.711   6.447  1.00 20.00     0.049 C 
ENDBRANCH   1   2
BRANCH   1   6
HETATM    6  S10 UNL     1     -32.468   6.110   3.214  1.00 20.00    -0.166 SA
BRANCH   6   7
HETATM    7  C7  UNL     1     -31.861   7.813   3.002  1.00 20.00     0.077 C 
BRANCH   7   8
HETATM    8  C8  UNL     1     -32.394   8.553   1.764  1.00 20.00    -0.013 C 
HETATM    9  C4  UNL     1     -32.745  10.014   2.052  1.00 20.00     0.010 C 
HETATM   10  C5  UNL     1     -31.451   8.453   0.563  1.00 20.00     0.010 C 
ENDBRANCH   7   8
ENDBRANCH   6   7
ENDBRANCH   1   6
TORSDOF 4
ENDMDL
MODEL 6
REMARK VINA RESULT:      -3.5      1.573      1.934
REMARK  4 active torsions:
REMARK  status: ('A' for Active; 'I' for Inactive)
REMARK    1  A    between atoms: C2_2  and  C6_6 
REMARK    2  A    between atoms: C6_6  and  S10_10 
REMARK    3  A    between atoms: C7_7  and  C8_8 
REMARK    4  A    between atoms: C7_7  and  S10_10 
ROOT
HETATM    1  C6  UNL     1     -35.386  15.860  -4.186  1.00 20.00     0.113 C 
ENDROOT
BRANCH   1   2
HETATM    2  C2  UNL     1     -34.366  14.741  -4.269  1.00 20.00     0.087 A 
HETATM    3  C1  UNL     1     -34.835  13.318  -4.452  1.00 20.00     0.207 A 
HETATM    4  O9  UNL     1     -34.323  14.092  -5.547  1.00 20.00    -0.375 OA
HETATM    5  C3  UNL     1     -33.017  15.002  -3.682  1.00 20.00     0.049 C 
ENDBRANCH   1   2
BRANCH   1   6
HETATM    6  S10 UNL     1     -34.678  17.305  -3.362  1.00 20.00    -0.166 SA
BRANCH   6   7
HETATM    7  C7  UNL     1     -35.454  17.081  -1.731  1.00 20.00     0.077 C 
BRANCH   7   8
HETATM    8  C8  UNL     1     -34.485  17.062  -0.537  1.00 20.00    -0.013 C 
HETATM    9  C4  UNL     1     -33.251  17.938  -0.762  1.00 20.00     0.010 C 
HETATM   10  C5  UNL     1     -35.167  17.422   0.785  1.00 20.00     0.010 C 
ENDBRANCH   7   8
ENDBRANCH   6   7
ENDBRANCH   1   6
TORSDOF 4
ENDMDL
MODEL 7
REMARK VINA RESULT:      -3.4      1.672      2.381
REMARK  4 active torsions:
REMARK  status: ('A' for Active; 'I' for Inactive)
REMARK    1  A    between atoms: C2_2  and  C6_6 
REMARK    2  A    between atoms: C6_6  and  S10_10 
REMARK    3  A    between atoms: C7_7  and  C8_8 
REMARK    4  A    between atoms: C7_7  and  S10_10 
ROOT
HETATM    1  C6  UNL     1     -36.491  14.467  -4.117  1.00 20.00     0.113 C 
ENDROOT
BRANCH   1   2
HETATM    2  C2  UNL     1     -35.267  13.941  -4.842  1.00 20.00     0.087 A 
HETATM    3  C1  UNL     1     -33.997  13.683  -4.068  1.00 20.00     0.207 A 
HETATM    4  O9  UNL     1     -34.883  12.618  -4.445  1.00 20.00    -0.375 OA
HETATM    5  C3  UNL     1     -35.196  14.171  -6.317  1.00 20.00     0.049 C 
ENDBRANCH   1   2
BRANCH   1   6
HETATM    6  S10 UNL     1     -37.016  16.047  -4.821  1.00 20.00    -0.166 SA
BRANCH   6   7
HETATM    7  C7  UNL     1     -35.731  17.101  -4.080  1.00 20.00     0.077 C 
BRANCH   7   8
HETATM    8  C8  UNL     1     -34.818  17.828  -5.081  1.00 20.00    -0.013 C 
HETATM    9  C4  UNL     1     -33.408  17.234  -5.136  1.00 20.00     0.010 C 
HETATM   10  C5  UNL     1     -35.423  17.907  -6.485  1.00 20.00     0.010 C 
ENDBRANCH   7   8
ENDBRANCH   6   7
ENDBRANCH   1   6
TORSDOF 4
ENDMDL
MODEL 8
REMARK VINA RESULT:      -3.4      2.193      3.449
REMARK  4 active torsions:
REMARK  status: ('A' for Active; 'I' for Inactive)
REMARK    1  A    between atoms: C2_2  and  C6_6 
REMARK    2  A    between atoms: C6_6  and  S10_10 
REMARK    3  A    between atoms: C7_7  and  C8_8 
REMARK    4  A    between atoms: C7_7  and  S10_10 
ROOT
HETATM    1  C6  UNL     1     -33.309  15.412  -3.801  1.00 20.00     0.113 C 
ENDROOT
BRANCH   1   2
HETATM    2  C2  UNL     1     -34.482  14.453  -3.865  1.00 20.00     0.087 A 
HETATM    3  C1  UNL     1     -34.432  13.278  -4.812  1.00 20.00     0.207 A 
HETATM    4  O9  UNL     1     -34.172  13.130  -3.408  1.00 20.00    -0.375 OA
HETATM    5  C3  UNL     1     -35.805  14.960  -3.389  1.00 20.00     0.049 C 
ENDBRANCH   1   2
BRANCH   1   6
HETATM    6  S10 UNL     1     -33.891  17.121  -3.716  1.00 20.00    -0.166 SA
BRANCH   6   7
HETATM    7  C7  UNL     1     -33.457  17.628  -5.409  1.00 20.00     0.077 C 
BRANCH   7   8
HETATM    8  C8  UNL     1     -34.586  17.500  -6.445  1.00 20.00    -0.013 C 
HETATM    9  C4  UNL     1     -34.540  16.176  -7.211  1.00 20.00     0.010 C 
HETATM   10  C5  UNL     1     -35.974  17.723  -5.838  1.00 20.00     0.010 C 
ENDBRANCH   7   8
ENDBRANCH   6   7
ENDBRANCH   1   6
TORSDOF 4
ENDMDL
MODEL 9
REMARK VINA RESULT:      -3.3      1.998      4.515
REMARK  4 active torsions:
REMARK  status: ('A' for Active; 'I' for Inactive)
REMARK    1  A    between atoms: C2_2  and  C6_6 
REMARK    2  A    between atoms: C6_6  and  S10_10 
REMARK    3  A    between atoms: C7_7  and  C8_8 
REMARK    4  A    between atoms: C7_7  and  S10_10 
ROOT
HETATM    1  C6  UNL     1     -34.271  14.842  -3.129  1.00 20.00     0.113 C 
ENDROOT
BRANCH   1   2
HETATM    2  C2  UNL     1     -34.401  16.270  -2.636  1.00 20.00     0.087 A 
HETATM    3  C1  UNL     1     -33.797  17.394  -3.442  1.00 20.00     0.207 A 
HETATM    4  O9  UNL     1     -35.202  17.104  -3.484  1.00 20.00    -0.375 OA
HETATM    5  C3  UNL     1     -34.664  16.467  -1.178  1.00 20.00     0.049 C 
ENDBRANCH   1   2
BRANCH   1   6
HETATM    6  S10 UNL     1     -35.743  14.354  -4.058  1.00 20.00    -0.166 SA
BRANCH   6   7
HETATM    7  C7  UNL     1     -34.912  13.713  -5.545  1.00 20.00     0.077 C 
BRANCH   7   8
HETATM    8  C8  UNL     1     -35.083  14.566  -6.813  1.00 20.00    -0.013 C 
HETATM    9  C4  UNL     1     -36.534  14.988  -7.053  1.00 20.00     0.010 C 
HETATM   10  C5  UNL     1     -34.156  15.784  -6.836  1.00 20.00     0.010 C 
ENDBRANCH   7   8
ENDBRANCH   6   7
ENDBRANCH   1   6
TORSDOF 4
ENDMDL
