MODEL 1
REMARK VINA RESULT:      -5.3      0.000      0.000
REMARK  3 active torsions:
REMARK  status: ('A' for Active; 'I' for Inactive)
REMARK    1  A    between atoms: C4_4  and  O11_11 
REMARK    2  A    between atoms: C8_8  and  C10_10 
REMARK    3  A    between atoms: C10_10  and  O11_11 
ROOT
HETATM    1  C1  UNL     1     -35.030   4.367   5.991  1.00 20.00    -0.030 C 
HETATM    2  C2  UNL     1     -34.525   5.443   6.606  1.00 20.00    -0.030 C 
HETATM    3  C5  UNL     1     -35.034   4.201   4.502  1.00 20.00     0.031 C 
HETATM    4  C6  UNL     1     -33.887   6.582   5.869  1.00 20.00     0.034 C 
HETATM    5  C7  UNL     1     -34.732   5.507   3.734  1.00 20.00    -0.009 C 
HETATM    6  C8  UNL     1     -33.552   6.256   4.397  1.00 20.00     0.017 C 
HETATM    7  C9  UNL     1     -34.492   5.185   2.259  1.00 20.00     0.011 C 
ENDROOT
BRANCH   6   8
HETATM    8  C10 UNL     1     -33.165   7.542   3.666  1.00 20.00     0.179 C 
BRANCH   8   9
HETATM    9  O11 UNL     1     -31.996   7.291   2.910  1.00 20.00    -0.363 OA
BRANCH   9  10
HETATM   10  C4  UNL     1     -31.825   8.075   1.850  1.00 20.00     0.124 C 
HETATM   11  C3  UNL     1     -32.453   9.235   1.647  1.00 20.00     0.037 C 
ENDBRANCH   9  10
ENDBRANCH   8   9
ENDBRANCH   6   8
TORSDOF 3
ENDMDL
MODEL 2
REMARK VINA RESULT:      -5.1      0.676      2.230
REMARK  3 active torsions:
REMARK  status: ('A' for Active; 'I' for Inactive)
REMARK    1  A    between atoms: C4_4  and  O11_11 
REMARK    2  A    between atoms: C8_8  and  C10_10 
REMARK    3  A    between atoms: C10_10  and  O11_11 
ROOT
HETATM    1  C1  UNL     1     -35.361   4.417   5.408  1.00 20.00    -0.030 C 
HETATM    2  C2  UNL     1     -34.961   4.344   4.133  1.00 20.00    -0.030 C 
HETATM    3  C5  UNL     1     -34.837   5.436   6.373  1.00 20.00     0.031 C 
HETATM    4  C6  UNL     1     -33.969   5.293   3.531  1.00 20.00     0.034 C 
HETATM    5  C7  UNL     1     -33.564   6.158   5.880  1.00 20.00    -0.009 C 
HETATM    6  C8  UNL     1     -33.715   6.550   4.390  1.00 20.00     0.017 C 
HETATM    7  C9  UNL     1     -33.268   7.349   6.792  1.00 20.00     0.011 C 
ENDROOT
BRANCH   6   8
HETATM    8  C10 UNL     1     -32.507   7.308   3.840  1.00 20.00     0.179 C 
BRANCH   8   9
HETATM    9  O11 UNL     1     -32.605   7.339   2.429  1.00 20.00    -0.363 OA
BRANCH   9  10
HETATM   10  C4  UNL     1     -31.937   8.324   1.834  1.00 20.00     0.124 C 
HETATM   11  C3  UNL     1     -32.460   9.500   1.480  1.00 20.00     0.037 C 
ENDBRANCH   9  10
ENDBRANCH   8   9
ENDBRANCH   6   8
TORSDOF 3
ENDMDL
MODEL 3
REMARK VINA RESULT:      -4.5     11.134     12.590
REMARK  3 active torsions:
REMARK  status: ('A' for Active; 'I' for Inactive)
REMARK    1  A    between atoms: C4_4  and  O11_11 
REMARK    2  A    between atoms: C8_8  and  C10_10 
REMARK    3  A    between atoms: C10_10  and  O11_11 
ROOT
HETATM    1  C1  UNL     1     -34.830  13.786  -5.946  1.00 20.00    -0.030 C 
HETATM    2  C2  UNL     1     -34.890  13.320  -4.693  1.00 20.00    -0.030 C 
HETATM    3  C5  UNL     1     -34.367  15.171  -6.284  1.00 20.00     0.031 C 
HETATM    4  C6  UNL     1     -34.473  14.126  -3.500  1.00 20.00     0.034 C 
HETATM    5  C7  UNL     1     -34.299  16.114  -5.063  1.00 20.00    -0.009 C 
HETATM    6  C8  UNL     1     -33.655  15.385  -3.859  1.00 20.00     0.017 C 
HETATM    7  C9  UNL     1     -33.567  17.399  -5.453  1.00 20.00     0.011 C 
ENDROOT
BRANCH   6   8
HETATM    8  C10 UNL     1     -33.515  16.272  -2.621  1.00 20.00     0.179 C 
BRANCH   8   9
HETATM    9  O11 UNL     1     -34.603  16.006  -1.757  1.00 20.00    -0.363 OA
BRANCH   9  10
HETATM   10  C4  UNL     1     -34.656  16.758  -0.661  1.00 20.00     0.124 C 
HETATM   11  C3  UNL     1     -33.834  17.775  -0.390  1.00 20.00     0.037 C 
ENDBRANCH   9  10
ENDBRANCH   8   9
ENDBRANCH   6   8
TORSDOF 3
ENDMDL
MODEL 4
REMARK VINA RESULT:      -4.4     11.150     12.099
REMARK  3 active torsions:
REMARK  status: ('A' for Active; 'I' for Inactive)
REMARK    1  A    between atoms: C4_4  and  O11_11 
REMARK    2  A    between atoms: C8_8  and  C10_10 
REMARK    3  A    between atoms: C10_10  and  O11_11 
ROOT
HETATM    1  C1  UNL     1     -34.952  13.312  -4.256  1.00 20.00    -0.030 C 
HETATM    2  C2  UNL     1     -33.682  13.661  -4.017  1.00 20.00    -0.030 C 
HETATM    3  C5  UNL     1     -36.109  14.242  -4.053  1.00 20.00     0.031 C 
HETATM    4  C6  UNL     1     -33.284  15.027  -3.547  1.00 20.00     0.034 C 
HETATM    5  C7  UNL     1     -35.755  15.498  -3.226  1.00 20.00    -0.009 C 
HETATM    6  C8  UNL     1     -34.401  16.082  -3.696  1.00 20.00     0.017 C 
HETATM    7  C9  UNL     1     -36.907  16.500  -3.305  1.00 20.00     0.011 C 
ENDROOT
BRANCH   6   8
HETATM    8  C10 UNL     1     -34.002  17.356  -2.950  1.00 20.00     0.179 C 
BRANCH   8   9
HETATM    9  O11 UNL     1     -33.416  16.985  -1.717  1.00 20.00    -0.363 OA
BRANCH   9  10
HETATM   10  C4  UNL     1     -33.898  17.612  -0.647  1.00 20.00     0.124 C 
HETATM   11  C3  UNL     1     -34.933  17.194   0.083  1.00 20.00     0.037 C 
ENDBRANCH   9  10
ENDBRANCH   8   9
ENDBRANCH   6   8
TORSDOF 3
ENDMDL
MODEL 5
REMARK VINA RESULT:      -4.3     11.249     13.184
REMARK  3 active torsions:
REMARK  status: ('A' for Active; 'I' for Inactive)
REMARK    1  A    between atoms: C4_4  and  O11_11 
REMARK    2  A    between atoms: C8_8  and  C10_10 
REMARK    3  A    between atoms: C10_10  and  O11_11 
ROOT
HETATM    1  C1  UNL     1     -35.091  15.477  -7.508  1.00 20.00    -0.030 C 
HETATM    2  C2  UNL     1     -34.284  16.486  -7.158  1.00 20.00    -0.030 C 
HETATM    3  C5  UNL     1     -35.401  14.325  -6.601  1.00 20.00     0.031 C 
HETATM    4  C6  UNL     1     -33.630  16.582  -5.813  1.00 20.00     0.034 C 
HETATM    5  C7  UNL     1     -34.454  14.223  -5.386  1.00 20.00    -0.009 C 
HETATM    6  C8  UNL     1     -34.230  15.622  -4.764  1.00 20.00     0.017 C 
HETATM    7  C9  UNL     1     -35.009  13.201  -4.393  1.00 20.00     0.011 C 
ENDROOT
BRANCH   6   8
HETATM    8  C10 UNL     1     -33.333  15.596  -3.526  1.00 20.00     0.179 C 
BRANCH   8   9
HETATM    9  O11 UNL     1     -33.747  16.629  -2.653  1.00 20.00    -0.363 OA
BRANCH   9  10
HETATM   10  C4  UNL     1     -34.541  16.247  -1.656  1.00 20.00     0.124 C 
HETATM   11  C3  UNL     1     -34.672  16.890  -0.493  1.00 20.00     0.037 C 
ENDBRANCH   9  10
ENDBRANCH   8   9
ENDBRANCH   6   8
TORSDOF 3
ENDMDL
MODEL 6
REMARK VINA RESULT:      -4.3      9.239     11.002
REMARK  3 active torsions:
REMARK  status: ('A' for Active; 'I' for Inactive)
REMARK    1  A    between atoms: C4_4  and  O11_11 
REMARK    2  A    between atoms: C8_8  and  C10_10 
REMARK    3  A    between atoms: C10_10  and  O11_11 
ROOT
HETATM    1  C1  UNL     1     -40.935   6.938  -0.425  1.00 20.00    -0.030 C 
HETATM    2  C2  UNL     1     -40.505   5.679  -0.279  1.00 20.00    -0.030 C 
HETATM    3  C5  UNL     1     -41.909   7.352  -1.486  1.00 20.00     0.031 C 
HETATM    4  C6  UNL     1     -40.976   4.548  -1.143  1.00 20.00     0.034 C 
HETATM    5  C7  UNL     1     -42.102   6.294  -2.595  1.00 20.00    -0.009 C 
HETATM    6  C8  UNL     1     -42.234   4.884  -1.971  1.00 20.00     0.017 C 
HETATM    7  C9  UNL     1     -43.296   6.684  -3.467  1.00 20.00     0.011 C 
ENDROOT
BRANCH   6   8
HETATM    8  C10 UNL     1     -42.471   3.785  -3.007  1.00 20.00     0.179 C 
BRANCH   8   9
HETATM    9  O11 UNL     1     -41.371   2.897  -2.974  1.00 20.00    -0.363 OA
BRANCH   9  10
HETATM   10  C4  UNL     1     -41.461   1.850  -3.790  1.00 20.00     0.124 C 
HETATM   11  C3  UNL     1     -42.149   0.736  -3.532  1.00 20.00     0.037 C 
ENDBRANCH   9  10
ENDBRANCH   8   9
ENDBRANCH   6   8
TORSDOF 3
ENDMDL
MODEL 7
REMARK VINA RESULT:      -4.2     11.174     12.672
REMARK  3 active torsions:
REMARK  status: ('A' for Active; 'I' for Inactive)
REMARK    1  A    between atoms: C4_4  and  O11_11 
REMARK    2  A    between atoms: C8_8  and  C10_10 
REMARK    3  A    between atoms: C10_10  and  O11_11 
ROOT
HETATM    1  C1  UNL     1     -33.515  18.645  -1.185  1.00 20.00    -0.030 C 
HETATM    2  C2  UNL     1     -33.996  17.613  -0.481  1.00 20.00    -0.030 C 
HETATM    3  C5  UNL     1     -33.534  18.695  -2.682  1.00 20.00     0.031 C 
HETATM    4  C6  UNL     1     -34.629  16.413  -1.119  1.00 20.00     0.034 C 
HETATM    5  C7  UNL     1     -33.829  17.330  -3.342  1.00 20.00    -0.009 C 
HETATM    6  C8  UNL     1     -34.990  16.620  -2.605  1.00 20.00     0.017 C 
HETATM    7  C9  UNL     1     -34.095  17.533  -4.835  1.00 20.00     0.011 C 
ENDROOT
BRANCH   6   8
HETATM    8  C10 UNL     1     -35.369  15.276  -3.229  1.00 20.00     0.179 C 
BRANCH   8   9
HETATM    9  O11 UNL     1     -34.267  14.399  -3.103  1.00 20.00    -0.363 OA
BRANCH   9  10
HETATM   10  C4  UNL     1     -34.005  13.657  -4.175  1.00 20.00     0.124 C 
HETATM   11  C3  UNL     1     -34.788  13.564  -5.252  1.00 20.00     0.037 C 
ENDBRANCH   9  10
ENDBRANCH   8   9
ENDBRANCH   6   8
TORSDOF 3
ENDMDL
MODEL 8
REMARK VINA RESULT:      -4.2      9.748     10.892
REMARK  3 active torsions:
REMARK  status: ('A' for Active; 'I' for Inactive)
REMARK    1  A    between atoms: C4_4  and  O11_11 
REMARK    2  A    between atoms: C8_8  and  C10_10 
REMARK    3  A    between atoms: C10_10  and  O11_11 
ROOT
HETATM    1  C1  UNL     1     -40.585   5.206  -0.569  1.00 20.00    -0.030 C 
HETATM    2  C2  UNL     1     -40.809   6.522  -0.462  1.00 20.00    -0.030 C 
HETATM    3  C5  UNL     1     -41.305   4.330  -1.548  1.00 20.00     0.031 C 
HETATM    4  C6  UNL     1     -41.782   7.259  -1.331  1.00 20.00     0.034 C 
HETATM    5  C7  UNL     1     -42.553   4.995  -2.170  1.00 20.00    -0.009 C 
HETATM    6  C8  UNL     1     -42.238   6.456  -2.568  1.00 20.00     0.017 C 
HETATM    7  C9  UNL     1     -43.053   4.144  -3.338  1.00 20.00     0.011 C 
ENDROOT
BRANCH   6   8
HETATM    8  C10 UNL     1     -43.417   7.169  -3.231  1.00 20.00     0.179 C 
BRANCH   8   9
HETATM    9  O11 UNL     1     -43.031   7.550  -4.538  1.00 20.00    -0.363 OA
BRANCH   9  10
HETATM   10  C4  UNL     1     -42.325   8.675  -4.617  1.00 20.00     0.124 C 
HETATM   11  C3  UNL     1     -41.745   9.138  -5.726  1.00 20.00     0.037 C 
ENDBRANCH   9  10
ENDBRANCH   8   9
ENDBRANCH   6   8
TORSDOF 3
ENDMDL
MODEL 9
REMARK VINA RESULT:      -4.2     11.568     12.618
REMARK  3 active torsions:
REMARK  status: ('A' for Active; 'I' for Inactive)
REMARK    1  A    between atoms: C4_4  and  O11_11 
REMARK    2  A    between atoms: C8_8  and  C10_10 
REMARK    3  A    between atoms: C10_10  and  O11_11 
ROOT
HETATM    1  C1  UNL     1     -31.973  19.240   1.837  1.00 20.00    -0.030 C 
HETATM    2  C2  UNL     1     -31.782  19.263   0.512  1.00 20.00    -0.030 C 
HETATM    3  C5  UNL     1     -33.206  18.678   2.477  1.00 20.00     0.031 C 
HETATM    4  C6  UNL     1     -32.770  18.703  -0.466  1.00 20.00     0.034 C 
HETATM    5  C7  UNL     1     -34.368  18.452   1.486  1.00 20.00    -0.009 C 
HETATM    6  C8  UNL     1     -33.842  17.802   0.184  1.00 20.00     0.017 C 
HETATM    7  C9  UNL     1     -35.467  17.635   2.168  1.00 20.00     0.011 C 
ENDROOT
BRANCH   6   8
HETATM    8  C10 UNL     1     -34.945  17.507  -0.833  1.00 20.00     0.179 C 
BRANCH   8   9
HETATM    9  O11 UNL     1     -34.881  16.136  -1.176  1.00 20.00    -0.363 OA
BRANCH   9  10
HETATM   10  C4  UNL     1     -34.741  15.881  -2.474  1.00 20.00     0.124 C 
HETATM   11  C3  UNL     1     -33.583  15.901  -3.138  1.00 20.00     0.037 C 
ENDBRANCH   9  10
ENDBRANCH   8   9
ENDBRANCH   6   8
TORSDOF 3
ENDMDL
