MODEL 1
REMARK VINA RESULT:      -4.4      0.000      0.000
REMARK  1 active torsions:
REMARK  status: ('A' for Active; 'I' for Inactive)
REMARK    1  A    between atoms: C6_6  and  O10_10 
ROOT
HETATM    1  C1  UNL     1     -34.824  13.264  -4.564  1.00 20.00     0.001 C 
HETATM    2  C2  UNL     1     -36.025  14.014  -4.015  1.00 20.00     0.001 C 
HETATM    3  C3  UNL     1     -33.628  14.083  -4.084  1.00 20.00     0.013 C 
HETATM    4  C4  UNL     1     -35.657  15.467  -4.290  1.00 20.00     0.013 C 
HETATM    5  C5  UNL     1     -33.570  17.538  -3.475  1.00 20.00     0.053 C 
HETATM    6  C6  UNL     1     -33.307  16.632  -4.700  1.00 20.00     0.132 C 
HETATM    7  C7  UNL     1     -33.722  16.247  -2.642  1.00 20.00     0.095 C 
HETATM    8  C8  UNL     1     -34.155  15.525  -3.974  1.00 20.00     0.003 C 
HETATM    9 CL11 UNL     1     -34.792  16.273  -1.205  1.00 20.00    -0.124 Cl
ENDROOT
BRANCH   6  10
HETATM   10  O10 UNL     1     -33.777  17.110  -5.973  1.00 20.00    -0.390 OA
HETATM   11  C9  UNL     1     -33.702  18.522  -6.041  1.00 20.00     0.202 C 
ENDBRANCH   6  10
TORSDOF 1
ENDMDL
MODEL 2
REMARK VINA RESULT:      -4.3      2.069      3.808
REMARK  1 active torsions:
REMARK  status: ('A' for Active; 'I' for Inactive)
REMARK    1  A    between atoms: C6_6  and  O10_10 
ROOT
HETATM    1  C1  UNL     1     -33.432  18.048  -0.632  1.00 20.00     0.001 C 
HETATM    2  C2  UNL     1     -34.650  17.199  -0.312  1.00 20.00     0.001 C 
HETATM    3  C3  UNL     1     -33.522  18.266  -2.141  1.00 20.00     0.013 C 
HETATM    4  C4  UNL     1     -34.651  16.186  -1.450  1.00 20.00     0.013 C 
HETATM    5  C5  UNL     1     -34.964  16.088  -4.484  1.00 20.00     0.053 C 
HETATM    6  C6  UNL     1     -33.557  16.266  -3.868  1.00 20.00     0.132 C 
HETATM    7  C7  UNL     1     -35.383  17.363  -3.720  1.00 20.00     0.095 C 
HETATM    8  C8  UNL     1     -34.252  17.022  -2.677  1.00 20.00     0.003 C 
HETATM    9 CL11 UNL     1     -37.093  17.540  -3.216  1.00 20.00    -0.124 Cl
ENDROOT
BRANCH   6  10
HETATM   10  O10 UNL     1     -32.824  15.066  -3.566  1.00 20.00    -0.390 OA
HETATM   11  C9  UNL     1     -33.569  13.916  -3.922  1.00 20.00     0.202 C 
ENDBRANCH   6  10
TORSDOF 1
ENDMDL
MODEL 3
REMARK VINA RESULT:      -4.3      2.796      3.984
REMARK  1 active torsions:
REMARK  status: ('A' for Active; 'I' for Inactive)
REMARK    1  A    between atoms: C6_6  and  O10_10 
ROOT
HETATM    1  C1  UNL     1     -33.249  13.673  -3.623  1.00 20.00     0.001 C 
HETATM    2  C2  UNL     1     -33.069  15.180  -3.690  1.00 20.00     0.001 C 
HETATM    3  C3  UNL     1     -34.301  13.382  -4.691  1.00 20.00     0.013 C 
HETATM    4  C4  UNL     1     -34.503  15.676  -3.814  1.00 20.00     0.013 C 
HETATM    5  C5  UNL     1     -36.860  15.537  -5.748  1.00 20.00     0.053 C 
HETATM    6  C6  UNL     1     -36.713  14.461  -4.648  1.00 20.00     0.132 C 
HETATM    7  C7  UNL     1     -35.453  15.129  -6.237  1.00 20.00     0.095 C 
HETATM    8  C8  UNL     1     -35.157  14.659  -4.763  1.00 20.00     0.003 C 
HETATM    9 CL11 UNL     1     -34.434  16.361  -7.045  1.00 20.00    -0.124 Cl
ENDROOT
BRANCH   6  10
HETATM   10  O10 UNL     1     -37.333  14.740  -3.380  1.00 20.00    -0.390 OA
HETATM   11  C9  UNL     1     -38.692  15.095  -3.550  1.00 20.00     0.202 C 
ENDBRANCH   6  10
TORSDOF 1
ENDMDL
MODEL 4
REMARK VINA RESULT:      -4.2      2.455      3.308
REMARK  1 active torsions:
REMARK  status: ('A' for Active; 'I' for Inactive)
REMARK    1  A    between atoms: C6_6  and  O10_10 
ROOT
HETATM    1  C1  UNL     1     -35.514  13.568  -4.150  1.00 20.00     0.001 C 
HETATM    2  C2  UNL     1     -34.026  13.737  -4.398  1.00 20.00     0.001 C 
HETATM    3  C3  UNL     1     -36.033  15.000  -4.041  1.00 20.00     0.013 C 
HETATM    4  C4  UNL     1     -33.654  14.843  -3.418  1.00 20.00     0.013 C 
HETATM    5  C5  UNL     1     -34.242  17.791  -2.898  1.00 20.00     0.053 C 
HETATM    6  C6  UNL     1     -35.130  16.710  -2.241  1.00 20.00     0.132 C 
HETATM    7  C7  UNL     1     -34.619  17.172  -4.262  1.00 20.00     0.095 C 
HETATM    8  C8  UNL     1     -34.844  15.812  -3.500  1.00 20.00     0.003 C 
HETATM    9 CL11 UNL     1     -33.453  17.301  -5.615  1.00 20.00    -0.124 Cl
ENDROOT
BRANCH   6  10
HETATM   10  O10 UNL     1     -34.710  16.218  -0.956  1.00 20.00    -0.390 OA
HETATM   11  C9  UNL     1     -34.704  17.257   0.005  1.00 20.00     0.202 C 
ENDBRANCH   6  10
TORSDOF 1
ENDMDL
MODEL 5
REMARK VINA RESULT:      -4.2      2.266      3.616
REMARK  1 active torsions:
REMARK  status: ('A' for Active; 'I' for Inactive)
REMARK    1  A    between atoms: C6_6  and  O10_10 
ROOT
HETATM    1  C1  UNL     1     -34.784  17.030  -0.720  1.00 20.00     0.001 C 
HETATM    2  C2  UNL     1     -35.926  17.366  -1.663  1.00 20.00     0.001 C 
HETATM    3  C3  UNL     1     -33.585  16.845  -1.649  1.00 20.00     0.013 C 
HETATM    4  C4  UNL     1     -35.713  16.378  -2.802  1.00 20.00     0.013 C 
HETATM    5  C5  UNL     1     -33.670  15.731  -4.975  1.00 20.00     0.053 C 
HETATM    6  C6  UNL     1     -33.551  15.053  -3.591  1.00 20.00     0.132 C 
HETATM    7  C7  UNL     1     -33.590  17.087  -4.239  1.00 20.00     0.095 C 
HETATM    8  C8  UNL     1     -34.186  16.355  -2.978  1.00 20.00     0.003 C 
HETATM    9 CL11 UNL     1     -34.407  18.507  -4.965  1.00 20.00    -0.124 Cl
ENDROOT
BRANCH   6  10
HETATM   10  O10 UNL     1     -34.258  13.813  -3.413  1.00 20.00    -0.390 OA
HETATM   11  C9  UNL     1     -34.666  13.281  -4.659  1.00 20.00     0.202 C 
ENDBRANCH   6  10
TORSDOF 1
ENDMDL
MODEL 6
REMARK VINA RESULT:      -4.1      2.329      2.771
REMARK  1 active torsions:
REMARK  status: ('A' for Active; 'I' for Inactive)
REMARK    1  A    between atoms: C6_6  and  O10_10 
ROOT
HETATM    1  C1  UNL     1     -34.482  15.783  -7.154  1.00 20.00     0.001 C 
HETATM    2  C2  UNL     1     -34.963  14.421  -6.684  1.00 20.00     0.001 C 
HETATM    3  C3  UNL     1     -33.775  16.364  -5.931  1.00 20.00     0.013 C 
HETATM    4  C4  UNL     1     -35.502  14.726  -5.293  1.00 20.00     0.013 C 
HETATM    5  C5  UNL     1     -34.516  15.688  -2.570  1.00 20.00     0.053 C 
HETATM    6  C6  UNL     1     -34.995  16.722  -3.615  1.00 20.00     0.132 C 
HETATM    7  C7  UNL     1     -33.491  15.206  -3.619  1.00 20.00     0.095 C 
HETATM    8  C8  UNL     1     -34.486  15.729  -4.724  1.00 20.00     0.003 C 
HETATM    9 CL11 UNL     1     -32.961  13.495  -3.578  1.00 20.00    -0.124 Cl
ENDROOT
BRANCH   6  10
HETATM   10  O10 UNL     1     -36.394  17.055  -3.604  1.00 20.00    -0.390 OA
HETATM   11  C9  UNL     1     -36.642  18.219  -4.371  1.00 20.00     0.202 C 
ENDBRANCH   6  10
TORSDOF 1
ENDMDL
MODEL 7
REMARK VINA RESULT:      -4.1      2.634      3.771
REMARK  1 active torsions:
REMARK  status: ('A' for Active; 'I' for Inactive)
REMARK    1  A    between atoms: C6_6  and  O10_10 
ROOT
HETATM    1  C1  UNL     1     -35.795  15.704  -7.394  1.00 20.00     0.001 C 
HETATM    2  C2  UNL     1     -34.783  14.605  -7.122  1.00 20.00     0.001 C 
HETATM    3  C3  UNL     1     -35.873  16.465  -6.072  1.00 20.00     0.013 C 
HETATM    4  C4  UNL     1     -35.188  14.122  -5.736  1.00 20.00     0.013 C 
HETATM    5  C5  UNL     1     -35.347  15.144  -2.865  1.00 20.00     0.053 C 
HETATM    6  C6  UNL     1     -36.567  15.308  -3.800  1.00 20.00     0.132 C 
HETATM    7  C7  UNL     1     -34.530  15.937  -3.908  1.00 20.00     0.095 C 
HETATM    8  C8  UNL     1     -35.547  15.418  -4.993  1.00 20.00     0.003 C 
HETATM    9 CL11 UNL     1     -32.773  15.615  -4.048  1.00 20.00    -0.124 Cl
ENDROOT
BRANCH   6  10
HETATM   10  O10 UNL     1     -37.515  14.226  -3.826  1.00 20.00    -0.390 OA
HETATM   11  C9  UNL     1     -38.789  14.681  -4.242  1.00 20.00     0.202 C 
ENDBRANCH   6  10
TORSDOF 1
ENDMDL
MODEL 8
REMARK VINA RESULT:      -4.1      2.798      4.116
REMARK  1 active torsions:
REMARK  status: ('A' for Active; 'I' for Inactive)
REMARK    1  A    between atoms: C6_6  and  O10_10 
ROOT
HETATM    1  C1  UNL     1     -34.566  16.270  -1.573  1.00 20.00     0.001 C 
HETATM    2  C2  UNL     1     -35.206  17.508  -2.177  1.00 20.00     0.001 C 
HETATM    3  C3  UNL     1     -34.456  15.303  -2.750  1.00 20.00     0.013 C 
HETATM    4  C4  UNL     1     -36.293  16.915  -3.064  1.00 20.00     0.013 C 
HETATM    5  C5  UNL     1     -36.580  15.153  -5.538  1.00 20.00     0.053 C 
HETATM    6  C6  UNL     1     -36.557  14.500  -4.137  1.00 20.00     0.132 C 
HETATM    7  C7  UNL     1     -35.203  15.764  -5.199  1.00 20.00     0.095 C 
HETATM    8  C8  UNL     1     -35.621  15.680  -3.682  1.00 20.00     0.003 C 
HETATM    9 CL11 UNL     1     -34.747  17.324  -5.954  1.00 20.00    -0.124 Cl
ENDROOT
BRANCH   6  10
HETATM   10  O10 UNL     1     -37.823  14.352  -3.469  1.00 20.00    -0.390 OA
HETATM   11  C9  UNL     1     -38.892  14.690  -4.332  1.00 20.00     0.202 C 
ENDBRANCH   6  10
TORSDOF 1
ENDMDL
MODEL 9
REMARK VINA RESULT:      -4.0      1.814      2.977
REMARK  1 active torsions:
REMARK  status: ('A' for Active; 'I' for Inactive)
REMARK    1  A    between atoms: C6_6  and  O10_10 
ROOT
HETATM    1  C1  UNL     1     -35.547  17.217  -1.956  1.00 20.00     0.001 C 
HETATM    2  C2  UNL     1     -34.522  16.129  -1.683  1.00 20.00     0.001 C 
HETATM    3  C3  UNL     1     -36.048  16.903  -3.364  1.00 20.00     0.013 C 
HETATM    4  C4  UNL     1     -33.762  16.057  -3.001  1.00 20.00     0.013 C 
HETATM    5  C5  UNL     1     -34.235  15.340  -5.929  1.00 20.00     0.053 C 
HETATM    6  C6  UNL     1     -34.441  16.798  -5.459  1.00 20.00     0.132 C 
HETATM    7  C7  UNL     1     -35.279  14.925  -4.869  1.00 20.00     0.095 C 
HETATM    8  C8  UNL     1     -34.863  16.212  -4.061  1.00 20.00     0.003 C 
HETATM    9 CL11 UNL     1     -35.162  13.291  -4.142  1.00 20.00    -0.124 Cl
ENDROOT
BRANCH   6  10
HETATM   10  O10 UNL     1     -33.292  17.663  -5.505  1.00 20.00    -0.390 OA
HETATM   11  C9  UNL     1     -33.674  19.017  -5.351  1.00 20.00     0.202 C 
ENDBRANCH   6  10
TORSDOF 1
ENDMDL
