MODEL 1
REMARK VINA RESULT:      -5.0      0.000      0.000
REMARK  3 active torsions:
REMARK  status: ('A' for Active; 'I' for Inactive)
REMARK    1  A    between atoms: C2_2  and  O10_10 
REMARK    2  A    between atoms: C7_7  and  C8_8 
REMARK    3  A    between atoms: C8_8  and  O10_10 
ROOT
HETATM    1  C3  UNL     1     -34.354   6.143   6.290  1.00 20.00     0.005 C 
HETATM    2  C4  UNL     1     -35.071   4.859   5.888  1.00 20.00     0.026 C 
HETATM    3  C5  UNL     1     -33.188   6.424   5.350  1.00 20.00     0.034 C 
HETATM    4  C6  UNL     1     -35.423   4.880   4.406  1.00 20.00     0.168 C 
HETATM    5  C7  UNL     1     -33.646   6.369   3.890  1.00 20.00     0.145 C 
HETATM    6  O9  UNL     1     -34.258   5.105   3.612  1.00 20.00    -0.384 OA
ENDROOT
BRANCH   5   7
HETATM    7  C8  UNL     1     -32.469   6.536   2.940  1.00 20.00     0.206 C 
BRANCH   7   8
HETATM    8  O10 UNL     1     -32.099   7.904   2.911  1.00 20.00    -0.361 OA
BRANCH   8   9
HETATM    9  C2  UNL     1     -32.034   8.449   1.701  1.00 20.00     0.124 C 
HETATM   10  C1  UNL     1     -32.418   9.691   1.400  1.00 20.00     0.037 C 
ENDBRANCH   8   9
ENDBRANCH   7   8
ENDBRANCH   5   7
TORSDOF 3
ENDMDL
MODEL 2
REMARK VINA RESULT:      -4.6      1.021      1.662
REMARK  3 active torsions:
REMARK  status: ('A' for Active; 'I' for Inactive)
REMARK    1  A    between atoms: C2_2  and  O10_10 
REMARK    2  A    between atoms: C7_7  and  C8_8 
REMARK    3  A    between atoms: C8_8  and  O10_10 
ROOT
HETATM    1  C3  UNL     1     -35.024   4.203   4.895  1.00 20.00     0.005 C 
HETATM    2  C4  UNL     1     -35.123   4.984   6.200  1.00 20.00     0.026 C 
HETATM    3  C5  UNL     1     -34.784   5.147   3.722  1.00 20.00     0.034 C 
HETATM    4  C6  UNL     1     -33.935   5.925   6.357  1.00 20.00     0.168 C 
HETATM    5  C7  UNL     1     -33.603   6.078   4.010  1.00 20.00     0.145 C 
HETATM    6  O9  UNL     1     -33.826   6.794   5.230  1.00 20.00    -0.384 OA
ENDROOT
BRANCH   5   7
HETATM    7  C8  UNL     1     -33.426   7.099   2.895  1.00 20.00     0.206 C 
BRANCH   7   8
HETATM    8  O10 UNL     1     -32.064   7.488   2.848  1.00 20.00    -0.361 OA
BRANCH   8   9
HETATM    9  C2  UNL     1     -31.745   8.314   1.859  1.00 20.00     0.124 C 
HETATM   10  C1  UNL     1     -32.453   9.387   1.500  1.00 20.00     0.037 C 
ENDBRANCH   8   9
ENDBRANCH   7   8
ENDBRANCH   5   7
TORSDOF 3
ENDMDL
MODEL 3
REMARK VINA RESULT:      -4.0     10.946     11.690
REMARK  3 active torsions:
REMARK  status: ('A' for Active; 'I' for Inactive)
REMARK    1  A    between atoms: C2_2  and  O10_10 
REMARK    2  A    between atoms: C7_7  and  C8_8 
REMARK    3  A    between atoms: C8_8  and  O10_10 
ROOT
HETATM    1  C3  UNL     1     -33.374  13.510  -3.830  1.00 20.00     0.005 C 
HETATM    2  C4  UNL     1     -34.655  13.383  -4.647  1.00 20.00     0.026 C 
HETATM    3  C5  UNL     1     -33.041  14.977  -3.579  1.00 20.00     0.034 C 
HETATM    4  C6  UNL     1     -35.775  14.206  -4.023  1.00 20.00     0.168 C 
HETATM    5  C7  UNL     1     -34.251  15.715  -3.002  1.00 20.00     0.145 C 
HETATM    6  O9  UNL     1     -35.379  15.568  -3.872  1.00 20.00    -0.384 OA
ENDROOT
BRANCH   5   7
HETATM    7  C8  UNL     1     -33.966  17.202  -2.853  1.00 20.00     0.206 C 
BRANCH   7   8
HETATM    8  O10 UNL     1     -33.716  17.482  -1.486  1.00 20.00    -0.361 OA
BRANCH   8   9
HETATM    9  C2  UNL     1     -34.508  16.852  -0.625  1.00 20.00     0.124 C 
HETATM   10  C1  UNL     1     -34.995  17.385   0.498  1.00 20.00     0.037 C 
ENDBRANCH   8   9
ENDBRANCH   7   8
ENDBRANCH   5   7
TORSDOF 3
ENDMDL
MODEL 4
REMARK VINA RESULT:      -4.0     10.831     12.080
REMARK  3 active torsions:
REMARK  status: ('A' for Active; 'I' for Inactive)
REMARK    1  A    between atoms: C2_2  and  O10_10 
REMARK    2  A    between atoms: C7_7  and  C8_8 
REMARK    3  A    between atoms: C8_8  and  O10_10 
ROOT
HETATM    1  C3  UNL     1     -34.713  17.062  -0.215  1.00 20.00     0.005 C 
HETATM    2  C4  UNL     1     -34.575  18.552  -0.508  1.00 20.00     0.026 C 
HETATM    3  C5  UNL     1     -34.762  16.263  -1.513  1.00 20.00     0.034 C 
HETATM    4  C6  UNL     1     -33.424  18.808  -1.471  1.00 20.00     0.168 C 
HETATM    5  C7  UNL     1     -33.589  16.637  -2.422  1.00 20.00     0.145 C 
HETATM    6  O9  UNL     1     -33.587  18.048  -2.668  1.00 20.00    -0.384 OA
ENDROOT
BRANCH   5   7
HETATM    7  C8  UNL     1     -33.690  15.930  -3.766  1.00 20.00     0.206 C 
BRANCH   7   8
HETATM    8  O10 UNL     1     -32.894  14.758  -3.723  1.00 20.00    -0.361 OA
BRANCH   8   9
HETATM    9  C2  UNL     1     -33.558  13.616  -3.864  1.00 20.00     0.124 C 
HETATM   10  C1  UNL     1     -34.864  13.518  -4.123  1.00 20.00     0.037 C 
ENDBRANCH   8   9
ENDBRANCH   7   8
ENDBRANCH   5   7
TORSDOF 3
ENDMDL
MODEL 5
REMARK VINA RESULT:      -3.9     11.091     12.182
REMARK  3 active torsions:
REMARK  status: ('A' for Active; 'I' for Inactive)
REMARK    1  A    between atoms: C2_2  and  O10_10 
REMARK    2  A    between atoms: C7_7  and  C8_8 
REMARK    3  A    between atoms: C8_8  and  O10_10 
ROOT
HETATM    1  C3  UNL     1     -34.329  15.194  -6.400  1.00 20.00     0.005 C 
HETATM    2  C4  UNL     1     -35.069  13.929  -5.979  1.00 20.00     0.026 C 
HETATM    3  C5  UNL     1     -34.194  16.152  -5.222  1.00 20.00     0.034 C 
HETATM    4  C6  UNL     1     -34.445  13.331  -4.725  1.00 20.00     0.168 C 
HETATM    5  C7  UNL     1     -33.606  15.434  -4.005  1.00 20.00     0.145 C 
HETATM    6  O9  UNL     1     -34.406  14.294  -3.672  1.00 20.00    -0.384 OA
ENDROOT
BRANCH   5   7
HETATM    7  C8  UNL     1     -33.571  16.351  -2.791  1.00 20.00     0.206 C 
BRANCH   7   8
HETATM    8  O10 UNL     1     -34.508  15.878  -1.838  1.00 20.00    -0.361 OA
BRANCH   8   9
HETATM    9  C2  UNL     1     -34.683  16.662  -0.780  1.00 20.00     0.124 C 
HETATM   10  C1  UNL     1     -33.906  17.699  -0.459  1.00 20.00     0.037 C 
ENDBRANCH   8   9
ENDBRANCH   7   8
ENDBRANCH   5   7
TORSDOF 3
ENDMDL
MODEL 6
REMARK VINA RESULT:      -3.8     11.382     12.939
REMARK  3 active torsions:
REMARK  status: ('A' for Active; 'I' for Inactive)
REMARK    1  A    between atoms: C2_2  and  O10_10 
REMARK    2  A    between atoms: C7_7  and  C8_8 
REMARK    3  A    between atoms: C8_8  and  O10_10 
ROOT
HETATM    1  C3  UNL     1     -35.368  14.213  -6.546  1.00 20.00     0.005 C 
HETATM    2  C4  UNL     1     -34.717  15.193  -7.516  1.00 20.00     0.026 C 
HETATM    3  C5  UNL     1     -34.492  14.017  -5.314  1.00 20.00     0.034 C 
HETATM    4  C6  UNL     1     -34.311  16.473  -6.798  1.00 20.00     0.168 C 
HETATM    5  C7  UNL     1     -34.104  15.367  -4.706  1.00 20.00     0.145 C 
HETATM    6  O9  UNL     1     -33.459  16.183  -5.690  1.00 20.00    -0.384 OA
ENDROOT
BRANCH   5   7
HETATM    7  C8  UNL     1     -33.138  15.187  -3.543  1.00 20.00     0.206 C 
BRANCH   7   8
HETATM    8  O10 UNL     1     -33.348  16.234  -2.612  1.00 20.00    -0.361 OA
BRANCH   8   9
HETATM    9  C2  UNL     1     -34.520  16.210  -1.987  1.00 20.00     0.124 C 
HETATM   10  C1  UNL     1     -34.738  16.672  -0.754  1.00 20.00     0.037 C 
ENDBRANCH   8   9
ENDBRANCH   7   8
ENDBRANCH   5   7
TORSDOF 3
ENDMDL
MODEL 7
REMARK VINA RESULT:      -3.8     10.890     12.131
REMARK  3 active torsions:
REMARK  status: ('A' for Active; 'I' for Inactive)
REMARK    1  A    between atoms: C2_2  and  O10_10 
REMARK    2  A    between atoms: C7_7  and  C8_8 
REMARK    3  A    between atoms: C8_8  and  O10_10 
ROOT
HETATM    1  C3  UNL     1     -34.180  13.275  -4.693  1.00 20.00     0.005 C 
HETATM    2  C4  UNL     1     -33.191  13.845  -3.682  1.00 20.00     0.026 C 
HETATM    3  C5  UNL     1     -35.614  13.548  -4.253  1.00 20.00     0.034 C 
HETATM    4  C6  UNL     1     -33.510  15.303  -3.380  1.00 20.00     0.168 C 
HETATM    5  C7  UNL     1     -35.806  15.031  -3.926  1.00 20.00     0.145 C 
HETATM    6  O9  UNL     1     -34.859  15.444  -2.935  1.00 20.00    -0.384 OA
ENDROOT
BRANCH   5   7
HETATM    7  C8  UNL     1     -37.201  15.295  -3.378  1.00 20.00     0.206 C 
BRANCH   7   8
HETATM    8  O10 UNL     1     -38.059  14.247  -3.797  1.00 20.00    -0.361 OA
BRANCH   8   9
HETATM    9  C2  UNL     1     -39.229  14.636  -4.290  1.00 20.00     0.124 C 
HETATM   10  C1  UNL     1     -39.443  15.001  -5.556  1.00 20.00     0.037 C 
ENDBRANCH   8   9
ENDBRANCH   7   8
ENDBRANCH   5   7
TORSDOF 3
ENDMDL
MODEL 8
REMARK VINA RESULT:      -3.8      9.894     10.731
REMARK  3 active torsions:
REMARK  status: ('A' for Active; 'I' for Inactive)
REMARK    1  A    between atoms: C2_2  and  O10_10 
REMARK    2  A    between atoms: C7_7  and  C8_8 
REMARK    3  A    between atoms: C8_8  and  O10_10 
ROOT
HETATM    1  C3  UNL     1     -40.780   5.838  -0.201  1.00 20.00     0.005 C 
HETATM    2  C4  UNL     1     -40.688   4.619  -1.112  1.00 20.00     0.026 C 
HETATM    3  C5  UNL     1     -41.228   7.064  -0.989  1.00 20.00     0.034 C 
HETATM    4  C6  UNL     1     -41.974   4.444  -1.909  1.00 20.00     0.168 C 
HETATM    5  C7  UNL     1     -42.496   6.758  -1.790  1.00 20.00     0.145 C 
HETATM    6  O9  UNL     1     -42.280   5.628  -2.643  1.00 20.00    -0.384 OA
ENDROOT
BRANCH   5   7
HETATM    7  C8  UNL     1     -42.888   7.938  -2.668  1.00 20.00     0.206 C 
BRANCH   7   8
HETATM    8  O10 UNL     1     -42.472   7.673  -3.997  1.00 20.00    -0.361 OA
BRANCH   8   9
HETATM    9  C2  UNL     1     -42.568   8.699  -4.835  1.00 20.00     0.124 C 
HETATM   10  C1  UNL     1     -41.584   9.136  -5.625  1.00 20.00     0.037 C 
ENDBRANCH   8   9
ENDBRANCH   7   8
ENDBRANCH   5   7
TORSDOF 3
ENDMDL
MODEL 9
REMARK VINA RESULT:      -3.7      9.551     11.170
REMARK  3 active torsions:
REMARK  status: ('A' for Active; 'I' for Inactive)
REMARK    1  A    between atoms: C2_2  and  O10_10 
REMARK    2  A    between atoms: C7_7  and  C8_8 
REMARK    3  A    between atoms: C8_8  and  O10_10 
ROOT
HETATM    1  C3  UNL     1     -40.725   6.101  -0.316  1.00 20.00     0.005 C 
HETATM    2  C4  UNL     1     -41.596   7.217  -0.882  1.00 20.00     0.026 C 
HETATM    3  C5  UNL     1     -41.298   4.736  -0.679  1.00 20.00     0.034 C 
HETATM    4  C6  UNL     1     -41.857   6.996  -2.366  1.00 20.00     0.168 C 
HETATM    5  C7  UNL     1     -41.568   4.646  -2.183  1.00 20.00     0.145 C 
HETATM    6  O9  UNL     1     -42.433   5.710  -2.593  1.00 20.00    -0.384 OA
ENDROOT
BRANCH   5   7
HETATM    7  C8  UNL     1     -42.246   3.330  -2.540  1.00 20.00     0.206 C 
BRANCH   7   8
HETATM    8  O10 UNL     1     -41.270   2.445  -3.064  1.00 20.00    -0.361 OA
BRANCH   8   9
HETATM    9  C2  UNL     1     -41.709   1.604  -3.993  1.00 20.00     0.124 C 
HETATM   10  C1  UNL     1     -41.964   0.309  -3.795  1.00 20.00     0.037 C 
ENDBRANCH   8   9
ENDBRANCH   7   8
ENDBRANCH   5   7
TORSDOF 3
ENDMDL
