MODEL 1
REMARK VINA RESULT:      -4.1      0.000      0.000
REMARK  2 active torsions:
REMARK  status: ('A' for Active; 'I' for Inactive)
REMARK    1  A    between atoms: C2_2  and  O10_10 
REMARK    2  A    between atoms: C9_9  and  O10_10 
ROOT
HETATM    1  C1  UNL     1     -35.950  14.998  -3.495  1.00 20.00     0.053 C 
HETATM    2  C2  UNL     1     -35.173  16.159  -2.832  1.00 20.00     0.132 C 
HETATM    3  C3  UNL     1     -35.266  15.374  -4.829  1.00 20.00     0.095 C 
HETATM    4  C4  UNL     1     -34.116  16.023  -3.984  1.00 20.00    -0.005 C 
HETATM    5  C5  UNL     1     -33.642  17.367  -4.533  1.00 20.00     0.019 C 
HETATM    6  C6  UNL     1     -32.925  15.117  -3.658  1.00 20.00     0.019 C 
HETATM    7 CL11 UNL     1     -34.917  14.068  -6.006  1.00 20.00    -0.124 Cl
ENDROOT
BRANCH   2   8
HETATM    8  O10 UNL     1     -34.709  15.924  -1.491  1.00 20.00    -0.381 OA
BRANCH   8   9
HETATM    9  C9  UNL     1     -34.785  17.106  -0.717  1.00 20.00     0.114 C 
HETATM   10  C7  UNL     1     -33.436  17.806  -0.739  1.00 20.00     0.039 C 
HETATM   11  C8  UNL     1     -35.893  17.993  -1.266  1.00 20.00     0.039 C 
ENDBRANCH   8   9
ENDBRANCH   2   8
TORSDOF 2
ENDMDL
MODEL 2
REMARK VINA RESULT:      -4.1      1.313      2.159
REMARK  2 active torsions:
REMARK  status: ('A' for Active; 'I' for Inactive)
REMARK    1  A    between atoms: C2_2  and  O10_10 
REMARK    2  A    between atoms: C9_9  and  O10_10 
ROOT
HETATM    1  C1  UNL     1     -34.382  16.636  -5.568  1.00 20.00     0.053 C 
HETATM    2  C2  UNL     1     -33.940  16.369  -4.110  1.00 20.00     0.132 C 
HETATM    3  C3  UNL     1     -34.199  15.127  -5.843  1.00 20.00     0.095 C 
HETATM    4  C4  UNL     1     -34.411  14.886  -4.308  1.00 20.00    -0.005 C 
HETATM    5  C5  UNL     1     -33.448  13.859  -3.715  1.00 20.00     0.019 C 
HETATM    6  C6  UNL     1     -35.849  14.604  -3.862  1.00 20.00     0.019 C 
HETATM    7 CL11 UNL     1     -35.267  14.344  -7.051  1.00 20.00    -0.124 Cl
ENDROOT
BRANCH   2   8
HETATM    8  O10 UNL     1     -34.612  17.136  -3.096  1.00 20.00    -0.381 OA
BRANCH   8   9
HETATM    9  C9  UNL     1     -33.826  17.215  -1.922  1.00 20.00     0.114 C 
HETATM   10  C7  UNL     1     -33.428  18.663  -1.683  1.00 20.00     0.039 C 
HETATM   11  C8  UNL     1     -34.615  16.644  -0.753  1.00 20.00     0.039 C 
ENDBRANCH   8   9
ENDBRANCH   2   8
TORSDOF 2
ENDMDL
MODEL 3
REMARK VINA RESULT:      -4.1      2.662      4.581
REMARK  2 active torsions:
REMARK  status: ('A' for Active; 'I' for Inactive)
REMARK    1  A    between atoms: C2_2  and  O10_10 
REMARK    2  A    between atoms: C9_9  and  O10_10 
ROOT
HETATM    1  C1  UNL     1     -34.095  17.008  -3.841  1.00 20.00     0.053 C 
HETATM    2  C2  UNL     1     -34.767  16.114  -4.909  1.00 20.00     0.132 C 
HETATM    3  C3  UNL     1     -35.120  16.465  -2.820  1.00 20.00     0.095 C 
HETATM    4  C4  UNL     1     -35.269  15.202  -3.736  1.00 20.00    -0.005 C 
HETATM    5  C5  UNL     1     -36.715  14.739  -3.902  1.00 20.00     0.019 C 
HETATM    6  C6  UNL     1     -34.352  14.019  -3.407  1.00 20.00     0.019 C 
HETATM    7 CL11 UNL     1     -34.614  16.305  -1.108  1.00 20.00    -0.124 Cl
ENDROOT
BRANCH   2   8
HETATM    8  O10 UNL     1     -33.887  15.511  -5.873  1.00 20.00    -0.381 OA
BRANCH   8   9
HETATM    9  C9  UNL     1     -34.437  15.588  -7.175  1.00 20.00     0.114 C 
HETATM   10  C7  UNL     1     -35.364  14.403  -7.397  1.00 20.00     0.039 C 
HETATM   11  C8  UNL     1     -35.164  16.914  -7.333  1.00 20.00     0.039 C 
ENDBRANCH   8   9
ENDBRANCH   2   8
TORSDOF 2
ENDMDL
MODEL 4
REMARK VINA RESULT:      -4.1      2.520      4.107
REMARK  2 active torsions:
REMARK  status: ('A' for Active; 'I' for Inactive)
REMARK    1  A    between atoms: C2_2  and  O10_10 
REMARK    2  A    between atoms: C9_9  and  O10_10 
ROOT
HETATM    1  C1  UNL     1     -34.652  16.315  -1.545  1.00 20.00     0.053 C 
HETATM    2  C2  UNL     1     -34.415  15.634  -2.913  1.00 20.00     0.132 C 
HETATM    3  C3  UNL     1     -34.129  17.628  -2.170  1.00 20.00     0.095 C 
HETATM    4  C4  UNL     1     -34.541  17.053  -3.569  1.00 20.00    -0.005 C 
HETATM    5  C5  UNL     1     -33.505  17.311  -4.661  1.00 20.00     0.019 C 
HETATM    6  C6  UNL     1     -35.948  17.412  -4.057  1.00 20.00     0.019 C 
HETATM    7 CL11 UNL     1     -34.802  19.181  -1.580  1.00 20.00    -0.124 Cl
ENDROOT
BRANCH   2   8
HETATM    8  O10 UNL     1     -35.386  14.647  -3.304  1.00 20.00    -0.381 OA
BRANCH   8   9
HETATM    9  C9  UNL     1     -34.783  13.623  -4.072  1.00 20.00     0.114 C 
HETATM   10  C7  UNL     1     -35.036  13.889  -5.547  1.00 20.00     0.039 C 
HETATM   11  C8  UNL     1     -33.296  13.569  -3.753  1.00 20.00     0.039 C 
ENDBRANCH   8   9
ENDBRANCH   2   8
TORSDOF 2
ENDMDL
MODEL 5
REMARK VINA RESULT:      -4.0      2.668      4.633
REMARK  2 active torsions:
REMARK  status: ('A' for Active; 'I' for Inactive)
REMARK    1  A    between atoms: C2_2  and  O10_10 
REMARK    2  A    between atoms: C9_9  and  O10_10 
ROOT
HETATM    1  C1  UNL     1     -36.156  16.276  -3.224  1.00 20.00     0.053 C 
HETATM    2  C2  UNL     1     -35.751  15.335  -4.382  1.00 20.00     0.132 C 
HETATM    3  C3  UNL     1     -35.017  15.650  -2.389  1.00 20.00     0.095 C 
HETATM    4  C4  UNL     1     -34.321  15.268  -3.741  1.00 20.00    -0.005 C 
HETATM    5  C5  UNL     1     -33.721  13.864  -3.740  1.00 20.00     0.019 C 
HETATM    6  C6  UNL     1     -33.321  16.288  -4.295  1.00 20.00     0.019 C 
HETATM    7 CL11 UNL     1     -34.180  16.678  -1.183  1.00 20.00    -0.124 Cl
ENDROOT
BRANCH   2   8
HETATM    8  O10 UNL     1     -35.845  15.887  -5.707  1.00 20.00    -0.381 OA
BRANCH   8   9
HETATM    9  C9  UNL     1     -35.924  14.860  -6.676  1.00 20.00     0.114 C 
HETATM   10  C7  UNL     1     -37.156  15.080  -7.540  1.00 20.00     0.039 C 
HETATM   11  C8  UNL     1     -34.647  14.853  -7.502  1.00 20.00     0.039 C 
ENDBRANCH   8   9
ENDBRANCH   2   8
TORSDOF 2
ENDMDL
MODEL 6
REMARK VINA RESULT:      -4.0      2.401      3.716
REMARK  2 active torsions:
REMARK  status: ('A' for Active; 'I' for Inactive)
REMARK    1  A    between atoms: C2_2  and  O10_10 
REMARK    2  A    between atoms: C9_9  and  O10_10 
ROOT
HETATM    1  C1  UNL     1     -35.130  13.423  -4.292  1.00 20.00     0.053 C 
HETATM    2  C2  UNL     1     -36.247  14.489  -4.372  1.00 20.00     0.132 C 
HETATM    3  C3  UNL     1     -34.101  14.567  -4.429  1.00 20.00     0.095 C 
HETATM    4  C4  UNL     1     -35.196  15.534  -3.858  1.00 20.00    -0.005 C 
HETATM    5  C5  UNL     1     -35.264  16.874  -4.588  1.00 20.00     0.019 C 
HETATM    6  C6  UNL     1     -35.186  15.741  -2.340  1.00 20.00     0.019 C 
HETATM    7 CL11 UNL     1     -32.515  14.390  -3.613  1.00 20.00    -0.124 Cl
ENDROOT
BRANCH   2   8
HETATM    8  O10 UNL     1     -37.398  14.261  -3.541  1.00 20.00    -0.381 OA
BRANCH   8   9
HETATM    9  C9  UNL     1     -38.550  14.865  -4.100  1.00 20.00     0.114 C 
HETATM   10  C7  UNL     1     -38.853  16.153  -3.351  1.00 20.00     0.039 C 
HETATM   11  C8  UNL     1     -38.315  15.113  -5.583  1.00 20.00     0.039 C 
ENDBRANCH   8   9
ENDBRANCH   2   8
TORSDOF 2
ENDMDL
MODEL 7
REMARK VINA RESULT:      -3.9      1.182      1.453
REMARK  2 active torsions:
REMARK  status: ('A' for Active; 'I' for Inactive)
REMARK    1  A    between atoms: C2_2  and  O10_10 
REMARK    2  A    between atoms: C9_9  and  O10_10 
ROOT
HETATM    1  C1  UNL     1     -34.484  14.436  -3.488  1.00 20.00     0.053 C 
HETATM    2  C2  UNL     1     -34.505  15.898  -2.984  1.00 20.00     0.132 C 
HETATM    3  C3  UNL     1     -35.320  14.899  -4.701  1.00 20.00     0.095 C 
HETATM    4  C4  UNL     1     -34.742  16.338  -4.471  1.00 20.00    -0.005 C 
HETATM    5  C5  UNL     1     -35.787  17.443  -4.618  1.00 20.00     0.019 C 
HETATM    6  C6  UNL     1     -33.469  16.686  -5.248  1.00 20.00     0.019 C 
HETATM    7 CL11 UNL     1     -35.089  14.056  -6.266  1.00 20.00    -0.124 Cl
ENDROOT
BRANCH   2   8
HETATM    8  O10 UNL     1     -33.302  16.366  -2.350  1.00 20.00    -0.381 OA
BRANCH   8   9
HETATM    9  C9  UNL     1     -33.603  17.271  -1.305  1.00 20.00     0.114 C 
HETATM   10  C7  UNL     1     -33.622  18.687  -1.859  1.00 20.00     0.039 C 
HETATM   11  C8  UNL     1     -34.936  16.889  -0.680  1.00 20.00     0.039 C 
ENDBRANCH   8   9
ENDBRANCH   2   8
TORSDOF 2
ENDMDL
MODEL 8
REMARK VINA RESULT:      -3.9      2.691      4.573
REMARK  2 active torsions:
REMARK  status: ('A' for Active; 'I' for Inactive)
REMARK    1  A    between atoms: C2_2  and  O10_10 
REMARK    2  A    between atoms: C9_9  and  O10_10 
ROOT
HETATM    1  C1  UNL     1     -34.293  14.685  -3.301  1.00 20.00     0.053 C 
HETATM    2  C2  UNL     1     -34.848  15.219  -4.641  1.00 20.00     0.132 C 
HETATM    3  C3  UNL     1     -34.327  16.135  -2.770  1.00 20.00     0.095 C 
HETATM    4  C4  UNL     1     -35.435  16.433  -3.839  1.00 20.00    -0.005 C 
HETATM    5  C5  UNL     1     -35.251  17.774  -4.546  1.00 20.00     0.019 C 
HETATM    6  C6  UNL     1     -36.884  16.256  -3.375  1.00 20.00     0.019 C 
HETATM    7 CL11 UNL     1     -34.641  16.396  -1.025  1.00 20.00    -0.124 Cl
ENDROOT
BRANCH   2   8
HETATM    8  O10 UNL     1     -35.791  14.370  -5.318  1.00 20.00    -0.381 OA
BRANCH   8   9
HETATM    9  C9  UNL     1     -35.691  14.525  -6.721  1.00 20.00     0.114 C 
HETATM   10  C7  UNL     1     -36.812  15.432  -7.206  1.00 20.00     0.039 C 
HETATM   11  C8  UNL     1     -34.320  15.086  -7.067  1.00 20.00     0.039 C 
ENDBRANCH   8   9
ENDBRANCH   2   8
TORSDOF 2
ENDMDL
MODEL 9
REMARK VINA RESULT:      -3.8     12.958     14.651
REMARK  2 active torsions:
REMARK  status: ('A' for Active; 'I' for Inactive)
REMARK    1  A    between atoms: C2_2  and  O10_10 
REMARK    2  A    between atoms: C9_9  and  O10_10 
ROOT
HETATM    1  C1  UNL     1     -42.696   5.674  -2.679  1.00 20.00     0.053 C 
HETATM    2  C2  UNL     1     -42.527   4.316  -1.960  1.00 20.00     0.132 C 
HETATM    3  C3  UNL     1     -42.868   6.327  -1.290  1.00 20.00     0.095 C 
HETATM    4  C4  UNL     1     -42.069   5.118  -0.692  1.00 20.00    -0.005 C 
HETATM    5  C5  UNL     1     -42.660   4.584   0.611  1.00 20.00     0.019 C 
HETATM    6  C6  UNL     1     -40.554   5.307  -0.566  1.00 20.00     0.019 C 
HETATM    7 CL11 UNL     1     -42.294   8.010  -1.062  1.00 20.00    -0.124 Cl
ENDROOT
BRANCH   2   8
HETATM    8  O10 UNL     1     -41.572   3.409  -2.538  1.00 20.00    -0.381 OA
BRANCH   8   9
HETATM    9  C9  UNL     1     -42.215   2.464  -3.372  1.00 20.00     0.114 C 
HETATM   10  C7  UNL     1     -41.164   1.610  -4.063  1.00 20.00     0.039 C 
HETATM   11  C8  UNL     1     -43.167   1.624  -2.535  1.00 20.00     0.039 C 
ENDBRANCH   8   9
ENDBRANCH   2   8
TORSDOF 2
ENDMDL
