MODEL 1
REMARK VINA RESULT:      -3.9      0.000      0.000
REMARK  1 active torsions:
REMARK  status: ('A' for Active; 'I' for Inactive)
REMARK    1  A    between atoms: C2_2  and  O8_8 
ROOT
HETATM    1  C1  UNL     1     -33.975  17.087  -3.930  1.00 20.00     0.053 C 
HETATM    2  C2  UNL     1     -33.881  15.925  -4.944  1.00 20.00     0.131 C 
HETATM    3  C3  UNL     1     -33.753  16.052  -2.805  1.00 20.00     0.095 C 
HETATM    4  C4  UNL     1     -34.311  14.962  -3.784  1.00 20.00    -0.005 C 
HETATM    5  C5  UNL     1     -35.817  14.691  -3.702  1.00 20.00     0.019 C 
HETATM    6  C6  UNL     1     -33.521  13.655  -3.751  1.00 20.00     0.019 C 
HETATM    7 CL9  UNL     1     -34.527  16.341  -1.214  1.00 20.00    -0.124 Cl
ENDROOT
BRANCH   2   8
HETATM    8  O8  UNL     1     -34.757  15.997  -6.082  1.00 20.00    -0.390 OA
HETATM    9  C7  UNL     1     -34.334  15.112  -7.102  1.00 20.00     0.202 C 
ENDBRANCH   2   8
TORSDOF 1
ENDMDL
MODEL 2
REMARK VINA RESULT:      -3.8      2.212      2.983
REMARK  1 active torsions:
REMARK  status: ('A' for Active; 'I' for Inactive)
REMARK    1  A    between atoms: C2_2  and  O8_8 
ROOT
HETATM    1  C1  UNL     1     -35.802  15.459  -5.481  1.00 20.00     0.053 C 
HETATM    2  C2  UNL     1     -35.825  14.192  -4.596  1.00 20.00     0.131 C 
HETATM    3  C3  UNL     1     -34.271  15.503  -5.284  1.00 20.00     0.095 C 
HETATM    4  C4  UNL     1     -34.481  14.690  -3.961  1.00 20.00    -0.005 C 
HETATM    5  C5  UNL     1     -34.644  15.516  -2.681  1.00 20.00     0.019 C 
HETATM    6  C6  UNL     1     -33.452  13.578  -3.762  1.00 20.00     0.019 C 
HETATM    7 CL9  UNL     1     -33.460  17.101  -5.262  1.00 20.00    -0.124 Cl
ENDROOT
BRANCH   2   8
HETATM    8  O8  UNL     1     -36.947  14.054  -3.707  1.00 20.00    -0.390 OA
HETATM    9  C7  UNL     1     -38.054  14.806  -4.170  1.00 20.00     0.202 C 
ENDBRANCH   2   8
TORSDOF 1
ENDMDL
MODEL 3
REMARK VINA RESULT:      -3.8      2.207      3.136
REMARK  1 active torsions:
REMARK  status: ('A' for Active; 'I' for Inactive)
REMARK    1  A    between atoms: C2_2  and  O8_8 
ROOT
HETATM    1  C1  UNL     1     -35.344  15.448  -2.953  1.00 20.00     0.053 C 
HETATM    2  C2  UNL     1     -36.352  15.122  -4.079  1.00 20.00     0.131 C 
HETATM    3  C3  UNL     1     -34.242  15.517  -4.034  1.00 20.00     0.095 C 
HETATM    4  C4  UNL     1     -35.141  14.589  -4.921  1.00 20.00    -0.005 C 
HETATM    5  C5  UNL     1     -34.887  13.083  -4.793  1.00 20.00     0.019 C 
HETATM    6  C6  UNL     1     -35.186  15.009  -6.389  1.00 20.00     0.019 C 
HETATM    7 CL9  UNL     1     -32.576  15.029  -3.586  1.00 20.00    -0.124 Cl
ENDROOT
BRANCH   2   8
HETATM    8  O8  UNL     1     -37.384  14.173  -3.758  1.00 20.00    -0.390 OA
HETATM    9  C7  UNL     1     -38.665  14.710  -4.026  1.00 20.00     0.202 C 
ENDBRANCH   2   8
TORSDOF 1
ENDMDL
MODEL 4
REMARK VINA RESULT:      -3.7      2.145      2.667
REMARK  1 active torsions:
REMARK  status: ('A' for Active; 'I' for Inactive)
REMARK    1  A    between atoms: C2_2  and  O8_8 
ROOT
HETATM    1  C1  UNL     1     -33.521  15.647  -4.563  1.00 20.00     0.053 C 
HETATM    2  C2  UNL     1     -33.746  14.830  -3.270  1.00 20.00     0.131 C 
HETATM    3  C3  UNL     1     -33.956  16.905  -3.780  1.00 20.00     0.095 C 
HETATM    4  C4  UNL     1     -34.738  15.954  -2.809  1.00 20.00    -0.005 C 
HETATM    5  C5  UNL     1     -36.207  15.695  -3.159  1.00 20.00     0.019 C 
HETATM    6  C6  UNL     1     -34.589  16.333  -1.337  1.00 20.00     0.019 C 
HETATM    7 CL9  UNL     1     -34.803  18.211  -4.667  1.00 20.00    -0.124 Cl
ENDROOT
BRANCH   2   8
HETATM    8  O8  UNL     1     -34.296  13.511  -3.434  1.00 20.00    -0.390 OA
HETATM    9  C7  UNL     1     -34.423  13.185  -4.806  1.00 20.00     0.202 C 
ENDBRANCH   2   8
TORSDOF 1
ENDMDL
MODEL 5
REMARK VINA RESULT:      -3.7      1.177      2.138
REMARK  1 active torsions:
REMARK  status: ('A' for Active; 'I' for Inactive)
REMARK    1  A    between atoms: C2_2  and  O8_8 
ROOT
HETATM    1  C1  UNL     1     -35.936  15.105  -3.396  1.00 20.00     0.053 C 
HETATM    2  C2  UNL     1     -35.269  15.328  -4.772  1.00 20.00     0.131 C 
HETATM    3  C3  UNL     1     -35.126  16.310  -2.869  1.00 20.00     0.095 C 
HETATM    4  C4  UNL     1     -34.093  16.038  -4.016  1.00 20.00    -0.005 C 
HETATM    5  C5  UNL     1     -32.917  15.123  -3.660  1.00 20.00     0.019 C 
HETATM    6  C6  UNL     1     -33.604  17.310  -4.706  1.00 20.00     0.019 C 
HETATM    7 CL9  UNL     1     -34.614  16.308  -1.151  1.00 20.00    -0.124 Cl
ENDROOT
BRANCH   2   8
HETATM    8  O8  UNL     1     -34.936  14.146  -5.520  1.00 20.00    -0.390 OA
HETATM    9  C7  UNL     1     -34.945  14.408  -6.911  1.00 20.00     0.202 C 
ENDBRANCH   2   8
TORSDOF 1
ENDMDL
MODEL 6
REMARK VINA RESULT:      -3.7      2.569      3.595
REMARK  1 active torsions:
REMARK  status: ('A' for Active; 'I' for Inactive)
REMARK    1  A    between atoms: C2_2  and  O8_8 
ROOT
HETATM    1  C1  UNL     1     -33.892  16.655  -4.689  1.00 20.00     0.053 C 
HETATM    2  C2  UNL     1     -34.655  16.366  -3.376  1.00 20.00     0.131 C 
HETATM    3  C3  UNL     1     -34.920  15.763  -5.419  1.00 20.00     0.095 C 
HETATM    4  C4  UNL     1     -35.183  15.051  -4.047  1.00 20.00    -0.005 C 
HETATM    5  C5  UNL     1     -34.340  13.804  -3.763  1.00 20.00     0.019 C 
HETATM    6  C6  UNL     1     -36.662  14.781  -3.778  1.00 20.00     0.019 C 
HETATM    7 CL9  UNL     1     -34.376  14.830  -6.850  1.00 20.00    -0.124 Cl
ENDROOT
BRANCH   2   8
HETATM    8  O8  UNL     1     -33.853  16.210  -2.192  1.00 20.00    -0.390 OA
HETATM    9  C7  UNL     1     -34.586  16.565  -1.035  1.00 20.00     0.202 C 
ENDBRANCH   2   8
TORSDOF 1
ENDMDL
MODEL 7
REMARK VINA RESULT:      -3.6      1.828      2.291
REMARK  1 active torsions:
REMARK  status: ('A' for Active; 'I' for Inactive)
REMARK    1  A    between atoms: C2_2  and  O8_8 
ROOT
HETATM    1  C1  UNL     1     -35.091  16.608  -3.750  1.00 20.00     0.053 C 
HETATM    2  C2  UNL     1     -33.653  16.123  -4.041  1.00 20.00     0.131 C 
HETATM    3  C3  UNL     1     -35.471  15.138  -3.466  1.00 20.00     0.095 C 
HETATM    4  C4  UNL     1     -34.261  14.716  -4.370  1.00 20.00    -0.005 C 
HETATM    5  C5  UNL     1     -34.576  14.485  -5.851  1.00 20.00     0.019 C 
HETATM    6  C6  UNL     1     -33.453  13.553  -3.798  1.00 20.00     0.019 C 
HETATM    7 CL9  UNL     1     -37.137  14.598  -3.850  1.00 20.00    -0.124 Cl
ENDROOT
BRANCH   2   8
HETATM    8  O8  UNL     1     -32.956  16.791  -5.108  1.00 20.00    -0.390 OA
HETATM    9  C7  UNL     1     -33.530  18.059  -5.369  1.00 20.00     0.202 C 
ENDBRANCH   2   8
TORSDOF 1
ENDMDL
MODEL 8
REMARK VINA RESULT:      -3.6      2.559      3.676
REMARK  1 active torsions:
REMARK  status: ('A' for Active; 'I' for Inactive)
REMARK    1  A    between atoms: C2_2  and  O8_8 
ROOT
HETATM    1  C1  UNL     1     -35.950  15.916  -3.166  1.00 20.00     0.053 C 
HETATM    2  C2  UNL     1     -34.662  15.508  -2.415  1.00 20.00     0.131 C 
HETATM    3  C3  UNL     1     -35.564  14.903  -4.267  1.00 20.00     0.095 C 
HETATM    4  C4  UNL     1     -34.077  15.055  -3.797  1.00 20.00    -0.005 C 
HETATM    5  C5  UNL     1     -33.247  16.120  -4.521  1.00 20.00     0.019 C 
HETATM    6  C6  UNL     1     -33.322  13.728  -3.735  1.00 20.00     0.019 C 
HETATM    7 CL9  UNL     1     -36.035  15.262  -5.959  1.00 20.00    -0.124 Cl
ENDROOT
BRANCH   2   8
HETATM    8  O8  UNL     1     -33.961  16.561  -1.730  1.00 20.00    -0.390 OA
HETATM    9  C7  UNL     1     -34.614  16.898  -0.521  1.00 20.00     0.202 C 
ENDBRANCH   2   8
TORSDOF 1
ENDMDL
MODEL 9
REMARK VINA RESULT:      -3.6      1.110      1.566
REMARK  1 active torsions:
REMARK  status: ('A' for Active; 'I' for Inactive)
REMARK    1  A    between atoms: C2_2  and  O8_8 
ROOT
HETATM    1  C1  UNL     1     -33.248  15.525  -3.714  1.00 20.00     0.053 C 
HETATM    2  C2  UNL     1     -34.139  15.063  -4.890  1.00 20.00     0.131 C 
HETATM    3  C3  UNL     1     -34.451  15.277  -2.777  1.00 20.00     0.095 C 
HETATM    4  C4  UNL     1     -35.381  15.467  -4.024  1.00 20.00    -0.005 C 
HETATM    5  C5  UNL     1     -35.897  16.889  -4.269  1.00 20.00     0.019 C 
HETATM    6  C6  UNL     1     -36.524  14.456  -4.088  1.00 20.00     0.019 C 
HETATM    7 CL9  UNL     1     -34.631  16.317  -1.328  1.00 20.00    -0.124 Cl
ENDROOT
BRANCH   2   8
HETATM    8  O8  UNL     1     -33.965  15.761  -6.136  1.00 20.00    -0.390 OA
HETATM    9  C7  UNL     1     -34.465  14.996  -7.217  1.00 20.00     0.202 C 
ENDBRANCH   2   8
TORSDOF 1
ENDMDL
