MODEL 1
REMARK VINA RESULT:      -5.1      0.000      0.000
REMARK  3 active torsions:
REMARK  status: ('A' for Active; 'I' for Inactive)
REMARK    1  A    between atoms: C2_2  and  O6_6 
REMARK    2  A    between atoms: C4_4  and  C5_5 
REMARK    3  A    between atoms: C4_4  and  O6_6 
ROOT
HETATM    1  C3  UNL     1     -35.297   5.377   3.826  1.00 20.00     0.049 C 
HETATM    2  C4  UNL     1     -34.090   5.328   4.712  1.00 20.00     0.231 C 
ENDROOT
BRANCH   2   3
HETATM    3  C5  UNL     1     -34.460   5.283   6.180  1.00 20.00     0.413 C 
HETATM    4  F7  UNL     1     -35.709   4.792   6.345  1.00 20.00    -0.168 F 
HETATM    5  F8  UNL     1     -33.617   4.484   6.870  1.00 20.00    -0.168 F 
HETATM    6  F9  UNL     1     -34.423   6.510   6.743  1.00 20.00    -0.168 F 
ENDBRANCH   2   3
BRANCH   2   7
HETATM    7  O6  UNL     1     -33.290   6.486   4.493  1.00 20.00    -0.350 OA
BRANCH   7   8
HETATM    8  C2  UNL     1     -32.532   6.443   3.406  1.00 20.00     0.125 C 
HETATM    9  C1  UNL     1     -32.189   7.503   2.670  1.00 20.00     0.037 C 
ENDBRANCH   7   8
ENDBRANCH   2   7
TORSDOF 3
ENDMDL
MODEL 2
REMARK VINA RESULT:      -5.1      0.035      1.253
REMARK  3 active torsions:
REMARK  status: ('A' for Active; 'I' for Inactive)
REMARK    1  A    between atoms: C2_2  and  O6_6 
REMARK    2  A    between atoms: C4_4  and  C5_5 
REMARK    3  A    between atoms: C4_4  and  O6_6 
ROOT
HETATM    1  C3  UNL     1     -35.276   5.393   3.814  1.00 20.00     0.049 C 
HETATM    2  C4  UNL     1     -34.073   5.352   4.707  1.00 20.00     0.231 C 
ENDROOT
BRANCH   2   3
HETATM    3  C5  UNL     1     -34.452   5.304   6.173  1.00 20.00     0.413 C 
HETATM    4  F7  UNL     1     -33.613   4.495   6.858  1.00 20.00    -0.168 F 
HETATM    5  F8  UNL     1     -34.379   6.530   6.734  1.00 20.00    -0.168 F 
HETATM    6  F9  UNL     1     -35.708   4.840   6.350  1.00 20.00    -0.168 F 
ENDBRANCH   2   3
BRANCH   2   7
HETATM    7  O6  UNL     1     -33.279   6.515   4.493  1.00 20.00    -0.350 OA
BRANCH   7   8
HETATM    8  C2  UNL     1     -32.507   6.473   3.416  1.00 20.00     0.125 C 
HETATM    9  C1  UNL     1     -32.181   7.529   2.667  1.00 20.00     0.037 C 
ENDBRANCH   7   8
ENDBRANCH   2   7
TORSDOF 3
ENDMDL
MODEL 3
REMARK VINA RESULT:      -5.0      1.991      2.489
REMARK  3 active torsions:
REMARK  status: ('A' for Active; 'I' for Inactive)
REMARK    1  A    between atoms: C2_2  and  O6_6 
REMARK    2  A    between atoms: C4_4  and  C5_5 
REMARK    3  A    between atoms: C4_4  and  O6_6 
ROOT
HETATM    1  C3  UNL     1     -34.045   6.110   5.836  1.00 20.00     0.049 C 
HETATM    2  C4  UNL     1     -34.010   6.284   4.348  1.00 20.00     0.231 C 
ENDROOT
BRANCH   2   3
HETATM    3  C5  UNL     1     -34.925   5.309   3.636  1.00 20.00     0.413 C 
HETATM    4  F7  UNL     1     -34.423   4.977   2.426  1.00 20.00    -0.168 F 
HETATM    5  F8  UNL     1     -35.063   4.167   4.343  1.00 20.00    -0.168 F 
HETATM    6  F9  UNL     1     -36.156   5.829   3.443  1.00 20.00    -0.168 F 
ENDBRANCH   2   3
BRANCH   2   7
HETATM    7  O6  UNL     1     -32.683   6.072   3.874  1.00 20.00    -0.350 OA
BRANCH   7   8
HETATM    8  C2  UNL     1     -32.031   7.173   3.529  1.00 20.00     0.125 C 
HETATM    9  C1  UNL     1     -32.138   7.787   2.349  1.00 20.00     0.037 C 
ENDBRANCH   7   8
ENDBRANCH   2   7
TORSDOF 3
ENDMDL
MODEL 4
REMARK VINA RESULT:      -5.0      1.402      2.094
REMARK  3 active torsions:
REMARK  status: ('A' for Active; 'I' for Inactive)
REMARK    1  A    between atoms: C2_2  and  O6_6 
REMARK    2  A    between atoms: C4_4  and  C5_5 
REMARK    3  A    between atoms: C4_4  and  O6_6 
ROOT
HETATM    1  C3  UNL     1     -33.933   6.518   6.332  1.00 20.00     0.049 C 
HETATM    2  C4  UNL     1     -34.792   5.741   5.382  1.00 20.00     0.231 C 
ENDROOT
BRANCH   2   3
HETATM    3  C5  UNL     1     -34.837   4.267   5.726  1.00 20.00     0.413 C 
HETATM    4  F7  UNL     1     -33.635   3.842   6.174  1.00 20.00    -0.168 F 
HETATM    5  F8  UNL     1     -35.741   4.022   6.701  1.00 20.00    -0.168 F 
HETATM    6  F9  UNL     1     -35.168   3.513   4.655  1.00 20.00    -0.168 F 
ENDBRANCH   2   3
BRANCH   2   7
HETATM    7  O6  UNL     1     -34.278   5.871   4.059  1.00 20.00    -0.350 OA
BRANCH   7   8
HETATM    8  C2  UNL     1     -33.122   6.513   3.970  1.00 20.00     0.125 C 
HETATM    9  C1  UNL     1     -32.227   6.345   2.995  1.00 20.00     0.037 C 
ENDBRANCH   7   8
ENDBRANCH   2   7
TORSDOF 3
ENDMDL
MODEL 5
REMARK VINA RESULT:      -4.6      2.732      3.877
REMARK  3 active torsions:
REMARK  status: ('A' for Active; 'I' for Inactive)
REMARK    1  A    between atoms: C2_2  and  O6_6 
REMARK    2  A    between atoms: C4_4  and  C5_5 
REMARK    3  A    between atoms: C4_4  and  O6_6 
ROOT
HETATM    1  C3  UNL     1     -34.489   5.426   2.913  1.00 20.00     0.049 C 
HETATM    2  C4  UNL     1     -33.838   6.518   3.706  1.00 20.00     0.231 C 
ENDROOT
BRANCH   2   3
HETATM    3  C5  UNL     1     -32.421   6.792   3.245  1.00 20.00     0.413 C 
HETATM    4  F7  UNL     1     -31.792   5.641   2.919  1.00 20.00    -0.168 F 
HETATM    5  F8  UNL     1     -32.410   7.582   2.149  1.00 20.00    -0.168 F 
HETATM    6  F9  UNL     1     -31.692   7.403   4.204  1.00 20.00    -0.168 F 
ENDBRANCH   2   3
BRANCH   2   7
HETATM    7  O6  UNL     1     -33.791   6.146   5.081  1.00 20.00    -0.350 OA
BRANCH   7   8
HETATM    8  C2  UNL     1     -34.809   5.403   5.492  1.00 20.00     0.125 C 
HETATM    9  C1  UNL     1     -34.696   4.258   6.169  1.00 20.00     0.037 C 
ENDBRANCH   7   8
ENDBRANCH   2   7
TORSDOF 3
ENDMDL
MODEL 6
REMARK VINA RESULT:      -4.6      2.733      3.849
REMARK  3 active torsions:
REMARK  status: ('A' for Active; 'I' for Inactive)
REMARK    1  A    between atoms: C2_2  and  O6_6 
REMARK    2  A    between atoms: C4_4  and  C5_5 
REMARK    3  A    between atoms: C4_4  and  O6_6 
ROOT
HETATM    1  C3  UNL     1     -34.495   5.421   2.903  1.00 20.00     0.049 C 
HETATM    2  C4  UNL     1     -33.849   6.524   3.685  1.00 20.00     0.231 C 
ENDROOT
BRANCH   2   3
HETATM    3  C5  UNL     1     -32.431   6.796   3.226  1.00 20.00     0.413 C 
HETATM    4  F7  UNL     1     -31.711   7.375   4.213  1.00 20.00    -0.168 F 
HETATM    5  F8  UNL     1     -31.802   5.651   2.885  1.00 20.00    -0.168 F 
HETATM    6  F9  UNL     1     -32.402   7.620   2.156  1.00 20.00    -0.168 F 
ENDBRANCH   2   3
BRANCH   2   7
HETATM    7  O6  UNL     1     -33.806   6.168   5.065  1.00 20.00    -0.350 OA
BRANCH   7   8
HETATM    8  C2  UNL     1     -34.786   5.371   5.465  1.00 20.00     0.125 C 
HETATM    9  C1  UNL     1     -34.626   4.284   6.223  1.00 20.00     0.037 C 
ENDBRANCH   7   8
ENDBRANCH   2   7
TORSDOF 3
ENDMDL
MODEL 7
REMARK VINA RESULT:      -4.3      2.174      3.377
REMARK  3 active torsions:
REMARK  status: ('A' for Active; 'I' for Inactive)
REMARK    1  A    between atoms: C2_2  and  O6_6 
REMARK    2  A    between atoms: C4_4  and  C5_5 
REMARK    3  A    between atoms: C4_4  and  O6_6 
ROOT
HETATM    1  C3  UNL     1     -32.627   6.761   3.154  1.00 20.00     0.049 C 
HETATM    2  C4  UNL     1     -33.473   5.944   4.082  1.00 20.00     0.231 C 
ENDROOT
BRANCH   2   3
HETATM    3  C5  UNL     1     -34.597   5.235   3.354  1.00 20.00     0.413 C 
HETATM    4  F7  UNL     1     -34.284   5.050   2.052  1.00 20.00    -0.168 F 
HETATM    5  F8  UNL     1     -34.832   4.018   3.890  1.00 20.00    -0.168 F 
HETATM    6  F9  UNL     1     -35.749   5.940   3.405  1.00 20.00    -0.168 F 
ENDBRANCH   2   3
BRANCH   2   7
HETATM    7  O6  UNL     1     -34.052   6.792   5.070  1.00 20.00    -0.350 OA
BRANCH   7   8
HETATM    8  C2  UNL     1     -34.045   6.299   6.301  1.00 20.00     0.125 C 
HETATM    9  C1  UNL     1     -34.747   5.237   6.703  1.00 20.00     0.037 C 
ENDBRANCH   7   8
ENDBRANCH   2   7
TORSDOF 3
ENDMDL
MODEL 8
REMARK VINA RESULT:      -3.9     12.240     12.994
REMARK  3 active torsions:
REMARK  status: ('A' for Active; 'I' for Inactive)
REMARK    1  A    between atoms: C2_2  and  O6_6 
REMARK    2  A    between atoms: C4_4  and  C5_5 
REMARK    3  A    between atoms: C4_4  and  O6_6 
ROOT
HETATM    1  C3  UNL     1     -33.292  16.304  -5.179  1.00 20.00     0.049 C 
HETATM    2  C4  UNL     1     -33.358  15.602  -3.857  1.00 20.00     0.231 C 
ENDROOT
BRANCH   2   3
HETATM    3  C5  UNL     1     -33.706  14.135  -4.005  1.00 20.00     0.413 C 
HETATM    4  F7  UNL     1     -34.003  13.841  -5.291  1.00 20.00    -0.168 F 
HETATM    5  F8  UNL     1     -32.670  13.349  -3.640  1.00 20.00    -0.168 F 
HETATM    6  F9  UNL     1     -34.772  13.795  -3.249  1.00 20.00    -0.168 F 
ENDBRANCH   2   3
BRANCH   2   7
HETATM    7  O6  UNL     1     -34.355  16.212  -3.041  1.00 20.00    -0.350 OA
BRANCH   7   8
HETATM    8  C2  UNL     1     -33.911  16.704  -1.893  1.00 20.00     0.125 C 
HETATM    9  C1  UNL     1     -34.593  16.702  -0.746  1.00 20.00     0.037 C 
ENDBRANCH   7   8
ENDBRANCH   2   7
TORSDOF 3
ENDMDL
MODEL 9
REMARK VINA RESULT:      -3.9     12.255     13.024
REMARK  3 active torsions:
REMARK  status: ('A' for Active; 'I' for Inactive)
REMARK    1  A    between atoms: C2_2  and  O6_6 
REMARK    2  A    between atoms: C4_4  and  C5_5 
REMARK    3  A    between atoms: C4_4  and  O6_6 
ROOT
HETATM    1  C3  UNL     1     -33.294  16.311  -5.200  1.00 20.00     0.049 C 
HETATM    2  C4  UNL     1     -33.353  15.613  -3.875  1.00 20.00     0.231 C 
ENDROOT
BRANCH   2   3
HETATM    3  C5  UNL     1     -33.698  14.145  -4.017  1.00 20.00     0.413 C 
HETATM    4  F7  UNL     1     -34.774  13.831  -3.261  1.00 20.00    -0.168 F 
HETATM    5  F8  UNL     1     -34.000  13.838  -5.297  1.00 20.00    -0.168 F 
HETATM    6  F9  UNL     1     -32.676  13.352  -3.629  1.00 20.00    -0.168 F 
ENDBRANCH   2   3
BRANCH   2   7
HETATM    7  O6  UNL     1     -34.347  16.224  -3.058  1.00 20.00    -0.350 OA
BRANCH   7   8
HETATM    8  C2  UNL     1     -33.903  16.706  -1.905  1.00 20.00     0.125 C 
HETATM    9  C1  UNL     1     -34.586  16.696  -0.758  1.00 20.00     0.037 C 
ENDBRANCH   7   8
ENDBRANCH   2   7
TORSDOF 3
ENDMDL
