MODEL 1
REMARK VINA RESULT:      -4.5      0.000      0.000
REMARK  2 active torsions:
REMARK  status: ('A' for Active; 'I' for Inactive)
REMARK    1  A    between atoms: C5_5  and  S10_10 
REMARK    2  A    between atoms: C8_8  and  S10_10 
ROOT
HETATM    1  C1  UNL     1     -36.782  14.459  -4.008  1.00 20.00     0.080 C 
HETATM    2  C2  UNL     1     -33.426  13.845  -3.761  1.00 20.00     0.009 C 
HETATM    3  C3  UNL     1     -34.597  13.304  -4.607  1.00 20.00     0.037 C 
HETATM    4  C4  UNL     1     -34.439  14.782  -3.055  1.00 20.00     0.014 C 
HETATM    5  C5  UNL     1     -35.376  14.609  -4.295  1.00 20.00     0.100 C 
HETATM    6  C6  UNL     1     -33.907  16.135  -2.613  1.00 20.00     0.012 C 
HETATM    7  N9  UNL     1     -37.913  14.337  -3.777  1.00 20.00    -0.196 NA
ENDROOT
BRANCH   5   8
HETATM    8  S10 UNL     1     -35.144  15.863  -5.618  1.00 20.00    -0.144 SA
BRANCH   8   9
HETATM    9  C8  UNL     1     -36.392  15.240  -6.762  1.00 20.00     0.071 C 
HETATM   10  C7  UNL     1     -35.738  14.505  -7.917  1.00 20.00     0.016 C 
ENDBRANCH   8   9
ENDBRANCH   5   8
TORSDOF 2
ENDMDL
MODEL 2
REMARK VINA RESULT:      -4.2      1.374      1.715
REMARK  2 active torsions:
REMARK  status: ('A' for Active; 'I' for Inactive)
REMARK    1  A    between atoms: C5_5  and  S10_10 
REMARK    2  A    between atoms: C8_8  and  S10_10 
ROOT
HETATM    1  C1  UNL     1     -36.772  14.479  -4.031  1.00 20.00     0.080 C 
HETATM    2  C2  UNL     1     -33.430  13.787  -3.792  1.00 20.00     0.009 C 
HETATM    3  C3  UNL     1     -34.618  13.264  -4.626  1.00 20.00     0.037 C 
HETATM    4  C4  UNL     1     -34.417  14.757  -3.093  1.00 20.00     0.014 C 
HETATM    5  C5  UNL     1     -35.364  14.591  -4.326  1.00 20.00     0.100 C 
HETATM    6  C6  UNL     1     -33.850  16.101  -2.670  1.00 20.00     0.012 C 
HETATM    7  N9  UNL     1     -37.904  14.388  -3.793  1.00 20.00    -0.196 NA
ENDROOT
BRANCH   5   8
HETATM    8  S10 UNL     1     -35.108  15.823  -5.666  1.00 20.00    -0.144 SA
BRANCH   8   9
HETATM    9  C8  UNL     1     -36.427  16.963  -5.200  1.00 20.00     0.071 C 
HETATM   10  C7  UNL     1     -35.857  18.327  -4.859  1.00 20.00     0.016 C 
ENDBRANCH   8   9
ENDBRANCH   5   8
TORSDOF 2
ENDMDL
MODEL 3
REMARK VINA RESULT:      -4.2      1.154      3.161
REMARK  2 active torsions:
REMARK  status: ('A' for Active; 'I' for Inactive)
REMARK    1  A    between atoms: C5_5  and  S10_10 
REMARK    2  A    between atoms: C8_8  and  S10_10 
ROOT
HETATM    1  C1  UNL     1     -37.210  14.672  -4.155  1.00 20.00     0.080 C 
HETATM    2  C2  UNL     1     -34.660  14.325  -6.408  1.00 20.00     0.009 C 
HETATM    3  C3  UNL     1     -36.032  15.030  -6.381  1.00 20.00     0.037 C 
HETATM    4  C4  UNL     1     -34.947  13.825  -4.969  1.00 20.00     0.014 C 
HETATM    5  C5  UNL     1     -35.976  14.994  -4.830  1.00 20.00     0.100 C 
HETATM    6  C6  UNL     1     -33.742  13.682  -4.056  1.00 20.00     0.012 C 
HETATM    7  N9  UNL     1     -38.203  14.413  -3.613  1.00 20.00    -0.196 NA
ENDROOT
BRANCH   5   8
HETATM    8  S10 UNL     1     -35.284  16.553  -4.146  1.00 20.00    -0.144 SA
BRANCH   8   9
HETATM    9  C8  UNL     1     -35.729  16.277  -2.419  1.00 20.00     0.071 C 
HETATM   10  C7  UNL     1     -34.503  16.376  -1.531  1.00 20.00     0.016 C 
ENDBRANCH   8   9
ENDBRANCH   5   8
TORSDOF 2
ENDMDL
MODEL 4
REMARK VINA RESULT:      -4.1      1.569      2.116
REMARK  2 active torsions:
REMARK  status: ('A' for Active; 'I' for Inactive)
REMARK    1  A    between atoms: C5_5  and  S10_10 
REMARK    2  A    between atoms: C8_8  and  S10_10 
ROOT
HETATM    1  C1  UNL     1     -34.624  13.658  -4.479  1.00 20.00     0.080 C 
HETATM    2  C2  UNL     1     -33.794  16.353  -2.542  1.00 20.00     0.009 C 
HETATM    3  C3  UNL     1     -33.031  15.317  -3.393  1.00 20.00     0.037 C 
HETATM    4  C4  UNL     1     -35.107  15.628  -2.935  1.00 20.00     0.014 C 
HETATM    5  C5  UNL     1     -34.347  15.039  -4.167  1.00 20.00     0.100 C 
HETATM    6  C6  UNL     1     -36.341  16.504  -3.075  1.00 20.00     0.012 C 
HETATM    7  N9  UNL     1     -34.846  12.547  -4.730  1.00 20.00    -0.196 NA
ENDROOT
BRANCH   5   8
HETATM    8  S10 UNL     1     -34.454  16.054  -5.696  1.00 20.00    -0.144 SA
BRANCH   8   9
HETATM    9  C8  UNL     1     -35.786  15.139  -6.499  1.00 20.00     0.071 C 
HETATM   10  C7  UNL     1     -35.369  14.703  -7.892  1.00 20.00     0.016 C 
ENDBRANCH   8   9
ENDBRANCH   5   8
TORSDOF 2
ENDMDL
MODEL 5
REMARK VINA RESULT:      -4.1      2.068      2.795
REMARK  2 active torsions:
REMARK  status: ('A' for Active; 'I' for Inactive)
REMARK    1  A    between atoms: C5_5  and  S10_10 
REMARK    2  A    between atoms: C8_8  and  S10_10 
ROOT
HETATM    1  C1  UNL     1     -34.827  13.842  -4.493  1.00 20.00     0.080 C 
HETATM    2  C2  UNL     1     -33.428  16.904  -3.883  1.00 20.00     0.009 C 
HETATM    3  C3  UNL     1     -33.710  16.037  -5.128  1.00 20.00     0.037 C 
HETATM    4  C4  UNL     1     -34.043  15.771  -3.021  1.00 20.00     0.014 C 
HETATM    5  C5  UNL     1     -34.781  15.272  -4.306  1.00 20.00     0.100 C 
HETATM    6  C6  UNL     1     -34.782  16.207  -1.768  1.00 20.00     0.012 C 
HETATM    7  N9  UNL     1     -34.864  12.692  -4.644  1.00 20.00    -0.196 NA
ENDROOT
BRANCH   5   8
HETATM    8  S10 UNL     1     -36.457  15.984  -4.557  1.00 20.00    -0.144 SA
BRANCH   8   9
HETATM    9  C8  UNL     1     -37.406  14.618  -3.860  1.00 20.00     0.071 C 
HETATM   10  C7  UNL     1     -38.883  14.962  -3.816  1.00 20.00     0.016 C 
ENDBRANCH   8   9
ENDBRANCH   5   8
TORSDOF 2
ENDMDL
MODEL 6
REMARK VINA RESULT:      -4.0      1.946      3.738
REMARK  2 active torsions:
REMARK  status: ('A' for Active; 'I' for Inactive)
REMARK    1  A    between atoms: C5_5  and  S10_10 
REMARK    2  A    between atoms: C8_8  and  S10_10 
ROOT
HETATM    1  C1  UNL     1     -35.154  13.816  -4.694  1.00 20.00     0.080 C 
HETATM    2  C2  UNL     1     -35.467  16.485  -6.811  1.00 20.00     0.009 C 
HETATM    3  C3  UNL     1     -36.382  15.348  -6.311  1.00 20.00     0.037 C 
HETATM    4  C4  UNL     1     -34.332  15.881  -5.944  1.00 20.00     0.014 C 
HETATM    5  C5  UNL     1     -35.436  15.174  -5.093  1.00 20.00     0.100 C 
HETATM    6  C6  UNL     1     -33.344  16.869  -5.348  1.00 20.00     0.012 C 
HETATM    7  N9  UNL     1     -34.926  12.724  -4.373  1.00 20.00    -0.196 NA
ENDROOT
BRANCH   5   8
HETATM    8  S10 UNL     1     -36.025  16.137  -3.642  1.00 20.00    -0.144 SA
BRANCH   8   9
HETATM    9  C8  UNL     1     -34.852  15.492  -2.433  1.00 20.00     0.071 C 
HETATM   10  C7  UNL     1     -34.635  16.493  -1.314  1.00 20.00     0.016 C 
ENDBRANCH   8   9
ENDBRANCH   5   8
TORSDOF 2
ENDMDL
MODEL 7
REMARK VINA RESULT:      -4.0      1.927      4.019
REMARK  2 active torsions:
REMARK  status: ('A' for Active; 'I' for Inactive)
REMARK    1  A    between atoms: C5_5  and  S10_10 
REMARK    2  A    between atoms: C8_8  and  S10_10 
ROOT
HETATM    1  C1  UNL     1     -33.877  13.863  -4.079  1.00 20.00     0.080 C 
HETATM    2  C2  UNL     1     -36.570  14.983  -5.868  1.00 20.00     0.009 C 
HETATM    3  C3  UNL     1     -36.292  14.595  -4.401  1.00 20.00     0.037 C 
HETATM    4  C4  UNL     1     -35.095  14.627  -6.185  1.00 20.00     0.014 C 
HETATM    5  C5  UNL     1     -34.780  14.823  -4.666  1.00 20.00     0.100 C 
HETATM    6  C6  UNL     1     -34.426  15.449  -7.274  1.00 20.00     0.012 C 
HETATM    7  N9  UNL     1     -33.151  13.090  -3.607  1.00 20.00    -0.196 NA
ENDROOT
BRANCH   5   8
HETATM    8  S10 UNL     1     -34.266  16.525  -4.199  1.00 20.00    -0.144 SA
BRANCH   8   9
HETATM    9  C8  UNL     1     -33.677  16.150  -2.535  1.00 20.00     0.071 C 
HETATM   10  C7  UNL     1     -34.761  16.429  -1.511  1.00 20.00     0.016 C 
ENDBRANCH   8   9
ENDBRANCH   5   8
TORSDOF 2
ENDMDL
MODEL 8
REMARK VINA RESULT:      -3.9      2.413      4.270
REMARK  2 active torsions:
REMARK  status: ('A' for Active; 'I' for Inactive)
REMARK    1  A    between atoms: C5_5  and  S10_10 
REMARK    2  A    between atoms: C8_8  and  S10_10 
ROOT
HETATM    1  C1  UNL     1     -33.683  16.318  -4.669  1.00 20.00     0.080 C 
HETATM    2  C2  UNL     1     -35.108  13.214  -4.472  1.00 20.00     0.009 C 
HETATM    3  C3  UNL     1     -33.884  13.918  -3.851  1.00 20.00     0.037 C 
HETATM    4  C4  UNL     1     -35.406  14.527  -5.241  1.00 20.00     0.014 C 
HETATM    5  C5  UNL     1     -34.553  15.282  -4.169  1.00 20.00     0.100 C 
HETATM    6  C6  UNL     1     -36.871  14.840  -5.492  1.00 20.00     0.012 C 
HETATM    7  N9  UNL     1     -32.983  17.152  -5.071  1.00 20.00    -0.196 NA
ENDROOT
BRANCH   5   8
HETATM    8  S10 UNL     1     -35.508  15.913  -2.731  1.00 20.00    -0.144 SA
BRANCH   8   9
HETATM    9  C8  UNL     1     -34.119  16.597  -1.803  1.00 20.00     0.071 C 
HETATM   10  C7  UNL     1     -34.562  17.018  -0.414  1.00 20.00     0.016 C 
ENDBRANCH   8   9
ENDBRANCH   5   8
TORSDOF 2
ENDMDL
MODEL 9
REMARK VINA RESULT:      -3.8      1.627      2.418
REMARK  2 active torsions:
REMARK  status: ('A' for Active; 'I' for Inactive)
REMARK    1  A    between atoms: C5_5  and  S10_10 
REMARK    2  A    between atoms: C8_8  and  S10_10 
ROOT
HETATM    1  C1  UNL     1     -36.449  14.915  -3.599  1.00 20.00     0.080 C 
HETATM    2  C2  UNL     1     -34.292  17.300  -2.431  1.00 20.00     0.009 C 
HETATM    3  C3  UNL     1     -34.793  15.921  -1.952  1.00 20.00     0.037 C 
HETATM    4  C4  UNL     1     -35.209  17.142  -3.671  1.00 20.00     0.014 C 
HETATM    5  C5  UNL     1     -35.192  15.599  -3.417  1.00 20.00     0.100 C 
HETATM    6  C6  UNL     1     -34.706  17.766  -4.961  1.00 20.00     0.012 C 
HETATM    7  N9  UNL     1     -37.461  14.365  -3.746  1.00 20.00    -0.196 NA
ENDROOT
BRANCH   5   8
HETATM    8  S10 UNL     1     -33.857  14.689  -4.293  1.00 20.00    -0.144 SA
BRANCH   8   9
HETATM    9  C8  UNL     1     -34.855  14.053  -5.656  1.00 20.00     0.071 C 
HETATM   10  C7  UNL     1     -34.555  14.812  -6.935  1.00 20.00     0.016 C 
ENDBRANCH   8   9
ENDBRANCH   5   8
TORSDOF 2
ENDMDL
