MODEL 1
REMARK VINA RESULT:      -4.5      0.000      0.000
REMARK  2 active torsions:
REMARK  status: ('A' for Active; 'I' for Inactive)
REMARK    1  A    between atoms: C5_5  and  C9_9 
REMARK    2  A    between atoms: C6_6  and  C10_10 
ROOT
HETATM    1  C1  UNL     1     -35.721  15.740  -2.994  1.00 20.00     0.005 C 
HETATM    2  C2  UNL     1     -33.284  15.318  -3.530  1.00 20.00     0.005 C 
HETATM    3  C3  UNL     1     -35.816  16.697  -4.183  1.00 20.00     0.006 C 
HETATM    4  C4  UNL     1     -33.380  16.275  -4.719  1.00 20.00     0.006 C 
HETATM    5  C5  UNL     1     -34.301  15.629  -2.422  1.00 20.00    -0.015 C 
HETATM    6  C6  UNL     1     -34.800  16.387  -5.290  1.00 20.00     0.003 C 
ENDROOT
BRANCH   6   7
HETATM    7  C10 UNL     1     -35.191  15.133  -6.078  1.00 20.00     0.082 C 
HETATM    8  C8  UNL     1     -34.404  15.024  -7.374  1.00 20.00     0.027 C 
HETATM    9 CL11 UNL     1     -36.939  15.179  -6.437  1.00 20.00    -0.125 Cl
ENDBRANCH   6   7
BRANCH   5  10
HETATM   10  C9  UNL     1     -33.910  16.883  -1.634  1.00 20.00     0.000 C 
HETATM   11  C7  UNL     1     -34.679  16.995  -0.359  1.00 20.00     0.005 C 
ENDBRANCH   5  10
TORSDOF 2
ENDMDL
MODEL 2
REMARK VINA RESULT:      -4.3      2.259      4.604
REMARK  2 active torsions:
REMARK  status: ('A' for Active; 'I' for Inactive)
REMARK    1  A    between atoms: C5_5  and  C9_9 
REMARK    2  A    between atoms: C6_6  and  C10_10 
ROOT
HETATM    1  C1  UNL     1     -33.353  16.228  -4.758  1.00 20.00     0.005 C 
HETATM    2  C2  UNL     1     -34.520  14.443  -3.396  1.00 20.00     0.005 C 
HETATM    3  C3  UNL     1     -34.363  17.265  -4.265  1.00 20.00     0.006 C 
HETATM    4  C4  UNL     1     -35.530  15.480  -2.903  1.00 20.00     0.006 C 
HETATM    5  C5  UNL     1     -33.910  14.798  -4.759  1.00 20.00    -0.015 C 
HETATM    6  C6  UNL     1     -34.974  16.911  -2.902  1.00 20.00     0.003 C 
ENDROOT
BRANCH   6   7
HETATM    7  C10 UNL     1     -33.973  17.127  -1.763  1.00 20.00     0.082 C 
HETATM    8  C8  UNL     1     -34.625  16.920  -0.406  1.00 20.00     0.027 C 
HETATM    9 CL11 UNL     1     -33.306  18.779  -1.865  1.00 20.00    -0.125 Cl
ENDBRANCH   6   7
BRANCH   5  10
HETATM   10  C9  UNL     1     -34.910  14.583  -5.898  1.00 20.00     0.000 C 
HETATM   11  C7  UNL     1     -34.361  15.043  -7.209  1.00 20.00     0.005 C 
ENDBRANCH   5  10
TORSDOF 2
ENDMDL
MODEL 3
REMARK VINA RESULT:      -4.3      1.265      1.509
REMARK  2 active torsions:
REMARK  status: ('A' for Active; 'I' for Inactive)
REMARK    1  A    between atoms: C5_5  and  C9_9 
REMARK    2  A    between atoms: C6_6  and  C10_10 
ROOT
HETATM    1  C1  UNL     1     -34.299  14.685  -3.387  1.00 20.00     0.005 C 
HETATM    2  C2  UNL     1     -33.748  17.140  -3.658  1.00 20.00     0.005 C 
HETATM    3  C3  UNL     1     -35.593  14.888  -4.177  1.00 20.00     0.006 C 
HETATM    4  C4  UNL     1     -35.042  17.342  -4.448  1.00 20.00     0.006 C 
HETATM    5  C5  UNL     1     -33.820  15.960  -2.679  1.00 20.00    -0.015 C 
HETATM    6  C6  UNL     1     -35.522  16.067  -5.156  1.00 20.00     0.003 C 
ENDROOT
BRANCH   6   7
HETATM    7  C10 UNL     1     -34.654  15.738  -6.374  1.00 20.00     0.082 C 
HETATM    8  C8  UNL     1     -34.576  16.914  -7.334  1.00 20.00     0.027 C 
HETATM    9 CL11 UNL     1     -35.330  14.317  -7.217  1.00 20.00    -0.125 Cl
ENDBRANCH   6   7
BRANCH   5  10
HETATM   10  C9  UNL     1     -34.688  16.289  -1.460  1.00 20.00     0.000 C 
HETATM   11  C7  UNL     1     -34.107  17.405  -0.656  1.00 20.00     0.005 C 
ENDBRANCH   5  10
TORSDOF 2
ENDMDL
MODEL 4
REMARK VINA RESULT:      -4.3      2.193      4.459
REMARK  2 active torsions:
REMARK  status: ('A' for Active; 'I' for Inactive)
REMARK    1  A    between atoms: C5_5  and  C9_9 
REMARK    2  A    between atoms: C6_6  and  C10_10 
ROOT
HETATM    1  C1  UNL     1     -35.713  14.873  -3.823  1.00 20.00     0.005 C 
HETATM    2  C2  UNL     1     -34.896  16.729  -5.336  1.00 20.00     0.005 C 
HETATM    3  C3  UNL     1     -34.382  14.898  -3.072  1.00 20.00     0.006 C 
HETATM    4  C4  UNL     1     -33.564  16.755  -4.584  1.00 20.00     0.006 C 
HETATM    5  C5  UNL     1     -35.597  15.365  -5.272  1.00 20.00    -0.015 C 
HETATM    6  C6  UNL     1     -33.679  16.261  -3.135  1.00 20.00     0.003 C 
ENDROOT
BRANCH   6   7
HETATM    7  C10 UNL     1     -34.373  17.295  -2.242  1.00 20.00     0.082 C 
HETATM    8  C8  UNL     1     -33.557  18.572  -2.135  1.00 20.00     0.027 C 
HETATM    9 CL11 UNL     1     -34.622  16.601  -0.616  1.00 20.00    -0.125 Cl
ENDBRANCH   6   7
BRANCH   5  10
HETATM   10  C9  UNL     1     -34.904  14.332  -6.165  1.00 20.00     0.000 C 
HETATM   11  C7  UNL     1     -34.769  14.820  -7.571  1.00 20.00     0.005 C 
ENDBRANCH   5  10
TORSDOF 2
ENDMDL
MODEL 5
REMARK VINA RESULT:      -4.3      1.423      1.721
REMARK  2 active torsions:
REMARK  status: ('A' for Active; 'I' for Inactive)
REMARK    1  A    between atoms: C5_5  and  C9_9 
REMARK    2  A    between atoms: C6_6  and  C10_10 
ROOT
HETATM    1  C1  UNL     1     -34.995  17.720  -3.592  1.00 20.00     0.005 C 
HETATM    2  C2  UNL     1     -34.924  15.201  -3.365  1.00 20.00     0.005 C 
HETATM    3  C3  UNL     1     -33.747  17.676  -4.475  1.00 20.00     0.006 C 
HETATM    4  C4  UNL     1     -33.677  15.157  -4.249  1.00 20.00     0.006 C 
HETATM    5  C5  UNL     1     -35.089  16.534  -2.622  1.00 20.00    -0.015 C 
HETATM    6  C6  UNL     1     -33.581  16.344  -5.218  1.00 20.00     0.003 C 
ENDROOT
BRANCH   6   7
HETATM    7  C10 UNL     1     -34.582  16.212  -6.370  1.00 20.00     0.082 C 
HETATM    8  C8  UNL     1     -34.373  14.920  -7.142  1.00 20.00     0.027 C 
HETATM    9 CL11 UNL     1     -34.407  17.607  -7.469  1.00 20.00    -0.125 Cl
ENDBRANCH   6   7
BRANCH   5  10
HETATM   10  C9  UNL     1     -34.088  16.666  -1.470  1.00 20.00     0.000 C 
HETATM   11  C7  UNL     1     -34.760  17.069  -0.199  1.00 20.00     0.005 C 
ENDBRANCH   5  10
TORSDOF 2
ENDMDL
MODEL 6
REMARK VINA RESULT:      -4.2      1.331      1.615
REMARK  2 active torsions:
REMARK  status: ('A' for Active; 'I' for Inactive)
REMARK    1  A    between atoms: C5_5  and  C9_9 
REMARK    2  A    between atoms: C6_6  and  C10_10 
ROOT
HETATM    1  C1  UNL     1     -34.287  15.225  -2.619  1.00 20.00     0.005 C 
HETATM    2  C2  UNL     1     -33.656  17.242  -4.011  1.00 20.00     0.005 C 
HETATM    3  C3  UNL     1     -35.554  15.043  -3.456  1.00 20.00     0.006 C 
HETATM    4  C4  UNL     1     -34.923  17.059  -4.848  1.00 20.00     0.006 C 
HETATM    5  C5  UNL     1     -33.787  16.676  -2.590  1.00 20.00    -0.015 C 
HETATM    6  C6  UNL     1     -35.424  15.608  -4.876  1.00 20.00     0.003 C 
ENDROOT
BRANCH   6   7
HETATM    7  C10 UNL     1     -34.536  14.723  -5.757  1.00 20.00     0.082 C 
HETATM    8  C8  UNL     1     -34.913  14.843  -7.224  1.00 20.00     0.027 C 
HETATM    9 CL11 UNL     1     -34.689  13.024  -5.232  1.00 20.00    -0.125 Cl
ENDBRANCH   6   7
BRANCH   5  10
HETATM   10  C9  UNL     1     -34.675  17.561  -1.709  1.00 20.00     0.000 C 
HETATM   11  C7  UNL     1     -34.770  17.034  -0.315  1.00 20.00     0.005 C 
ENDBRANCH   5  10
TORSDOF 2
ENDMDL
MODEL 7
REMARK VINA RESULT:      -4.1      1.442      2.299
REMARK  2 active torsions:
REMARK  status: ('A' for Active; 'I' for Inactive)
REMARK    1  A    between atoms: C5_5  and  C9_9 
REMARK    2  A    between atoms: C6_6  and  C10_10 
ROOT
HETATM    1  C1  UNL     1     -33.673  15.897  -2.977  1.00 20.00     0.005 C 
HETATM    2  C2  UNL     1     -35.690  17.421  -2.865  1.00 20.00     0.005 C 
HETATM    3  C3  UNL     1     -34.586  14.711  -3.295  1.00 20.00     0.006 C 
HETATM    4  C4  UNL     1     -36.603  16.235  -3.184  1.00 20.00     0.006 C 
HETATM    5  C5  UNL     1     -34.379  17.005  -2.183  1.00 20.00    -0.015 C 
HETATM    6  C6  UNL     1     -35.897  15.126  -3.977  1.00 20.00     0.003 C 
ENDROOT
BRANCH   6   7
HETATM    7  C10 UNL     1     -35.669  15.534  -5.436  1.00 20.00     0.082 C 
HETATM    8  C8  UNL     1     -36.976  15.580  -6.209  1.00 20.00     0.027 C 
HETATM    9 CL11 UNL     1     -34.552  14.375  -6.207  1.00 20.00    -0.125 Cl
ENDBRANCH   6   7
BRANCH   5  10
HETATM   10  C9  UNL     1     -34.607  16.597  -0.724  1.00 20.00     0.000 C 
HETATM   11  C7  UNL     1     -34.683  17.787   0.175  1.00 20.00     0.005 C 
ENDBRANCH   5  10
TORSDOF 2
ENDMDL
MODEL 8
REMARK VINA RESULT:      -3.8     11.709     12.960
REMARK  2 active torsions:
REMARK  status: ('A' for Active; 'I' for Inactive)
REMARK    1  A    between atoms: C5_5  and  C9_9 
REMARK    2  A    between atoms: C6_6  and  C10_10 
ROOT
HETATM    1  C1  UNL     1     -32.567   7.577   4.104  1.00 20.00     0.005 C 
HETATM    2  C2  UNL     1     -32.304   5.498   2.686  1.00 20.00     0.005 C 
HETATM    3  C3  UNL     1     -34.081   7.361   4.140  1.00 20.00     0.006 C 
HETATM    4  C4  UNL     1     -33.817   5.281   2.723  1.00 20.00     0.006 C 
HETATM    5  C5  UNL     1     -31.901   6.969   2.862  1.00 20.00    -0.015 C 
HETATM    6  C6  UNL     1     -34.484   5.891   3.964  1.00 20.00     0.003 C 
ENDROOT
BRANCH   6   7
HETATM    7  C10 UNL     1     -34.187   5.070   5.223  1.00 20.00     0.082 C 
HETATM    8  C8  UNL     1     -35.100   3.860   5.324  1.00 20.00     0.027 C 
HETATM    9 CL11 UNL     1     -34.392   6.102   6.665  1.00 20.00    -0.125 Cl
ENDBRANCH   6   7
BRANCH   5  10
HETATM   10  C9  UNL     1     -32.198   7.789   1.603  1.00 20.00     0.000 C 
HETATM   11  C7  UNL     1     -32.193   9.255   1.887  1.00 20.00     0.005 C 
ENDBRANCH   5  10
TORSDOF 2
ENDMDL
MODEL 9
REMARK VINA RESULT:      -3.8      1.990      3.007
REMARK  2 active torsions:
REMARK  status: ('A' for Active; 'I' for Inactive)
REMARK    1  A    between atoms: C5_5  and  C9_9 
REMARK    2  A    between atoms: C6_6  and  C10_10 
ROOT
HETATM    1  C1  UNL     1     -34.532  16.593  -0.765  1.00 20.00     0.005 C 
HETATM    2  C2  UNL     1     -33.451  18.679  -1.705  1.00 20.00     0.005 C 
HETATM    3  C3  UNL     1     -35.375  16.458  -2.034  1.00 20.00     0.006 C 
HETATM    4  C4  UNL     1     -34.294  18.543  -2.974  1.00 20.00     0.006 C 
HETATM    5  C5  UNL     1     -34.109  18.040  -0.474  1.00 20.00    -0.015 C 
HETATM    6  C6  UNL     1     -34.718  17.097  -3.265  1.00 20.00     0.003 C 
ENDROOT
BRANCH   6   7
HETATM    7  C10 UNL     1     -33.544  16.257  -3.776  1.00 20.00     0.082 C 
HETATM    8  C8  UNL     1     -33.259  16.537  -5.243  1.00 20.00     0.027 C 
HETATM    9 CL11 UNL     1     -33.912  14.525  -3.554  1.00 20.00    -0.125 Cl
ENDBRANCH   6   7
BRANCH   5  10
HETATM   10  C9  UNL     1     -35.284  18.879   0.038  1.00 20.00     0.000 C 
HETATM   11  C7  UNL     1     -35.985  18.211   1.175  1.00 20.00     0.005 C 
ENDBRANCH   5  10
TORSDOF 2
ENDMDL
