MODEL 1
REMARK VINA RESULT:      -5.2      0.000      0.000
REMARK  3 active torsions:
REMARK  status: ('A' for Active; 'I' for Inactive)
REMARK    1  A    between atoms: C1_1  and  C7_7 
REMARK    2  A    between atoms: C8_8  and  C11_11 
REMARK    3  A    between atoms: C11_11  and  C12_12 
ROOT
HETATM    1  C2  UNL     1     -34.644  13.365  -4.197  1.00 20.00     0.001 C 
HETATM    2  C3  UNL     1     -35.476  14.138  -5.219  1.00 20.00     0.012 C 
HETATM    3  C4  UNL     1     -34.343  16.395  -5.541  1.00 20.00     0.012 C 
HETATM    4  C5  UNL     1     -33.301  13.948  -3.766  1.00 20.00     0.005 C 
HETATM    5  C6  UNL     1     -33.153  16.361  -4.588  1.00 20.00     0.005 C 
HETATM    6  C7  UNL     1     -34.694  15.043  -6.169  1.00 20.00     0.055 C 
HETATM    7  C8  UNL     1     -33.257  15.430  -3.371  1.00 20.00    -0.014 C 
ENDROOT
BRANCH   6   8
HETATM    8  C1  UNL     1     -35.553  15.298  -7.374  1.00 20.00     0.127 C 
HETATM    9  C9  UNL     1     -35.598  16.712  -7.887  1.00 20.00     0.091 C 
HETATM   10  O13 UNL     1     -36.186  14.395  -7.918  1.00 20.00    -0.298 OA
ENDBRANCH   6   8
BRANCH   7  11
HETATM   11  C11 UNL     1     -34.366  15.837  -2.401  1.00 20.00     0.004 C 
BRANCH  11  12
HETATM   12  C12 UNL     1     -33.894  16.943  -1.467  1.00 20.00    -0.004 C 
HETATM   13  C10 UNL     1     -34.740  16.987  -0.204  1.00 20.00     0.005 C 
ENDBRANCH  11  12
ENDBRANCH   7  11
TORSDOF 3
ENDMDL
MODEL 2
REMARK VINA RESULT:      -5.2      2.152      4.969
REMARK  3 active torsions:
REMARK  status: ('A' for Active; 'I' for Inactive)
REMARK    1  A    between atoms: C1_1  and  C7_7 
REMARK    2  A    between atoms: C8_8  and  C11_11 
REMARK    3  A    between atoms: C11_11  and  C12_12 
ROOT
HETATM    1  C2  UNL     1     -32.793  14.875  -3.614  1.00 20.00     0.001 C 
HETATM    2  C3  UNL     1     -33.572  16.096  -3.127  1.00 20.00     0.012 C 
HETATM    3  C4  UNL     1     -36.041  15.590  -3.484  1.00 20.00     0.012 C 
HETATM    4  C5  UNL     1     -33.574  13.619  -3.986  1.00 20.00     0.005 C 
HETATM    5  C6  UNL     1     -36.056  14.206  -4.125  1.00 20.00     0.005 C 
HETATM    6  C7  UNL     1     -34.919  15.808  -2.466  1.00 20.00     0.055 C 
HETATM    7  C8  UNL     1     -34.799  13.779  -4.897  1.00 20.00    -0.014 C 
ENDROOT
BRANCH   6   8
HETATM    8  C1  UNL     1     -35.281  16.995  -1.620  1.00 20.00     0.127 C 
HETATM    9  C9  UNL     1     -34.698  17.041  -0.233  1.00 20.00     0.091 C 
HETATM   10  O13 UNL     1     -36.015  17.888  -2.041  1.00 20.00    -0.298 OA
ENDBRANCH   6   8
BRANCH   7  11
HETATM   11  C11 UNL     1     -34.534  14.642  -6.131  1.00 20.00     0.004 C 
BRANCH  11  12
HETATM   12  C12 UNL     1     -35.508  14.305  -7.250  1.00 20.00    -0.004 C 
HETATM   13  C10 UNL     1     -36.391  15.499  -7.581  1.00 20.00     0.005 C 
ENDBRANCH  11  12
ENDBRANCH   7  11
TORSDOF 3
ENDMDL
MODEL 3
REMARK VINA RESULT:      -4.8      2.568      5.378
REMARK  3 active torsions:
REMARK  status: ('A' for Active; 'I' for Inactive)
REMARK    1  A    between atoms: C1_1  and  C7_7 
REMARK    2  A    between atoms: C8_8  and  C11_11 
REMARK    3  A    between atoms: C11_11  and  C12_12 
ROOT
HETATM    1  C2  UNL     1     -33.612  17.746  -4.651  1.00 20.00     0.001 C 
HETATM    2  C3  UNL     1     -34.185  17.851  -3.239  1.00 20.00     0.012 C 
HETATM    3  C4  UNL     1     -34.625  15.475  -2.438  1.00 20.00     0.012 C 
HETATM    4  C5  UNL     1     -33.244  16.363  -5.182  1.00 20.00     0.005 C 
HETATM    5  C6  UNL     1     -34.221  14.597  -3.617  1.00 20.00     0.005 C 
HETATM    6  C7  UNL     1     -33.781  16.742  -2.270  1.00 20.00     0.055 C 
HETATM    7  C8  UNL     1     -34.270  15.235  -5.014  1.00 20.00    -0.014 C 
ENDROOT
BRANCH   6   8
HETATM    8  C1  UNL     1     -33.983  17.254  -0.872  1.00 20.00     0.127 C 
HETATM    9  C9  UNL     1     -33.081  18.374  -0.425  1.00 20.00     0.091 C 
HETATM   10  O13 UNL     1     -34.844  16.784  -0.131  1.00 20.00    -0.298 OA
ENDBRANCH   6   8
BRANCH   7  11
HETATM   11  C11 UNL     1     -35.684  15.625  -5.443  1.00 20.00     0.004 C 
BRANCH  11  12
HETATM   12  C12 UNL     1     -35.771  15.781  -6.954  1.00 20.00    -0.004 C 
HETATM   13  C10 UNL     1     -35.443  14.473  -7.657  1.00 20.00     0.005 C 
ENDBRANCH  11  12
ENDBRANCH   7  11
TORSDOF 3
ENDMDL
MODEL 4
REMARK VINA RESULT:      -4.7      1.672      2.794
REMARK  3 active torsions:
REMARK  status: ('A' for Active; 'I' for Inactive)
REMARK    1  A    between atoms: C1_1  and  C7_7 
REMARK    2  A    between atoms: C8_8  and  C11_11 
REMARK    3  A    between atoms: C11_11  and  C12_12 
ROOT
HETATM    1  C2  UNL     1     -33.587  17.110  -4.107  1.00 20.00     0.001 C 
HETATM    2  C3  UNL     1     -33.727  15.657  -4.557  1.00 20.00     0.012 C 
HETATM    3  C4  UNL     1     -35.973  14.827  -3.692  1.00 20.00     0.012 C 
HETATM    4  C5  UNL     1     -34.795  17.792  -3.472  1.00 20.00     0.005 C 
HETATM    5  C6  UNL     1     -36.547  16.015  -2.926  1.00 20.00     0.005 C 
HETATM    6  C7  UNL     1     -35.140  15.204  -4.920  1.00 20.00     0.055 C 
HETATM    7  C8  UNL     1     -35.545  17.036  -2.366  1.00 20.00    -0.014 C 
ENDROOT
BRANCH   6   8
HETATM    8  C1  UNL     1     -35.024  13.989  -5.796  1.00 20.00     0.127 C 
HETATM    9  C9  UNL     1     -35.144  14.211  -7.280  1.00 20.00     0.091 C 
HETATM   10  O13 UNL     1     -34.838  12.869  -5.324  1.00 20.00    -0.298 OA
ENDBRANCH   6   8
BRANCH   7  11
HETATM   11  C11 UNL     1     -34.626  16.447  -1.297  1.00 20.00     0.004 C 
BRANCH  11  12
HETATM   12  C12 UNL     1     -34.621  17.313  -0.045  1.00 20.00    -0.004 C 
HETATM   13  C10 UNL     1     -33.413  18.237  -0.028  1.00 20.00     0.005 C 
ENDBRANCH  11  12
ENDBRANCH   7  11
TORSDOF 3
ENDMDL
MODEL 5
REMARK VINA RESULT:      -4.7      2.202      2.462
REMARK  3 active torsions:
REMARK  status: ('A' for Active; 'I' for Inactive)
REMARK    1  A    between atoms: C1_1  and  C7_7 
REMARK    2  A    between atoms: C8_8  and  C11_11 
REMARK    3  A    between atoms: C11_11  and  C12_12 
ROOT
HETATM    1  C2  UNL     1     -34.407  13.990  -4.463  1.00 20.00     0.001 C 
HETATM    2  C3  UNL     1     -35.890  14.079  -4.107  1.00 20.00     0.012 C 
HETATM    3  C4  UNL     1     -36.444  16.550  -3.851  1.00 20.00     0.012 C 
HETATM    4  C5  UNL     1     -33.659  15.282  -4.779  1.00 20.00     0.005 C 
HETATM    5  C6  UNL     1     -35.117  17.263  -4.092  1.00 20.00     0.005 C 
HETATM    6  C7  UNL     1     -36.643  15.278  -4.680  1.00 20.00     0.055 C 
HETATM    7  C8  UNL     1     -33.834  16.465  -3.818  1.00 20.00    -0.014 C 
ENDROOT
BRANCH   6   8
HETATM    8  C1  UNL     1     -38.108  14.946  -4.679  1.00 20.00     0.127 C 
HETATM    9  C9  UNL     1     -38.954  15.615  -5.729  1.00 20.00     0.091 C 
HETATM   10  O13 UNL     1     -38.592  14.164  -3.863  1.00 20.00    -0.298 OA
ENDBRANCH   6   8
BRANCH   7  11
HETATM   11  C11 UNL     1     -33.670  16.086  -2.346  1.00 20.00     0.004 C 
BRANCH  11  12
HETATM   12  C12 UNL     1     -33.825  17.306  -1.449  1.00 20.00    -0.004 C 
HETATM   13  C10 UNL     1     -34.764  17.013  -0.289  1.00 20.00     0.005 C 
ENDBRANCH  11  12
ENDBRANCH   7  11
TORSDOF 3
ENDMDL
MODEL 6
REMARK VINA RESULT:      -4.6      2.886      5.137
REMARK  3 active torsions:
REMARK  status: ('A' for Active; 'I' for Inactive)
REMARK    1  A    between atoms: C1_1  and  C7_7 
REMARK    2  A    between atoms: C8_8  and  C11_11 
REMARK    3  A    between atoms: C11_11  and  C12_12 
ROOT
HETATM    1  C2  UNL     1     -33.674  17.751  -4.750  1.00 20.00     0.001 C 
HETATM    2  C3  UNL     1     -34.117  18.010  -3.311  1.00 20.00     0.012 C 
HETATM    3  C4  UNL     1     -34.481  15.736  -2.226  1.00 20.00     0.012 C 
HETATM    4  C5  UNL     1     -33.355  16.317  -5.162  1.00 20.00     0.005 C 
HETATM    5  C6  UNL     1     -34.186  14.734  -3.338  1.00 20.00     0.005 C 
HETATM    6  C7  UNL     1     -33.626  17.005  -2.270  1.00 20.00     0.055 C 
HETATM    7  C8  UNL     1     -34.361  15.222  -4.783  1.00 20.00    -0.014 C 
ENDROOT
BRANCH   6   8
HETATM    8  C1  UNL     1     -33.700  17.664  -0.922  1.00 20.00     0.127 C 
HETATM    9  C9  UNL     1     -34.800  17.203  -0.004  1.00 20.00     0.091 C 
HETATM   10  O13 UNL     1     -32.901  18.535  -0.584  1.00 20.00    -0.298 OA
ENDBRANCH   6   8
BRANCH   7  11
HETATM   11  C11 UNL     1     -35.808  15.577  -5.122  1.00 20.00     0.004 C 
BRANCH  11  12
HETATM   12  C12 UNL     1     -36.768  14.526  -4.584  1.00 20.00    -0.004 C 
HETATM   13  C10 UNL     1     -37.857  15.165  -3.736  1.00 20.00     0.005 C 
ENDBRANCH  11  12
ENDBRANCH   7  11
TORSDOF 3
ENDMDL
MODEL 7
REMARK VINA RESULT:      -4.6      2.311      4.022
REMARK  3 active torsions:
REMARK  status: ('A' for Active; 'I' for Inactive)
REMARK    1  A    between atoms: C1_1  and  C7_7 
REMARK    2  A    between atoms: C8_8  and  C11_11 
REMARK    3  A    between atoms: C11_11  and  C12_12 
ROOT
HETATM    1  C2  UNL     1     -34.508  16.718  -1.553  1.00 20.00     0.001 C 
HETATM    2  C3  UNL     1     -34.733  15.476  -2.412  1.00 20.00     0.012 C 
HETATM    3  C4  UNL     1     -33.923  16.040  -4.758  1.00 20.00     0.012 C 
HETATM    4  C5  UNL     1     -33.717  17.878  -2.150  1.00 20.00     0.005 C 
HETATM    5  C6  UNL     1     -33.463  17.492  -4.662  1.00 20.00     0.005 C 
HETATM    6  C7  UNL     1     -33.686  15.212  -3.492  1.00 20.00     0.055 C 
HETATM    7  C8  UNL     1     -34.095  18.353  -3.559  1.00 20.00    -0.014 C 
ENDROOT
BRANCH   6   8
HETATM    8  C1  UNL     1     -33.763  13.759  -3.865  1.00 20.00     0.127 C 
HETATM    9  C9  UNL     1     -35.053  13.286  -4.480  1.00 20.00     0.091 C 
HETATM   10  O13 UNL     1     -32.818  12.994  -3.679  1.00 20.00    -0.298 OA
ENDBRANCH   6   8
BRANCH   7  11
HETATM   11  C11 UNL     1     -35.597  18.561  -3.751  1.00 20.00     0.004 C 
BRANCH  11  12
HETATM   12  C12 UNL     1     -35.901  19.076  -5.151  1.00 20.00    -0.004 C 
HETATM   13  C10 UNL     1     -36.920  18.188  -5.849  1.00 20.00     0.005 C 
ENDBRANCH  11  12
ENDBRANCH   7  11
TORSDOF 3
ENDMDL
MODEL 8
REMARK VINA RESULT:      -4.6      1.246      1.470
REMARK  3 active torsions:
REMARK  status: ('A' for Active; 'I' for Inactive)
REMARK    1  A    between atoms: C1_1  and  C7_7 
REMARK    2  A    between atoms: C8_8  and  C11_11 
REMARK    3  A    between atoms: C11_11  and  C12_12 
ROOT
HETATM    1  C2  UNL     1     -36.237  14.515  -4.472  1.00 20.00     0.001 C 
HETATM    2  C3  UNL     1     -36.208  15.801  -5.296  1.00 20.00     0.012 C 
HETATM    3  C4  UNL     1     -33.888  16.811  -5.015  1.00 20.00     0.012 C 
HETATM    4  C5  UNL     1     -34.929  14.013  -3.868  1.00 20.00     0.005 C 
HETATM    5  C6  UNL     1     -33.173  15.858  -4.062  1.00 20.00     0.005 C 
HETATM    6  C7  UNL     1     -34.877  16.135  -5.968  1.00 20.00     0.055 C 
HETATM    7  C8  UNL     1     -34.051  15.024  -3.118  1.00 20.00    -0.014 C 
ENDROOT
BRANCH   6   8
HETATM    8  C1  UNL     1     -35.156  17.082  -7.100  1.00 20.00     0.127 C 
HETATM    9  C9  UNL     1     -34.285  18.306  -7.188  1.00 20.00     0.091 C 
HETATM   10  O13 UNL     1     -36.051  16.867  -7.916  1.00 20.00    -0.298 OA
ENDBRANCH   6   8
BRANCH   7  11
HETATM   11  C11 UNL     1     -34.824  15.876  -2.112  1.00 20.00     0.004 C 
BRANCH  11  12
HETATM   12  C12 UNL     1     -33.888  16.804  -1.350  1.00 20.00    -0.004 C 
HETATM   13  C10 UNL     1     -34.601  17.449  -0.172  1.00 20.00     0.005 C 
ENDBRANCH  11  12
ENDBRANCH   7  11
TORSDOF 3
ENDMDL
MODEL 9
REMARK VINA RESULT:      -4.5      2.475      3.630
REMARK  3 active torsions:
REMARK  status: ('A' for Active; 'I' for Inactive)
REMARK    1  A    between atoms: C1_1  and  C7_7 
REMARK    2  A    between atoms: C8_8  and  C11_11 
REMARK    3  A    between atoms: C11_11  and  C12_12 
ROOT
HETATM    1  C2  UNL     1     -34.395  16.629  -1.637  1.00 20.00     0.001 C 
HETATM    2  C3  UNL     1     -34.618  15.379  -2.486  1.00 20.00     0.012 C 
HETATM    3  C4  UNL     1     -34.026  15.996  -4.883  1.00 20.00     0.012 C 
HETATM    4  C5  UNL     1     -33.717  17.833  -2.285  1.00 20.00     0.005 C 
HETATM    5  C6  UNL     1     -33.640  17.470  -4.812  1.00 20.00     0.005 C 
HETATM    6  C7  UNL     1     -33.646  15.177  -3.646  1.00 20.00     0.055 C 
HETATM    7  C8  UNL     1     -34.231  18.292  -3.656  1.00 20.00    -0.014 C 
ENDROOT
BRANCH   6   8
HETATM    8  C1  UNL     1     -33.672  13.724  -4.023  1.00 20.00     0.127 C 
HETATM    9  C9  UNL     1     -34.791  13.279  -4.926  1.00 20.00     0.091 C 
HETATM   10  O13 UNL     1     -32.820  12.936  -3.615  1.00 20.00    -0.298 OA
ENDBRANCH   6   8
BRANCH   7  11
HETATM   11  C11 UNL     1     -35.752  18.417  -3.729  1.00 20.00     0.004 C 
BRANCH  11  12
HETATM   12  C12 UNL     1     -36.285  19.263  -2.582  1.00 20.00    -0.004 C 
HETATM   13  C10 UNL     1     -37.614  18.722  -2.077  1.00 20.00     0.005 C 
ENDBRANCH  11  12
ENDBRANCH   7  11
TORSDOF 3
ENDMDL
