MODEL 1
REMARK VINA RESULT:      -4.2      0.000      0.000
REMARK  3 active torsions:
REMARK  status: ('A' for Active; 'I' for Inactive)
REMARK    1  A    between atoms: C4_4  and  C5_5 
REMARK    2  A    between atoms: C4_4  and  O7_7 
REMARK    3  A    between atoms: C5_5  and  C6_6 
ROOT
HETATM    1  C1  UNL     1     -34.440   5.406   2.785  1.00 20.00     0.014 C 
HETATM    2  C5  UNL     1     -33.654   5.623   4.062  1.00 20.00     0.023 C 
ENDROOT
BRANCH   2   3
HETATM    3  C4  UNL     1     -32.742   6.855   3.926  1.00 20.00     0.172 C 
BRANCH   3   4
HETATM    4  O7  UNL     1     -32.155   6.871   2.629  1.00 20.00    -0.396 OA
HETATM    5  C3  UNL     1     -32.067   8.192   2.115  1.00 20.00     0.201 C 
ENDBRANCH   3   4
ENDBRANCH   2   3
BRANCH   2   6
HETATM    6  C6  UNL     1     -34.547   5.721   5.323  1.00 20.00     0.084 C 
HETATM    7  C2  UNL     1     -33.934   6.561   6.440  1.00 20.00     0.027 C 
HETATM    8 CL8  UNL     1     -34.995   4.114   5.979  1.00 20.00    -0.125 Cl
ENDBRANCH   2   6
TORSDOF 3
ENDMDL
MODEL 2
REMARK VINA RESULT:      -4.2      1.364      1.512
REMARK  3 active torsions:
REMARK  status: ('A' for Active; 'I' for Inactive)
REMARK    1  A    between atoms: C4_4  and  C5_5 
REMARK    2  A    between atoms: C4_4  and  O7_7 
REMARK    3  A    between atoms: C5_5  and  C6_6 
ROOT
HETATM    1  C1  UNL     1     -35.520   5.459   3.589  1.00 20.00     0.014 C 
HETATM    2  C5  UNL     1     -34.107   5.554   4.125  1.00 20.00     0.023 C 
ENDROOT
BRANCH   2   3
HETATM    3  C4  UNL     1     -33.489   6.918   3.768  1.00 20.00     0.172 C 
BRANCH   3   4
HETATM    4  O7  UNL     1     -32.385   6.724   2.890  1.00 20.00    -0.396 OA
HETATM    5  C3  UNL     1     -32.008   7.937   2.255  1.00 20.00     0.201 C 
ENDBRANCH   3   4
ENDBRANCH   2   3
BRANCH   2   6
HETATM    6  C6  UNL     1     -34.006   5.271   5.644  1.00 20.00     0.084 C 
HETATM    7  C2  UNL     1     -35.121   4.373   6.171  1.00 20.00     0.027 C 
HETATM    8 CL8  UNL     1     -33.949   6.770   6.624  1.00 20.00    -0.125 Cl
ENDBRANCH   2   6
TORSDOF 3
ENDMDL
MODEL 3
REMARK VINA RESULT:      -3.9      0.856      1.952
REMARK  3 active torsions:
REMARK  status: ('A' for Active; 'I' for Inactive)
REMARK    1  A    between atoms: C4_4  and  C5_5 
REMARK    2  A    between atoms: C4_4  and  O7_7 
REMARK    3  A    between atoms: C5_5  and  C6_6 
ROOT
HETATM    1  C1  UNL     1     -33.633   6.727   6.342  1.00 20.00     0.014 C 
HETATM    2  C5  UNL     1     -33.845   6.517   4.857  1.00 20.00     0.023 C 
ENDROOT
BRANCH   2   3
HETATM    3  C4  UNL     1     -32.504   6.603   4.107  1.00 20.00     0.172 C 
BRANCH   3   4
HETATM    4  O7  UNL     1     -32.747   6.855   2.727  1.00 20.00    -0.396 OA
HETATM    5  C3  UNL     1     -32.077   8.027   2.287  1.00 20.00     0.201 C 
ENDBRANCH   3   4
ENDBRANCH   2   3
BRANCH   2   6
HETATM    6  C6  UNL     1     -34.593   5.203   4.523  1.00 20.00     0.084 C 
HETATM    7  C2  UNL     1     -35.867   5.417   3.712  1.00 20.00     0.027 C 
HETATM    8 CL8  UNL     1     -34.984   4.240   5.984  1.00 20.00    -0.125 Cl
ENDBRANCH   2   6
TORSDOF 3
ENDMDL
MODEL 4
REMARK VINA RESULT:      -3.4     11.622     12.351
REMARK  3 active torsions:
REMARK  status: ('A' for Active; 'I' for Inactive)
REMARK    1  A    between atoms: C4_4  and  C5_5 
REMARK    2  A    between atoms: C4_4  and  O7_7 
REMARK    3  A    between atoms: C5_5  and  C6_6 
ROOT
HETATM    1  C1  UNL     1     -35.179  13.414  -4.247  1.00 20.00     0.014 C 
HETATM    2  C5  UNL     1     -35.454  14.901  -4.158  1.00 20.00     0.023 C 
ENDROOT
BRANCH   2   3
HETATM    3  C4  UNL     1     -36.791  15.157  -3.440  1.00 20.00     0.172 C 
BRANCH   3   4
HETATM    4  O7  UNL     1     -37.723  14.141  -3.795  1.00 20.00    -0.396 OA
HETATM    5  C3  UNL     1     -38.955  14.697  -4.232  1.00 20.00     0.201 C 
ENDBRANCH   3   4
ENDBRANCH   2   3
BRANCH   2   6
HETATM    6  C6  UNL     1     -34.301  15.700  -3.502  1.00 20.00     0.084 C 
HETATM    7  C2  UNL     1     -32.935  15.038  -3.660  1.00 20.00     0.027 C 
HETATM    8 CL8  UNL     1     -34.592  16.034  -1.765  1.00 20.00    -0.125 Cl
ENDBRANCH   2   6
TORSDOF 3
ENDMDL
MODEL 5
REMARK VINA RESULT:      -3.4     11.783     12.474
REMARK  3 active torsions:
REMARK  status: ('A' for Active; 'I' for Inactive)
REMARK    1  A    between atoms: C4_4  and  C5_5 
REMARK    2  A    between atoms: C4_4  and  O7_7 
REMARK    3  A    between atoms: C5_5  and  C6_6 
ROOT
HETATM    1  C1  UNL     1     -33.314  16.558  -5.005  1.00 20.00     0.014 C 
HETATM    2  C5  UNL     1     -33.802  15.791  -3.793  1.00 20.00     0.023 C 
ENDROOT
BRANCH   2   3
HETATM    3  C4  UNL     1     -33.098  14.426  -3.702  1.00 20.00     0.172 C 
BRANCH   3   4
HETATM    4  O7  UNL     1     -34.056  13.416  -3.406  1.00 20.00    -0.396 OA
HETATM    5  C3  UNL     1     -35.022  13.298  -4.441  1.00 20.00     0.201 C 
ENDBRANCH   3   4
ENDBRANCH   2   3
BRANCH   2   6
HETATM    6  C6  UNL     1     -33.666  16.585  -2.469  1.00 20.00     0.084 C 
HETATM    7  C2  UNL     1     -34.754  16.260  -1.451  1.00 20.00     0.027 C 
HETATM    8 CL8  UNL     1     -33.616  18.357  -2.728  1.00 20.00    -0.125 Cl
ENDBRANCH   2   6
TORSDOF 3
ENDMDL
MODEL 6
REMARK VINA RESULT:      -3.4     11.837     12.511
REMARK  3 active torsions:
REMARK  status: ('A' for Active; 'I' for Inactive)
REMARK    1  A    between atoms: C4_4  and  C5_5 
REMARK    2  A    between atoms: C4_4  and  O7_7 
REMARK    3  A    between atoms: C5_5  and  C6_6 
ROOT
HETATM    1  C1  UNL     1     -34.011  16.921  -1.385  1.00 20.00     0.014 C 
HETATM    2  C5  UNL     1     -34.423  15.821  -2.342  1.00 20.00     0.023 C 
ENDROOT
BRANCH   2   3
HETATM    3  C4  UNL     1     -35.730  16.198  -3.061  1.00 20.00     0.172 C 
BRANCH   3   4
HETATM    4  O7  UNL     1     -36.534  15.035  -3.227  1.00 20.00    -0.396 OA
HETATM    5  C3  UNL     1     -36.885  14.836  -4.589  1.00 20.00     0.201 C 
ENDBRANCH   3   4
ENDBRANCH   2   3
BRANCH   2   6
HETATM    6  C6  UNL     1     -33.313  15.440  -3.353  1.00 20.00     0.084 C 
HETATM    7  C2  UNL     1     -33.332  16.285  -4.623  1.00 20.00     0.027 C 
HETATM    8 CL8  UNL     1     -33.354  13.706  -3.803  1.00 20.00    -0.125 Cl
ENDBRANCH   2   6
TORSDOF 3
ENDMDL
MODEL 7
REMARK VINA RESULT:      -3.3     11.820     13.151
REMARK  3 active torsions:
REMARK  status: ('A' for Active; 'I' for Inactive)
REMARK    1  A    between atoms: C4_4  and  C5_5 
REMARK    2  A    between atoms: C4_4  and  O7_7 
REMARK    3  A    between atoms: C5_5  and  C6_6 
ROOT
HETATM    1  C1  UNL     1     -34.030  13.690  -3.866  1.00 20.00     0.014 C 
HETATM    2  C5  UNL     1     -35.151  14.353  -4.638  1.00 20.00     0.023 C 
ENDROOT
BRANCH   2   3
HETATM    3  C4  UNL     1     -36.232  14.872  -3.674  1.00 20.00     0.172 C 
BRANCH   3   4
HETATM    4  O7  UNL     1     -37.400  14.066  -3.790  1.00 20.00    -0.396 OA
HETATM    5  C3  UNL     1     -38.572  14.862  -3.892  1.00 20.00     0.201 C 
ENDBRANCH   3   4
ENDBRANCH   2   3
BRANCH   2   6
HETATM    6  C6  UNL     1     -34.663  15.472  -5.591  1.00 20.00     0.084 C 
HETATM    7  C2  UNL     1     -34.434  14.995  -7.022  1.00 20.00     0.027 C 
HETATM    8 CL8  UNL     1     -33.178  16.283  -5.000  1.00 20.00    -0.125 Cl
ENDBRANCH   2   6
TORSDOF 3
ENDMDL
MODEL 8
REMARK VINA RESULT:      -3.3     11.862     12.685
REMARK  3 active torsions:
REMARK  status: ('A' for Active; 'I' for Inactive)
REMARK    1  A    between atoms: C4_4  and  C5_5 
REMARK    2  A    between atoms: C4_4  and  O7_7 
REMARK    3  A    between atoms: C5_5  and  C6_6 
ROOT
HETATM    1  C1  UNL     1     -34.698  16.126  -1.823  1.00 20.00     0.014 C 
HETATM    2  C5  UNL     1     -34.595  15.843  -3.307  1.00 20.00     0.023 C 
ENDROOT
BRANCH   2   3
HETATM    3  C4  UNL     1     -33.132  15.573  -3.702  1.00 20.00     0.172 C 
BRANCH   3   4
HETATM    4  O7  UNL     1     -32.824  16.281  -4.898  1.00 20.00    -0.396 OA
HETATM    5  C3  UNL     1     -33.484  17.538  -4.941  1.00 20.00     0.201 C 
ENDBRANCH   3   4
ENDBRANCH   2   3
BRANCH   2   6
HETATM    6  C6  UNL     1     -35.526  14.700  -3.780  1.00 20.00     0.084 C 
HETATM    7  C2  UNL     1     -34.786  13.404  -4.096  1.00 20.00     0.027 C 
HETATM    8 CL8  UNL     1     -36.525  15.163  -5.195  1.00 20.00    -0.125 Cl
ENDBRANCH   2   6
TORSDOF 3
ENDMDL
MODEL 9
REMARK VINA RESULT:      -3.3     11.933     12.812
REMARK  3 active torsions:
REMARK  status: ('A' for Active; 'I' for Inactive)
REMARK    1  A    between atoms: C4_4  and  C5_5 
REMARK    2  A    between atoms: C4_4  and  O7_7 
REMARK    3  A    between atoms: C5_5  and  C6_6 
ROOT
HETATM    1  C1  UNL     1     -34.534  16.528  -1.185  1.00 20.00     0.014 C 
HETATM    2  C5  UNL     1     -34.069  16.033  -2.539  1.00 20.00     0.023 C 
ENDROOT
BRANCH   2   3
HETATM    3  C4  UNL     1     -35.083  15.034  -3.123  1.00 20.00     0.172 C 
BRANCH   3   4
HETATM    4  O7  UNL     1     -34.431  13.797  -3.392  1.00 20.00    -0.396 OA
HETATM    5  C3  UNL     1     -34.790  13.289  -4.669  1.00 20.00     0.201 C 
ENDBRANCH   3   4
ENDBRANCH   2   3
BRANCH   2   6
HETATM    6  C6  UNL     1     -33.764  17.176  -3.539  1.00 20.00     0.084 C 
HETATM    7  C2  UNL     1     -34.945  18.114  -3.768  1.00 20.00     0.027 C 
HETATM    8 CL8  UNL     1     -33.181  16.571  -5.122  1.00 20.00    -0.125 Cl
ENDBRANCH   2   6
TORSDOF 3
ENDMDL
