MODEL 1
REMARK VINA RESULT:      -5.0      0.000      0.000
REMARK  1 active torsions:
REMARK  status: ('A' for Active; 'I' for Inactive)
REMARK    1  A    between atoms: C6_6  and  C11_11 
ROOT
HETATM    1  C1  UNL     1     -34.830  13.514  -4.063  1.00 20.00     0.001 C 
HETATM    2  C2  UNL     1     -33.987  14.549  -3.329  1.00 20.00     0.006 C 
HETATM    3  C3  UNL     1     -35.278  16.659  -4.034  1.00 20.00     0.007 C 
HETATM    4  C4  UNL     1     -34.920  13.696  -5.575  1.00 20.00     0.008 C 
HETATM    5  C5  UNL     1     -36.115  15.964  -5.113  1.00 20.00     0.009 C 
HETATM    6  C6  UNL     1     -34.798  15.771  -2.882  1.00 20.00     0.003 C 
HETATM    7  C7  UNL     1     -35.357  15.077  -6.132  1.00 20.00    -0.048 C 
HETATM    8  C8  UNL     1     -34.130  15.812  -6.713  1.00 20.00     0.015 C 
HETATM    9  C9  UNL     1     -36.318  14.816  -7.319  1.00 20.00     0.015 C 
ENDROOT
BRANCH   6  10
HETATM   10  C11 UNL     1     -33.966  16.613  -1.906  1.00 20.00     0.082 C 
HETATM   11  C10 UNL     1     -34.676  16.770  -0.576  1.00 20.00     0.027 C 
HETATM   12 CL12 UNL     1     -33.664  18.214  -2.629  1.00 20.00    -0.125 Cl
ENDBRANCH   6  10
TORSDOF 1
ENDMDL
MODEL 2
REMARK VINA RESULT:      -4.9      1.598      2.641
REMARK  1 active torsions:
REMARK  status: ('A' for Active; 'I' for Inactive)
REMARK    1  A    between atoms: C6_6  and  C11_11 
ROOT
HETATM    1  C1  UNL     1     -33.308  16.767  -5.003  1.00 20.00     0.001 C 
HETATM    2  C2  UNL     1     -33.952  17.577  -3.885  1.00 20.00     0.006 C 
HETATM    3  C3  UNL     1     -34.515  15.639  -2.289  1.00 20.00     0.007 C 
HETATM    4  C4  UNL     1     -34.195  15.698  -5.633  1.00 20.00     0.008 C 
HETATM    5  C5  UNL     1     -34.235  14.528  -3.306  1.00 20.00     0.009 C 
HETATM    6  C6  UNL     1     -33.750  16.950  -2.501  1.00 20.00     0.003 C 
HETATM    7  C7  UNL     1     -34.890  14.667  -4.704  1.00 20.00    -0.048 C 
HETATM    8  C8  UNL     1     -36.392  15.003  -4.589  1.00 20.00     0.015 C 
HETATM    9  C9  UNL     1     -34.798  13.283  -5.395  1.00 20.00     0.015 C 
ENDROOT
BRANCH   6  10
HETATM   10  C11 UNL     1     -34.157  17.954  -1.415  1.00 20.00     0.082 C 
HETATM   11  C10 UNL     1     -32.969  18.780  -0.961  1.00 20.00     0.027 C 
HETATM   12 CL12 UNL     1     -34.849  17.069  -0.033  1.00 20.00    -0.125 Cl
ENDBRANCH   6  10
TORSDOF 1
ENDMDL
MODEL 3
REMARK VINA RESULT:      -4.7      1.144      2.075
REMARK  1 active torsions:
REMARK  status: ('A' for Active; 'I' for Inactive)
REMARK    1  A    between atoms: C6_6  and  C11_11 
ROOT
HETATM    1  C1  UNL     1     -36.544  16.566  -4.116  1.00 20.00     0.001 C 
HETATM    2  C2  UNL     1     -35.775  16.491  -2.803  1.00 20.00     0.006 C 
HETATM    3  C3  UNL     1     -33.430  16.047  -3.762  1.00 20.00     0.007 C 
HETATM    4  C4  UNL     1     -36.470  15.319  -4.991  1.00 20.00     0.008 C 
HETATM    5  C5  UNL     1     -33.909  15.752  -5.187  1.00 20.00     0.009 C 
HETATM    6  C6  UNL     1     -34.326  16.972  -2.932  1.00 20.00     0.003 C 
HETATM    7  C7  UNL     1     -35.074  14.742  -5.346  1.00 20.00    -0.048 C 
HETATM    8  C8  UNL     1     -34.820  13.459  -4.526  1.00 20.00     0.015 C 
HETATM    9  C9  UNL     1     -35.112  14.314  -6.835  1.00 20.00     0.015 C 
ENDROOT
BRANCH   6  10
HETATM   10  C11 UNL     1     -33.715  17.149  -1.536  1.00 20.00     0.082 C 
HETATM   11  C10 UNL     1     -34.713  16.790  -0.452  1.00 20.00     0.027 C 
HETATM   12 CL12 UNL     1     -33.184  18.838  -1.341  1.00 20.00    -0.125 Cl
ENDBRANCH   6  10
TORSDOF 1
ENDMDL
MODEL 4
REMARK VINA RESULT:      -4.6      2.267      4.500
REMARK  1 active torsions:
REMARK  status: ('A' for Active; 'I' for Inactive)
REMARK    1  A    between atoms: C6_6  and  C11_11 
ROOT
HETATM    1  C1  UNL     1     -34.035  13.877  -4.269  1.00 20.00     0.001 C 
HETATM    2  C2  UNL     1     -34.729  14.289  -5.561  1.00 20.00     0.006 C 
HETATM    3  C3  UNL     1     -34.151  16.796  -5.519  1.00 20.00     0.007 C 
HETATM    4  C4  UNL     1     -34.516  14.592  -3.010  1.00 20.00     0.008 C 
HETATM    5  C5  UNL     1     -33.642  16.803  -4.074  1.00 20.00     0.009 C 
HETATM    6  C6  UNL     1     -34.035  15.461  -6.264  1.00 20.00     0.003 C 
HETATM    7  C7  UNL     1     -34.547  16.144  -3.003  1.00 20.00    -0.048 C 
HETATM    8  C8  UNL     1     -36.007  16.633  -3.123  1.00 20.00     0.015 C 
HETATM    9  C9  UNL     1     -34.036  16.612  -1.617  1.00 20.00     0.015 C 
ENDROOT
BRANCH   6  10
HETATM   10  C11 UNL     1     -34.601  15.622  -7.681  1.00 20.00     0.082 C 
HETATM   11  C10 UNL     1     -35.092  17.037  -7.916  1.00 20.00     0.027 C 
HETATM   12 CL12 UNL     1     -35.937  14.466  -7.909  1.00 20.00    -0.125 Cl
ENDBRANCH   6  10
TORSDOF 1
ENDMDL
MODEL 5
REMARK VINA RESULT:      -4.6      1.270      2.161
REMARK  1 active torsions:
REMARK  status: ('A' for Active; 'I' for Inactive)
REMARK    1  A    between atoms: C6_6  and  C11_11 
ROOT
HETATM    1  C1  UNL     1     -33.231  16.863  -4.913  1.00 20.00     0.001 C 
HETATM    2  C2  UNL     1     -33.893  17.308  -3.615  1.00 20.00     0.006 C 
HETATM    3  C3  UNL     1     -35.036  15.089  -2.992  1.00 20.00     0.007 C 
HETATM    4  C4  UNL     1     -34.180  16.345  -5.989  1.00 20.00     0.008 C 
HETATM    5  C5  UNL     1     -34.797  14.417  -4.348  1.00 20.00     0.009 C 
HETATM    6  C6  UNL     1     -34.028  16.172  -2.594  1.00 20.00     0.003 C 
HETATM    7  C7  UNL     1     -35.185  15.222  -5.614  1.00 20.00    -0.048 C 
HETATM    8  C8  UNL     1     -36.603  15.818  -5.487  1.00 20.00     0.015 C 
HETATM    9  C9  UNL     1     -35.229  14.224  -6.799  1.00 20.00     0.015 C 
ENDROOT
BRANCH   6  10
HETATM   10  C11 UNL     1     -34.420  16.750  -1.228  1.00 20.00     0.082 C 
HETATM   11  C10 UNL     1     -35.731  17.508  -1.311  1.00 20.00     0.027 C 
HETATM   12 CL12 UNL     1     -33.124  17.833  -0.660  1.00 20.00    -0.125 Cl
ENDBRANCH   6  10
TORSDOF 1
ENDMDL
MODEL 6
REMARK VINA RESULT:      -4.6      2.342      4.574
REMARK  1 active torsions:
REMARK  status: ('A' for Active; 'I' for Inactive)
REMARK    1  A    between atoms: C6_6  and  C11_11 
ROOT
HETATM    1  C1  UNL     1     -36.013  14.693  -3.710  1.00 20.00     0.001 C 
HETATM    2  C2  UNL     1     -35.839  15.178  -5.143  1.00 20.00     0.006 C 
HETATM    3  C3  UNL     1     -33.454  16.121  -4.937  1.00 20.00     0.007 C 
HETATM    4  C4  UNL     1     -35.873  15.765  -2.633  1.00 20.00     0.008 C 
HETATM    5  C5  UNL     1     -33.403  16.052  -3.408  1.00 20.00     0.009 C 
HETATM    6  C6  UNL     1     -34.384  15.114  -5.622  1.00 20.00     0.003 C 
HETATM    7  C7  UNL     1     -34.601  16.655  -2.632  1.00 20.00    -0.048 C 
HETATM    8  C8  UNL     1     -34.955  18.065  -3.153  1.00 20.00     0.015 C 
HETATM    9  C9  UNL     1     -34.156  16.827  -1.158  1.00 20.00     0.015 C 
ENDROOT
BRANCH   6  10
HETATM   10  C11 UNL     1     -34.331  15.328  -7.140  1.00 20.00     0.082 C 
HETATM   11  C10 UNL     1     -34.563  16.784  -7.496  1.00 20.00     0.027 C 
HETATM   12 CL12 UNL     1     -35.565  14.305  -7.917  1.00 20.00    -0.125 Cl
ENDBRANCH   6  10
TORSDOF 1
ENDMDL
MODEL 7
REMARK VINA RESULT:      -4.5      2.663      5.360
REMARK  1 active torsions:
REMARK  status: ('A' for Active; 'I' for Inactive)
REMARK    1  A    between atoms: C6_6  and  C11_11 
ROOT
HETATM    1  C1  UNL     1     -35.973  18.692  -2.474  1.00 20.00     0.001 C 
HETATM    2  C2  UNL     1     -34.840  18.479  -3.470  1.00 20.00     0.006 C 
HETATM    3  C3  UNL     1     -33.841  16.337  -2.454  1.00 20.00     0.007 C 
HETATM    4  C4  UNL     1     -35.544  18.851  -1.018  1.00 20.00     0.008 C 
HETATM    5  C5  UNL     1     -34.631  16.415  -1.144  1.00 20.00     0.009 C 
HETATM    6  C6  UNL     1     -34.494  16.999  -3.672  1.00 20.00     0.003 C 
HETATM    7  C7  UNL     1     -34.623  17.770  -0.393  1.00 20.00    -0.048 C 
HETATM    8  C8  UNL     1     -33.189  18.327  -0.257  1.00 20.00     0.015 C 
HETATM    9  C9  UNL     1     -35.131  17.502   1.046  1.00 20.00     0.015 C 
ENDROOT
BRANCH   6  10
HETATM   10  C11 UNL     1     -33.570  16.847  -4.887  1.00 20.00     0.082 C 
HETATM   11  C10 UNL     1     -33.562  18.107  -5.730  1.00 20.00     0.027 C 
HETATM   12 CL12 UNL     1     -34.117  15.462  -5.865  1.00 20.00    -0.125 Cl
ENDBRANCH   6  10
TORSDOF 1
ENDMDL
MODEL 8
REMARK VINA RESULT:      -4.4      1.888      5.220
REMARK  1 active torsions:
REMARK  status: ('A' for Active; 'I' for Inactive)
REMARK    1  A    between atoms: C6_6  and  C11_11 
ROOT
HETATM    1  C1  UNL     1     -36.094  18.530  -2.461  1.00 20.00     0.001 C 
HETATM    2  C2  UNL     1     -35.215  17.818  -3.481  1.00 20.00     0.006 C 
HETATM    3  C3  UNL     1     -34.221  16.018  -1.934  1.00 20.00     0.007 C 
HETATM    4  C4  UNL     1     -35.362  19.104  -1.252  1.00 20.00     0.008 C 
HETATM    5  C5  UNL     1     -34.714  16.658  -0.632  1.00 20.00     0.009 C 
HETATM    6  C6  UNL     1     -35.050  16.322  -3.186  1.00 20.00     0.003 C 
HETATM    7  C7  UNL     1     -34.431  18.169  -0.435  1.00 20.00    -0.048 C 
HETATM    8  C8  UNL     1     -32.957  18.508  -0.743  1.00 20.00     0.015 C 
HETATM    9  C9  UNL     1     -34.653  18.487   1.065  1.00 20.00     0.015 C 
ENDROOT
BRANCH   6  10
HETATM   10  C11 UNL     1     -34.414  15.625  -4.395  1.00 20.00     0.082 C 
HETATM   11  C10 UNL     1     -33.805  14.293  -4.001  1.00 20.00     0.027 C 
HETATM   12 CL12 UNL     1     -33.163  16.687  -5.089  1.00 20.00    -0.125 Cl
ENDBRANCH   6  10
TORSDOF 1
ENDMDL
MODEL 9
REMARK VINA RESULT:      -4.3      2.172      4.723
REMARK  1 active torsions:
REMARK  status: ('A' for Active; 'I' for Inactive)
REMARK    1  A    between atoms: C6_6  and  C11_11 
ROOT
HETATM    1  C1  UNL     1     -33.671  18.068  -4.539  1.00 20.00     0.001 C 
HETATM    2  C2  UNL     1     -33.475  16.627  -4.995  1.00 20.00     0.006 C 
HETATM    3  C3  UNL     1     -35.741  15.677  -4.234  1.00 20.00     0.007 C 
HETATM    4  C4  UNL     1     -33.939  18.252  -3.048  1.00 20.00     0.008 C 
HETATM    5  C5  UNL     1     -36.136  16.897  -3.396  1.00 20.00     0.009 C 
HETATM    6  C6  UNL     1     -34.786  15.946  -5.402  1.00 20.00     0.003 C 
HETATM    7  C7  UNL     1     -35.085  17.437  -2.393  1.00 20.00    -0.048 C 
HETATM    8  C8  UNL     1     -34.488  16.297  -1.540  1.00 20.00     0.015 C 
HETATM    9  C9  UNL     1     -35.826  18.381  -1.413  1.00 20.00     0.015 C 
ENDROOT
BRANCH   6  10
HETATM   10  C11 UNL     1     -34.481  14.626  -6.121  1.00 20.00     0.082 C 
HETATM   11  C10 UNL     1     -35.415  14.414  -7.296  1.00 20.00     0.027 C 
HETATM   12 CL12 UNL     1     -34.642  13.282  -4.963  1.00 20.00    -0.125 Cl
ENDBRANCH   6  10
TORSDOF 1
ENDMDL
