MODEL 1
REMARK VINA RESULT:      -4.3      0.000      0.000
REMARK  1 active torsions:
REMARK  status: ('A' for Active; 'I' for Inactive)
REMARK    1  A    between atoms: C4_4  and  C9_9 
ROOT
HETATM    1  C1  UNL     1     -33.564  17.170  -4.601  1.00 20.00     0.032 C 
HETATM    2  C2  UNL     1     -33.971  15.131  -3.184  1.00 20.00     0.043 C 
HETATM    3  C3  UNL     1     -34.842  16.818  -5.344  1.00 20.00     0.169 C 
HETATM    4  C4  UNL     1     -33.555  16.610  -3.177  1.00 20.00     0.008 C 
HETATM    5  C5  UNL     1     -35.162  14.774  -4.100  1.00 20.00     0.054 C 
HETATM    6  C6  UNL     1     -36.526  15.085  -3.469  1.00 20.00     0.045 C 
HETATM    7  C7  UNL     1     -35.122  13.261  -4.384  1.00 20.00     0.045 C 
HETATM    8  O10 UNL     1     -35.040  15.408  -5.381  1.00 20.00    -0.381 OA
ENDROOT
BRANCH   4   9
HETATM    9  C9  UNL     1     -34.378  17.469  -2.217  1.00 20.00     0.082 C 
HETATM   10  C8  UNL     1     -33.677  18.781  -1.907  1.00 20.00     0.027 C 
HETATM   11 CL11 UNL     1     -34.660  16.563  -0.705  1.00 20.00    -0.125 Cl
ENDBRANCH   4   9
TORSDOF 1
ENDMDL
MODEL 2
REMARK VINA RESULT:      -4.2      2.407      3.975
REMARK  1 active torsions:
REMARK  status: ('A' for Active; 'I' for Inactive)
REMARK    1  A    between atoms: C4_4  and  C9_9 
ROOT
HETATM    1  C1  UNL     1     -34.905  17.156  -5.961  1.00 20.00     0.032 C 
HETATM    2  C2  UNL     1     -35.247  15.670  -3.958  1.00 20.00     0.043 C 
HETATM    3  C3  UNL     1     -33.541  17.497  -5.381  1.00 20.00     0.169 C 
HETATM    4  C4  UNL     1     -35.406  15.792  -5.481  1.00 20.00     0.008 C 
HETATM    5  C5  UNL     1     -33.919  16.202  -3.378  1.00 20.00     0.054 C 
HETATM    6  C6  UNL     1     -32.758  15.208  -3.511  1.00 20.00     0.045 C 
HETATM    7  C7  UNL     1     -34.118  16.478  -1.877  1.00 20.00     0.045 C 
HETATM    8  O10 UNL     1     -33.570  17.467  -3.957  1.00 20.00    -0.381 OA
ENDROOT
BRANCH   4   9
HETATM    9  C9  UNL     1     -34.763  14.640  -6.254  1.00 20.00     0.082 C 
HETATM   10  C8  UNL     1     -35.420  14.445  -7.609  1.00 20.00     0.027 C 
HETATM   11 CL11 UNL     1     -34.896  13.139  -5.297  1.00 20.00    -0.125 Cl
ENDBRANCH   4   9
TORSDOF 1
ENDMDL
MODEL 3
REMARK VINA RESULT:      -4.0      1.907      3.017
REMARK  1 active torsions:
REMARK  status: ('A' for Active; 'I' for Inactive)
REMARK    1  A    between atoms: C4_4  and  C9_9 
ROOT
HETATM    1  C1  UNL     1     -34.784  13.518  -5.239  1.00 20.00     0.032 C 
HETATM    2  C2  UNL     1     -36.557  14.694  -3.896  1.00 20.00     0.043 C 
HETATM    3  C3  UNL     1     -35.207  14.382  -6.417  1.00 20.00     0.169 C 
HETATM    4  C4  UNL     1     -35.111  14.176  -3.898  1.00 20.00     0.008 C 
HETATM    5  C5  UNL     1     -37.015  15.407  -5.187  1.00 20.00     0.054 C 
HETATM    6  C6  UNL     1     -36.562  16.870  -5.265  1.00 20.00     0.045 C 
HETATM    7  C7  UNL     1     -38.554  15.400  -5.227  1.00 20.00     0.045 C 
HETATM    8  O10 UNL     1     -36.598  14.685  -6.354  1.00 20.00    -0.381 OA
ENDROOT
BRANCH   4   9
HETATM    9  C9  UNL     1     -34.082  15.241  -3.516  1.00 20.00     0.082 C 
HETATM   10  C8  UNL     1     -32.675  14.670  -3.489  1.00 20.00     0.027 C 
HETATM   11 CL11 UNL     1     -34.492  15.911  -1.913  1.00 20.00    -0.125 Cl
ENDBRANCH   4   9
TORSDOF 1
ENDMDL
MODEL 4
REMARK VINA RESULT:      -4.0      2.442      3.908
REMARK  1 active torsions:
REMARK  status: ('A' for Active; 'I' for Inactive)
REMARK    1  A    between atoms: C4_4  and  C9_9 
ROOT
HETATM    1  C1  UNL     1     -35.775  17.216  -3.630  1.00 20.00     0.032 C 
HETATM    2  C2  UNL     1     -34.692  16.138  -1.631  1.00 20.00     0.043 C 
HETATM    3  C3  UNL     1     -35.541  18.552  -2.943  1.00 20.00     0.169 C 
HETATM    4  C4  UNL     1     -34.781  16.151  -3.165  1.00 20.00     0.008 C 
HETATM    5  C5  UNL     1     -34.644  17.523  -0.951  1.00 20.00     0.054 C 
HETATM    6  C6  UNL     1     -33.247  18.155  -0.960  1.00 20.00     0.045 C 
HETATM    7  C7  UNL     1     -35.064  17.358   0.521  1.00 20.00     0.045 C 
HETATM    8  O10 UNL     1     -35.608  18.417  -1.526  1.00 20.00    -0.381 OA
ENDROOT
BRANCH   4   9
HETATM    9  C9  UNL     1     -33.423  16.293  -3.852  1.00 20.00     0.082 C 
HETATM   10  C8  UNL     1     -33.579  16.542  -5.343  1.00 20.00     0.027 C 
HETATM   11 CL11 UNL     1     -32.466  14.810  -3.586  1.00 20.00    -0.125 Cl
ENDBRANCH   4   9
TORSDOF 1
ENDMDL
MODEL 5
REMARK VINA RESULT:      -4.0      1.887      3.896
REMARK  1 active torsions:
REMARK  status: ('A' for Active; 'I' for Inactive)
REMARK    1  A    between atoms: C4_4  and  C9_9 
ROOT
HETATM    1  C1  UNL     1     -36.207  15.711  -3.152  1.00 20.00     0.032 C 
HETATM    2  C2  UNL     1     -33.897  16.562  -2.627  1.00 20.00     0.043 C 
HETATM    3  C3  UNL     1     -36.319  16.852  -4.151  1.00 20.00     0.169 C 
HETATM    4  C4  UNL     1     -34.751  15.314  -2.897  1.00 20.00     0.008 C 
HETATM    5  C5  UNL     1     -34.171  17.773  -3.546  1.00 20.00     0.054 C 
HETATM    6  C6  UNL     1     -33.471  17.671  -4.907  1.00 20.00     0.045 C 
HETATM    7  C7  UNL     1     -33.642  19.041  -2.851  1.00 20.00     0.045 C 
HETATM    8  O10 UNL     1     -35.579  17.988  -3.715  1.00 20.00    -0.381 OA
ENDROOT
BRANCH   4   9
HETATM    9  C9  UNL     1     -34.195  14.425  -4.010  1.00 20.00     0.082 C 
HETATM   10  C8  UNL     1     -35.152  13.294  -4.348  1.00 20.00     0.027 C 
HETATM   11 CL11 UNL     1     -32.622  13.753  -3.501  1.00 20.00    -0.125 Cl
ENDBRANCH   4   9
TORSDOF 1
ENDMDL
MODEL 6
REMARK VINA RESULT:      -4.0      2.725      4.234
REMARK  1 active torsions:
REMARK  status: ('A' for Active; 'I' for Inactive)
REMARK    1  A    between atoms: C4_4  and  C9_9 
ROOT
HETATM    1  C1  UNL     1     -34.777  13.577  -5.208  1.00 20.00     0.032 C 
HETATM    2  C2  UNL     1     -33.732  15.817  -4.736  1.00 20.00     0.043 C 
HETATM    3  C3  UNL     1     -35.736  13.866  -4.063  1.00 20.00     0.169 C 
HETATM    4  C4  UNL     1     -34.226  14.860  -5.832  1.00 20.00     0.008 C 
HETATM    5  C5  UNL     1     -34.644  15.944  -3.496  1.00 20.00     0.054 C 
HETATM    6  C6  UNL     1     -35.823  16.902  -3.708  1.00 20.00     0.045 C 
HETATM    7  C7  UNL     1     -33.806  16.497  -2.330  1.00 20.00     0.045 C 
HETATM    8  O10 UNL     1     -35.108  14.659  -3.060  1.00 20.00    -0.381 OA
ENDROOT
BRANCH   4   9
HETATM    9  C9  UNL     1     -35.221  15.503  -6.797  1.00 20.00     0.082 C 
HETATM   10  C8  UNL     1     -35.610  14.547  -7.912  1.00 20.00     0.027 C 
HETATM   11 CL11 UNL     1     -34.502  16.981  -7.493  1.00 20.00    -0.125 Cl
ENDBRANCH   4   9
TORSDOF 1
ENDMDL
MODEL 7
REMARK VINA RESULT:      -4.0      1.904      2.626
REMARK  1 active torsions:
REMARK  status: ('A' for Active; 'I' for Inactive)
REMARK    1  A    between atoms: C4_4  and  C9_9 
ROOT
HETATM    1  C1  UNL     1     -36.336  16.545  -3.979  1.00 20.00     0.032 C 
HETATM    2  C2  UNL     1     -34.473  15.848  -5.520  1.00 20.00     0.043 C 
HETATM    3  C3  UNL     1     -37.041  15.256  -4.370  1.00 20.00     0.169 C 
HETATM    4  C4  UNL     1     -34.818  16.441  -4.146  1.00 20.00     0.008 C 
HETATM    5  C5  UNL     1     -35.338  14.651  -5.971  1.00 20.00     0.054 C 
HETATM    6  C6  UNL     1     -34.893  13.317  -5.358  1.00 20.00     0.045 C 
HETATM    7  C7  UNL     1     -35.224  14.515  -7.500  1.00 20.00     0.045 C 
HETATM    8  O10 UNL     1     -36.728  14.889  -5.710  1.00 20.00    -0.381 OA
ENDROOT
BRANCH   4   9
HETATM    9  C9  UNL     1     -34.162  15.701  -2.981  1.00 20.00     0.082 C 
HETATM   10  C8  UNL     1     -34.015  16.598  -1.764  1.00 20.00     0.027 C 
HETATM   11 CL11 UNL     1     -32.557  15.105  -3.488  1.00 20.00    -0.125 Cl
ENDBRANCH   4   9
TORSDOF 1
ENDMDL
MODEL 8
REMARK VINA RESULT:      -4.0      1.992      2.992
REMARK  1 active torsions:
REMARK  status: ('A' for Active; 'I' for Inactive)
REMARK    1  A    between atoms: C4_4  and  C9_9 
ROOT
HETATM    1  C1  UNL     1     -34.962  14.077  -3.560  1.00 20.00     0.032 C 
HETATM    2  C2  UNL     1     -36.053  15.733  -5.109  1.00 20.00     0.043 C 
HETATM    3  C3  UNL     1     -34.236  13.528  -4.778  1.00 20.00     0.169 C 
HETATM    4  C4  UNL     1     -35.370  15.540  -3.747  1.00 20.00     0.008 C 
HETATM    5  C5  UNL     1     -35.393  15.003  -6.300  1.00 20.00     0.054 C 
HETATM    6  C6  UNL     1     -34.185  15.753  -6.875  1.00 20.00     0.045 C 
HETATM    7  C7  UNL     1     -36.432  14.872  -7.428  1.00 20.00     0.045 C 
HETATM    8  O10 UNL     1     -35.035  13.659  -5.950  1.00 20.00    -0.381 OA
ENDROOT
BRANCH   4   9
HETATM    9  C9  UNL     1     -34.201  16.496  -3.512  1.00 20.00     0.082 C 
HETATM   10  C8  UNL     1     -33.864  16.609  -2.035  1.00 20.00     0.027 C 
HETATM   11 CL11 UNL     1     -34.615  18.107  -4.160  1.00 20.00    -0.125 Cl
ENDBRANCH   4   9
TORSDOF 1
ENDMDL
MODEL 9
REMARK VINA RESULT:      -3.9      2.878      4.319
REMARK  1 active torsions:
REMARK  status: ('A' for Active; 'I' for Inactive)
REMARK    1  A    between atoms: C4_4  and  C9_9 
ROOT
HETATM    1  C1  UNL     1     -36.585  14.700  -4.050  1.00 20.00     0.032 C 
HETATM    2  C2  UNL     1     -34.353  14.039  -5.006  1.00 20.00     0.043 C 
HETATM    3  C3  UNL     1     -35.850  15.787  -3.281  1.00 20.00     0.169 C 
HETATM    4  C4  UNL     1     -35.836  14.290  -5.319  1.00 20.00     0.008 C 
HETATM    5  C5  UNL     1     -33.683  15.066  -4.066  1.00 20.00     0.054 C 
HETATM    6  C6  UNL     1     -33.246  16.349  -4.784  1.00 20.00     0.045 C 
HETATM    7  C7  UNL     1     -32.421  14.423  -3.464  1.00 20.00     0.045 C 
HETATM    8  O10 UNL     1     -34.528  15.373  -2.948  1.00 20.00    -0.381 OA
ENDROOT
BRANCH   4   9
HETATM    9  C9  UNL     1     -36.058  15.281  -6.462  1.00 20.00     0.082 C 
HETATM   10  C8  UNL     1     -37.482  15.213  -6.987  1.00 20.00     0.027 C 
HETATM   11 CL11 UNL     1     -34.911  14.927  -7.783  1.00 20.00    -0.125 Cl
ENDBRANCH   4   9
TORSDOF 1
ENDMDL
