MODEL 1
REMARK VINA RESULT:      -4.1      0.000      0.000
REMARK  2 active torsions:
REMARK  status: ('A' for Active; 'I' for Inactive)
REMARK    1  A    between atoms: C2_2  and  C3_3 
REMARK    2  A    between atoms: C2_2  and  N4_4 
ROOT
HETATM    1  C1  UNL     1     -33.157   6.234   3.606  1.00 20.00     0.332 C 
HETATM    2  N4  UNL     1     -34.243   6.384   4.025  1.00 20.00    -0.242 NA
HETATM    3  O5  UNL     1     -32.068   6.086   3.184  1.00 20.00    -0.260 OA
ENDROOT
BRANCH   2   4
HETATM    4  C2  UNL     1     -34.903   5.147   4.448  1.00 20.00     0.224 C 
BRANCH   4   5
HETATM    5  C3  UNL     1     -34.584   4.889   5.903  1.00 20.00     0.372 C 
HETATM    6  F6  UNL     1     -35.459   3.992   6.419  1.00 20.00    -0.213 F 
HETATM    7  F7  UNL     1     -34.715   6.032   6.619  1.00 20.00    -0.213 F 
ENDBRANCH   4   5
ENDBRANCH   2   4
TORSDOF 2
ENDMDL
MODEL 2
REMARK VINA RESULT:      -4.1      0.619      1.165
REMARK  2 active torsions:
REMARK  status: ('A' for Active; 'I' for Inactive)
REMARK    1  A    between atoms: C2_2  and  C3_3 
REMARK    2  A    between atoms: C2_2  and  N4_4 
ROOT
HETATM    1  C1  UNL     1     -33.133   6.191   3.668  1.00 20.00     0.332 C 
HETATM    2  N4  UNL     1     -34.121   6.359   4.278  1.00 20.00    -0.242 NA
HETATM    3  O5  UNL     1     -32.142   6.025   3.056  1.00 20.00    -0.260 OA
ENDROOT
BRANCH   2   4
HETATM    4  C2  UNL     1     -34.976   5.175   4.382  1.00 20.00     0.224 C 
BRANCH   4   5
HETATM    5  C3  UNL     1     -35.022   4.722   5.822  1.00 20.00     0.372 C 
HETATM    6  F6  UNL     1     -34.856   5.782   6.650  1.00 20.00    -0.213 F 
HETATM    7  F7  UNL     1     -34.007   3.858   6.072  1.00 20.00    -0.213 F 
ENDBRANCH   4   5
ENDBRANCH   2   4
TORSDOF 2
ENDMDL
MODEL 3
REMARK VINA RESULT:      -4.1      2.772      3.080
REMARK  2 active torsions:
REMARK  status: ('A' for Active; 'I' for Inactive)
REMARK    1  A    between atoms: C2_2  and  C3_3 
REMARK    2  A    between atoms: C2_2  and  N4_4 
ROOT
HETATM    1  C1  UNL     1     -34.411   5.811   6.341  1.00 20.00     0.332 C 
HETATM    2  N4  UNL     1     -35.100   4.885   6.130  1.00 20.00    -0.242 NA
HETATM    3  O5  UNL     1     -33.722   6.740   6.555  1.00 20.00    -0.260 OA
ENDROOT
BRANCH   2   4
HETATM    4  C2  UNL     1     -34.982   4.340   4.776  1.00 20.00     0.224 C 
BRANCH   4   5
HETATM    5  C3  UNL     1     -35.009   5.477   3.781  1.00 20.00     0.372 C 
HETATM    6  F6  UNL     1     -36.283   5.733   3.400  1.00 20.00    -0.213 F 
HETATM    7  F7  UNL     1     -34.320   5.135   2.665  1.00 20.00    -0.213 F 
ENDBRANCH   4   5
ENDBRANCH   2   4
TORSDOF 2
ENDMDL
MODEL 4
REMARK VINA RESULT:      -3.9      1.448      1.480
REMARK  2 active torsions:
REMARK  status: ('A' for Active; 'I' for Inactive)
REMARK    1  A    between atoms: C2_2  and  C3_3 
REMARK    2  A    between atoms: C2_2  and  N4_4 
ROOT
HETATM    1  C1  UNL     1     -32.620   6.872   3.072  1.00 20.00     0.332 C 
HETATM    2  N4  UNL     1     -33.325   6.002   3.422  1.00 20.00    -0.242 NA
HETATM    3  O5  UNL     1     -31.912   7.743   2.718  1.00 20.00    -0.260 OA
ENDROOT
BRANCH   2   4
HETATM    4  C2  UNL     1     -33.877   6.177   4.767  1.00 20.00     0.224 C 
BRANCH   4   5
HETATM    5  C3  UNL     1     -34.797   5.019   5.079  1.00 20.00     0.372 C 
HETATM    6  F6  UNL     1     -35.911   5.089   4.311  1.00 20.00    -0.213 F 
HETATM    7  F7  UNL     1     -35.200   5.080   6.372  1.00 20.00    -0.213 F 
ENDBRANCH   4   5
ENDBRANCH   2   4
TORSDOF 2
ENDMDL
MODEL 5
REMARK VINA RESULT:      -3.8      1.162      1.423
REMARK  2 active torsions:
REMARK  status: ('A' for Active; 'I' for Inactive)
REMARK    1  A    between atoms: C2_2  and  C3_3 
REMARK    2  A    between atoms: C2_2  and  N4_4 
ROOT
HETATM    1  C1  UNL     1     -32.870   6.536   3.338  1.00 20.00     0.332 C 
HETATM    2  N4  UNL     1     -33.740   5.853   3.731  1.00 20.00    -0.242 NA
HETATM    3  O5  UNL     1     -31.998   7.219   2.942  1.00 20.00    -0.260 OA
ENDROOT
BRANCH   2   4
HETATM    4  C2  UNL     1     -34.116   6.096   5.126  1.00 20.00     0.224 C 
BRANCH   4   5
HETATM    5  C3  UNL     1     -34.907   4.915   5.638  1.00 20.00     0.372 C 
HETATM    6  F6  UNL     1     -34.150   4.181   6.490  1.00 20.00    -0.213 F 
HETATM    7  F7  UNL     1     -35.250   4.102   4.609  1.00 20.00    -0.213 F 
ENDBRANCH   4   5
ENDBRANCH   2   4
TORSDOF 2
ENDMDL
MODEL 6
REMARK VINA RESULT:      -3.8      3.166      3.658
REMARK  2 active torsions:
REMARK  status: ('A' for Active; 'I' for Inactive)
REMARK    1  A    between atoms: C2_2  and  C3_3 
REMARK    2  A    between atoms: C2_2  and  N4_4 
ROOT
HETATM    1  C1  UNL     1     -35.053   4.563   4.576  1.00 20.00     0.332 C 
HETATM    2  N4  UNL     1     -34.965   5.524   3.908  1.00 20.00    -0.242 NA
HETATM    3  O5  UNL     1     -35.144   3.599   5.245  1.00 20.00    -0.260 OA
ENDROOT
BRANCH   2   4
HETATM    4  C2  UNL     1     -33.809   6.369   4.215  1.00 20.00     0.224 C 
BRANCH   4   5
HETATM    5  C3  UNL     1     -32.865   6.364   3.034  1.00 20.00     0.372 C 
HETATM    6  F6  UNL     1     -31.715   5.726   3.360  1.00 20.00    -0.213 F 
HETATM    7  F7  UNL     1     -32.534   7.635   2.697  1.00 20.00    -0.213 F 
ENDBRANCH   4   5
ENDBRANCH   2   4
TORSDOF 2
ENDMDL
MODEL 7
REMARK VINA RESULT:      -3.7      3.295      3.873
REMARK  2 active torsions:
REMARK  status: ('A' for Active; 'I' for Inactive)
REMARK    1  A    between atoms: C2_2  and  C3_3 
REMARK    2  A    between atoms: C2_2  and  N4_4 
ROOT
HETATM    1  C1  UNL     1     -34.592   5.171   5.721  1.00 20.00     0.332 C 
HETATM    2  N4  UNL     1     -34.025   6.131   5.353  1.00 20.00    -0.242 NA
HETATM    3  O5  UNL     1     -35.159   4.209   6.092  1.00 20.00    -0.260 OA
ENDROOT
BRANCH   2   4
HETATM    4  C2  UNL     1     -33.940   6.261   3.897  1.00 20.00     0.224 C 
BRANCH   4   5
HETATM    5  C3  UNL     1     -32.527   6.638   3.516  1.00 20.00     0.372 C 
HETATM    6  F6  UNL     1     -32.537   7.722   2.703  1.00 20.00    -0.213 F 
HETATM    7  F7  UNL     1     -31.946   5.627   2.824  1.00 20.00    -0.213 F 
ENDBRANCH   4   5
ENDBRANCH   2   4
TORSDOF 2
ENDMDL
MODEL 8
REMARK VINA RESULT:      -3.7      2.544      2.743
REMARK  2 active torsions:
REMARK  status: ('A' for Active; 'I' for Inactive)
REMARK    1  A    between atoms: C2_2  and  C3_3 
REMARK    2  A    between atoms: C2_2  and  N4_4 
ROOT
HETATM    1  C1  UNL     1     -32.258   7.410   2.721  1.00 20.00     0.332 C 
HETATM    2  N4  UNL     1     -32.470   6.415   3.306  1.00 20.00    -0.242 NA
HETATM    3  O5  UNL     1     -32.042   8.407   2.135  1.00 20.00    -0.260 OA
ENDROOT
BRANCH   2   4
HETATM    4  C2  UNL     1     -33.725   6.414   4.061  1.00 20.00     0.224 C 
BRANCH   4   5
HETATM    5  C3  UNL     1     -34.609   5.301   3.550  1.00 20.00     0.372 C 
HETATM    6  F6  UNL     1     -34.253   4.965   2.286  1.00 20.00    -0.213 F 
HETATM    7  F7  UNL     1     -35.899   5.715   3.503  1.00 20.00    -0.213 F 
ENDBRANCH   4   5
ENDBRANCH   2   4
TORSDOF 2
ENDMDL
MODEL 9
REMARK VINA RESULT:      -3.6      3.190      3.695
REMARK  2 active torsions:
REMARK  status: ('A' for Active; 'I' for Inactive)
REMARK    1  A    between atoms: C2_2  and  C3_3 
REMARK    2  A    between atoms: C2_2  and  N4_4 
ROOT
HETATM    1  C1  UNL     1     -34.111   6.105   5.842  1.00 20.00     0.332 C 
HETATM    2  N4  UNL     1     -34.177   5.341   4.954  1.00 20.00    -0.242 NA
HETATM    3  O5  UNL     1     -34.046   6.869   6.735  1.00 20.00    -0.260 OA
ENDROOT
BRANCH   2   4
HETATM    4  C2  UNL     1     -34.032   5.944   3.627  1.00 20.00     0.224 C 
BRANCH   4   5
HETATM    5  C3  UNL     1     -32.655   6.555   3.509  1.00 20.00     0.372 C 
HETATM    6  F6  UNL     1     -32.646   7.501   2.538  1.00 20.00    -0.213 F 
HETATM    7  F7  UNL     1     -31.754   5.607   3.150  1.00 20.00    -0.213 F 
ENDBRANCH   4   5
ENDBRANCH   2   4
TORSDOF 2
ENDMDL
