MODEL 1
REMARK VINA RESULT:      -4.5      0.000      0.000
REMARK  2 active torsions:
REMARK  status: ('A' for Active; 'I' for Inactive)
REMARK    1  A    between atoms: C4_4  and  C9_9 
REMARK    2  A    between atoms: C5_5  and  C8_8 
ROOT
HETATM    1  C1  UNL     1     -34.161  16.692  -4.840  1.00 20.00     0.032 C 
HETATM    2  C2  UNL     1     -34.367  15.375  -2.707  1.00 20.00     0.038 C 
HETATM    3  C3  UNL     1     -33.756  17.929  -4.037  1.00 20.00     0.168 C 
HETATM    4  C4  UNL     1     -33.749  15.413  -4.115  1.00 20.00     0.008 C 
HETATM    5  C5  UNL     1     -34.656  16.780  -2.160  1.00 20.00     0.121 C 
HETATM    6  O10 UNL     1     -33.664  17.691  -2.629  1.00 20.00    -0.386 OA
ENDROOT
BRANCH   4   7
HETATM    7  C9  UNL     1     -34.118  14.168  -4.915  1.00 20.00     0.082 C 
HETATM    8  C7  UNL     1     -35.264  13.412  -4.264  1.00 20.00     0.027 C 
HETATM    9 CL11 UNL     1     -34.573  14.645  -6.572  1.00 20.00    -0.125 Cl
ENDBRANCH   4   7
BRANCH   5  10
HETATM   10  C8  UNL     1     -34.646  16.796  -0.638  1.00 20.00     0.027 C 
HETATM   11  C6  UNL     1     -33.830  17.928  -0.100  1.00 20.00     0.007 C 
ENDBRANCH   5  10
TORSDOF 2
ENDMDL
MODEL 2
REMARK VINA RESULT:      -4.3      2.421      4.220
REMARK  2 active torsions:
REMARK  status: ('A' for Active; 'I' for Inactive)
REMARK    1  A    between atoms: C4_4  and  C9_9 
REMARK    2  A    between atoms: C5_5  and  C8_8 
ROOT
HETATM    1  C1  UNL     1     -33.640  17.947  -3.782  1.00 20.00     0.032 C 
HETATM    2  C2  UNL     1     -34.098  15.799  -2.557  1.00 20.00     0.038 C 
HETATM    3  C3  UNL     1     -33.635  17.189  -5.110  1.00 20.00     0.168 C 
HETATM    4  C4  UNL     1     -34.545  17.257  -2.763  1.00 20.00     0.008 C 
HETATM    5  C5  UNL     1     -33.367  15.235  -3.782  1.00 20.00     0.121 C 
HETATM    6  O10 UNL     1     -33.920  15.794  -4.971  1.00 20.00    -0.386 OA
ENDROOT
BRANCH   4   7
HETATM    7  C9  UNL     1     -34.587  18.017  -1.442  1.00 20.00     0.082 C 
HETATM    8  C7  UNL     1     -34.707  17.067  -0.262  1.00 20.00     0.027 C 
HETATM    9 CL11 UNL     1     -33.109  19.000  -1.278  1.00 20.00    -0.125 Cl
ENDBRANCH   4   7
BRANCH   5  10
HETATM   10  C8  UNL     1     -33.493  13.720  -3.855  1.00 20.00     0.027 C 
HETATM   11  C6  UNL     1     -34.739  13.301  -4.568  1.00 20.00     0.007 C 
ENDBRANCH   5  10
TORSDOF 2
ENDMDL
MODEL 3
REMARK VINA RESULT:      -4.3      2.691      4.892
REMARK  2 active torsions:
REMARK  status: ('A' for Active; 'I' for Inactive)
REMARK    1  A    between atoms: C4_4  and  C9_9 
REMARK    2  A    between atoms: C5_5  and  C8_8 
ROOT
HETATM    1  C1  UNL     1     -34.645  14.780  -2.896  1.00 20.00     0.032 C 
HETATM    2  C2  UNL     1     -33.911  16.305  -4.756  1.00 20.00     0.038 C 
HETATM    3  C3  UNL     1     -34.602  13.589  -3.855  1.00 20.00     0.168 C 
HETATM    4  C4  UNL     1     -33.640  15.852  -3.311  1.00 20.00     0.008 C 
HETATM    5  C5  UNL     1     -34.608  15.219  -5.586  1.00 20.00     0.121 C 
HETATM    6  O10 UNL     1     -34.156  13.932  -5.170  1.00 20.00    -0.386 OA
ENDROOT
BRANCH   4   7
HETATM    7  C9  UNL     1     -33.647  17.034  -2.349  1.00 20.00     0.082 C 
HETATM    8  C7  UNL     1     -34.146  18.298  -3.029  1.00 20.00     0.027 C 
HETATM    9 CL11 UNL     1     -34.685  16.651  -0.951  1.00 20.00    -0.125 Cl
ENDBRANCH   4   7
BRANCH   5  10
HETATM   10  C8  UNL     1     -34.312  15.378  -7.071  1.00 20.00     0.027 C 
HETATM   11  C6  UNL     1     -35.304  14.647  -7.917  1.00 20.00     0.007 C 
ENDBRANCH   5  10
TORSDOF 2
ENDMDL
MODEL 4
REMARK VINA RESULT:      -4.1      2.770      4.697
REMARK  2 active torsions:
REMARK  status: ('A' for Active; 'I' for Inactive)
REMARK    1  A    between atoms: C4_4  and  C9_9 
REMARK    2  A    between atoms: C5_5  and  C8_8 
ROOT
HETATM    1  C1  UNL     1     -36.082  17.505  -2.102  1.00 20.00     0.032 C 
HETATM    2  C2  UNL     1     -33.769  16.562  -1.805  1.00 20.00     0.038 C 
HETATM    3  C3  UNL     1     -36.388  16.427  -3.143  1.00 20.00     0.168 C 
HETATM    4  C4  UNL     1     -35.055  17.006  -1.087  1.00 20.00     0.008 C 
HETATM    5  C5  UNL     1     -34.032  16.124  -3.252  1.00 20.00     0.121 C 
HETATM    6  O10 UNL     1     -35.313  15.504  -3.342  1.00 20.00    -0.386 OA
ENDROOT
BRANCH   4   7
HETATM    7  C9  UNL     1     -34.760  18.057  -0.022  1.00 20.00     0.082 C 
HETATM    8  C7  UNL     1     -35.226  17.599   1.350  1.00 20.00     0.027 C 
HETATM    9 CL11 UNL     1     -33.008  18.385   0.014  1.00 20.00    -0.125 Cl
ENDBRANCH   4   7
BRANCH   5  10
HETATM   10  C8  UNL     1     -32.981  15.133  -3.732  1.00 20.00     0.027 C 
HETATM   11  C6  UNL     1     -33.527  13.744  -3.820  1.00 20.00     0.007 C 
ENDBRANCH   5  10
TORSDOF 2
ENDMDL
MODEL 5
REMARK VINA RESULT:      -4.1      2.148      3.072
REMARK  2 active torsions:
REMARK  status: ('A' for Active; 'I' for Inactive)
REMARK    1  A    between atoms: C4_4  and  C9_9 
REMARK    2  A    between atoms: C5_5  and  C8_8 
ROOT
HETATM    1  C1  UNL     1     -34.791  13.808  -5.561  1.00 20.00     0.032 C 
HETATM    2  C2  UNL     1     -34.896  16.140  -4.625  1.00 20.00     0.038 C 
HETATM    3  C3  UNL     1     -34.423  13.269  -4.178  1.00 20.00     0.168 C 
HETATM    4  C4  UNL     1     -35.640  15.072  -5.446  1.00 20.00     0.008 C 
HETATM    5  C5  UNL     1     -33.890  15.524  -3.644  1.00 20.00     0.121 C 
HETATM    6  O10 UNL     1     -34.389  14.277  -3.164  1.00 20.00    -0.386 OA
ENDROOT
BRANCH   4   7
HETATM    7  C9  UNL     1     -36.042  15.607  -6.816  1.00 20.00     0.082 C 
HETATM    8  C7  UNL     1     -35.138  15.063  -7.909  1.00 20.00     0.027 C 
HETATM    9 CL11 UNL     1     -37.734  15.158  -7.152  1.00 20.00    -0.125 Cl
ENDBRANCH   4   7
BRANCH   5  10
HETATM   10  C8  UNL     1     -33.645  16.438  -2.452  1.00 20.00     0.027 C 
HETATM   11  C6  UNL     1     -34.726  16.314  -1.426  1.00 20.00     0.007 C 
ENDBRANCH   5  10
TORSDOF 2
ENDMDL
MODEL 6
REMARK VINA RESULT:      -4.0      3.244      5.205
REMARK  2 active torsions:
REMARK  status: ('A' for Active; 'I' for Inactive)
REMARK    1  A    between atoms: C4_4  and  C9_9 
REMARK    2  A    between atoms: C5_5  and  C8_8 
ROOT
HETATM    1  C1  UNL     1     -34.702  16.874  -0.801  1.00 20.00     0.032 C 
HETATM    2  C2  UNL     1     -33.483  18.627  -2.129  1.00 20.00     0.038 C 
HETATM    3  C3  UNL     1     -34.681  15.940  -2.012  1.00 20.00     0.168 C 
HETATM    4  C4  UNL     1     -33.503  17.820  -0.820  1.00 20.00     0.008 C 
HETATM    5  C5  UNL     1     -34.191  17.893  -3.276  1.00 20.00     0.121 C 
HETATM    6  O10 UNL     1     -33.995  16.487  -3.141  1.00 20.00    -0.386 OA
ENDROOT
BRANCH   4   7
HETATM    7  C9  UNL     1     -33.491  18.738   0.398  1.00 20.00     0.082 C 
HETATM    8  C7  UNL     1     -34.340  18.174   1.524  1.00 20.00     0.027 C 
HETATM    9 CL11 UNL     1     -31.812  18.954   0.957  1.00 20.00    -0.125 Cl
ENDBRANCH   4   7
BRANCH   5  10
HETATM   10  C8  UNL     1     -33.650  18.329  -4.631  1.00 20.00     0.027 C 
HETATM   11  C6  UNL     1     -33.617  17.196  -5.606  1.00 20.00     0.007 C 
ENDBRANCH   5  10
TORSDOF 2
ENDMDL
MODEL 7
REMARK VINA RESULT:      -4.0     12.560     14.127
REMARK  2 active torsions:
REMARK  status: ('A' for Active; 'I' for Inactive)
REMARK    1  A    between atoms: C4_4  and  C9_9 
REMARK    2  A    between atoms: C5_5  and  C8_8 
ROOT
HETATM    1  C1  UNL     1     -41.653   5.930  -1.097  1.00 20.00     0.032 C 
HETATM    2  C2  UNL     1     -42.902   4.794  -2.962  1.00 20.00     0.038 C 
HETATM    3  C3  UNL     1     -40.705   4.734  -1.003  1.00 20.00     0.168 C 
HETATM    4  C4  UNL     1     -42.195   6.086  -2.517  1.00 20.00     0.008 C 
HETATM    5  C5  UNL     1     -42.365   3.555  -2.231  1.00 20.00     0.121 C 
HETATM    6  O10 UNL     1     -40.972   3.716  -1.972  1.00 20.00    -0.386 OA
ENDROOT
BRANCH   4   7
HETATM    7  C9  UNL     1     -43.120   7.293  -2.637  1.00 20.00     0.082 C 
HETATM    8  C7  UNL     1     -43.240   8.030  -1.315  1.00 20.00     0.027 C 
HETATM    9 CL11 UNL     1     -42.490   8.395  -3.889  1.00 20.00    -0.125 Cl
ENDBRANCH   4   7
BRANCH   5  10
HETATM   10  C8  UNL     1     -42.560   2.294  -3.061  1.00 20.00     0.027 C 
HETATM   11  C6  UNL     1     -41.318   1.922  -3.806  1.00 20.00     0.007 C 
ENDBRANCH   5  10
TORSDOF 2
ENDMDL
MODEL 8
REMARK VINA RESULT:      -4.0      1.691      2.275
REMARK  2 active torsions:
REMARK  status: ('A' for Active; 'I' for Inactive)
REMARK    1  A    between atoms: C4_4  and  C9_9 
REMARK    2  A    between atoms: C5_5  and  C8_8 
ROOT
HETATM    1  C1  UNL     1     -33.781  18.051  -3.094  1.00 20.00     0.032 C 
HETATM    2  C2  UNL     1     -34.645  16.371  -1.434  1.00 20.00     0.038 C 
HETATM    3  C3  UNL     1     -33.365  18.972  -1.946  1.00 20.00     0.168 C 
HETATM    4  C4  UNL     1     -33.742  16.587  -2.661  1.00 20.00     0.008 C 
HETATM    5  C5  UNL     1     -34.816  17.651  -0.604  1.00 20.00     0.121 C 
HETATM    6  O10 UNL     1     -33.615  18.418  -0.651  1.00 20.00    -0.386 OA
ENDROOT
BRANCH   4   7
HETATM    7  C9  UNL     1     -34.126  15.651  -3.802  1.00 20.00     0.082 C 
HETATM    8  C7  UNL     1     -33.674  16.203  -5.144  1.00 20.00     0.027 C 
HETATM    9 CL11 UNL     1     -33.388  14.052  -3.527  1.00 20.00    -0.125 Cl
ENDBRANCH   4   7
BRANCH   5  10
HETATM   10  C8  UNL     1     -35.129  17.331   0.851  1.00 20.00     0.027 C 
HETATM   11  C6  UNL     1     -34.516  18.327   1.783  1.00 20.00     0.007 C 
ENDBRANCH   5  10
TORSDOF 2
ENDMDL
MODEL 9
REMARK VINA RESULT:      -4.0      2.290      2.993
REMARK  2 active torsions:
REMARK  status: ('A' for Active; 'I' for Inactive)
REMARK    1  A    between atoms: C4_4  and  C9_9 
REMARK    2  A    between atoms: C5_5  and  C8_8 
ROOT
HETATM    1  C1  UNL     1     -35.593  14.234  -5.045  1.00 20.00     0.032 C 
HETATM    2  C2  UNL     1     -35.927  15.745  -3.063  1.00 20.00     0.038 C 
HETATM    3  C3  UNL     1     -34.154  13.967  -4.599  1.00 20.00     0.168 C 
HETATM    4  C4  UNL     1     -36.486  14.545  -3.846  1.00 20.00     0.008 C 
HETATM    5  C5  UNL     1     -34.410  15.901  -3.241  1.00 20.00     0.121 C 
HETATM    6  O10 UNL     1     -33.807  14.616  -3.373  1.00 20.00    -0.386 OA
ENDROOT
BRANCH   4   7
HETATM    7  C9  UNL     1     -37.932  14.785  -4.269  1.00 20.00     0.082 C 
HETATM    8  C7  UNL     1     -38.585  15.861  -3.418  1.00 20.00     0.027 C 
HETATM    9 CL11 UNL     1     -37.973  15.264  -5.985  1.00 20.00    -0.125 Cl
ENDBRANCH   4   7
BRANCH   5  10
HETATM   10  C8  UNL     1     -33.781  16.611  -2.051  1.00 20.00     0.027 C 
HETATM   11  C6  UNL     1     -34.682  16.600  -0.858  1.00 20.00     0.007 C 
ENDBRANCH   5  10
TORSDOF 2
ENDMDL
