MODEL 1
REMARK VINA RESULT:      -4.9      0.000      0.000
REMARK  1 active torsions:
REMARK  status: ('A' for Active; 'I' for Inactive)
REMARK    1  A    between atoms: C1_1  and  C7_7 
ROOT
HETATM    1  C2  UNL     1     -33.679  18.655  -3.326  1.00 20.00     0.002 C 
HETATM    2  C3  UNL     1     -33.306  19.211  -1.958  1.00 20.00     0.012 C 
HETATM    3  C4  UNL     1     -34.404  17.486  -0.456  1.00 20.00     0.013 C 
HETATM    4  C5  UNL     1     -34.933  17.779  -3.366  1.00 20.00     0.008 C 
HETATM    5  C6  UNL     1     -34.779  16.243  -1.261  1.00 20.00     0.009 C 
HETATM    6  C7  UNL     1     -33.098  18.156  -0.873  1.00 20.00     0.055 C 
HETATM    7  C8  UNL     1     -34.806  16.336  -2.811  1.00 20.00    -0.048 C 
HETATM    8  C10 UNL     1     -33.572  15.618  -3.397  1.00 20.00     0.015 C 
HETATM    9  C11 UNL     1     -36.048  15.546  -3.301  1.00 20.00     0.015 C 
ENDROOT
BRANCH   6  10
HETATM   10  C1  UNL     1     -32.504  18.844   0.322  1.00 20.00     0.127 C 
HETATM   11  C9  UNL     1     -33.394  18.995   1.526  1.00 20.00     0.091 C 
HETATM   12  O12 UNL     1     -31.348  19.263   0.318  1.00 20.00    -0.298 OA
ENDBRANCH   6  10
TORSDOF 1
ENDMDL
MODEL 2
REMARK VINA RESULT:      -4.9      2.569      4.154
REMARK  1 active torsions:
REMARK  status: ('A' for Active; 'I' for Inactive)
REMARK    1  A    between atoms: C1_1  and  C7_7 
ROOT
HETATM    1  C2  UNL     1     -35.091  13.912  -3.985  1.00 20.00     0.002 C 
HETATM    2  C3  UNL     1     -34.458  14.892  -3.006  1.00 20.00     0.012 C 
HETATM    3  C4  UNL     1     -33.724  16.718  -4.606  1.00 20.00     0.013 C 
HETATM    4  C5  UNL     1     -34.582  13.993  -5.426  1.00 20.00     0.008 C 
HETATM    5  C6  UNL     1     -34.406  16.541  -5.962  1.00 20.00     0.009 C 
HETATM    6  C7  UNL     1     -34.586  16.362  -3.399  1.00 20.00     0.055 C 
HETATM    7  C8  UNL     1     -35.082  15.182  -6.287  1.00 20.00    -0.048 C 
HETATM    8  C10 UNL     1     -36.617  15.330  -6.199  1.00 20.00     0.015 C 
HETATM    9  C11 UNL     1     -34.758  14.845  -7.766  1.00 20.00     0.015 C 
ENDROOT
BRANCH   6  10
HETATM   10  C1  UNL     1     -34.138  17.186  -2.226  1.00 20.00     0.127 C 
HETATM   11  C9  UNL     1     -34.522  16.683  -0.860  1.00 20.00     0.091 C 
HETATM   12  O12 UNL     1     -33.488  18.220  -2.373  1.00 20.00    -0.298 OA
ENDBRANCH   6  10
TORSDOF 1
ENDMDL
MODEL 3
REMARK VINA RESULT:      -4.8      2.984      5.291
REMARK  1 active torsions:
REMARK  status: ('A' for Active; 'I' for Inactive)
REMARK    1  A    between atoms: C1_1  and  C7_7 
ROOT
HETATM    1  C2  UNL     1     -36.585  16.893  -3.045  1.00 20.00     0.002 C 
HETATM    2  C3  UNL     1     -36.301  15.813  -4.080  1.00 20.00     0.012 C 
HETATM    3  C4  UNL     1     -33.773  15.684  -3.915  1.00 20.00     0.013 C 
HETATM    4  C5  UNL     1     -35.435  17.864  -2.767  1.00 20.00     0.008 C 
HETATM    5  C6  UNL     1     -33.287  16.387  -2.648  1.00 20.00     0.009 C 
HETATM    6  C7  UNL     1     -35.092  14.932  -3.770  1.00 20.00     0.055 C 
HETATM    7  C8  UNL     1     -34.259  17.340  -1.902  1.00 20.00    -0.048 C 
HETATM    8  C10 UNL     1     -34.773  16.657  -0.616  1.00 20.00     0.015 C 
HETATM    9  C11 UNL     1     -33.439  18.575  -1.447  1.00 20.00     0.015 C 
ENDROOT
BRANCH   6  10
HETATM   10  C1  UNL     1     -35.105  13.787  -4.742  1.00 20.00     0.127 C 
HETATM   11  C9  UNL     1     -35.155  14.141  -6.203  1.00 20.00     0.091 C 
HETATM   12  O12 UNL     1     -35.074  12.617  -4.362  1.00 20.00    -0.298 OA
ENDBRANCH   6  10
TORSDOF 1
ENDMDL
MODEL 4
REMARK VINA RESULT:      -4.7     13.700     16.316
REMARK  1 active torsions:
REMARK  status: ('A' for Active; 'I' for Inactive)
REMARK    1  A    between atoms: C1_1  and  C7_7 
ROOT
HETATM    1  C2  UNL     1     -43.417   5.615  -2.936  1.00 20.00     0.002 C 
HETATM    2  C3  UNL     1     -43.089   4.211  -3.427  1.00 20.00     0.012 C 
HETATM    3  C4  UNL     1     -40.963   3.761  -2.120  1.00 20.00     0.013 C 
HETATM    4  C5  UNL     1     -42.229   6.433  -2.425  1.00 20.00     0.008 C 
HETATM    5  C6  UNL     1     -40.809   4.779  -0.990  1.00 20.00     0.009 C 
HETATM    6  C7  UNL     1     -42.396   3.319  -2.398  1.00 20.00     0.055 C 
HETATM    7  C8  UNL     1     -41.670   6.070  -1.025  1.00 20.00    -0.048 C 
HETATM    8  C10 UNL     1     -42.802   5.968   0.020  1.00 20.00     0.015 C 
HETATM    9  C11 UNL     1     -40.762   7.245  -0.575  1.00 20.00     0.015 C 
ENDROOT
BRANCH   6  10
HETATM   10  C1  UNL     1     -42.373   1.923  -2.951  1.00 20.00     0.127 C 
HETATM   11  C9  UNL     1     -41.361   1.639  -4.028  1.00 20.00     0.091 C 
HETATM   12  O12 UNL     1     -43.141   1.054  -2.543  1.00 20.00    -0.298 OA
ENDBRANCH   6  10
TORSDOF 1
ENDMDL
MODEL 5
REMARK VINA RESULT:      -4.7      3.224      5.333
REMARK  1 active torsions:
REMARK  status: ('A' for Active; 'I' for Inactive)
REMARK    1  A    between atoms: C1_1  and  C7_7 
ROOT
HETATM    1  C2  UNL     1     -34.094  17.623  -4.670  1.00 20.00     0.002 C 
HETATM    2  C3  UNL     1     -34.073  16.254  -5.336  1.00 20.00     0.012 C 
HETATM    3  C4  UNL     1     -34.335  14.758  -3.305  1.00 20.00     0.013 C 
HETATM    4  C5  UNL     1     -33.662  17.651  -3.201  1.00 20.00     0.008 C 
HETATM    5  C6  UNL     1     -34.798  15.576  -2.100  1.00 20.00     0.009 C 
HETATM    6  C7  UNL     1     -34.925  15.191  -4.644  1.00 20.00     0.055 C 
HETATM    7  C8  UNL     1     -34.678  17.123  -2.155  1.00 20.00    -0.048 C 
HETATM    8  C10 UNL     1     -36.075  17.746  -2.367  1.00 20.00     0.015 C 
HETATM    9  C11 UNL     1     -34.191  17.600  -0.762  1.00 20.00     0.015 C 
ENDROOT
BRANCH   6  10
HETATM   10  C1  UNL     1     -34.989  13.998  -5.552  1.00 20.00     0.127 C 
HETATM   11  C9  UNL     1     -35.216  14.272  -7.014  1.00 20.00     0.091 C 
HETATM   12  O12 UNL     1     -34.861  12.852  -5.124  1.00 20.00    -0.298 OA
ENDBRANCH   6  10
TORSDOF 1
ENDMDL
MODEL 6
REMARK VINA RESULT:      -4.6      4.798      6.034
REMARK  1 active torsions:
REMARK  status: ('A' for Active; 'I' for Inactive)
REMARK    1  A    between atoms: C1_1  and  C7_7 
ROOT
HETATM    1  C2  UNL     1     -35.480  15.465  -7.667  1.00 20.00     0.002 C 
HETATM    2  C3  UNL     1     -34.931  14.401  -6.724  1.00 20.00     0.012 C 
HETATM    3  C4  UNL     1     -33.445  15.830  -5.246  1.00 20.00     0.013 C 
HETATM    4  C5  UNL     1     -34.610  16.714  -7.834  1.00 20.00     0.008 C 
HETATM    5  C6  UNL     1     -33.775  17.310  -5.434  1.00 20.00     0.009 C 
HETATM    6  C7  UNL     1     -34.645  14.889  -5.305  1.00 20.00     0.055 C 
HETATM    7  C8  UNL     1     -34.612  17.738  -6.670  1.00 20.00    -0.048 C 
HETATM    8  C10 UNL     1     -36.051  18.083  -6.230  1.00 20.00     0.015 C 
HETATM    9  C11 UNL     1     -33.993  19.052  -7.215  1.00 20.00     0.015 C 
ENDROOT
BRANCH   6  10
HETATM   10  C1  UNL     1     -34.355  13.682  -4.461  1.00 20.00     0.127 C 
HETATM   11  C9  UNL     1     -33.112  13.733  -3.613  1.00 20.00     0.091 C 
HETATM   12  O12 UNL     1     -35.096  12.700  -4.460  1.00 20.00    -0.298 OA
ENDBRANCH   6  10
TORSDOF 1
ENDMDL
MODEL 7
REMARK VINA RESULT:      -4.6      3.319      5.343
REMARK  1 active torsions:
REMARK  status: ('A' for Active; 'I' for Inactive)
REMARK    1  A    between atoms: C1_1  and  C7_7 
ROOT
HETATM    1  C2  UNL     1     -33.766  16.250  -2.338  1.00 20.00     0.002 C 
HETATM    2  C3  UNL     1     -34.006  14.975  -3.136  1.00 20.00     0.012 C 
HETATM    3  C4  UNL     1     -36.508  15.148  -3.522  1.00 20.00     0.013 C 
HETATM    4  C5  UNL     1     -34.977  16.792  -1.574  1.00 20.00     0.008 C 
HETATM    5  C6  UNL     1     -36.995  16.564  -3.214  1.00 20.00     0.009 C 
HETATM    6  C7  UNL     1     -35.128  15.068  -4.169  1.00 20.00     0.055 C 
HETATM    7  C8  UNL     1     -36.072  17.513  -2.404  1.00 20.00    -0.048 C 
HETATM    8  C10 UNL     1     -35.455  18.568  -3.347  1.00 20.00     0.015 C 
HETATM    9  C11 UNL     1     -36.968  18.289  -1.403  1.00 20.00     0.015 C 
ENDROOT
BRANCH   6  10
HETATM   10  C1  UNL     1     -35.064  13.833  -5.020  1.00 20.00     0.127 C 
HETATM   11  C9  UNL     1     -35.121  14.035  -6.510  1.00 20.00     0.091 C 
HETATM   12  O12 UNL     1     -34.970  12.711  -4.524  1.00 20.00    -0.298 OA
ENDBRANCH   6  10
TORSDOF 1
ENDMDL
MODEL 8
REMARK VINA RESULT:      -4.6      2.423      3.551
REMARK  1 active torsions:
REMARK  status: ('A' for Active; 'I' for Inactive)
REMARK    1  A    between atoms: C1_1  and  C7_7 
ROOT
HETATM    1  C2  UNL     1     -33.085  15.395  -3.673  1.00 20.00     0.002 C 
HETATM    2  C3  UNL     1     -33.666  16.443  -2.733  1.00 20.00     0.012 C 
HETATM    3  C4  UNL     1     -36.002  16.669  -3.698  1.00 20.00     0.013 C 
HETATM    4  C5  UNL     1     -33.732  15.315  -5.058  1.00 20.00     0.008 C 
HETATM    5  C6  UNL     1     -36.301  15.504  -4.640  1.00 20.00     0.009 C 
HETATM    6  C7  UNL     1     -35.165  16.309  -2.473  1.00 20.00     0.055 C 
HETATM    7  C8  UNL     1     -35.122  14.634  -5.151  1.00 20.00    -0.048 C 
HETATM    8  C10 UNL     1     -35.127  13.272  -4.423  1.00 20.00     0.015 C 
HETATM    9  C11 UNL     1     -35.385  14.331  -6.650  1.00 20.00     0.015 C 
ENDROOT
BRANCH   6  10
HETATM   10  C1  UNL     1     -35.518  17.248  -1.355  1.00 20.00     0.127 C 
HETATM   11  C9  UNL     1     -34.710  17.127  -0.091  1.00 20.00     0.091 C 
HETATM   12  O12 UNL     1     -36.421  18.075  -1.466  1.00 20.00    -0.298 OA
ENDBRANCH   6  10
TORSDOF 1
ENDMDL
MODEL 9
REMARK VINA RESULT:      -4.5      1.164      1.235
REMARK  1 active torsions:
REMARK  status: ('A' for Active; 'I' for Inactive)
REMARK    1  A    between atoms: C1_1  and  C7_7 
ROOT
HETATM    1  C2  UNL     1     -33.686  18.350  -3.594  1.00 20.00     0.002 C 
HETATM    2  C3  UNL     1     -33.648  18.843  -2.153  1.00 20.00     0.012 C 
HETATM    3  C4  UNL     1     -34.731  16.875  -0.974  1.00 20.00     0.013 C 
HETATM    4  C5  UNL     1     -34.771  17.319  -3.913  1.00 20.00     0.008 C 
HETATM    5  C6  UNL     1     -34.771  15.659  -1.899  1.00 20.00     0.009 C 
HETATM    6  C7  UNL     1     -33.484  17.744  -1.105  1.00 20.00     0.055 C 
HETATM    7  C8  UNL     1     -34.535  15.868  -3.419  1.00 20.00    -0.048 C 
HETATM    8  C10 UNL     1     -33.124  15.369  -3.800  1.00 20.00     0.015 C 
HETATM    9  C11 UNL     1     -35.541  14.958  -4.173  1.00 20.00     0.015 C 
ENDROOT
BRANCH   6  10
HETATM   10  C1  UNL     1     -33.219  18.411   0.214  1.00 20.00     0.127 C 
HETATM   11  C9  UNL     1     -31.923  19.164   0.344  1.00 20.00     0.091 C 
HETATM   12  O12 UNL     1     -34.023  18.347   1.143  1.00 20.00    -0.298 OA
ENDBRANCH   6  10
TORSDOF 1
ENDMDL
