MODEL 1
REMARK VINA RESULT:      -4.7      0.000      0.000
REMARK  1 active torsions:
REMARK  status: ('A' for Active; 'I' for Inactive)
REMARK    1  A    between atoms: C1_1  and  C3_3 
REMARK       I    between atoms: C3_3  and  N11_11 
ROOT
HETATM    1  C3  UNL     1     -34.335  14.782  -3.565  1.00 20.00     0.243 C 
HETATM    2  C4  UNL     1     -35.649  16.743  -6.438  1.00 20.00     0.030 C 
HETATM    3  C5  UNL     1     -34.618  16.604  -5.326  1.00 20.00     0.127 C 
HETATM    4  C6  UNL     1     -35.890  14.566  -5.481  1.00 20.00     0.134 C 
HETATM    5  C7  UNL     1     -35.977  15.291  -6.832  1.00 20.00    -0.030 C 
HETATM    6  C9  UNL     1     -34.932  14.737  -7.815  1.00 20.00     0.016 C 
HETATM    7  C10 UNL     1     -37.370  15.175  -7.451  1.00 20.00     0.016 C 
HETATM    8  N11 UNL     1     -34.893  15.306  -4.715  1.00 20.00    -0.348 N 
HETATM    9  O12 UNL     1     -34.161  13.582  -3.355  1.00 20.00    -0.268 OA
ENDROOT
BRANCH   1  10
HETATM   10  C1  UNL     1     -33.921  15.751  -2.531  1.00 20.00     0.070 C 
HETATM   11  C2  UNL     1     -34.737  16.197  -1.566  1.00 20.00    -0.026 C 
HETATM   12  C8  UNL     1     -34.324  17.180  -0.520  1.00 20.00     0.036 C 
ENDBRANCH   1  10
TORSDOF 1
ENDMDL
MODEL 2
REMARK VINA RESULT:      -4.7      1.346      4.876
REMARK  1 active torsions:
REMARK  status: ('A' for Active; 'I' for Inactive)
REMARK    1  A    between atoms: C1_1  and  C3_3 
REMARK       I    between atoms: C3_3  and  N11_11 
ROOT
HETATM    1  C3  UNL     1     -34.343  14.257  -4.184  1.00 20.00     0.243 C 
HETATM    2  C4  UNL     1     -35.417  17.574  -2.888  1.00 20.00     0.030 C 
HETATM    3  C5  UNL     1     -35.793  16.261  -3.564  1.00 20.00     0.127 C 
HETATM    4  C6  UNL     1     -33.528  16.116  -2.763  1.00 20.00     0.134 C 
HETATM    5  C7  UNL     1     -34.256  17.196  -1.950  1.00 20.00    -0.030 C 
HETATM    6  C9  UNL     1     -34.783  16.618  -0.626  1.00 20.00     0.016 C 
HETATM    7  C10 UNL     1     -33.353  18.395  -1.659  1.00 20.00     0.016 C 
HETATM    8  N11 UNL     1     -34.568  15.466  -3.552  1.00 20.00    -0.348 N 
HETATM    9  O12 UNL     1     -33.576  13.386  -3.775  1.00 20.00    -0.268 OA
ENDROOT
BRANCH   1  10
HETATM   10  C1  UNL     1     -35.091  14.016  -5.433  1.00 20.00     0.070 C 
HETATM   11  C2  UNL     1     -34.815  14.633  -6.591  1.00 20.00    -0.026 C 
HETATM   12  C8  UNL     1     -35.572  14.394  -7.857  1.00 20.00     0.036 C 
ENDBRANCH   1  10
TORSDOF 1
ENDMDL
MODEL 3
REMARK VINA RESULT:      -4.5      2.017      2.895
REMARK  1 active torsions:
REMARK  status: ('A' for Active; 'I' for Inactive)
REMARK    1  A    between atoms: C1_1  and  C3_3 
REMARK       I    between atoms: C3_3  and  N11_11 
ROOT
HETATM    1  C3  UNL     1     -34.309  16.725  -1.417  1.00 20.00     0.243 C 
HETATM    2  C4  UNL     1     -34.010  15.637  -4.961  1.00 20.00     0.030 C 
HETATM    3  C5  UNL     1     -33.319  16.057  -3.670  1.00 20.00     0.127 C 
HETATM    4  C6  UNL     1     -35.666  15.739  -3.241  1.00 20.00     0.134 C 
HETATM    5  C7  UNL     1     -35.291  14.926  -4.487  1.00 20.00    -0.030 C 
HETATM    6  C9  UNL     1     -35.004  13.461  -4.117  1.00 20.00     0.016 C 
HETATM    7  C10 UNL     1     -36.389  14.976  -5.550  1.00 20.00     0.016 C 
HETATM    8  N11 UNL     1     -34.397  16.208  -2.696  1.00 20.00    -0.348 N 
HETATM    9  O12 UNL     1     -35.025  16.386  -0.475  1.00 20.00    -0.268 OA
ENDROOT
BRANCH   1  10
HETATM   10  C1  UNL     1     -33.273  17.751  -1.190  1.00 20.00     0.070 C 
HETATM   11  C2  UNL     1     -32.952  18.222   0.023  1.00 20.00    -0.026 C 
HETATM   12  C8  UNL     1     -31.906  19.262   0.258  1.00 20.00     0.036 C 
ENDBRANCH   1  10
TORSDOF 1
ENDMDL
MODEL 4
REMARK VINA RESULT:      -4.4     11.534     13.274
REMARK  1 active torsions:
REMARK  status: ('A' for Active; 'I' for Inactive)
REMARK    1  A    between atoms: C1_1  and  C3_3 
REMARK       I    between atoms: C3_3  and  N11_11 
ROOT
HETATM    1  C3  UNL     1     -32.350   7.028   3.434  1.00 20.00     0.243 C 
HETATM    2  C4  UNL     1     -35.384   5.027   4.224  1.00 20.00     0.030 C 
HETATM    3  C5  UNL     1     -34.381   5.506   3.183  1.00 20.00     0.127 C 
HETATM    4  C6  UNL     1     -33.599   6.124   5.374  1.00 20.00     0.134 C 
HETATM    5  C7  UNL     1     -34.564   4.940   5.524  1.00 20.00    -0.030 C 
HETATM    6  C9  UNL     1     -33.790   3.613   5.600  1.00 20.00     0.016 C 
HETATM    7  C10 UNL     1     -35.451   5.083   6.761  1.00 20.00     0.016 C 
HETATM    8  N11 UNL     1     -33.383   6.260   3.938  1.00 20.00    -0.348 N 
HETATM    9  O12 UNL     1     -31.272   7.207   3.999  1.00 20.00    -0.268 OA
ENDROOT
BRANCH   1  10
HETATM   10  C1  UNL     1     -32.579   7.664   2.122  1.00 20.00     0.070 C 
HETATM   11  C2  UNL     1     -32.122   8.882   1.801  1.00 20.00    -0.026 C 
HETATM   12  C8  UNL     1     -32.355   9.531   0.476  1.00 20.00     0.036 C 
ENDBRANCH   1  10
TORSDOF 1
ENDMDL
MODEL 5
REMARK VINA RESULT:      -4.4      2.200      5.486
REMARK  1 active torsions:
REMARK  status: ('A' for Active; 'I' for Inactive)
REMARK    1  A    between atoms: C1_1  and  C3_3 
REMARK       I    between atoms: C3_3  and  N11_11 
ROOT
HETATM    1  C3  UNL     1     -33.589  17.590  -4.748  1.00 20.00     0.243 C 
HETATM    2  C4  UNL     1     -34.578  16.248  -1.423  1.00 20.00     0.030 C 
HETATM    3  C5  UNL     1     -33.796  16.062  -2.717  1.00 20.00     0.127 C 
HETATM    4  C6  UNL     1     -34.646  18.312  -2.626  1.00 20.00     0.134 C 
HETATM    5  C7  UNL     1     -34.566  17.770  -1.192  1.00 20.00    -0.030 C 
HETATM    6  C9  UNL     1     -33.260  18.215  -0.514  1.00 20.00     0.016 C 
HETATM    7  C10 UNL     1     -35.758  18.222  -0.347  1.00 20.00     0.016 C 
HETATM    8  N11 UNL     1     -33.972  17.313  -3.448  1.00 20.00    -0.348 N 
HETATM    9  O12 UNL     1     -33.265  18.702  -5.160  1.00 20.00    -0.268 OA
ENDROOT
BRANCH   1  10
HETATM   10  C1  UNL     1     -33.573  16.451  -5.687  1.00 20.00     0.070 C 
HETATM   11  C2  UNL     1     -34.636  16.073  -6.410  1.00 20.00    -0.026 C 
HETATM   12  C8  UNL     1     -34.624  14.920  -7.360  1.00 20.00     0.036 C 
ENDBRANCH   1  10
TORSDOF 1
ENDMDL
MODEL 6
REMARK VINA RESULT:      -4.4      1.804      2.598
REMARK  1 active torsions:
REMARK  status: ('A' for Active; 'I' for Inactive)
REMARK    1  A    between atoms: C1_1  and  C3_3 
REMARK       I    between atoms: C3_3  and  N11_11 
ROOT
HETATM    1  C3  UNL     1     -34.331  16.906  -2.366  1.00 20.00     0.243 C 
HETATM    2  C4  UNL     1     -36.406  14.493  -4.291  1.00 20.00     0.030 C 
HETATM    3  C5  UNL     1     -36.285  15.444  -3.107  1.00 20.00     0.127 C 
HETATM    4  C6  UNL     1     -34.374  15.725  -4.544  1.00 20.00     0.134 C 
HETATM    5  C7  UNL     1     -35.517  15.127  -5.376  1.00 20.00    -0.030 C 
HETATM    6  C9  UNL     1     -36.274  16.230  -6.134  1.00 20.00     0.016 C 
HETATM    7  C10 UNL     1     -35.009  14.082  -6.370  1.00 20.00     0.016 C 
HETATM    8  N11 UNL     1     -34.978  16.079  -3.265  1.00 20.00    -0.348 N 
HETATM    9  O12 UNL     1     -33.552  17.805  -2.679  1.00 20.00    -0.268 OA
ENDROOT
BRANCH   1  10
HETATM   10  C1  UNL     1     -34.615  16.678  -0.936  1.00 20.00     0.070 C 
HETATM   11  C2  UNL     1     -34.950  17.656  -0.083  1.00 20.00    -0.026 C 
HETATM   12  C8  UNL     1     -35.234  17.430   1.366  1.00 20.00     0.036 C 
ENDBRANCH   1  10
TORSDOF 1
ENDMDL
MODEL 7
REMARK VINA RESULT:      -4.4     13.258     14.642
REMARK  1 active torsions:
REMARK  status: ('A' for Active; 'I' for Inactive)
REMARK    1  A    between atoms: C1_1  and  C3_3 
REMARK       I    between atoms: C3_3  and  N11_11 
ROOT
HETATM    1  C3  UNL     1     -42.521   3.277  -3.236  1.00 20.00     0.243 C 
HETATM    2  C4  UNL     1     -41.268   5.037  -0.209  1.00 20.00     0.030 C 
HETATM    3  C5  UNL     1     -40.954   4.254  -1.477  1.00 20.00     0.127 C 
HETATM    4  C6  UNL     1     -43.294   4.819  -1.457  1.00 20.00     0.134 C 
HETATM    5  C7  UNL     1     -42.551   5.813  -0.554  1.00 20.00    -0.030 C 
HETATM    6  C9  UNL     1     -42.224   7.106  -1.319  1.00 20.00     0.016 C 
HETATM    7  C10 UNL     1     -43.358   6.154   0.700  1.00 20.00     0.016 C 
HETATM    8  N11 UNL     1     -42.246   4.061  -2.131  1.00 20.00    -0.348 N 
HETATM    9  O12 UNL     1     -43.408   3.511  -4.056  1.00 20.00    -0.268 OA
ENDROOT
BRANCH   1  10
HETATM   10  C1  UNL     1     -41.675   2.083  -3.426  1.00 20.00     0.070 C 
HETATM   11  C2  UNL     1     -42.139   0.912  -3.883  1.00 20.00    -0.026 C 
HETATM   12  C8  UNL     1     -41.286  -0.299  -4.073  1.00 20.00     0.036 C 
ENDBRANCH   1  10
TORSDOF 1
ENDMDL
MODEL 8
REMARK VINA RESULT:      -4.2      1.972      2.209
REMARK  1 active torsions:
REMARK  status: ('A' for Active; 'I' for Inactive)
REMARK    1  A    between atoms: C1_1  and  C3_3 
REMARK       I    between atoms: C3_3  and  N11_11 
ROOT
HETATM    1  C3  UNL     1     -34.777  15.463  -2.918  1.00 20.00     0.243 C 
HETATM    2  C4  UNL     1     -38.003  16.790  -4.206  1.00 20.00     0.030 C 
HETATM    3  C5  UNL     1     -36.557  17.056  -3.811  1.00 20.00     0.127 C 
HETATM    4  C6  UNL     1     -36.948  14.681  -3.820  1.00 20.00     0.134 C 
HETATM    5  C7  UNL     1     -37.990  15.344  -4.733  1.00 20.00    -0.030 C 
HETATM    6  C9  UNL     1     -37.537  15.296  -6.201  1.00 20.00     0.016 C 
HETATM    7  C10 UNL     1     -39.362  14.683  -4.601  1.00 20.00     0.016 C 
HETATM    8  N11 UNL     1     -36.007  15.744  -3.482  1.00 20.00    -0.348 N 
HETATM    9  O12 UNL     1     -34.132  14.435  -3.121  1.00 20.00    -0.268 OA
ENDROOT
BRANCH   1  10
HETATM   10  C1  UNL     1     -34.216  16.487  -2.016  1.00 20.00     0.070 C 
HETATM   11  C2  UNL     1     -34.657  16.695  -0.767  1.00 20.00    -0.026 C 
HETATM   12  C8  UNL     1     -34.095  17.732   0.148  1.00 20.00     0.036 C 
ENDBRANCH   1  10
TORSDOF 1
ENDMDL
MODEL 9
REMARK VINA RESULT:      -4.1      2.098      4.838
REMARK  1 active torsions:
REMARK  status: ('A' for Active; 'I' for Inactive)
REMARK    1  A    between atoms: C1_1  and  C3_3 
REMARK       I    between atoms: C3_3  and  N11_11 
ROOT
HETATM    1  C3  UNL     1     -37.681  15.043  -4.403  1.00 20.00     0.243 C 
HETATM    2  C4  UNL     1     -34.400  16.794  -4.394  1.00 20.00     0.030 C 
HETATM    3  C5  UNL     1     -35.914  16.875  -4.547  1.00 20.00     0.127 C 
HETATM    4  C6  UNL     1     -35.317  14.682  -3.755  1.00 20.00     0.134 C 
HETATM    5  C7  UNL     1     -34.185  15.650  -3.387  1.00 20.00    -0.030 C 
HETATM    6  C9  UNL     1     -34.344  16.151  -1.942  1.00 20.00     0.016 C 
HETATM    7  C10 UNL     1     -32.809  15.004  -3.553  1.00 20.00     0.016 C 
HETATM    8  N11 UNL     1     -36.396  15.529  -4.251  1.00 20.00    -0.348 N 
HETATM    9  O12 UNL     1     -38.182  14.159  -3.710  1.00 20.00    -0.268 OA
ENDROOT
BRANCH   1  10
HETATM   10  C1  UNL     1     -38.493  15.648  -5.478  1.00 20.00     0.070 C 
HETATM   11  C2  UNL     1     -38.400  15.289  -6.766  1.00 20.00    -0.026 C 
HETATM   12  C8  UNL     1     -39.216  15.900  -7.857  1.00 20.00     0.036 C 
ENDBRANCH   1  10
TORSDOF 1
ENDMDL
