MODEL 1
REMARK VINA RESULT:      -4.4      0.000      0.000
REMARK  3 active torsions:
REMARK  status: ('A' for Active; 'I' for Inactive)
REMARK    1  A    between atoms: C4_4  and  C5_5 
REMARK    2  A    between atoms: C4_4  and  O7_7 
REMARK    3  A    between atoms: C5_5  and  C6_6 
ROOT
HETATM    1  C1  UNL     1     -35.137   5.518   3.377  1.00 20.00     0.014 C 
HETATM    2  C5  UNL     1     -34.015   6.226   4.108  1.00 20.00     0.023 C 
ENDROOT
BRANCH   2   3
HETATM    3  C4  UNL     1     -32.695   6.085   3.330  1.00 20.00     0.172 C 
BRANCH   3   4
HETATM    4  O7  UNL     1     -31.960   7.301   3.418  1.00 20.00    -0.396 OA
HETATM    5  C3  UNL     1     -32.065   8.058   2.222  1.00 20.00     0.201 C 
ENDBRANCH   3   4
ENDBRANCH   2   3
BRANCH   2   6
HETATM    6  C6  UNL     1     -33.846   5.764   5.576  1.00 20.00     0.084 C 
HETATM    7  C2  UNL     1     -33.825   6.914   6.579  1.00 20.00     0.027 C 
HETATM    8 CL8  UNL     1     -35.100   4.581   6.066  1.00 20.00    -0.125 Cl
ENDBRANCH   2   6
TORSDOF 3
ENDMDL
MODEL 2
REMARK VINA RESULT:      -4.2      1.297      1.504
REMARK  3 active torsions:
REMARK  status: ('A' for Active; 'I' for Inactive)
REMARK    1  A    between atoms: C4_4  and  C5_5 
REMARK    2  A    between atoms: C4_4  and  O7_7 
REMARK    3  A    between atoms: C5_5  and  C6_6 
ROOT
HETATM    1  C1  UNL     1     -34.407   5.121   2.903  1.00 20.00     0.014 C 
HETATM    2  C5  UNL     1     -34.186   6.209   3.934  1.00 20.00     0.023 C 
ENDROOT
BRANCH   2   3
HETATM    3  C4  UNL     1     -32.702   6.609   3.982  1.00 20.00     0.172 C 
BRANCH   3   4
HETATM    4  O7  UNL     1     -32.195   6.714   2.655  1.00 20.00    -0.396 OA
HETATM    5  C3  UNL     1     -32.099   8.069   2.243  1.00 20.00     0.201 C 
ENDBRANCH   3   4
ENDBRANCH   2   3
BRANCH   2   6
HETATM    6  C6  UNL     1     -34.708   5.838   5.344  1.00 20.00     0.084 C 
HETATM    7  C2  UNL     1     -34.629   4.346   5.651  1.00 20.00     0.027 C 
HETATM    8 CL8  UNL     1     -33.871   6.749   6.640  1.00 20.00    -0.125 Cl
ENDBRANCH   2   6
TORSDOF 3
ENDMDL
MODEL 3
REMARK VINA RESULT:      -3.9      1.365      2.042
REMARK  3 active torsions:
REMARK  status: ('A' for Active; 'I' for Inactive)
REMARK    1  A    between atoms: C4_4  and  C5_5 
REMARK    2  A    between atoms: C4_4  and  O7_7 
REMARK    3  A    between atoms: C5_5  and  C6_6 
ROOT
HETATM    1  C1  UNL     1     -33.798   6.735   6.340  1.00 20.00     0.014 C 
HETATM    2  C5  UNL     1     -33.557   6.002   5.037  1.00 20.00     0.023 C 
ENDROOT
BRANCH   2   3
HETATM    3  C4  UNL     1     -33.487   6.998   3.867  1.00 20.00     0.172 C 
BRANCH   3   4
HETATM    4  O7  UNL     1     -32.209   6.908   3.244  1.00 20.00    -0.396 OA
HETATM    5  C3  UNL     1     -32.017   7.954   2.303  1.00 20.00     0.201 C 
ENDBRANCH   3   4
ENDBRANCH   2   3
BRANCH   2   6
HETATM    6  C6  UNL     1     -34.593   4.886   4.755  1.00 20.00     0.084 C 
HETATM    7  C2  UNL     1     -35.165   4.252   6.019  1.00 20.00     0.027 C 
HETATM    8 CL8  UNL     1     -35.942   5.455   3.721  1.00 20.00    -0.125 Cl
ENDBRANCH   2   6
TORSDOF 3
ENDMDL
MODEL 4
REMARK VINA RESULT:      -3.5     11.543     12.065
REMARK  3 active torsions:
REMARK  status: ('A' for Active; 'I' for Inactive)
REMARK    1  A    between atoms: C4_4  and  C5_5 
REMARK    2  A    between atoms: C4_4  and  O7_7 
REMARK    3  A    between atoms: C5_5  and  C6_6 
ROOT
HETATM    1  C1  UNL     1     -33.352  16.480  -4.490  1.00 20.00     0.014 C 
HETATM    2  C5  UNL     1     -33.393  15.599  -3.259  1.00 20.00     0.023 C 
ENDROOT
BRANCH   2   3
HETATM    3  C4  UNL     1     -33.110  14.135  -3.638  1.00 20.00     0.172 C 
BRANCH   3   4
HETATM    4  O7  UNL     1     -34.320  13.387  -3.578  1.00 20.00    -0.396 OA
HETATM    5  C3  UNL     1     -34.813  13.094  -4.877  1.00 20.00     0.201 C 
ENDBRANCH   3   4
ENDBRANCH   2   3
BRANCH   2   6
HETATM    6  C6  UNL     1     -34.712  15.720  -2.457  1.00 20.00     0.084 C 
HETATM    7  C2  UNL     1     -34.567  16.512  -1.161  1.00 20.00     0.027 C 
HETATM    8 CL8  UNL     1     -36.040  16.426  -3.431  1.00 20.00    -0.125 Cl
ENDBRANCH   2   6
TORSDOF 3
ENDMDL
MODEL 5
REMARK VINA RESULT:      -3.5     11.669     12.303
REMARK  3 active torsions:
REMARK  status: ('A' for Active; 'I' for Inactive)
REMARK    1  A    between atoms: C4_4  and  C5_5 
REMARK    2  A    between atoms: C4_4  and  O7_7 
REMARK    3  A    between atoms: C5_5  and  C6_6 
ROOT
HETATM    1  C1  UNL     1     -34.495  13.263  -4.914  1.00 20.00     0.014 C 
HETATM    2  C5  UNL     1     -35.021  14.094  -3.762  1.00 20.00     0.023 C 
ENDROOT
BRANCH   2   3
HETATM    3  C4  UNL     1     -36.302  14.837  -4.178  1.00 20.00     0.172 C 
BRANCH   3   4
HETATM    4  O7  UNL     1     -37.440  14.098  -3.747  1.00 20.00    -0.396 OA
HETATM    5  C3  UNL     1     -38.635  14.851  -3.896  1.00 20.00     0.201 C 
ENDBRANCH   3   4
ENDBRANCH   2   3
BRANCH   2   6
HETATM    6  C6  UNL     1     -33.974  15.075  -3.181  1.00 20.00     0.084 C 
HETATM    7  C2  UNL     1     -33.381  16.022  -4.220  1.00 20.00     0.027 C 
HETATM    8 CL8  UNL     1     -34.626  16.036  -1.816  1.00 20.00    -0.125 Cl
ENDBRANCH   2   6
TORSDOF 3
ENDMDL
MODEL 6
REMARK VINA RESULT:      -3.4     11.728     12.304
REMARK  3 active torsions:
REMARK  status: ('A' for Active; 'I' for Inactive)
REMARK    1  A    between atoms: C4_4  and  C5_5 
REMARK    2  A    between atoms: C4_4  and  O7_7 
REMARK    3  A    between atoms: C5_5  and  C6_6 
ROOT
HETATM    1  C1  UNL     1     -33.151  13.780  -3.669  1.00 20.00     0.014 C 
HETATM    2  C5  UNL     1     -34.546  14.257  -3.325  1.00 20.00     0.023 C 
ENDROOT
BRANCH   2   3
HETATM    3  C4  UNL     1     -35.557  13.754  -4.370  1.00 20.00     0.172 C 
BRANCH   3   4
HETATM    4  O7  UNL     1     -34.883  13.501  -5.599  1.00 20.00    -0.396 OA
HETATM    5  C3  UNL     1     -35.328  14.375  -6.625  1.00 20.00     0.201 C 
ENDBRANCH   3   4
ENDBRANCH   2   3
BRANCH   2   6
HETATM    6  C6  UNL     1     -34.648  15.792  -3.148  1.00 20.00     0.084 C 
HETATM    7  C2  UNL     1     -34.568  16.244  -1.693  1.00 20.00     0.027 C 
HETATM    8 CL8  UNL     1     -33.414  16.671  -4.104  1.00 20.00    -0.125 Cl
ENDBRANCH   2   6
TORSDOF 3
ENDMDL
MODEL 7
REMARK VINA RESULT:      -3.3     11.993     13.013
REMARK  3 active torsions:
REMARK  status: ('A' for Active; 'I' for Inactive)
REMARK    1  A    between atoms: C4_4  and  C5_5 
REMARK    2  A    between atoms: C4_4  and  O7_7 
REMARK    3  A    between atoms: C5_5  and  C6_6 
ROOT
HETATM    1  C1  UNL     1     -35.000  13.241  -4.377  1.00 20.00     0.014 C 
HETATM    2  C5  UNL     1     -34.997  14.703  -3.983  1.00 20.00     0.023 C 
ENDROOT
BRANCH   2   3
HETATM    3  C4  UNL     1     -36.372  15.112  -3.428  1.00 20.00     0.172 C 
BRANCH   3   4
HETATM    4  O7  UNL     1     -37.343  14.140  -3.801  1.00 20.00    -0.396 OA
HETATM    5  C3  UNL     1     -38.604  14.739  -4.060  1.00 20.00     0.201 C 
ENDBRANCH   3   4
ENDBRANCH   2   3
BRANCH   2   6
HETATM    6  C6  UNL     1     -34.556  15.649  -5.127  1.00 20.00     0.084 C 
HETATM    7  C2  UNL     1     -33.231  16.356  -4.858  1.00 20.00     0.027 C 
HETATM    8 CL8  UNL     1     -34.463  14.810  -6.708  1.00 20.00    -0.125 Cl
ENDBRANCH   2   6
TORSDOF 3
ENDMDL
MODEL 8
REMARK VINA RESULT:      -3.2      1.642      2.300
REMARK  3 active torsions:
REMARK  status: ('A' for Active; 'I' for Inactive)
REMARK    1  A    between atoms: C4_4  and  C5_5 
REMARK    2  A    between atoms: C4_4  and  O7_7 
REMARK    3  A    between atoms: C5_5  and  C6_6 
ROOT
HETATM    1  C1  UNL     1     -32.111   5.277   3.058  1.00 20.00     0.014 C 
HETATM    2  C5  UNL     1     -33.001   6.498   2.969  1.00 20.00     0.023 C 
ENDROOT
BRANCH   2   3
HETATM    3  C4  UNL     1     -32.161   7.783   3.072  1.00 20.00     0.172 C 
BRANCH   3   4
HETATM    4  O7  UNL     1     -31.780   8.207   1.767  1.00 20.00    -0.396 OA
HETATM    5  C3  UNL     1     -32.407   9.432   1.416  1.00 20.00     0.201 C 
ENDBRANCH   3   4
ENDBRANCH   2   3
BRANCH   2   6
HETATM    6  C6  UNL     1     -34.151   6.502   4.006  1.00 20.00     0.084 C 
HETATM    7  C2  UNL     1     -35.113   5.328   3.855  1.00 20.00     0.027 C 
HETATM    8 CL8  UNL     1     -33.546   6.551   5.692  1.00 20.00    -0.125 Cl
ENDBRANCH   2   6
TORSDOF 3
ENDMDL
MODEL 9
REMARK VINA RESULT:      -3.2     11.838     12.761
REMARK  3 active torsions:
REMARK  status: ('A' for Active; 'I' for Inactive)
REMARK    1  A    between atoms: C4_4  and  C5_5 
REMARK    2  A    between atoms: C4_4  and  O7_7 
REMARK    3  A    between atoms: C5_5  and  C6_6 
ROOT
HETATM    1  C1  UNL     1     -34.495  16.169  -1.686  1.00 20.00     0.014 C 
HETATM    2  C5  UNL     1     -34.612  15.731  -3.131  1.00 20.00     0.023 C 
ENDROOT
BRANCH   2   3
HETATM    3  C4  UNL     1     -33.540  14.679  -3.461  1.00 20.00     0.172 C 
BRANCH   3   4
HETATM    4  O7  UNL     1     -34.125  13.381  -3.435  1.00 20.00    -0.396 OA
HETATM    5  C3  UNL     1     -35.139  13.249  -4.420  1.00 20.00     0.201 C 
ENDBRANCH   3   4
ENDBRANCH   2   3
BRANCH   2   6
HETATM    6  C6  UNL     1     -34.565  16.907  -4.138  1.00 20.00     0.084 C 
HETATM    7  C2  UNL     1     -34.412  18.272  -3.475  1.00 20.00     0.027 C 
HETATM    8 CL8  UNL     1     -33.274  16.702  -5.364  1.00 20.00    -0.125 Cl
ENDBRANCH   2   6
TORSDOF 3
ENDMDL
