MODEL 1
REMARK VINA RESULT:      -5.5      0.000      0.000
REMARK  2 active torsions:
REMARK  status: ('A' for Active; 'I' for Inactive)
REMARK    1  A    between atoms: C1_1  and  C7_7 
REMARK    2  A    between atoms: C8_8  and  C12_12 
ROOT
HETATM    1  C2  UNL     1     -36.506  16.418  -3.496  1.00 20.00     0.001 C 
HETATM    2  C3  UNL     1     -36.303  14.904  -3.458  1.00 20.00     0.012 C 
HETATM    3  C4  UNL     1     -33.770  15.514  -3.588  1.00 20.00     0.012 C 
HETATM    4  C5  UNL     1     -35.986  17.180  -2.270  1.00 20.00     0.005 C 
HETATM    5  C6  UNL     1     -33.600  16.205  -2.236  1.00 20.00     0.006 C 
HETATM    6  C7  UNL     1     -34.849  14.429  -3.638  1.00 20.00     0.055 C 
HETATM    7  C8  UNL     1     -34.882  16.499  -1.448  1.00 20.00    -0.011 C 
ENDROOT
BRANCH   6   8
HETATM    8  C1  UNL     1     -34.739  13.729  -4.962  1.00 20.00     0.127 C 
HETATM    9  C9  UNL     1     -34.601  14.602  -6.180  1.00 20.00     0.091 C 
HETATM   10  O13 UNL     1     -34.760  12.502  -5.046  1.00 20.00    -0.298 OA
ENDBRANCH   6   8
BRANCH   7  11
HETATM   11  C12 UNL     1     -34.544  17.359  -0.223  1.00 20.00    -0.019 C 
HETATM   12  C10 UNL     1     -33.293  18.189  -0.488  1.00 20.00     0.010 C 
HETATM   13  C11 UNL     1     -35.724  18.255   0.137  1.00 20.00     0.010 C 
ENDBRANCH   7  11
TORSDOF 2
ENDMDL
MODEL 2
REMARK VINA RESULT:      -5.4      0.491      1.054
REMARK  2 active torsions:
REMARK  status: ('A' for Active; 'I' for Inactive)
REMARK    1  A    between atoms: C1_1  and  C7_7 
REMARK    2  A    between atoms: C8_8  and  C12_12 
ROOT
HETATM    1  C2  UNL     1     -36.554  16.634  -3.611  1.00 20.00     0.001 C 
HETATM    2  C3  UNL     1     -36.402  15.131  -3.379  1.00 20.00     0.012 C 
HETATM    3  C4  UNL     1     -33.847  15.649  -3.481  1.00 20.00     0.012 C 
HETATM    4  C5  UNL     1     -36.055  17.527  -2.468  1.00 20.00     0.005 C 
HETATM    5  C6  UNL     1     -33.705  16.498  -2.218  1.00 20.00     0.006 C 
HETATM    6  C7  UNL     1     -34.958  14.597  -3.440  1.00 20.00     0.055 C 
HETATM    7  C8  UNL     1     -35.005  16.922  -1.524  1.00 20.00    -0.011 C 
ENDROOT
BRANCH   6   8
HETATM    8  C1  UNL     1     -34.823  13.735  -4.663  1.00 20.00     0.127 C 
HETATM    9  C9  UNL     1     -34.621  14.446  -5.973  1.00 20.00     0.091 C 
HETATM   10  O13 UNL     1     -34.874  12.509  -4.595  1.00 20.00    -0.298 OA
ENDBRANCH   6   8
BRANCH   7  11
HETATM   11  C12 UNL     1     -34.684  17.918  -0.402  1.00 20.00    -0.019 C 
HETATM   12  C10 UNL     1     -35.200  17.395   0.934  1.00 20.00     0.010 C 
HETATM   13  C11 UNL     1     -33.182  18.178  -0.339  1.00 20.00     0.010 C 
ENDBRANCH   7  11
TORSDOF 2
ENDMDL
MODEL 3
REMARK VINA RESULT:      -5.0      1.249      1.801
REMARK  2 active torsions:
REMARK  status: ('A' for Active; 'I' for Inactive)
REMARK    1  A    between atoms: C1_1  and  C7_7 
REMARK    2  A    between atoms: C8_8  and  C12_12 
ROOT
HETATM    1  C2  UNL     1     -33.732  17.114  -4.866  1.00 20.00     0.001 C 
HETATM    2  C3  UNL     1     -34.994  16.316  -5.191  1.00 20.00     0.012 C 
HETATM    3  C4  UNL     1     -34.225  14.807  -3.207  1.00 20.00     0.012 C 
HETATM    4  C5  UNL     1     -33.738  17.824  -3.507  1.00 20.00     0.005 C 
HETATM    5  C6  UNL     1     -34.386  15.796  -2.053  1.00 20.00     0.006 C 
HETATM    6  C7  UNL     1     -35.179  15.016  -4.386  1.00 20.00     0.055 C 
HETATM    7  C8  UNL     1     -34.675  17.254  -2.431  1.00 20.00    -0.011 C 
ENDROOT
BRANCH   6   8
HETATM    8  C1  UNL     1     -35.019  13.852  -5.321  1.00 20.00     0.127 C 
HETATM    9  C9  UNL     1     -35.133  14.144  -6.792  1.00 20.00     0.091 C 
HETATM   10  O13 UNL     1     -34.806  12.715  -4.903  1.00 20.00    -0.298 OA
ENDBRANCH   6   8
BRANCH   7  11
HETATM   11  C12 UNL     1     -34.613  18.130  -1.173  1.00 20.00    -0.019 C 
HETATM   12  C10 UNL     1     -34.857  17.286   0.073  1.00 20.00     0.010 C 
HETATM   13  C11 UNL     1     -33.268  18.843  -1.091  1.00 20.00     0.010 C 
ENDBRANCH   7  11
TORSDOF 2
ENDMDL
MODEL 4
REMARK VINA RESULT:      -5.0      1.886      2.696
REMARK  2 active torsions:
REMARK  status: ('A' for Active; 'I' for Inactive)
REMARK    1  A    between atoms: C1_1  and  C7_7 
REMARK    2  A    between atoms: C8_8  and  C12_12 
ROOT
HETATM    1  C2  UNL     1     -34.792  15.887  -1.969  1.00 20.00     0.001 C 
HETATM    2  C3  UNL     1     -33.667  15.722  -2.989  1.00 20.00     0.012 C 
HETATM    3  C4  UNL     1     -34.245  18.186  -3.621  1.00 20.00     0.012 C 
HETATM    4  C5  UNL     1     -34.516  16.897  -0.848  1.00 20.00     0.005 C 
HETATM    5  C6  UNL     1     -33.824  18.889  -2.331  1.00 20.00     0.006 C 
HETATM    6  C7  UNL     1     -33.469  16.908  -3.952  1.00 20.00     0.055 C 
HETATM    7  C8  UNL     1     -33.475  17.990  -1.139  1.00 20.00    -0.011 C 
ENDROOT
BRANCH   6   8
HETATM    8  C1  UNL     1     -33.869  16.471  -5.332  1.00 20.00     0.127 C 
HETATM    9  C9  UNL     1     -34.041  17.554  -6.362  1.00 20.00     0.091 C 
HETATM   10  O13 UNL     1     -34.046  15.285  -5.606  1.00 20.00    -0.298 OA
ENDBRANCH   6   8
BRANCH   7  11
HETATM   11  C12 UNL     1     -33.269  18.854   0.111  1.00 20.00    -0.019 C 
HETATM   12  C10 UNL     1     -34.113  18.327   1.265  1.00 20.00     0.010 C 
HETATM   13  C11 UNL     1     -31.792  18.892   0.490  1.00 20.00     0.010 C 
ENDBRANCH   7  11
TORSDOF 2
ENDMDL
MODEL 5
REMARK VINA RESULT:      -4.9      1.721      2.198
REMARK  2 active torsions:
REMARK  status: ('A' for Active; 'I' for Inactive)
REMARK    1  A    between atoms: C1_1  and  C7_7 
REMARK    2  A    between atoms: C8_8  and  C12_12 
ROOT
HETATM    1  C2  UNL     1     -35.165  15.027  -3.349  1.00 20.00     0.001 C 
HETATM    2  C3  UNL     1     -34.036  14.930  -4.375  1.00 20.00     0.012 C 
HETATM    3  C4  UNL     1     -34.454  17.487  -4.677  1.00 20.00     0.012 C 
HETATM    4  C5  UNL     1     -34.845  15.861  -2.102  1.00 20.00     0.005 C 
HETATM    5  C6  UNL     1     -34.012  17.985  -3.302  1.00 20.00     0.006 C 
HETATM    6  C7  UNL     1     -33.753  16.219  -5.170  1.00 20.00     0.055 C 
HETATM    7  C8  UNL     1     -33.736  16.915  -2.238  1.00 20.00    -0.011 C 
ENDROOT
BRANCH   6   8
HETATM    8  C1  UNL     1     -34.158  15.994  -6.599  1.00 20.00     0.127 C 
HETATM    9  C9  UNL     1     -34.563  17.209  -7.387  1.00 20.00     0.091 C 
HETATM   10  O13 UNL     1     -34.156  14.871  -7.099  1.00 20.00    -0.298 OA
ENDBRANCH   6   8
BRANCH   7  11
HETATM   11  C12 UNL     1     -33.496  17.592  -0.882  1.00 20.00    -0.019 C 
HETATM   12  C10 UNL     1     -33.213  19.078  -1.075  1.00 20.00     0.010 C 
HETATM   13  C11 UNL     1     -34.697  17.383   0.034  1.00 20.00     0.010 C 
ENDBRANCH   7  11
TORSDOF 2
ENDMDL
MODEL 6
REMARK VINA RESULT:      -4.9      2.168      5.238
REMARK  2 active torsions:
REMARK  status: ('A' for Active; 'I' for Inactive)
REMARK    1  A    between atoms: C1_1  and  C7_7 
REMARK    2  A    between atoms: C8_8  and  C12_12 
ROOT
HETATM    1  C2  UNL     1     -34.322  14.127  -3.578  1.00 20.00     0.001 C 
HETATM    2  C3  UNL     1     -35.222  15.160  -2.903  1.00 20.00     0.012 C 
HETATM    3  C4  UNL     1     -33.474  16.874  -3.804  1.00 20.00     0.012 C 
HETATM    4  C5  UNL     1     -34.264  14.210  -5.109  1.00 20.00     0.005 C 
HETATM    5  C6  UNL     1     -33.710  16.720  -5.305  1.00 20.00     0.006 C 
HETATM    6  C7  UNL     1     -34.694  16.607  -2.919  1.00 20.00     0.055 C 
HETATM    7  C8  UNL     1     -34.617  15.563  -5.744  1.00 20.00    -0.011 C 
ENDROOT
BRANCH   6   8
HETATM    8  C1  UNL     1     -34.337  16.997  -1.512  1.00 20.00     0.127 C 
HETATM    9  C9  UNL     1     -33.472  18.216  -1.347  1.00 20.00     0.091 C 
HETATM   10  O13 UNL     1     -34.735  16.351  -0.544  1.00 20.00    -0.298 OA
ENDBRANCH   6   8
BRANCH   7  11
HETATM   11  C12 UNL     1     -34.586  15.441  -7.273  1.00 20.00    -0.019 C 
HETATM   12  C10 UNL     1     -35.612  14.416  -7.744  1.00 20.00     0.010 C 
HETATM   13  C11 UNL     1     -34.841  16.800  -7.918  1.00 20.00     0.010 C 
ENDBRANCH   7  11
TORSDOF 2
ENDMDL
MODEL 7
REMARK VINA RESULT:      -4.9      2.528      5.172
REMARK  2 active torsions:
REMARK  status: ('A' for Active; 'I' for Inactive)
REMARK    1  A    between atoms: C1_1  and  C7_7 
REMARK    2  A    between atoms: C8_8  and  C12_12 
ROOT
HETATM    1  C2  UNL     1     -35.006  18.074  -3.818  1.00 20.00     0.001 C 
HETATM    2  C3  UNL     1     -33.759  18.128  -2.937  1.00 20.00     0.012 C 
HETATM    3  C4  UNL     1     -34.760  15.976  -1.855  1.00 20.00     0.012 C 
HETATM    4  C5  UNL     1     -35.082  16.876  -4.773  1.00 20.00     0.005 C 
HETATM    5  C6  UNL     1     -34.652  15.017  -3.040  1.00 20.00     0.006 C 
HETATM    6  C7  UNL     1     -33.702  17.080  -1.809  1.00 20.00     0.055 C 
HETATM    7  C8  UNL     1     -34.266  15.632  -4.391  1.00 20.00    -0.011 C 
ENDROOT
BRANCH   6   8
HETATM    8  C1  UNL     1     -33.835  17.792  -0.493  1.00 20.00     0.127 C 
HETATM    9  C9  UNL     1     -34.975  17.370   0.393  1.00 20.00     0.091 C 
HETATM   10  O13 UNL     1     -33.049  18.676  -0.156  1.00 20.00    -0.298 OA
ENDBRANCH   6   8
BRANCH   7  11
HETATM   11  C12 UNL     1     -34.394  14.571  -5.491  1.00 20.00    -0.019 C 
HETATM   12  C10 UNL     1     -34.679  13.204  -4.879  1.00 20.00     0.010 C 
HETATM   13  C11 UNL     1     -35.488  14.962  -6.479  1.00 20.00     0.010 C 
ENDBRANCH   7  11
TORSDOF 2
ENDMDL
MODEL 8
REMARK VINA RESULT:      -4.6      1.304      1.800
REMARK  2 active torsions:
REMARK  status: ('A' for Active; 'I' for Inactive)
REMARK    1  A    between atoms: C1_1  and  C7_7 
REMARK    2  A    between atoms: C8_8  and  C12_12 
ROOT
HETATM    1  C2  UNL     1     -36.400  17.338  -2.924  1.00 20.00     0.001 C 
HETATM    2  C3  UNL     1     -36.217  15.822  -2.881  1.00 20.00     0.012 C 
HETATM    3  C4  UNL     1     -33.681  16.404  -2.695  1.00 20.00     0.012 C 
HETATM    4  C5  UNL     1     -36.025  18.079  -1.634  1.00 20.00     0.005 C 
HETATM    5  C6  UNL     1     -33.670  17.078  -1.324  1.00 20.00     0.006 C 
HETATM    6  C7  UNL     1     -34.757  15.332  -2.889  1.00 20.00     0.055 C 
HETATM    7  C8  UNL     1     -35.036  17.376  -0.693  1.00 20.00    -0.011 C 
ENDROOT
BRANCH   6   8
HETATM    8  C1  UNL     1     -34.494  14.647  -4.200  1.00 20.00     0.127 C 
HETATM    9  C9  UNL     1     -35.011  13.242  -4.344  1.00 20.00     0.091 C 
HETATM   10  O13 UNL     1     -33.886  15.208  -5.109  1.00 20.00    -0.298 OA
ENDBRANCH   6   8
BRANCH   7  11
HETATM   11  C12 UNL     1     -34.840  18.218   0.575  1.00 20.00    -0.019 C 
HETATM   12  C10 UNL     1     -35.400  17.485   1.789  1.00 20.00     0.010 C 
HETATM   13  C11 UNL     1     -33.363  18.543   0.771  1.00 20.00     0.010 C 
ENDBRANCH   7  11
TORSDOF 2
ENDMDL
MODEL 9
REMARK VINA RESULT:      -4.6      2.409      3.939
REMARK  2 active torsions:
REMARK  status: ('A' for Active; 'I' for Inactive)
REMARK    1  A    between atoms: C1_1  and  C7_7 
REMARK    2  A    between atoms: C8_8  and  C12_12 
ROOT
HETATM    1  C2  UNL     1     -35.575  17.770   0.065  1.00 20.00     0.001 C 
HETATM    2  C3  UNL     1     -34.790  16.639  -0.599  1.00 20.00     0.012 C 
HETATM    3  C4  UNL     1     -33.306  18.577  -1.522  1.00 20.00     0.012 C 
HETATM    4  C5  UNL     1     -34.816  18.543   1.151  1.00 20.00     0.005 C 
HETATM    5  C6  UNL     1     -32.697  19.081  -0.215  1.00 20.00     0.006 C 
HETATM    6  C7  UNL     1     -33.661  17.088  -1.547  1.00 20.00     0.055 C 
HETATM    7  C8  UNL     1     -33.282  18.510   1.082  1.00 20.00    -0.011 C 
ENDROOT
BRANCH   6   8
HETATM    8  C1  UNL     1     -34.051  16.729  -2.952  1.00 20.00     0.127 C 
HETATM    9  C9  UNL     1     -33.362  15.540  -3.564  1.00 20.00     0.091 C 
HETATM   10  O13 UNL     1     -34.894  17.376  -3.572  1.00 20.00    -0.298 OA
ENDBRANCH   6   8
BRANCH   7  11
HETATM   11  C12 UNL     1     -32.694  19.263   2.283  1.00 20.00    -0.019 C 
HETATM   12  C10 UNL     1     -33.284  18.729   3.583  1.00 20.00     0.010 C 
HETATM   13  C11 UNL     1     -31.173  19.146   2.288  1.00 20.00     0.010 C 
ENDBRANCH   7  11
TORSDOF 2
ENDMDL
