MODEL 1
REMARK VINA RESULT:      -5.1      0.000      0.000
REMARK  2 active torsions:
REMARK  status: ('A' for Active; 'I' for Inactive)
REMARK    1  A    between atoms: C3_3  and  C6_6 
REMARK    2  A    between atoms: C6_6  and  C7_7 
ROOT
HETATM    1  C4  UNL     1     -34.957   5.531   3.216  1.00 20.00     0.011 C 
HETATM    2  C6  UNL     1     -33.962   6.360   3.993  1.00 20.00    -0.001 C 
ENDROOT
BRANCH   2   3
HETATM    3  C3  UNL     1     -32.643   6.450   3.217  1.00 20.00    -0.010 A 
HETATM    4  C1  UNL     1     -32.305   7.693   2.439  1.00 20.00     0.005 A 
HETATM    5  C2  UNL     1     -31.545   7.361   3.693  1.00 20.00     0.005 A 
ENDBRANCH   2   3
BRANCH   2   6
HETATM    6  C7  UNL     1     -33.714   5.853   5.429  1.00 20.00     0.058 C 
HETATM    7  C5  UNL     1     -33.890   6.880   6.539  1.00 20.00     0.022 C 
HETATM    8 BR8  UNL     1     -34.882   4.317   5.814  1.00 20.00    -0.091 Br
ENDBRANCH   2   6
TORSDOF 2
ENDMDL
MODEL 2
REMARK VINA RESULT:      -4.0      1.371      2.180
REMARK  2 active torsions:
REMARK  status: ('A' for Active; 'I' for Inactive)
REMARK    1  A    between atoms: C3_3  and  C6_6 
REMARK    2  A    between atoms: C6_6  and  C7_7 
ROOT
HETATM    1  C4  UNL     1     -33.831   6.899   6.378  1.00 20.00     0.011 C 
HETATM    2  C6  UNL     1     -33.431   5.997   5.234  1.00 20.00    -0.001 C 
ENDROOT
BRANCH   2   3
HETATM    3  C3  UNL     1     -33.161   6.838   3.981  1.00 20.00    -0.010 A 
HETATM    4  C1  UNL     1     -31.765   7.308   3.671  1.00 20.00     0.005 A 
HETATM    5  C2  UNL     1     -32.407   6.247   2.821  1.00 20.00     0.005 A 
ENDBRANCH   2   3
BRANCH   2   6
HETATM    6  C7  UNL     1     -34.454   4.882   4.931  1.00 20.00     0.058 C 
HETATM    7  C5  UNL     1     -35.135   4.255   6.138  1.00 20.00     0.022 C 
HETATM    8 BR8  UNL     1     -35.845   5.555   3.713  1.00 20.00    -0.091 Br
ENDBRANCH   2   6
TORSDOF 2
ENDMDL
MODEL 3
REMARK VINA RESULT:      -3.9     11.637     12.345
REMARK  2 active torsions:
REMARK  status: ('A' for Active; 'I' for Inactive)
REMARK    1  A    between atoms: C3_3  and  C6_6 
REMARK    2  A    between atoms: C6_6  and  C7_7 
ROOT
HETATM    1  C4  UNL     1     -36.089  15.347  -3.343  1.00 20.00     0.011 C 
HETATM    2  C6  UNL     1     -34.836  15.504  -2.514  1.00 20.00    -0.001 C 
ENDROOT
BRANCH   2   3
HETATM    3  C3  UNL     1     -34.844  16.869  -1.816  1.00 20.00    -0.010 A 
HETATM    4  C1  UNL     1     -34.753  16.954  -0.316  1.00 20.00     0.005 A 
HETATM    5  C2  UNL     1     -33.593  17.394  -1.166  1.00 20.00     0.005 A 
ENDBRANCH   2   3
BRANCH   2   6
HETATM    6  C7  UNL     1     -33.531  15.307  -3.311  1.00 20.00     0.058 C 
HETATM    7  C5  UNL     1     -33.226  13.883  -3.753  1.00 20.00     0.022 C 
HETATM    8 BR8  UNL     1     -33.532  16.463  -4.903  1.00 20.00    -0.091 Br
ENDBRANCH   2   6
TORSDOF 2
ENDMDL
MODEL 4
REMARK VINA RESULT:      -3.8      2.262      4.034
REMARK  2 active torsions:
REMARK  status: ('A' for Active; 'I' for Inactive)
REMARK    1  A    between atoms: C3_3  and  C6_6 
REMARK    2  A    between atoms: C6_6  and  C7_7 
ROOT
HETATM    1  C4  UNL     1     -33.540   6.750   6.087  1.00 20.00     0.011 C 
HETATM    2  C6  UNL     1     -34.213   6.277   4.820  1.00 20.00    -0.001 C 
ENDROOT
BRANCH   2   3
HETATM    3  C3  UNL     1     -35.173   5.125   5.141  1.00 20.00    -0.010 A 
HETATM    4  C1  UNL     1     -34.636   3.747   5.419  1.00 20.00     0.005 A 
HETATM    5  C2  UNL     1     -35.236   4.559   6.533  1.00 20.00     0.005 A 
ENDBRANCH   2   3
BRANCH   2   6
HETATM    6  C7  UNL     1     -33.230   5.871   3.704  1.00 20.00     0.058 C 
HETATM    7  C5  UNL     1     -33.856   5.401   2.399  1.00 20.00     0.022 C 
HETATM    8 BR8  UNL     1     -32.010   7.363   3.304  1.00 20.00    -0.091 Br
ENDBRANCH   2   6
TORSDOF 2
ENDMDL
MODEL 5
REMARK VINA RESULT:      -3.7     11.640     12.383
REMARK  2 active torsions:
REMARK  status: ('A' for Active; 'I' for Inactive)
REMARK    1  A    between atoms: C3_3  and  C6_6 
REMARK    2  A    between atoms: C6_6  and  C7_7 
ROOT
HETATM    1  C4  UNL     1     -33.297  16.167  -4.511  1.00 20.00     0.011 C 
HETATM    2  C6  UNL     1     -34.379  16.197  -3.456  1.00 20.00    -0.001 C 
ENDROOT
BRANCH   2   3
HETATM    3  C3  UNL     1     -33.773  16.588  -2.103  1.00 20.00    -0.010 A 
HETATM    4  C1  UNL     1     -34.144  17.894  -1.456  1.00 20.00     0.005 A 
HETATM    5  C2  UNL     1     -34.629  16.599  -0.866  1.00 20.00     0.005 A 
ENDBRANCH   2   3
BRANCH   2   6
HETATM    6  C7  UNL     1     -35.173  14.880  -3.338  1.00 20.00     0.058 C 
HETATM    7  C5  UNL     1     -36.658  14.964  -3.661  1.00 20.00     0.022 C 
HETATM    8 BR8  UNL     1     -34.365  13.500  -4.485  1.00 20.00    -0.091 Br
ENDBRANCH   2   6
TORSDOF 2
ENDMDL
MODEL 6
REMARK VINA RESULT:      -3.6     11.586     12.863
REMARK  2 active torsions:
REMARK  status: ('A' for Active; 'I' for Inactive)
REMARK    1  A    between atoms: C3_3  and  C6_6 
REMARK    2  A    between atoms: C6_6  and  C7_7 
ROOT
HETATM    1  C4  UNL     1     -33.784  13.765  -3.775  1.00 20.00     0.011 C 
HETATM    2  C6  UNL     1     -33.909  15.258  -3.578  1.00 20.00    -0.001 C 
ENDROOT
BRANCH   2   3
HETATM    3  C3  UNL     1     -34.842  15.549  -2.397  1.00 20.00    -0.010 A 
HETATM    4  C1  UNL     1     -34.420  16.507  -1.316  1.00 20.00     0.005 A 
HETATM    5  C2  UNL     1     -35.513  16.890  -2.275  1.00 20.00     0.005 A 
ENDBRANCH   2   3
BRANCH   2   6
HETATM    6  C7  UNL     1     -34.371  16.018  -4.838  1.00 20.00     0.058 C 
HETATM    7  C5  UNL     1     -33.455  17.133  -5.319  1.00 20.00     0.022 C 
HETATM    8 BR8  UNL     1     -34.647  14.757  -6.324  1.00 20.00    -0.091 Br
ENDBRANCH   2   6
TORSDOF 2
ENDMDL
MODEL 7
REMARK VINA RESULT:      -3.5     11.215     12.291
REMARK  2 active torsions:
REMARK  status: ('A' for Active; 'I' for Inactive)
REMARK    1  A    between atoms: C3_3  and  C6_6 
REMARK    2  A    between atoms: C6_6  and  C7_7 
ROOT
HETATM    1  C4  UNL     1     -36.527  15.921  -3.399  1.00 20.00     0.011 C 
HETATM    2  C6  UNL     1     -35.085  15.660  -3.767  1.00 20.00    -0.001 C 
ENDROOT
BRANCH   2   3
HETATM    3  C3  UNL     1     -34.764  14.172  -3.582  1.00 20.00    -0.010 A 
HETATM    4  C1  UNL     1     -34.423  13.317  -4.772  1.00 20.00     0.005 A 
HETATM    5  C2  UNL     1     -33.359  13.672  -3.771  1.00 20.00     0.005 A 
ENDBRANCH   2   3
BRANCH   2   6
HETATM    6  C7  UNL     1     -34.076  16.534  -2.995  1.00 20.00     0.058 C 
HETATM    7  C5  UNL     1     -33.872  17.946  -3.526  1.00 20.00     0.022 C 
HETATM    8 BR8  UNL     1     -34.595  16.653  -1.101  1.00 20.00    -0.091 Br
ENDBRANCH   2   6
TORSDOF 2
ENDMDL
MODEL 8
REMARK VINA RESULT:      -3.4     11.499     12.490
REMARK  2 active torsions:
REMARK  status: ('A' for Active; 'I' for Inactive)
REMARK    1  A    between atoms: C3_3  and  C6_6 
REMARK    2  A    between atoms: C6_6  and  C7_7 
ROOT
HETATM    1  C4  UNL     1     -33.579  17.335  -4.427  1.00 20.00     0.011 C 
HETATM    2  C6  UNL     1     -33.747  16.179  -3.469  1.00 20.00    -0.001 C 
ENDROOT
BRANCH   2   3
HETATM    3  C3  UNL     1     -33.845  14.865  -4.253  1.00 20.00    -0.010 A 
HETATM    4  C1  UNL     1     -33.190  13.617  -3.726  1.00 20.00     0.005 A 
HETATM    5  C2  UNL     1     -34.689  13.734  -3.732  1.00 20.00     0.005 A 
ENDBRANCH   2   3
BRANCH   2   6
HETATM    6  C7  UNL     1     -34.945  16.332  -2.509  1.00 20.00     0.058 C 
HETATM    7  C5  UNL     1     -34.602  16.534  -1.040  1.00 20.00     0.022 C 
HETATM    8 BR8  UNL     1     -36.089  17.824  -3.090  1.00 20.00    -0.091 Br
ENDBRANCH   2   6
TORSDOF 2
ENDMDL
MODEL 9
REMARK VINA RESULT:      -3.4     11.752     13.379
REMARK  2 active torsions:
REMARK  status: ('A' for Active; 'I' for Inactive)
REMARK    1  A    between atoms: C3_3  and  C6_6 
REMARK    2  A    between atoms: C6_6  and  C7_7 
ROOT
HETATM    1  C4  UNL     1     -33.443  17.243  -4.900  1.00 20.00     0.011 C 
HETATM    2  C6  UNL     1     -33.782  15.815  -5.261  1.00 20.00    -0.001 C 
ENDROOT
BRANCH   2   3
HETATM    3  C3  UNL     1     -34.830  15.798  -6.380  1.00 20.00    -0.010 A 
HETATM    4  C1  UNL     1     -34.613  14.956  -7.608  1.00 20.00     0.005 A 
HETATM    5  C2  UNL     1     -35.671  14.573  -6.611  1.00 20.00     0.005 A 
ENDBRANCH   2   3
BRANCH   2   6
HETATM    6  C7  UNL     1     -34.249  14.962  -4.064  1.00 20.00     0.058 C 
HETATM    7  C5  UNL     1     -33.400  13.742  -3.741  1.00 20.00     0.022 C 
HETATM    8 BR8  UNL     1     -34.372  16.078  -2.447  1.00 20.00    -0.091 Br
ENDBRANCH   2   6
TORSDOF 2
ENDMDL
