MODEL 1
REMARK VINA RESULT:      -4.4      0.000      0.000
REMARK  3 active torsions:
REMARK  status: ('A' for Active; 'I' for Inactive)
REMARK    1  A    between atoms: C5_5  and  S11_11 
REMARK    2  A    between atoms: C8_8  and  C9_9 
REMARK    3  A    between atoms: C9_9  and  S11_11 
ROOT
HETATM    1  C1  UNL     1     -37.061  14.808  -4.332  1.00 20.00     0.080 C 
HETATM    2  C2  UNL     1     -35.198  14.241  -6.628  1.00 20.00     0.009 C 
HETATM    3  C3  UNL     1     -36.051  15.525  -6.551  1.00 20.00     0.037 C 
HETATM    4  C4  UNL     1     -34.646  14.596  -5.222  1.00 20.00     0.014 C 
HETATM    5  C5  UNL     1     -35.947  15.436  -5.006  1.00 20.00     0.100 C 
HETATM    6  C6  UNL     1     -34.345  13.417  -4.313  1.00 20.00     0.012 C 
HETATM    7  N10 UNL     1     -37.955  14.305  -3.790  1.00 20.00    -0.196 NA
ENDROOT
BRANCH   5   8
HETATM    8  S11 UNL     1     -35.588  17.064  -4.248  1.00 20.00    -0.143 SA
BRANCH   8   9
HETATM    9  C9  UNL     1     -35.915  16.613  -2.531  1.00 20.00     0.075 C 
BRANCH   9  10
HETATM   10  C8  UNL     1     -34.615  16.275  -1.810  1.00 20.00     0.006 C 
HETATM   11  C7  UNL     1     -34.549  16.956  -0.450  1.00 20.00     0.006 C 
ENDBRANCH   9  10
ENDBRANCH   8   9
ENDBRANCH   5   8
TORSDOF 3
ENDMDL
MODEL 2
REMARK VINA RESULT:      -4.3      2.026      2.696
REMARK  3 active torsions:
REMARK  status: ('A' for Active; 'I' for Inactive)
REMARK    1  A    between atoms: C5_5  and  S11_11 
REMARK    2  A    between atoms: C8_8  and  C9_9 
REMARK    3  A    between atoms: C9_9  and  S11_11 
ROOT
HETATM    1  C1  UNL     1     -33.849  16.085  -4.699  1.00 20.00     0.080 C 
HETATM    2  C2  UNL     1     -34.469  13.146  -4.906  1.00 20.00     0.009 C 
HETATM    3  C3  UNL     1     -34.354  13.874  -3.550  1.00 20.00     0.037 C 
HETATM    4  C4  UNL     1     -35.516  14.213  -5.321  1.00 20.00     0.014 C 
HETATM    5  C5  UNL     1     -34.865  15.156  -4.258  1.00 20.00     0.100 C 
HETATM    6  C6  UNL     1     -35.512  14.608  -6.788  1.00 20.00     0.012 C 
HETATM    7  N10 UNL     1     -33.034  16.831  -5.052  1.00 20.00    -0.196 NA
ENDROOT
BRANCH   5   8
HETATM    8  S11 UNL     1     -36.128  16.032  -3.261  1.00 20.00    -0.143 SA
BRANCH   8   9
HETATM    9  C9  UNL     1     -35.014  17.131  -2.362  1.00 20.00     0.075 C 
BRANCH   9  10
HETATM   10  C8  UNL     1     -34.571  16.489  -1.052  1.00 20.00     0.006 C 
HETATM   11  C7  UNL     1     -34.956  17.354   0.140  1.00 20.00     0.006 C 
ENDBRANCH   9  10
ENDBRANCH   8   9
ENDBRANCH   5   8
TORSDOF 3
ENDMDL
MODEL 3
REMARK VINA RESULT:      -4.3      1.697      2.103
REMARK  3 active torsions:
REMARK  status: ('A' for Active; 'I' for Inactive)
REMARK    1  A    between atoms: C5_5  and  S11_11 
REMARK    2  A    between atoms: C8_8  and  C9_9 
REMARK    3  A    between atoms: C9_9  and  S11_11 
ROOT
HETATM    1  C1  UNL     1     -35.098  13.681  -4.941  1.00 20.00     0.080 C 
HETATM    2  C2  UNL     1     -34.319  15.136  -7.459  1.00 20.00     0.009 C 
HETATM    3  C3  UNL     1     -35.722  14.523  -7.257  1.00 20.00     0.037 C 
HETATM    4  C4  UNL     1     -34.529  15.903  -6.127  1.00 20.00     0.014 C 
HETATM    5  C5  UNL     1     -35.560  14.794  -5.738  1.00 20.00     0.100 C 
HETATM    6  C6  UNL     1     -33.285  16.112  -5.281  1.00 20.00     0.012 C 
HETATM    7  N10 UNL     1     -34.727  12.787  -4.301  1.00 20.00    -0.196 NA
ENDROOT
BRANCH   5   8
HETATM    8  S11 UNL     1     -37.080  15.506  -5.004  1.00 20.00    -0.143 SA
BRANCH   8   9
HETATM    9  C9  UNL     1     -36.639  15.290  -3.267  1.00 20.00     0.075 C 
BRANCH   9  10
HETATM   10  C8  UNL     1     -35.931  16.531  -2.737  1.00 20.00     0.006 C 
HETATM   11  C7  UNL     1     -34.755  16.153  -1.848  1.00 20.00     0.006 C 
ENDBRANCH   9  10
ENDBRANCH   8   9
ENDBRANCH   5   8
TORSDOF 3
ENDMDL
MODEL 4
REMARK VINA RESULT:      -4.3      1.620      2.409
REMARK  3 active torsions:
REMARK  status: ('A' for Active; 'I' for Inactive)
REMARK    1  A    between atoms: C5_5  and  S11_11 
REMARK    2  A    between atoms: C8_8  and  C9_9 
REMARK    3  A    between atoms: C9_9  and  S11_11 
ROOT
HETATM    1  C1  UNL     1     -34.985  13.878  -4.903  1.00 20.00     0.080 C 
HETATM    2  C2  UNL     1     -37.106  15.622  -6.139  1.00 20.00     0.009 C 
HETATM    3  C3  UNL     1     -36.413  15.978  -4.805  1.00 20.00     0.037 C 
HETATM    4  C4  UNL     1     -35.694  15.513  -6.772  1.00 20.00     0.014 C 
HETATM    5  C5  UNL     1     -35.149  15.249  -5.331  1.00 20.00     0.100 C 
HETATM    6  C6  UNL     1     -35.533  14.454  -7.850  1.00 20.00     0.012 C 
HETATM    7  N10 UNL     1     -34.852  12.778  -4.560  1.00 20.00    -0.196 NA
ENDROOT
BRANCH   5   8
HETATM    8  S11 UNL     1     -33.620  16.201  -4.996  1.00 20.00    -0.143 SA
BRANCH   8   9
HETATM    9  C9  UNL     1     -33.311  15.591  -3.326  1.00 20.00     0.075 C 
BRANCH   9  10
HETATM   10  C8  UNL     1     -33.617  16.673  -2.297  1.00 20.00     0.006 C 
HETATM   11  C7  UNL     1     -34.787  16.272  -1.411  1.00 20.00     0.006 C 
ENDBRANCH   9  10
ENDBRANCH   8   9
ENDBRANCH   5   8
TORSDOF 3
ENDMDL
MODEL 5
REMARK VINA RESULT:      -4.1      1.972      4.428
REMARK  3 active torsions:
REMARK  status: ('A' for Active; 'I' for Inactive)
REMARK    1  A    between atoms: C5_5  and  S11_11 
REMARK    2  A    between atoms: C8_8  and  C9_9 
REMARK    3  A    between atoms: C9_9  and  S11_11 
ROOT
HETATM    1  C1  UNL     1     -33.653  14.315  -3.774  1.00 20.00     0.080 C 
HETATM    2  C2  UNL     1     -35.007  16.170  -1.828  1.00 20.00     0.009 C 
HETATM    3  C3  UNL     1     -33.595  16.445  -2.389  1.00 20.00     0.037 C 
HETATM    4  C4  UNL     1     -35.501  16.053  -3.293  1.00 20.00     0.014 C 
HETATM    5  C5  UNL     1     -34.027  15.708  -3.684  1.00 20.00     0.100 C 
HETATM    6  C6  UNL     1     -36.607  15.041  -3.540  1.00 20.00     0.012 C 
HETATM    7  N10 UNL     1     -33.352  13.196  -3.847  1.00 20.00    -0.196 NA
ENDROOT
BRANCH   5   8
HETATM    8  S11 UNL     1     -33.495  16.602  -5.191  1.00 20.00    -0.143 SA
BRANCH   8   9
HETATM    9  C9  UNL     1     -34.102  15.415  -6.408  1.00 20.00     0.075 C 
BRANCH   9  10
HETATM   10  C8  UNL     1     -35.329  15.965  -7.126  1.00 20.00     0.006 C 
HETATM   11  C7  UNL     1     -36.356  14.869  -7.373  1.00 20.00     0.006 C 
ENDBRANCH   9  10
ENDBRANCH   8   9
ENDBRANCH   5   8
TORSDOF 3
ENDMDL
MODEL 6
REMARK VINA RESULT:      -4.1      1.767      2.972
REMARK  3 active torsions:
REMARK  status: ('A' for Active; 'I' for Inactive)
REMARK    1  A    between atoms: C5_5  and  S11_11 
REMARK    2  A    between atoms: C8_8  and  C9_9 
REMARK    3  A    between atoms: C9_9  and  S11_11 
ROOT
HETATM    1  C1  UNL     1     -36.674  14.487  -4.142  1.00 20.00     0.080 C 
HETATM    2  C2  UNL     1     -33.885  13.548  -3.508  1.00 20.00     0.009 C 
HETATM    3  C3  UNL     1     -34.537  13.334  -4.891  1.00 20.00     0.037 C 
HETATM    4  C4  UNL     1     -34.203  15.059  -3.660  1.00 20.00     0.014 C 
HETATM    5  C5  UNL     1     -35.333  14.644  -4.657  1.00 20.00     0.100 C 
HETATM    6  C6  UNL     1     -34.555  15.793  -2.377  1.00 20.00     0.012 C 
HETATM    7  N10 UNL     1     -37.752  14.362  -3.730  1.00 20.00    -0.196 NA
ENDROOT
BRANCH   5   8
HETATM    8  S11 UNL     1     -35.351  15.710  -6.147  1.00 20.00    -0.143 SA
BRANCH   8   9
HETATM    9  C9  UNL     1     -36.222  17.120  -5.430  1.00 20.00     0.075 C 
BRANCH   9  10
HETATM   10  C8  UNL     1     -35.280  18.310  -5.280  1.00 20.00     0.006 C 
HETATM   11  C7  UNL     1     -33.908  17.999  -5.862  1.00 20.00     0.006 C 
ENDBRANCH   9  10
ENDBRANCH   8   9
ENDBRANCH   5   8
TORSDOF 3
ENDMDL
MODEL 7
REMARK VINA RESULT:      -4.0      1.636      1.768
REMARK  3 active torsions:
REMARK  status: ('A' for Active; 'I' for Inactive)
REMARK    1  A    between atoms: C5_5  and  S11_11 
REMARK    2  A    between atoms: C8_8  and  C9_9 
REMARK    3  A    between atoms: C9_9  and  S11_11 
ROOT
HETATM    1  C1  UNL     1     -36.043  16.638  -5.278  1.00 20.00     0.080 C 
HETATM    2  C2  UNL     1     -35.214  14.205  -6.845  1.00 20.00     0.009 C 
HETATM    3  C3  UNL     1     -34.697  15.621  -7.179  1.00 20.00     0.037 C 
HETATM    4  C4  UNL     1     -34.711  14.430  -5.395  1.00 20.00     0.014 C 
HETATM    5  C5  UNL     1     -34.827  15.964  -5.672  1.00 20.00     0.100 C 
HETATM    6  C6  UNL     1     -35.547  13.791  -4.299  1.00 20.00     0.012 C 
HETATM    7  N10 UNL     1     -37.019  17.181  -4.961  1.00 20.00    -0.196 NA
ENDROOT
BRANCH   5   8
HETATM    8  S11 UNL     1     -33.368  16.880  -5.049  1.00 20.00    -0.143 SA
BRANCH   8   9
HETATM    9  C9  UNL     1     -34.063  17.404  -3.468  1.00 20.00     0.075 C 
BRANCH   9  10
HETATM   10  C8  UNL     1     -33.686  16.419  -2.366  1.00 20.00     0.006 C 
HETATM   11  C7  UNL     1     -34.718  16.428  -1.247  1.00 20.00     0.006 C 
ENDBRANCH   9  10
ENDBRANCH   8   9
ENDBRANCH   5   8
TORSDOF 3
ENDMDL
MODEL 8
REMARK VINA RESULT:      -4.0      1.353      1.424
REMARK  3 active torsions:
REMARK  status: ('A' for Active; 'I' for Inactive)
REMARK    1  A    between atoms: C5_5  and  S11_11 
REMARK    2  A    between atoms: C8_8  and  C9_9 
REMARK    3  A    between atoms: C9_9  and  S11_11 
ROOT
HETATM    1  C1  UNL     1     -36.095  16.087  -4.559  1.00 20.00     0.080 C 
HETATM    2  C2  UNL     1     -34.719  14.552  -6.753  1.00 20.00     0.009 C 
HETATM    3  C3  UNL     1     -34.501  16.065  -6.538  1.00 20.00     0.037 C 
HETATM    4  C4  UNL     1     -34.325  14.346  -5.267  1.00 20.00     0.014 C 
HETATM    5  C5  UNL     1     -34.752  15.830  -5.026  1.00 20.00     0.100 C 
HETATM    6  C6  UNL     1     -35.045  13.222  -4.542  1.00 20.00     0.012 C 
HETATM    7  N10 UNL     1     -37.174  16.293  -4.184  1.00 20.00    -0.196 NA
ENDROOT
BRANCH   5   8
HETATM    8  S11 UNL     1     -33.541  16.726  -3.983  1.00 20.00    -0.143 SA
BRANCH   8   9
HETATM    9  C9  UNL     1     -34.161  16.194  -2.373  1.00 20.00     0.075 C 
BRANCH   9  10
HETATM   10  C8  UNL     1     -33.854  17.241  -1.309  1.00 20.00     0.006 C 
HETATM   11  C7  UNL     1     -34.763  17.076  -0.100  1.00 20.00     0.006 C 
ENDBRANCH   9  10
ENDBRANCH   8   9
ENDBRANCH   5   8
TORSDOF 3
ENDMDL
MODEL 9
REMARK VINA RESULT:      -3.9      1.946      3.054
REMARK  3 active torsions:
REMARK  status: ('A' for Active; 'I' for Inactive)
REMARK    1  A    between atoms: C5_5  and  S11_11 
REMARK    2  A    between atoms: C8_8  and  C9_9 
REMARK    3  A    between atoms: C9_9  and  S11_11 
ROOT
HETATM    1  C1  UNL     1     -34.936  13.817  -4.767  1.00 20.00     0.080 C 
HETATM    2  C2  UNL     1     -33.252  16.311  -4.853  1.00 20.00     0.009 C 
HETATM    3  C3  UNL     1     -34.099  15.841  -6.055  1.00 20.00     0.037 C 
HETATM    4  C4  UNL     1     -34.545  16.250  -3.997  1.00 20.00     0.014 C 
HETATM    5  C5  UNL     1     -35.098  15.226  -5.041  1.00 20.00     0.100 C 
HETATM    6  C6  UNL     1     -34.360  15.832  -2.549  1.00 20.00     0.012 C 
HETATM    7  N10 UNL     1     -34.807  12.685  -4.547  1.00 20.00    -0.196 NA
ENDROOT
BRANCH   5   8
HETATM    8  S11 UNL     1     -36.838  15.584  -5.490  1.00 20.00    -0.143 SA
BRANCH   8   9
HETATM    9  C9  UNL     1     -37.629  14.714  -4.121  1.00 20.00     0.075 C 
BRANCH   9  10
HETATM   10  C8  UNL     1     -38.701  15.589  -3.480  1.00 20.00     0.006 C 
HETATM   11  C7  UNL     1     -38.149  16.964  -3.132  1.00 20.00     0.006 C 
ENDBRANCH   9  10
ENDBRANCH   8   9
ENDBRANCH   5   8
TORSDOF 3
ENDMDL
