MODEL 1
REMARK VINA RESULT:      -4.5      0.000      0.000
REMARK  2 active torsions:
REMARK  status: ('A' for Active; 'I' for Inactive)
REMARK    1  A    between atoms: C8_8  and  C9_9 
REMARK    2  A    between atoms: C9_9  and  N11_11 
ROOT
HETATM    1  C1  UNL     1     -34.270  13.882  -4.187  1.00 20.00     0.060 C 
HETATM    2  C8  UNL     1     -33.753  15.185  -3.743  1.00 20.00     0.154 C 
HETATM    3  N10 UNL     1     -34.675  12.852  -4.537  1.00 20.00    -0.197 NA
ENDROOT
BRANCH   2   4
HETATM    4  C9  UNL     1     -34.799  16.288  -3.876  1.00 20.00     0.286 C 
BRANCH   4   5
HETATM    5  N11 UNL     1     -34.853  17.099  -2.669  1.00 20.00     0.090 N 
HETATM    6  C2  UNL     1     -34.769  16.295  -1.445  1.00 20.00     0.277 C 
HETATM    7  C4  UNL     1     -34.210  17.252  -0.380  1.00 20.00     0.015 C 
HETATM    8  C5  UNL     1     -33.894  18.544  -1.151  1.00 20.00     0.015 C 
HETATM    9  C6  UNL     1     -35.182  17.490   0.768  1.00 20.00     0.012 C 
HETATM   10  C3  UNL     1     -33.758  18.065  -2.591  1.00 20.00     0.277 C 
HETATM   11  C7  UNL     1     -32.652  19.263  -0.647  1.00 20.00     0.012 C 
ENDBRANCH   4   5
ENDBRANCH   2   4
TORSDOF 2
ENDMDL
MODEL 2
REMARK VINA RESULT:      -4.3      1.886      5.070
REMARK  2 active torsions:
REMARK  status: ('A' for Active; 'I' for Inactive)
REMARK    1  A    between atoms: C8_8  and  C9_9 
REMARK    2  A    between atoms: C9_9  and  N11_11 
ROOT
HETATM    1  C1  UNL     1     -32.484  18.593  -0.336  1.00 20.00     0.060 C 
HETATM    2  C8  UNL     1     -33.598  17.742  -0.780  1.00 20.00     0.154 C 
HETATM    3  N10 UNL     1     -31.604  19.262   0.017  1.00 20.00    -0.197 NA
ENDROOT
BRANCH   2   4
HETATM    4  C9  UNL     1     -34.291  18.310  -2.015  1.00 20.00     0.286 C 
BRANCH   4   5
HETATM    5  N11 UNL     1     -34.459  17.284  -3.032  1.00 20.00     0.090 N 
HETATM    6  C2  UNL     1     -33.617  17.514  -4.210  1.00 20.00     0.277 C 
HETATM    7  C4  UNL     1     -33.422  16.123  -4.836  1.00 20.00     0.015 C 
HETATM    8  C5  UNL     1     -34.100  15.158  -3.850  1.00 20.00     0.015 C 
HETATM    9  C6  UNL     1     -34.009  16.020  -6.238  1.00 20.00     0.012 C 
HETATM   10  C3  UNL     1     -34.114  15.947  -2.547  1.00 20.00     0.277 C 
HETATM   11  C7  UNL     1     -33.387  13.821  -3.723  1.00 20.00     0.012 C 
ENDBRANCH   4   5
ENDBRANCH   2   4
TORSDOF 2
ENDMDL
MODEL 3
REMARK VINA RESULT:      -4.3      0.807      2.029
REMARK  2 active torsions:
REMARK  status: ('A' for Active; 'I' for Inactive)
REMARK    1  A    between atoms: C8_8  and  C9_9 
REMARK    2  A    between atoms: C9_9  and  N11_11 
ROOT
HETATM    1  C1  UNL     1     -34.076  13.951  -3.693  1.00 20.00     0.060 C 
HETATM    2  C8  UNL     1     -35.119  14.979  -3.552  1.00 20.00     0.154 C 
HETATM    3  N10 UNL     1     -33.256  13.138  -3.803  1.00 20.00    -0.197 NA
ENDROOT
BRANCH   2   4
HETATM    4  C9  UNL     1     -34.537  16.389  -3.588  1.00 20.00     0.286 C 
BRANCH   4   5
HETATM    5  N11 UNL     1     -34.034  16.775  -2.279  1.00 20.00     0.090 N 
HETATM    6  C2  UNL     1     -33.639  18.186  -2.221  1.00 20.00     0.277 C 
HETATM    7  C4  UNL     1     -33.759  18.571  -0.738  1.00 20.00     0.015 C 
HETATM    8  C5  UNL     1     -34.355  17.324  -0.063  1.00 20.00     0.015 C 
HETATM    9  C6  UNL     1     -32.425  18.975  -0.123  1.00 20.00     0.012 C 
HETATM   10  C3  UNL     1     -35.025  16.592  -1.219  1.00 20.00     0.277 C 
HETATM   11  C7  UNL     1     -35.317  17.649   1.069  1.00 20.00     0.012 C 
ENDBRANCH   4   5
ENDBRANCH   2   4
TORSDOF 2
ENDMDL
MODEL 4
REMARK VINA RESULT:      -4.3      1.836      4.943
REMARK  2 active torsions:
REMARK  status: ('A' for Active; 'I' for Inactive)
REMARK    1  A    between atoms: C8_8  and  C9_9 
REMARK    2  A    between atoms: C9_9  and  N11_11 
ROOT
HETATM    1  C1  UNL     1     -34.780  17.379   0.304  1.00 20.00     0.060 C 
HETATM    2  C8  UNL     1     -34.763  16.558  -0.916  1.00 20.00     0.154 C 
HETATM    3  N10 UNL     1     -34.796  18.025   1.268  1.00 20.00    -0.197 NA
ENDROOT
BRANCH   2   4
HETATM    4  C9  UNL     1     -33.713  17.040  -1.912  1.00 20.00     0.286 C 
BRANCH   4   5
HETATM    5  N11 UNL     1     -33.602  16.120  -3.034  1.00 20.00     0.090 N 
HETATM    6  C2  UNL     1     -34.696  15.144  -3.074  1.00 20.00     0.277 C 
HETATM    7  C4  UNL     1     -34.798  14.722  -4.548  1.00 20.00     0.015 C 
HETATM    8  C5  UNL     1     -33.788  15.624  -5.278  1.00 20.00     0.015 C 
HETATM    9  C6  UNL     1     -34.505  13.242  -4.760  1.00 20.00     0.012 C 
HETATM   10  C3  UNL     1     -33.627  16.804  -4.327  1.00 20.00     0.277 C 
HETATM   11  C7  UNL     1     -34.243  16.042  -6.667  1.00 20.00     0.012 C 
ENDBRANCH   4   5
ENDBRANCH   2   4
TORSDOF 2
ENDMDL
MODEL 5
REMARK VINA RESULT:      -4.3      1.366      1.998
REMARK  2 active torsions:
REMARK  status: ('A' for Active; 'I' for Inactive)
REMARK    1  A    between atoms: C8_8  and  C9_9 
REMARK    2  A    between atoms: C9_9  and  N11_11 
ROOT
HETATM    1  C1  UNL     1     -34.056  13.632  -4.209  1.00 20.00     0.060 C 
HETATM    2  C8  UNL     1     -33.121  14.678  -3.771  1.00 20.00     0.154 C 
HETATM    3  N10 UNL     1     -34.794  12.804  -4.553  1.00 20.00    -0.197 NA
ENDROOT
BRANCH   2   4
HETATM    4  C9  UNL     1     -33.399  16.014  -4.454  1.00 20.00     0.286 C 
BRANCH   4   5
HETATM    5  N11 UNL     1     -33.970  16.967  -3.514  1.00 20.00     0.090 N 
HETATM    6  C2  UNL     1     -35.428  17.065  -3.628  1.00 20.00     0.277 C 
HETATM    7  C4  UNL     1     -35.901  17.555  -2.249  1.00 20.00     0.015 C 
HETATM    8  C5  UNL     1     -34.626  17.578  -1.390  1.00 20.00     0.015 C 
HETATM    9  C6  UNL     1     -36.581  18.917  -2.307  1.00 20.00     0.012 C 
HETATM   10  C3  UNL     1     -33.698  16.615  -2.120  1.00 20.00     0.277 C 
HETATM   11  C7  UNL     1     -34.864  17.185   0.060  1.00 20.00     0.012 C 
ENDBRANCH   4   5
ENDBRANCH   2   4
TORSDOF 2
ENDMDL
MODEL 6
REMARK VINA RESULT:      -4.1      1.838      5.183
REMARK  2 active torsions:
REMARK  status: ('A' for Active; 'I' for Inactive)
REMARK    1  A    between atoms: C8_8  and  C9_9 
REMARK    2  A    between atoms: C9_9  and  N11_11 
ROOT
HETATM    1  C1  UNL     1     -34.898  17.232   0.169  1.00 20.00     0.060 C 
HETATM    2  C8  UNL     1     -34.496  16.568  -1.081  1.00 20.00     0.154 C 
HETATM    3  N10 UNL     1     -35.215  17.753   1.156  1.00 20.00    -0.197 NA
ENDROOT
BRANCH   2   4
HETATM    4  C9  UNL     1     -34.653  17.485  -2.289  1.00 20.00     0.286 C 
BRANCH   4   5
HETATM    5  N11 UNL     1     -34.914  16.714  -3.495  1.00 20.00     0.090 N 
HETATM    6  C2  UNL     1     -33.813  16.787  -4.460  1.00 20.00     0.277 C 
HETATM    7  C4  UNL     1     -33.934  15.503  -5.297  1.00 20.00     0.015 C 
HETATM    8  C5  UNL     1     -35.071  14.713  -4.629  1.00 20.00     0.015 C 
HETATM    9  C6  UNL     1     -34.214  15.782  -6.769  1.00 20.00     0.012 C 
HETATM   10  C3  UNL     1     -35.113  15.291  -3.220  1.00 20.00     0.277 C 
HETATM   11  C7  UNL     1     -34.855  13.208  -4.644  1.00 20.00     0.012 C 
ENDBRANCH   4   5
ENDBRANCH   2   4
TORSDOF 2
ENDMDL
MODEL 7
REMARK VINA RESULT:      -4.1      1.364      1.854
REMARK  2 active torsions:
REMARK  status: ('A' for Active; 'I' for Inactive)
REMARK    1  A    between atoms: C8_8  and  C9_9 
REMARK    2  A    between atoms: C9_9  and  N11_11 
ROOT
HETATM    1  C1  UNL     1     -34.099  13.481  -4.116  1.00 20.00     0.060 C 
HETATM    2  C8  UNL     1     -33.001  14.365  -3.697  1.00 20.00     0.154 C 
HETATM    3  N10 UNL     1     -34.965  12.782  -4.446  1.00 20.00    -0.197 NA
ENDROOT
BRANCH   2   4
HETATM    4  C9  UNL     1     -33.383  15.838  -3.802  1.00 20.00     0.286 C 
BRANCH   4   5
HETATM    5  N11 UNL     1     -34.311  16.209  -2.745  1.00 20.00     0.090 N 
HETATM    6  C2  UNL     1     -33.658  16.931  -1.649  1.00 20.00     0.277 C 
HETATM    7  C4  UNL     1     -34.775  17.765  -1.002  1.00 20.00     0.015 C 
HETATM    8  C5  UNL     1     -36.001  17.530  -1.900  1.00 20.00     0.015 C 
HETATM    9  C6  UNL     1     -35.040  17.375   0.446  1.00 20.00     0.012 C 
HETATM   10  C3  UNL     1     -35.383  17.084  -3.220  1.00 20.00     0.277 C 
HETATM   11  C7  UNL     1     -36.889  18.756  -2.048  1.00 20.00     0.012 C 
ENDBRANCH   4   5
ENDBRANCH   2   4
TORSDOF 2
ENDMDL
MODEL 8
REMARK VINA RESULT:      -4.0      1.924      5.135
REMARK  2 active torsions:
REMARK  status: ('A' for Active; 'I' for Inactive)
REMARK    1  A    between atoms: C8_8  and  C9_9 
REMARK    2  A    between atoms: C9_9  and  N11_11 
ROOT
HETATM    1  C1  UNL     1     -34.371  17.703   0.262  1.00 20.00     0.060 C 
HETATM    2  C8  UNL     1     -34.614  16.661  -0.747  1.00 20.00     0.154 C 
HETATM    3  N10 UNL     1     -34.181  18.524   1.061  1.00 20.00    -0.197 NA
ENDROOT
BRANCH   2   4
HETATM    4  C9  UNL     1     -33.936  16.985  -2.075  1.00 20.00     0.286 C 
BRANCH   4   5
HETATM    5  N11 UNL     1     -34.540  16.232  -3.163  1.00 20.00     0.090 N 
HETATM    6  C2  UNL     1     -34.157  14.817  -3.150  1.00 20.00     0.277 C 
HETATM    7  C4  UNL     1     -35.298  14.090  -3.879  1.00 20.00     0.015 C 
HETATM    8  C5  UNL     1     -36.342  15.186  -4.151  1.00 20.00     0.015 C 
HETATM    9  C6  UNL     1     -34.839  13.403  -5.158  1.00 20.00     0.012 C 
HETATM   10  C3  UNL     1     -36.003  16.252  -3.116  1.00 20.00     0.277 C 
HETATM   11  C7  UNL     1     -37.778  14.696  -4.046  1.00 20.00     0.012 C 
ENDBRANCH   4   5
ENDBRANCH   2   4
TORSDOF 2
ENDMDL
MODEL 9
REMARK VINA RESULT:      -4.0     12.928     14.798
REMARK  2 active torsions:
REMARK  status: ('A' for Active; 'I' for Inactive)
REMARK    1  A    between atoms: C8_8  and  C9_9 
REMARK    2  A    between atoms: C9_9  and  N11_11 
ROOT
HETATM    1  C1  UNL     1     -41.596   0.844  -3.828  1.00 20.00     0.060 C 
HETATM    2  C8  UNL     1     -41.584   2.263  -3.441  1.00 20.00     0.154 C 
HETATM    3  N10 UNL     1     -41.604  -0.276  -4.134  1.00 20.00    -0.197 NA
ENDROOT
BRANCH   2   4
HETATM    4  C9  UNL     1     -42.859   2.664  -2.706  1.00 20.00     0.286 C 
BRANCH   4   5
HETATM    5  N11 UNL     1     -42.709   3.970  -2.084  1.00 20.00     0.090 N 
HETATM    6  C2  UNL     1     -41.344   4.215  -1.607  1.00 20.00     0.277 C 
HETATM    7  C4  UNL     1     -41.197   5.745  -1.591  1.00 20.00     0.015 C 
HETATM    8  C5  UNL     1     -42.508   6.264  -2.204  1.00 20.00     0.015 C 
HETATM    9  C6  UNL     1     -40.955   6.300  -0.194  1.00 20.00     0.012 C 
HETATM   10  C3  UNL     1     -43.016   5.069  -3.001  1.00 20.00     0.277 C 
HETATM   11  C7  UNL     1     -42.327   7.509  -3.058  1.00 20.00     0.012 C 
ENDBRANCH   4   5
ENDBRANCH   2   4
TORSDOF 2
ENDMDL
