MODEL 1
REMARK VINA RESULT:      -4.6      0.000      0.000
REMARK  1 active torsions:
REMARK  status: ('A' for Active; 'I' for Inactive)
REMARK    1  A    between atoms: C6_6  and  C10_10 
ROOT
HETATM    1  C1  UNL     1     -35.155  13.475  -4.427  1.00 20.00     0.001 C 
HETATM    2  C2  UNL     1     -34.318  14.236  -3.402  1.00 20.00     0.005 C 
HETATM    3  C3  UNL     1     -35.764  16.346  -3.865  1.00 20.00     0.006 C 
HETATM    4  C4  UNL     1     -34.900  13.950  -5.859  1.00 20.00     0.008 C 
HETATM    5  C5  UNL     1     -35.152  16.456  -5.265  1.00 20.00     0.009 C 
HETATM    6  C6  UNL     1     -34.972  15.510  -2.851  1.00 20.00    -0.005 C 
HETATM    7  C7  UNL     1     -35.498  15.319  -6.261  1.00 20.00    -0.048 C 
HETATM    8  C8  UNL     1     -34.894  15.705  -7.633  1.00 20.00     0.015 C 
HETATM    9  C9  UNL     1     -37.022  15.188  -6.459  1.00 20.00     0.015 C 
ENDROOT
BRANCH   6  10
HETATM   10  C10 UNL     1     -33.909  16.364  -2.148  1.00 20.00     0.089 C 
HETATM   11 BR11 UNL     1     -34.647  17.073  -0.504  1.00 20.00    -0.096 Br
ENDBRANCH   6  10
TORSDOF 1
ENDMDL
MODEL 2
REMARK VINA RESULT:      -4.5      2.519      4.323
REMARK  1 active torsions:
REMARK  status: ('A' for Active; 'I' for Inactive)
REMARK    1  A    between atoms: C6_6  and  C10_10 
ROOT
HETATM    1  C1  UNL     1     -36.807  15.947  -3.319  1.00 20.00     0.001 C 
HETATM    2  C2  UNL     1     -36.357  15.118  -4.520  1.00 20.00     0.005 C 
HETATM    3  C3  UNL     1     -34.282  14.356  -3.151  1.00 20.00     0.006 C 
HETATM    4  C4  UNL     1     -35.901  17.155  -3.072  1.00 20.00     0.008 C 
HETATM    5  C5  UNL     1     -33.716  15.778  -3.223  1.00 20.00     0.009 C 
HETATM    6  C6  UNL     1     -35.350  14.007  -4.198  1.00 20.00    -0.005 C 
HETATM    7  C7  UNL     1     -34.507  16.874  -2.463  1.00 20.00    -0.048 C 
HETATM    8  C8  UNL     1     -33.688  18.184  -2.556  1.00 20.00     0.015 C 
HETATM    9  C9  UNL     1     -34.647  16.533  -0.965  1.00 20.00     0.015 C 
ENDROOT
BRANCH   6  10
HETATM   10  C10 UNL     1     -34.701  13.515  -5.498  1.00 20.00     0.089 C 
HETATM   11 BR11 UNL     1     -34.686  14.959  -6.788  1.00 20.00    -0.096 Br
ENDBRANCH   6  10
TORSDOF 1
ENDMDL
MODEL 3
REMARK VINA RESULT:      -4.5      1.603      3.116
REMARK  1 active torsions:
REMARK  status: ('A' for Active; 'I' for Inactive)
REMARK    1  A    between atoms: C6_6  and  C10_10 
ROOT
HETATM    1  C1  UNL     1     -33.277  16.683  -5.077  1.00 20.00     0.001 C 
HETATM    2  C2  UNL     1     -33.963  17.815  -4.317  1.00 20.00     0.005 C 
HETATM    3  C3  UNL     1     -33.849  16.369  -2.161  1.00 20.00     0.006 C 
HETATM    4  C4  UNL     1     -34.183  15.462  -5.248  1.00 20.00     0.008 C 
HETATM    5  C5  UNL     1     -34.880  15.404  -2.757  1.00 20.00     0.009 C 
HETATM    6  C6  UNL     1     -33.796  17.767  -2.794  1.00 20.00    -0.005 C 
HETATM    7  C7  UNL     1     -34.426  14.588  -3.995  1.00 20.00    -0.048 C 
HETATM    8  C8  UNL     1     -35.562  13.594  -4.335  1.00 20.00     0.015 C 
HETATM    9  C9  UNL     1     -33.168  13.750  -3.687  1.00 20.00     0.015 C 
ENDROOT
BRANCH   6  10
HETATM   10  C10 UNL     1     -34.819  18.703  -2.139  1.00 20.00     0.089 C 
HETATM   11 BR11 UNL     1     -34.948  18.287  -0.252  1.00 20.00    -0.096 Br
ENDBRANCH   6  10
TORSDOF 1
ENDMDL
MODEL 4
REMARK VINA RESULT:      -4.4      1.111      2.148
REMARK  1 active torsions:
REMARK  status: ('A' for Active; 'I' for Inactive)
REMARK    1  A    between atoms: C6_6  and  C10_10 
ROOT
HETATM    1  C1  UNL     1     -33.345  16.642  -5.130  1.00 20.00     0.001 C 
HETATM    2  C2  UNL     1     -33.649  17.021  -3.683  1.00 20.00     0.005 C 
HETATM    3  C3  UNL     1     -34.814  14.718  -3.378  1.00 20.00     0.006 C 
HETATM    4  C4  UNL     1     -34.604  16.601  -5.999  1.00 20.00     0.008 C 
HETATM    5  C5  UNL     1     -35.943  15.168  -4.311  1.00 20.00     0.009 C 
HETATM    6  C6  UNL     1     -33.970  15.841  -2.758  1.00 20.00    -0.005 C 
HETATM    7  C7  UNL     1     -35.558  15.401  -5.795  1.00 20.00    -0.048 C 
HETATM    8  C8  UNL     1     -36.863  15.709  -6.568  1.00 20.00     0.015 C 
HETATM    9  C9  UNL     1     -34.949  14.132  -6.426  1.00 20.00     0.015 C 
ENDROOT
BRANCH   6  10
HETATM   10  C10 UNL     1     -34.616  16.364  -1.469  1.00 20.00     0.089 C 
HETATM   11 BR11 UNL     1     -33.578  17.853  -0.795  1.00 20.00    -0.096 Br
ENDBRANCH   6  10
TORSDOF 1
ENDMDL
MODEL 5
REMARK VINA RESULT:      -4.4      2.412      4.215
REMARK  1 active torsions:
REMARK  status: ('A' for Active; 'I' for Inactive)
REMARK    1  A    between atoms: C6_6  and  C10_10 
ROOT
HETATM    1  C1  UNL     1     -34.707  13.374  -5.315  1.00 20.00     0.001 C 
HETATM    2  C2  UNL     1     -35.471  14.161  -6.377  1.00 20.00     0.005 C 
HETATM    3  C3  UNL     1     -33.762  16.099  -6.097  1.00 20.00     0.006 C 
HETATM    4  C4  UNL     1     -34.861  13.978  -3.917  1.00 20.00     0.008 C 
HETATM    5  C5  UNL     1     -34.316  16.384  -4.698  1.00 20.00     0.009 C 
HETATM    6  C6  UNL     1     -34.680  15.299  -7.033  1.00 20.00    -0.005 C 
HETATM    7  C7  UNL     1     -34.086  15.285  -3.628  1.00 20.00    -0.048 C 
HETATM    8  C8  UNL     1     -34.599  15.840  -2.277  1.00 20.00     0.015 C 
HETATM    9  C9  UNL     1     -32.585  14.977  -3.450  1.00 20.00     0.015 C 
ENDROOT
BRANCH   6  10
HETATM   10  C10 UNL     1     -35.647  16.229  -7.776  1.00 20.00     0.089 C 
HETATM   11 BR11 UNL     1     -37.426  16.018  -7.040  1.00 20.00    -0.096 Br
ENDBRANCH   6  10
TORSDOF 1
ENDMDL
MODEL 6
REMARK VINA RESULT:      -4.4      1.375      2.494
REMARK  1 active torsions:
REMARK  status: ('A' for Active; 'I' for Inactive)
REMARK    1  A    between atoms: C6_6  and  C10_10 
ROOT
HETATM    1  C1  UNL     1     -36.433  16.575  -4.638  1.00 20.00     0.001 C 
HETATM    2  C2  UNL     1     -35.809  17.206  -3.397  1.00 20.00     0.005 C 
HETATM    3  C3  UNL     1     -33.463  16.859  -4.461  1.00 20.00     0.006 C 
HETATM    4  C4  UNL     1     -36.147  15.075  -4.737  1.00 20.00     0.008 C 
HETATM    5  C5  UNL     1     -33.612  15.344  -4.290  1.00 20.00     0.009 C 
HETATM    6  C6  UNL     1     -34.378  17.725  -3.584  1.00 20.00    -0.005 C 
HETATM    7  C7  UNL     1     -34.713  14.659  -5.141  1.00 20.00    -0.048 C 
HETATM    8  C8  UNL     1     -34.591  13.133  -4.915  1.00 20.00     0.015 C 
HETATM    9  C9  UNL     1     -34.498  14.911  -6.648  1.00 20.00     0.015 C 
ENDROOT
BRANCH   6  10
HETATM   10  C10 UNL     1     -33.743  17.975  -2.210  1.00 20.00     0.089 C 
HETATM   11 BR11 UNL     1     -34.579  16.818  -0.902  1.00 20.00    -0.096 Br
ENDBRANCH   6  10
TORSDOF 1
ENDMDL
MODEL 7
REMARK VINA RESULT:      -4.2      2.540      4.203
REMARK  1 active torsions:
REMARK  status: ('A' for Active; 'I' for Inactive)
REMARK    1  A    between atoms: C6_6  and  C10_10 
ROOT
HETATM    1  C1  UNL     1     -35.042  13.831  -4.099  1.00 20.00     0.001 C 
HETATM    2  C2  UNL     1     -35.304  13.988  -5.594  1.00 20.00     0.005 C 
HETATM    3  C3  UNL     1     -33.796  16.105  -5.584  1.00 20.00     0.006 C 
HETATM    4  C4  UNL     1     -35.720  14.923  -3.269  1.00 20.00     0.008 C 
HETATM    5  C5  UNL     1     -34.851  16.850  -4.761  1.00 20.00     0.009 C 
HETATM    6  C6  UNL     1     -34.290  14.864  -6.341  1.00 20.00    -0.005 C 
HETATM    7  C7  UNL     1     -35.090  16.334  -3.318  1.00 20.00    -0.048 C 
HETATM    8  C8  UNL     1     -36.081  17.309  -2.636  1.00 20.00     0.015 C 
HETATM    9  C9  UNL     1     -33.790  16.358  -2.488  1.00 20.00     0.015 C 
ENDROOT
BRANCH   6  10
HETATM   10  C10 UNL     1     -34.861  15.249  -7.711  1.00 20.00     0.089 C 
HETATM   11 BR11 UNL     1     -36.789  15.071  -7.671  1.00 20.00    -0.096 Br
ENDBRANCH   6  10
TORSDOF 1
ENDMDL
MODEL 8
REMARK VINA RESULT:      -4.2      2.425      5.084
REMARK  1 active torsions:
REMARK  status: ('A' for Active; 'I' for Inactive)
REMARK    1  A    between atoms: C6_6  and  C10_10 
ROOT
HETATM    1  C1  UNL     1     -36.503  18.062  -2.462  1.00 20.00     0.001 C 
HETATM    2  C2  UNL     1     -36.126  17.331  -3.747  1.00 20.00     0.005 C 
HETATM    3  C3  UNL     1     -34.893  15.549  -2.312  1.00 20.00     0.006 C 
HETATM    4  C4  UNL     1     -35.295  18.715  -1.786  1.00 20.00     0.008 C 
HETATM    5  C5  UNL     1     -33.830  16.587  -1.940  1.00 20.00     0.009 C 
HETATM    6  C6  UNL     1     -35.726  15.862  -3.563  1.00 20.00    -0.005 C 
HETATM    7  C7  UNL     1     -34.304  17.774  -1.061  1.00 20.00    -0.048 C 
HETATM    8  C8  UNL     1     -33.052  18.610  -0.698  1.00 20.00     0.015 C 
HETATM    9  C9  UNL     1     -34.919  17.283   0.265  1.00 20.00     0.015 C 
ENDROOT
BRANCH   6  10
HETATM   10  C10 UNL     1     -35.019  15.363  -4.829  1.00 20.00     0.089 C 
HETATM   11 BR11 UNL     1     -34.530  13.504  -4.596  1.00 20.00    -0.096 Br
ENDBRANCH   6  10
TORSDOF 1
ENDMDL
MODEL 9
REMARK VINA RESULT:      -4.1      2.371      3.446
REMARK  1 active torsions:
REMARK  status: ('A' for Active; 'I' for Inactive)
REMARK    1  A    between atoms: C6_6  and  C10_10 
ROOT
HETATM    1  C1  UNL     1     -34.457  15.193  -6.758  1.00 20.00     0.001 C 
HETATM    2  C2  UNL     1     -34.191  16.689  -6.614  1.00 20.00     0.005 C 
HETATM    3  C3  UNL     1     -33.696  16.306  -4.091  1.00 20.00     0.006 C 
HETATM    4  C4  UNL     1     -35.746  14.759  -6.057  1.00 20.00     0.008 C 
HETATM    5  C5  UNL     1     -35.174  15.986  -3.852  1.00 20.00     0.009 C 
HETATM    6  C6  UNL     1     -33.379  17.086  -5.375  1.00 20.00    -0.005 C 
HETATM    7  C7  UNL     1     -35.715  14.691  -4.512  1.00 20.00    -0.048 C 
HETATM    8  C8  UNL     1     -37.173  14.498  -4.027  1.00 20.00     0.015 C 
HETATM    9  C9  UNL     1     -34.919  13.451  -4.056  1.00 20.00     0.015 C 
ENDROOT
BRANCH   6  10
HETATM   10  C10 UNL     1     -33.507  18.597  -5.144  1.00 20.00     0.089 C 
HETATM   11 BR11 UNL     1     -35.096  19.246  -6.040  1.00 20.00    -0.096 Br
ENDBRANCH   6  10
TORSDOF 1
ENDMDL
