MODEL 1
REMARK VINA RESULT:      -4.5      0.000      0.000
REMARK  1 active torsions:
REMARK  status: ('A' for Active; 'I' for Inactive)
REMARK    1  A    between atoms: C9_9  and  N10_10 
ROOT
HETATM    1  C1  UNL     1     -32.159   9.140   1.076  1.00 20.00     0.013 C 
HETATM    2  C2  UNL     1     -32.031   8.293   1.917  1.00 20.00    -0.087 C 
HETATM    3  C9  UNL     1     -31.870   7.259   2.943  1.00 20.00     0.364 C 
ENDROOT
BRANCH   3   4
HETATM    4  N10 UNL     1     -33.146   6.958   3.573  1.00 20.00     0.100 N 
HETATM    5  C3  UNL     1     -33.864   5.868   2.901  1.00 20.00     0.278 C 
HETATM    6  C5  UNL     1     -34.781   5.274   3.981  1.00 20.00     0.015 C 
HETATM    7  C6  UNL     1     -34.404   6.029   5.266  1.00 20.00     0.015 C 
HETATM    8  C7  UNL     1     -36.260   5.416   3.643  1.00 20.00     0.012 C 
HETATM    9  C4  UNL     1     -33.002   6.543   4.968  1.00 20.00     0.278 C 
HETATM   10  C8  UNL     1     -34.464   5.165   6.517  1.00 20.00     0.012 C 
ENDBRANCH   3   4
TORSDOF 1
ENDMDL
MODEL 2
REMARK VINA RESULT:      -4.3     10.961     11.622
REMARK  1 active torsions:
REMARK  status: ('A' for Active; 'I' for Inactive)
REMARK    1  A    between atoms: C9_9  and  N10_10 
ROOT
HETATM    1  C1  UNL     1     -35.112  17.405   0.647  1.00 20.00     0.013 C 
HETATM    2  C2  UNL     1     -34.646  17.060  -0.404  1.00 20.00    -0.087 C 
HETATM    3  C9  UNL     1     -34.073  16.642  -1.687  1.00 20.00     0.364 C 
ENDROOT
BRANCH   3   4
HETATM    4  N10 UNL     1     -34.919  15.648  -2.328  1.00 20.00     0.100 N 
HETATM    5  C3  UNL     1     -35.988  16.251  -3.133  1.00 20.00     0.278 C 
HETATM    6  C5  UNL     1     -36.340  15.187  -4.183  1.00 20.00     0.015 C 
HETATM    7  C6  UNL     1     -35.315  14.064  -3.956  1.00 20.00     0.015 C 
HETATM    8  C7  UNL     1     -37.775  14.688  -4.061  1.00 20.00     0.012 C 
HETATM    9  C4  UNL     1     -34.176  14.776  -3.237  1.00 20.00     0.278 C 
HETATM   10  C8  UNL     1     -34.868  13.381  -5.239  1.00 20.00     0.012 C 
ENDBRANCH   3   4
TORSDOF 1
ENDMDL
MODEL 3
REMARK VINA RESULT:      -4.2     11.106     11.850
REMARK  1 active torsions:
REMARK  status: ('A' for Active; 'I' for Inactive)
REMARK    1  A    between atoms: C9_9  and  N10_10 
ROOT
HETATM    1  C1  UNL     1     -34.787  17.013  -0.104  1.00 20.00     0.013 C 
HETATM    2  C2  UNL     1     -34.362  17.162  -1.217  1.00 20.00    -0.087 C 
HETATM    3  C9  UNL     1     -33.840  17.347  -2.574  1.00 20.00     0.364 C 
ENDROOT
BRANCH   3   4
HETATM    4  N10 UNL     1     -34.447  16.397  -3.491  1.00 20.00     0.100 N 
HETATM    5  C3  UNL     1     -34.053  15.011  -3.212  1.00 20.00     0.278 C 
HETATM    6  C5  UNL     1     -35.194  14.152  -3.778  1.00 20.00     0.015 C 
HETATM    7  C6  UNL     1     -36.248  15.170  -4.245  1.00 20.00     0.015 C 
HETATM    8  C7  UNL     1     -34.740  13.236  -4.907  1.00 20.00     0.012 C 
HETATM    9  C4  UNL     1     -35.909  16.416  -3.437  1.00 20.00     0.278 C 
HETATM   10  C8  UNL     1     -37.680  14.700  -4.034  1.00 20.00     0.012 C 
ENDBRANCH   3   4
TORSDOF 1
ENDMDL
MODEL 4
REMARK VINA RESULT:      -4.2     10.969     12.449
REMARK  1 active torsions:
REMARK  status: ('A' for Active; 'I' for Inactive)
REMARK    1  A    between atoms: C9_9  and  N10_10 
ROOT
HETATM    1  C1  UNL     1     -34.792  17.039  -0.099  1.00 20.00     0.013 C 
HETATM    2  C2  UNL     1     -34.361  17.274  -1.195  1.00 20.00    -0.087 C 
HETATM    3  C9  UNL     1     -33.834  17.565  -2.531  1.00 20.00     0.364 C 
ENDROOT
BRANCH   3   4
HETATM    4  N10 UNL     1     -33.823  16.365  -3.351  1.00 20.00     0.100 N 
HETATM    5  C3  UNL     1     -35.070  15.598  -3.247  1.00 20.00     0.278 C 
HETATM    6  C5  UNL     1     -35.159  14.805  -4.559  1.00 20.00     0.015 C 
HETATM    7  C6  UNL     1     -33.963  15.299  -5.391  1.00 20.00     0.015 C 
HETATM    8  C7  UNL     1     -35.124  13.297  -4.342  1.00 20.00     0.012 C 
HETATM    9  C4  UNL     1     -33.649  16.656  -4.774  1.00 20.00     0.278 C 
HETATM   10  C8  UNL     1     -34.253  15.380  -6.882  1.00 20.00     0.012 C 
ENDBRANCH   3   4
TORSDOF 1
ENDMDL
MODEL 5
REMARK VINA RESULT:      -4.1     11.002     12.356
REMARK  1 active torsions:
REMARK  status: ('A' for Active; 'I' for Inactive)
REMARK    1  A    between atoms: C9_9  and  N10_10 
ROOT
HETATM    1  C1  UNL     1     -34.841  17.056  -0.068  1.00 20.00     0.013 C 
HETATM    2  C2  UNL     1     -34.296  17.237  -1.123  1.00 20.00    -0.087 C 
HETATM    3  C9  UNL     1     -33.627  17.461  -2.408  1.00 20.00     0.364 C 
ENDROOT
BRANCH   3   4
HETATM    4  N10 UNL     1     -34.287  16.713  -3.466  1.00 20.00     0.100 N 
HETATM    5  C3  UNL     1     -33.480  16.631  -4.688  1.00 20.00     0.278 C 
HETATM    6  C5  UNL     1     -33.970  15.363  -5.403  1.00 20.00     0.015 C 
HETATM    7  C6  UNL     1     -34.977  14.734  -4.426  1.00 20.00     0.015 C 
HETATM    8  C7  UNL     1     -34.593  15.655  -6.763  1.00 20.00     0.012 C 
HETATM    9  C4  UNL     1     -34.577  15.331  -3.083  1.00 20.00     0.278 C 
HETATM   10  C8  UNL     1     -34.954  13.213  -4.427  1.00 20.00     0.012 C 
ENDBRANCH   3   4
TORSDOF 1
ENDMDL
MODEL 6
REMARK VINA RESULT:      -4.1     11.258     13.254
REMARK  1 active torsions:
REMARK  status: ('A' for Active; 'I' for Inactive)
REMARK    1  A    between atoms: C9_9  and  N10_10 
ROOT
HETATM    1  C1  UNL     1     -34.683  16.639  -1.109  1.00 20.00     0.013 C 
HETATM    2  C2  UNL     1     -34.396  15.930  -2.035  1.00 20.00    -0.087 C 
HETATM    3  C9  UNL     1     -34.043  15.061  -3.162  1.00 20.00     0.364 C 
ENDROOT
BRANCH   3   4
HETATM    4  N10 UNL     1     -34.596  15.581  -4.402  1.00 20.00     0.100 N 
HETATM    5  C3  UNL     1     -33.599  16.293  -5.210  1.00 20.00     0.278 C 
HETATM    6  C5  UNL     1     -34.118  16.200  -6.653  1.00 20.00     0.015 C 
HETATM    7  C6  UNL     1     -35.360  15.298  -6.559  1.00 20.00     0.015 C 
HETATM    8  C7  UNL     1     -34.441  17.562  -7.254  1.00 20.00     0.012 C 
HETATM    9  C4  UNL     1     -35.132  14.528  -5.265  1.00 20.00     0.278 C 
HETATM   10  C8  UNL     1     -35.542  14.388  -7.764  1.00 20.00     0.012 C 
ENDBRANCH   3   4
TORSDOF 1
ENDMDL
MODEL 7
REMARK VINA RESULT:      -4.1      9.151     11.357
REMARK  1 active torsions:
REMARK  status: ('A' for Active; 'I' for Inactive)
REMARK    1  A    between atoms: C9_9  and  N10_10 
ROOT
HETATM    1  C1  UNL     1     -41.165   1.918  -4.007  1.00 20.00     0.013 C 
HETATM    2  C2  UNL     1     -42.013   2.261  -3.228  1.00 20.00    -0.087 C 
HETATM    3  C9  UNL     1     -43.049   2.674  -2.278  1.00 20.00     0.364 C 
ENDROOT
BRANCH   3   4
HETATM    4  N10 UNL     1     -42.868   4.065  -1.894  1.00 20.00     0.100 N 
HETATM    5  C3  UNL     1     -41.486   4.367  -1.503  1.00 20.00     0.278 C 
HETATM    6  C5  UNL     1     -41.324   5.874  -1.754  1.00 20.00     0.015 C 
HETATM    7  C6  UNL     1     -42.647   6.301  -2.411  1.00 20.00     0.015 C 
HETATM    8  C7  UNL     1     -41.035   6.658  -0.480  1.00 20.00     0.012 C 
HETATM    9  C4  UNL     1     -43.191   4.995  -2.976  1.00 20.00     0.278 C 
HETATM   10  C8  UNL     1     -42.479   7.379  -3.471  1.00 20.00     0.012 C 
ENDBRANCH   3   4
TORSDOF 1
ENDMDL
MODEL 8
REMARK VINA RESULT:      -4.0      0.612      2.014
REMARK  1 active torsions:
REMARK  status: ('A' for Active; 'I' for Inactive)
REMARK    1  A    between atoms: C9_9  and  N10_10 
ROOT
HETATM    1  C1  UNL     1     -32.112   8.584   1.359  1.00 20.00     0.013 C 
HETATM    2  C2  UNL     1     -31.912   8.057   2.419  1.00 20.00    -0.087 C 
HETATM    3  C9  UNL     1     -31.663   7.418   3.715  1.00 20.00     0.364 C 
ENDROOT
BRANCH   3   4
HETATM    4  N10 UNL     1     -32.655   6.388   3.977  1.00 20.00     0.100 N 
HETATM    5  C3  UNL     1     -33.163   6.430   5.353  1.00 20.00     0.278 C 
HETATM    6  C5  UNL     1     -34.555   5.783   5.281  1.00 20.00     0.015 C 
HETATM    7  C6  UNL     1     -34.784   5.525   3.783  1.00 20.00     0.015 C 
HETATM    8  C7  UNL     1     -34.656   4.507   6.107  1.00 20.00     0.012 C 
HETATM    9  C4  UNL     1     -33.830   6.504   3.112  1.00 20.00     0.278 C 
HETATM   10  C8  UNL     1     -36.230   5.716   3.349  1.00 20.00     0.012 C 
ENDBRANCH   3   4
TORSDOF 1
ENDMDL
MODEL 9
REMARK VINA RESULT:      -4.0     10.934     11.998
REMARK  1 active torsions:
REMARK  status: ('A' for Active; 'I' for Inactive)
REMARK    1  A    between atoms: C9_9  and  N10_10 
ROOT
HETATM    1  C1  UNL     1     -34.917  14.509  -6.903  1.00 20.00     0.013 C 
HETATM    2  C2  UNL     1     -34.806  13.998  -5.822  1.00 20.00    -0.087 C 
HETATM    3  C9  UNL     1     -34.668  13.368  -4.505  1.00 20.00     0.364 C 
ENDROOT
BRANCH   3   4
HETATM    4  N10 UNL     1     -34.854  14.348  -3.447  1.00 20.00     0.100 N 
HETATM    5  C3  UNL     1     -33.780  15.347  -3.407  1.00 20.00     0.278 C 
HETATM    6  C5  UNL     1     -34.410  16.580  -2.743  1.00 20.00     0.015 C 
HETATM    7  C6  UNL     1     -35.890  16.208  -2.561  1.00 20.00     0.015 C 
HETATM    8  C7  UNL     1     -33.743  16.946  -1.422  1.00 20.00     0.012 C 
HETATM    9  C4  UNL     1     -36.098  15.104  -3.590  1.00 20.00     0.278 C 
HETATM   10  C8  UNL     1     -36.840  17.381  -2.753  1.00 20.00     0.012 C 
ENDBRANCH   3   4
TORSDOF 1
ENDMDL
