MODEL 1
REMARK VINA RESULT:      -4.4      0.000      0.000
REMARK  2 active torsions:
REMARK  status: ('A' for Active; 'I' for Inactive)
REMARK    1  A    between atoms: C4_4  and  C9_9 
REMARK    2  A    between atoms: C5_5  and  C8_8 
ROOT
HETATM    1  C1  UNL     1     -33.834  17.724  -3.304  1.00 20.00     0.032 C 
HETATM    2  C2  UNL     1     -34.921  15.876  -2.014  1.00 20.00     0.038 C 
HETATM    3  C3  UNL     1     -34.092  16.914  -4.568  1.00 20.00     0.168 C 
HETATM    4  C4  UNL     1     -33.705  16.806  -2.086  1.00 20.00     0.008 C 
HETATM    5  C5  UNL     1     -35.184  15.157  -3.340  1.00 20.00     0.121 C 
HETATM    6  O10 UNL     1     -35.243  16.085  -4.427  1.00 20.00    -0.386 OA
ENDROOT
BRANCH   4   7
HETATM    7  C9  UNL     1     -33.557  17.617  -0.801  1.00 20.00     0.082 C 
HETATM    8  C7  UNL     1     -33.488  19.105  -1.094  1.00 20.00     0.027 C 
HETATM    9 CL11 UNL     1     -34.939  17.275   0.273  1.00 20.00    -0.125 Cl
ENDBRANCH   4   7
BRANCH   5  10
HETATM   10  C8  UNL     1     -34.195  14.027  -3.623  1.00 20.00     0.027 C 
HETATM   11  C6  UNL     1     -34.625  13.190  -4.785  1.00 20.00     0.007 C 
ENDBRANCH   5  10
TORSDOF 2
ENDMDL
MODEL 2
REMARK VINA RESULT:      -4.3      2.510      4.359
REMARK  2 active torsions:
REMARK  status: ('A' for Active; 'I' for Inactive)
REMARK    1  A    between atoms: C4_4  and  C9_9 
REMARK    2  A    between atoms: C5_5  and  C8_8 
ROOT
HETATM    1  C1  UNL     1     -34.915  17.012  -4.984  1.00 20.00     0.032 C 
HETATM    2  C2  UNL     1     -33.909  15.332  -3.426  1.00 20.00     0.038 C 
HETATM    3  C3  UNL     1     -34.738  18.050  -3.884  1.00 20.00     0.168 C 
HETATM    4  C4  UNL     1     -35.068  15.610  -4.389  1.00 20.00     0.008 C 
HETATM    5  C5  UNL     1     -33.723  16.453  -2.400  1.00 20.00     0.121 C 
HETATM    6  O10 UNL     1     -33.636  17.729  -3.039  1.00 20.00    -0.386 OA
ENDROOT
BRANCH   4   7
HETATM    7  C9  UNL     1     -35.135  14.552  -5.487  1.00 20.00     0.082 C 
HETATM    8  C7  UNL     1     -34.404  15.008  -6.738  1.00 20.00     0.027 C 
HETATM    9 CL11 UNL     1     -34.418  13.034  -4.888  1.00 20.00    -0.125 Cl
ENDBRANCH   4   7
BRANCH   5  10
HETATM   10  C8  UNL     1     -34.784  16.450  -1.301  1.00 20.00     0.027 C 
HETATM   11  C6  UNL     1     -34.425  17.370  -0.178  1.00 20.00     0.007 C 
ENDBRANCH   5  10
TORSDOF 2
ENDMDL
MODEL 3
REMARK VINA RESULT:      -4.3      2.298      4.389
REMARK  2 active torsions:
REMARK  status: ('A' for Active; 'I' for Inactive)
REMARK    1  A    between atoms: C4_4  and  C9_9 
REMARK    2  A    between atoms: C5_5  and  C8_8 
ROOT
HETATM    1  C1  UNL     1     -36.124  16.122  -3.761  1.00 20.00     0.032 C 
HETATM    2  C2  UNL     1     -33.910  15.849  -2.626  1.00 20.00     0.038 C 
HETATM    3  C3  UNL     1     -36.335  17.373  -2.919  1.00 20.00     0.168 C 
HETATM    4  C4  UNL     1     -35.200  15.134  -3.046  1.00 20.00     0.008 C 
HETATM    5  C5  UNL     1     -34.187  17.146  -1.860  1.00 20.00     0.121 C 
HETATM    6  O10 UNL     1     -35.094  17.987  -2.580  1.00 20.00    -0.386 OA
ENDROOT
BRANCH   4   7
HETATM    7  C9  UNL     1     -34.895  13.928  -3.931  1.00 20.00     0.082 C 
HETATM    8  C7  UNL     1     -35.227  14.214  -5.385  1.00 20.00     0.027 C 
HETATM    9 CL11 UNL     1     -33.170  13.504  -3.776  1.00 20.00    -0.125 Cl
ENDBRANCH   4   7
BRANCH   5  10
HETATM   10  C8  UNL     1     -34.658  16.914  -0.426  1.00 20.00     0.027 C 
HETATM   11  C6  UNL     1     -34.235  18.021   0.485  1.00 20.00     0.007 C 
ENDBRANCH   5  10
TORSDOF 2
ENDMDL
MODEL 4
REMARK VINA RESULT:      -4.2      2.668      4.485
REMARK  2 active torsions:
REMARK  status: ('A' for Active; 'I' for Inactive)
REMARK    1  A    between atoms: C4_4  and  C9_9 
REMARK    2  A    between atoms: C5_5  and  C8_8 
ROOT
HETATM    1  C1  UNL     1     -34.663  16.972  -4.925  1.00 20.00     0.032 C 
HETATM    2  C2  UNL     1     -33.544  15.512  -3.228  1.00 20.00     0.038 C 
HETATM    3  C3  UNL     1     -34.786  18.036  -3.843  1.00 20.00     0.168 C 
HETATM    4  C4  UNL     1     -34.628  15.571  -4.310  1.00 20.00     0.008 C 
HETATM    5  C5  UNL     1     -33.666  16.658  -2.220  1.00 20.00     0.121 C 
HETATM    6  O10 UNL     1     -33.737  17.923  -2.883  1.00 20.00    -0.386 OA
ENDROOT
BRANCH   4   7
HETATM    7  C9  UNL     1     -34.394  14.508  -5.380  1.00 20.00     0.082 C 
HETATM    8  C7  UNL     1     -34.652  13.113  -4.838  1.00 20.00     0.027 C 
HETATM    9 CL11 UNL     1     -35.466  14.824  -6.770  1.00 20.00    -0.125 Cl
ENDBRANCH   4   7
BRANCH   5  10
HETATM   10  C8  UNL     1     -34.818  16.477  -1.234  1.00 20.00     0.027 C 
HETATM   11  C6  UNL     1     -34.631  17.305  -0.002  1.00 20.00     0.007 C 
ENDBRANCH   5  10
TORSDOF 2
ENDMDL
MODEL 5
REMARK VINA RESULT:      -4.2      1.640      2.297
REMARK  2 active torsions:
REMARK  status: ('A' for Active; 'I' for Inactive)
REMARK    1  A    between atoms: C4_4  and  C9_9 
REMARK    2  A    between atoms: C5_5  and  C8_8 
ROOT
HETATM    1  C1  UNL     1     -35.749  15.543  -2.783  1.00 20.00     0.032 C 
HETATM    2  C2  UNL     1     -33.533  15.172  -3.887  1.00 20.00     0.038 C 
HETATM    3  C3  UNL     1     -36.383  14.762  -3.926  1.00 20.00     0.168 C 
HETATM    4  C4  UNL     1     -34.450  16.214  -3.237  1.00 20.00     0.008 C 
HETATM    5  C5  UNL     1     -34.252  14.358  -4.967  1.00 20.00     0.121 C 
HETATM    6  O10 UNL     1     -35.474  13.807  -4.470  1.00 20.00    -0.386 OA
ENDROOT
BRANCH   4   7
HETATM    7  C9  UNL     1     -33.753  16.906  -2.068  1.00 20.00     0.082 C 
HETATM    8  C7  UNL     1     -33.645  18.403  -2.298  1.00 20.00     0.027 C 
HETATM    9 CL11 UNL     1     -34.664  16.588  -0.568  1.00 20.00    -0.125 Cl
ENDBRANCH   4   7
BRANCH   5  10
HETATM   10  C8  UNL     1     -34.475  15.135  -6.263  1.00 20.00     0.027 C 
HETATM   11  C6  UNL     1     -35.229  14.330  -7.272  1.00 20.00     0.007 C 
ENDBRANCH   5  10
TORSDOF 2
ENDMDL
MODEL 6
REMARK VINA RESULT:      -4.2      3.211      4.817
REMARK  2 active torsions:
REMARK  status: ('A' for Active; 'I' for Inactive)
REMARK    1  A    between atoms: C4_4  and  C9_9 
REMARK    2  A    between atoms: C5_5  and  C8_8 
ROOT
HETATM    1  C1  UNL     1     -33.969  15.948  -5.739  1.00 20.00     0.032 C 
HETATM    2  C2  UNL     1     -35.199  14.483  -4.125  1.00 20.00     0.038 C 
HETATM    3  C3  UNL     1     -33.268  16.576  -4.542  1.00 20.00     0.168 C 
HETATM    4  C4  UNL     1     -35.344  15.406  -5.340  1.00 20.00     0.008 C 
HETATM    5  C5  UNL     1     -34.409  15.137  -2.989  1.00 20.00     0.121 C 
HETATM    6  O10 UNL     1     -33.162  15.655  -3.459  1.00 20.00    -0.386 OA
ENDROOT
BRANCH   4   7
HETATM    7  C9  UNL     1     -36.005  14.677  -6.508  1.00 20.00     0.082 C 
HETATM    8  C7  UNL     1     -37.334  15.313  -6.874  1.00 20.00     0.027 C 
HETATM    9 CL11 UNL     1     -34.911  14.708  -7.916  1.00 20.00    -0.125 Cl
ENDBRANCH   4   7
BRANCH   5  10
HETATM   10  C8  UNL     1     -35.204  16.197  -2.230  1.00 20.00     0.027 C 
HETATM   11  C6  UNL     1     -34.513  16.618  -0.972  1.00 20.00     0.007 C 
ENDBRANCH   5  10
TORSDOF 2
ENDMDL
MODEL 7
REMARK VINA RESULT:      -4.2      2.786      4.346
REMARK  2 active torsions:
REMARK  status: ('A' for Active; 'I' for Inactive)
REMARK    1  A    between atoms: C4_4  and  C9_9 
REMARK    2  A    between atoms: C5_5  and  C8_8 
ROOT
HETATM    1  C1  UNL     1     -34.576  15.905  -5.719  1.00 20.00     0.032 C 
HETATM    2  C2  UNL     1     -34.755  14.840  -3.462  1.00 20.00     0.038 C 
HETATM    3  C3  UNL     1     -33.327  16.618  -5.219  1.00 20.00     0.168 C 
HETATM    4  C4  UNL     1     -35.522  15.586  -4.559  1.00 20.00     0.008 C 
HETATM    5  C5  UNL     1     -33.463  15.560  -3.063  1.00 20.00     0.121 C 
HETATM    6  O10 UNL     1     -32.664  15.858  -4.211  1.00 20.00    -0.386 OA
ENDROOT
BRANCH   4   7
HETATM    7  C9  UNL     1     -36.723  14.775  -5.038  1.00 20.00     0.082 C 
HETATM    8  C7  UNL     1     -37.836  14.775  -4.005  1.00 20.00     0.027 C 
HETATM    9 CL11 UNL     1     -37.321  15.457  -6.573  1.00 20.00    -0.125 Cl
ENDBRANCH   4   7
BRANCH   5  10
HETATM   10  C8  UNL     1     -33.701  16.803  -2.208  1.00 20.00     0.027 C 
HETATM   11  C6  UNL     1     -34.632  16.527  -1.071  1.00 20.00     0.007 C 
ENDBRANCH   5  10
TORSDOF 2
ENDMDL
MODEL 8
REMARK VINA RESULT:      -4.1      1.932      2.866
REMARK  2 active torsions:
REMARK  status: ('A' for Active; 'I' for Inactive)
REMARK    1  A    between atoms: C4_4  and  C9_9 
REMARK    2  A    between atoms: C5_5  and  C8_8 
ROOT
HETATM    1  C1  UNL     1     -34.629  14.464  -3.192  1.00 20.00     0.032 C 
HETATM    2  C2  UNL     1     -33.670  15.953  -4.960  1.00 20.00     0.038 C 
HETATM    3  C3  UNL     1     -35.180  13.589  -4.310  1.00 20.00     0.168 C 
HETATM    4  C4  UNL     1     -34.479  15.913  -3.659  1.00 20.00     0.008 C 
HETATM    5  C5  UNL     1     -34.218  14.987  -6.015  1.00 20.00     0.121 C 
HETATM    6  O10 UNL     1     -34.368  13.669  -5.480  1.00 20.00    -0.386 OA
ENDROOT
BRANCH   4   7
HETATM    7  C9  UNL     1     -33.825  16.772  -2.580  1.00 20.00     0.082 C 
HETATM    8  C7  UNL     1     -33.933  18.250  -2.910  1.00 20.00     0.027 C 
HETATM    9 CL11 UNL     1     -34.607  16.444  -1.011  1.00 20.00    -0.125 Cl
ENDBRANCH   4   7
BRANCH   5  10
HETATM   10  C8  UNL     1     -35.508  15.475  -6.671  1.00 20.00     0.027 C 
HETATM   11  C6  UNL     1     -35.883  14.639  -7.853  1.00 20.00     0.007 C 
ENDBRANCH   5  10
TORSDOF 2
ENDMDL
MODEL 9
REMARK VINA RESULT:      -4.1     11.114     12.292
REMARK  2 active torsions:
REMARK  status: ('A' for Active; 'I' for Inactive)
REMARK    1  A    between atoms: C4_4  and  C9_9 
REMARK    2  A    between atoms: C5_5  and  C8_8 
ROOT
HETATM    1  C1  UNL     1     -34.415   5.264   3.745  1.00 20.00     0.032 C 
HETATM    2  C2  UNL     1     -32.594   6.838   4.431  1.00 20.00     0.038 C 
HETATM    3  C3  UNL     1     -33.934   5.427   2.310  1.00 20.00     0.168 C 
HETATM    4  C4  UNL     1     -34.084   6.508   4.573  1.00 20.00     0.008 C 
HETATM    5  C5  UNL     1     -32.150   6.900   2.966  1.00 20.00     0.121 C 
HETATM    6  O10 UNL     1     -32.540   5.720   2.259  1.00 20.00    -0.386 OA
ENDROOT
BRANCH   4   7
HETATM    7  C9  UNL     1     -34.463   6.308   6.039  1.00 20.00     0.082 C 
HETATM    8  C7  UNL     1     -34.408   4.841   6.428  1.00 20.00     0.027 C 
HETATM    9 CL11 UNL     1     -33.353   7.249   7.069  1.00 20.00    -0.125 Cl
ENDBRANCH   4   7
BRANCH   5  10
HETATM   10  C8  UNL     1     -32.614   8.164   2.245  1.00 20.00     0.027 C 
HETATM   11  C6  UNL     1     -31.726   8.504   1.091  1.00 20.00     0.007 C 
ENDBRANCH   5  10
TORSDOF 2
ENDMDL
