MODEL 1
REMARK VINA RESULT:      -4.4      0.000      0.000
REMARK  2 active torsions:
REMARK  status: ('A' for Active; 'I' for Inactive)
REMARK    1  A    between atoms: C4_4  and  C8_8 
REMARK    2  A    between atoms: C5_5  and  C9_9 
ROOT
HETATM    1  C1  UNL     1     -33.736  17.526  -3.176  1.00 20.00     0.005 C 
HETATM    2  C2  UNL     1     -33.407  16.547  -4.307  1.00 20.00     0.006 C 
HETATM    3  C3  UNL     1     -34.640  15.365  -2.617  1.00 20.00     0.010 C 
HETATM    4  C4  UNL     1     -34.161  16.667  -1.980  1.00 20.00    -0.014 C 
HETATM    5  C5  UNL     1     -33.614  15.147  -3.725  1.00 20.00    -0.000 C 
ENDROOT
BRANCH   5   6
HETATM    6  C9  UNL     1     -34.060  14.127  -4.759  1.00 20.00     0.058 C 
HETATM    7  C7  UNL     1     -35.264  13.325  -4.295  1.00 20.00     0.022 C 
HETATM    8 BR10 UNL     1     -34.528  15.064  -6.412  1.00 20.00    -0.091 Br
ENDBRANCH   5   6
BRANCH   4   9
HETATM    9  C8  UNL     1     -35.213  17.330  -1.108  1.00 20.00     0.000 C 
HETATM   10  C6  UNL     1     -34.841  17.296   0.342  1.00 20.00     0.005 C 
ENDBRANCH   4   9
TORSDOF 2
ENDMDL
MODEL 2
REMARK VINA RESULT:      -4.4      1.281      1.542
REMARK  2 active torsions:
REMARK  status: ('A' for Active; 'I' for Inactive)
REMARK    1  A    between atoms: C4_4  and  C8_8 
REMARK    2  A    between atoms: C5_5  and  C9_9 
ROOT
HETATM    1  C1  UNL     1     -33.802  17.971  -2.440  1.00 20.00     0.005 C 
HETATM    2  C2  UNL     1     -33.823  17.451  -3.881  1.00 20.00     0.006 C 
HETATM    3  C3  UNL     1     -34.677  15.727  -2.441  1.00 20.00     0.010 C 
HETATM    4  C4  UNL     1     -33.974  16.741  -1.542  1.00 20.00    -0.014 C 
HETATM    5  C5  UNL     1     -33.969  15.931  -3.778  1.00 20.00    -0.000 C 
ENDROOT
BRANCH   5   6
HETATM    6  C9  UNL     1     -34.719  15.319  -4.949  1.00 20.00     0.058 C 
HETATM    7  C7  UNL     1     -34.104  15.696  -6.286  1.00 20.00     0.022 C 
HETATM    8 BR10 UNL     1     -34.690  13.370  -4.771  1.00 20.00    -0.091 Br
ENDBRANCH   5   6
BRANCH   4   9
HETATM    9  C8  UNL     1     -34.737  17.035  -0.262  1.00 20.00     0.000 C 
HETATM   10  C6  UNL     1     -34.092  18.124   0.537  1.00 20.00     0.005 C 
ENDBRANCH   4   9
TORSDOF 2
ENDMDL
MODEL 3
REMARK VINA RESULT:      -4.3      2.479      4.627
REMARK  2 active torsions:
REMARK  status: ('A' for Active; 'I' for Inactive)
REMARK    1  A    between atoms: C4_4  and  C8_8 
REMARK    2  A    between atoms: C5_5  and  C9_9 
ROOT
HETATM    1  C1  UNL     1     -36.291  14.963  -3.945  1.00 20.00     0.005 C 
HETATM    2  C2  UNL     1     -36.016  16.040  -2.891  1.00 20.00     0.006 C 
HETATM    3  C3  UNL     1     -33.969  14.855  -3.316  1.00 20.00     0.010 C 
HETATM    4  C4  UNL     1     -35.096  14.005  -3.895  1.00 20.00    -0.014 C 
HETATM    5  C5  UNL     1     -34.688  15.656  -2.234  1.00 20.00    -0.000 C 
ENDROOT
BRANCH   5   6
HETATM    6  C9  UNL     1     -33.890  16.855  -1.749  1.00 20.00     0.058 C 
HETATM    7  C7  UNL     1     -33.920  18.005  -2.740  1.00 20.00     0.022 C 
HETATM    8 BR10 UNL     1     -34.639  17.469  -0.048  1.00 20.00    -0.091 Br
ENDBRANCH   5   6
BRANCH   4   9
HETATM    9  C8  UNL     1     -34.756  13.400  -5.246  1.00 20.00     0.000 C 
HETATM   10  C6  UNL     1     -34.839  14.409  -6.349  1.00 20.00     0.005 C 
ENDBRANCH   4   9
TORSDOF 2
ENDMDL
MODEL 4
REMARK VINA RESULT:      -4.3      1.816      2.607
REMARK  2 active torsions:
REMARK  status: ('A' for Active; 'I' for Inactive)
REMARK    1  A    between atoms: C4_4  and  C8_8 
REMARK    2  A    between atoms: C5_5  and  C9_9 
ROOT
HETATM    1  C1  UNL     1     -33.938  13.961  -3.502  1.00 20.00     0.005 C 
HETATM    2  C2  UNL     1     -34.500  13.505  -4.852  1.00 20.00     0.006 C 
HETATM    3  C3  UNL     1     -35.309  15.723  -4.405  1.00 20.00     0.010 C 
HETATM    4  C4  UNL     1     -34.771  15.178  -3.085  1.00 20.00    -0.014 C 
HETATM    5  C5  UNL     1     -35.665  14.447  -5.163  1.00 20.00    -0.000 C 
ENDROOT
BRANCH   5   6
HETATM    6  C9  UNL     1     -35.872  14.676  -6.651  1.00 20.00     0.058 C 
HETATM    7  C7  UNL     1     -37.261  15.203  -6.965  1.00 20.00     0.022 C 
HETATM    8 BR10 UNL     1     -34.549  15.973  -7.283  1.00 20.00    -0.091 Br
ENDBRANCH   5   6
BRANCH   4   9
HETATM    9  C8  UNL     1     -33.978  16.204  -2.293  1.00 20.00     0.000 C 
HETATM   10  C6  UNL     1     -34.634  16.532  -0.988  1.00 20.00     0.005 C 
ENDBRANCH   4   9
TORSDOF 2
ENDMDL
MODEL 5
REMARK VINA RESULT:      -4.2      1.338      1.371
REMARK  2 active torsions:
REMARK  status: ('A' for Active; 'I' for Inactive)
REMARK    1  A    between atoms: C4_4  and  C8_8 
REMARK    2  A    between atoms: C5_5  and  C9_9 
ROOT
HETATM    1  C1  UNL     1     -33.688  16.961  -3.438  1.00 20.00     0.005 C 
HETATM    2  C2  UNL     1     -33.967  16.377  -4.826  1.00 20.00     0.006 C 
HETATM    3  C3  UNL     1     -35.146  15.059  -3.199  1.00 20.00     0.010 C 
HETATM    4  C4  UNL     1     -34.121  15.891  -2.431  1.00 20.00    -0.014 C 
HETATM    5  C5  UNL     1     -34.519  14.970  -4.587  1.00 20.00    -0.000 C 
ENDROOT
BRANCH   5   6
HETATM    6  C9  UNL     1     -35.500  14.520  -5.657  1.00 20.00     0.058 C 
HETATM    7  C7  UNL     1     -36.857  15.185  -5.509  1.00 20.00     0.022 C 
HETATM    8 BR10 UNL     1     -34.768  14.967  -7.416  1.00 20.00    -0.091 Br
ENDBRANCH   5   6
BRANCH   4   9
HETATM    9  C8  UNL     1     -34.667  16.469  -1.137  1.00 20.00     0.000 C 
HETATM   10  C6  UNL     1     -33.868  17.645  -0.668  1.00 20.00     0.005 C 
ENDBRANCH   4   9
TORSDOF 2
ENDMDL
MODEL 6
REMARK VINA RESULT:      -4.2     11.511     12.433
REMARK  2 active torsions:
REMARK  status: ('A' for Active; 'I' for Inactive)
REMARK    1  A    between atoms: C4_4  and  C8_8 
REMARK    2  A    between atoms: C5_5  and  C9_9 
ROOT
HETATM    1  C1  UNL     1     -34.830   5.017   3.736  1.00 20.00     0.005 C 
HETATM    2  C2  UNL     1     -33.979   5.637   2.624  1.00 20.00     0.006 C 
HETATM    3  C3  UNL     1     -33.414   6.711   4.698  1.00 20.00     0.010 C 
HETATM    4  C4  UNL     1     -34.730   5.971   4.930  1.00 20.00    -0.014 C 
HETATM    5  C5  UNL     1     -33.437   6.951   3.191  1.00 20.00    -0.000 C 
ENDROOT
BRANCH   5   6
HETATM    6  C9  UNL     1     -32.079   7.334   2.628  1.00 20.00     0.058 C 
HETATM    7  C7  UNL     1     -32.167   8.500   1.658  1.00 20.00     0.022 C 
HETATM    8 BR10 UNL     1     -30.898   7.834   4.106  1.00 20.00    -0.091 Br
ENDBRANCH   5   6
BRANCH   4   9
HETATM    9  C8  UNL     1     -34.788   5.261   6.272  1.00 20.00     0.000 C 
HETATM   10  C6  UNL     1     -34.816   3.773   6.117  1.00 20.00     0.005 C 
ENDBRANCH   4   9
TORSDOF 2
ENDMDL
MODEL 7
REMARK VINA RESULT:      -4.1      2.421      4.493
REMARK  2 active torsions:
REMARK  status: ('A' for Active; 'I' for Inactive)
REMARK    1  A    between atoms: C4_4  and  C8_8 
REMARK    2  A    between atoms: C5_5  and  C9_9 
ROOT
HETATM    1  C1  UNL     1     -33.609  16.623  -3.799  1.00 20.00     0.005 C 
HETATM    2  C2  UNL     1     -33.760  17.870  -2.921  1.00 20.00     0.006 C 
HETATM    3  C3  UNL     1     -34.764  16.010  -1.777  1.00 20.00     0.010 C 
HETATM    4  C4  UNL     1     -34.579  15.583  -3.231  1.00 20.00    -0.014 C 
HETATM    5  C5  UNL     1     -34.840  17.530  -1.891  1.00 20.00    -0.000 C 
ENDROOT
BRANCH   5   6
HETATM    6  C9  UNL     1     -34.646  18.238  -0.561  1.00 20.00     0.058 C 
HETATM    7  C7  UNL     1     -35.073  17.380   0.616  1.00 20.00     0.022 C 
HETATM    8 BR10 UNL     1     -32.752  18.691  -0.356  1.00 20.00    -0.091 Br
ENDBRANCH   5   6
BRANCH   4   9
HETATM    9  C8  UNL     1     -34.081  14.155  -3.376  1.00 20.00     0.000 C 
HETATM   10  C6  UNL     1     -34.920  13.364  -4.330  1.00 20.00     0.005 C 
ENDBRANCH   4   9
TORSDOF 2
ENDMDL
MODEL 8
REMARK VINA RESULT:      -3.9     11.438     12.427
REMARK  2 active torsions:
REMARK  status: ('A' for Active; 'I' for Inactive)
REMARK    1  A    between atoms: C4_4  and  C8_8 
REMARK    2  A    between atoms: C5_5  and  C9_9 
ROOT
HETATM    1  C1  UNL     1     -33.370   6.293   1.958  1.00 20.00     0.005 C 
HETATM    2  C2  UNL     1     -34.290   5.456   2.851  1.00 20.00     0.006 C 
HETATM    3  C3  UNL     1     -32.909   6.827   4.261  1.00 20.00     0.010 C 
HETATM    4  C4  UNL     1     -32.270   6.839   2.875  1.00 20.00    -0.014 C 
HETATM    5  C5  UNL     1     -33.679   5.509   4.254  1.00 20.00    -0.000 C 
ENDROOT
BRANCH   5   6
HETATM    6  C9  UNL     1     -34.713   5.415   5.363  1.00 20.00     0.058 C 
HETATM    7  C7  UNL     1     -34.870   3.998   5.884  1.00 20.00     0.022 C 
HETATM    8 BR10 UNL     1     -34.160   6.572   6.843  1.00 20.00    -0.091 Br
ENDBRANCH   5   6
BRANCH   4   9
HETATM    9  C8  UNL     1     -31.769   8.212   2.459  1.00 20.00     0.000 C 
HETATM   10  C6  UNL     1     -31.881   8.425   0.982  1.00 20.00     0.005 C 
ENDBRANCH   4   9
TORSDOF 2
ENDMDL
MODEL 9
REMARK VINA RESULT:      -3.9      2.871      4.611
REMARK  2 active torsions:
REMARK  status: ('A' for Active; 'I' for Inactive)
REMARK    1  A    between atoms: C4_4  and  C8_8 
REMARK    2  A    between atoms: C5_5  and  C9_9 
ROOT
HETATM    1  C1  UNL     1     -33.968  18.307   1.774  1.00 20.00     0.005 C 
HETATM    2  C2  UNL     1     -34.600  17.734   0.502  1.00 20.00     0.006 C 
HETATM    3  C3  UNL     1     -32.394  18.521  -0.036  1.00 20.00     0.010 C 
HETATM    4  C4  UNL     1     -32.760  19.130   1.315  1.00 20.00    -0.014 C 
HETATM    5  C5  UNL     1     -33.763  18.270  -0.662  1.00 20.00    -0.000 C 
ENDROOT
BRANCH   5   6
HETATM    6  C9  UNL     1     -33.711  17.324  -1.850  1.00 20.00     0.058 C 
HETATM    7  C7  UNL     1     -34.714  16.190  -1.727  1.00 20.00     0.022 C 
HETATM    8 BR10 UNL     1     -34.101  18.334  -3.481  1.00 20.00    -0.091 Br
ENDBRANCH   5   6
BRANCH   4   9
HETATM    9  C8  UNL     1     -31.612  19.116   2.309  1.00 20.00     0.000 C 
HETATM   10  C6  UNL     1     -32.043  18.624   3.655  1.00 20.00     0.005 C 
ENDBRANCH   4   9
TORSDOF 2
ENDMDL
