MODEL 1
REMARK VINA RESULT:      -5.2      0.000      0.000
REMARK  2 active torsions:
REMARK  status: ('A' for Active; 'I' for Inactive)
REMARK    1  A    between atoms: C5_5  and  C7_7 
REMARK    2  A    between atoms: C6_6  and  C8_8 
ROOT
HETATM    1  C1  UNL     1     -34.519   5.308   2.515  1.00 20.00     0.001 C 
HETATM    2  C2  UNL     1     -33.590   6.505   2.328  1.00 20.00     0.005 C 
HETATM    3  C3  UNL     1     -35.071   5.239   3.936  1.00 20.00     0.013 C 
HETATM    4  C4  UNL     1     -33.018   6.441   4.790  1.00 20.00     0.018 C 
HETATM    5  C5  UNL     1     -32.457   6.507   3.361  1.00 20.00    -0.004 C 
HETATM    6  C6  UNL     1     -33.947   5.233   4.980  1.00 20.00     0.094 C 
ENDROOT
BRANCH   6   7
HETATM    7  C8  UNL     1     -34.525   5.214   6.394  1.00 20.00     0.391 C 
HETATM    8  F9  UNL     1     -33.747   4.474   7.198  1.00 20.00    -0.171 F 
HETATM    9  F10 UNL     1     -34.589   6.464   6.880  1.00 20.00    -0.171 F 
HETATM   10  F11 UNL     1     -35.759   4.690   6.379  1.00 20.00    -0.171 F 
ENDBRANCH   6   7
BRANCH   5  11
HETATM   11  C7  UNL     1     -31.572   7.739   3.187  1.00 20.00     0.089 C 
HETATM   12 BR12 UNL     1     -32.053   8.653   1.546  1.00 20.00    -0.096 Br
ENDBRANCH   5  11
TORSDOF 2
ENDMDL
MODEL 2
REMARK VINA RESULT:      -5.0     11.815     13.128
REMARK  2 active torsions:
REMARK  status: ('A' for Active; 'I' for Inactive)
REMARK    1  A    between atoms: C5_5  and  C7_7 
REMARK    2  A    between atoms: C6_6  and  C8_8 
ROOT
HETATM    1  C1  UNL     1     -33.656  17.423  -5.476  1.00 20.00     0.001 C 
HETATM    2  C2  UNL     1     -34.245  18.170  -4.282  1.00 20.00     0.005 C 
HETATM    3  C3  UNL     1     -33.865  15.915  -5.357  1.00 20.00     0.013 C 
HETATM    4  C4  UNL     1     -33.906  16.122  -2.838  1.00 20.00     0.018 C 
HETATM    5  C5  UNL     1     -33.690  17.638  -2.954  1.00 20.00    -0.004 C 
HETATM    6  C6  UNL     1     -33.308  15.370  -4.036  1.00 20.00     0.094 C 
ENDROOT
BRANCH   6   7
HETATM    7  C8  UNL     1     -33.573  13.870  -3.918  1.00 20.00     0.391 C 
HETATM    8  F9  UNL     1     -34.549  13.645  -3.026  1.00 20.00    -0.171 F 
HETATM    9  F10 UNL     1     -33.948  13.375  -5.108  1.00 20.00    -0.171 F 
HETATM   10  F11 UNL     1     -32.461  13.238  -3.515  1.00 20.00    -0.171 F 
ENDBRANCH   6   7
BRANCH   5  11
HETATM   11  C7  UNL     1     -34.331  18.365  -1.774  1.00 20.00     0.089 C 
HETATM   12 BR12 UNL     1     -34.766  17.083  -0.385  1.00 20.00    -0.096 Br
ENDBRANCH   5  11
TORSDOF 2
ENDMDL
MODEL 3
REMARK VINA RESULT:      -5.0     12.048     13.007
REMARK  2 active torsions:
REMARK  status: ('A' for Active; 'I' for Inactive)
REMARK    1  A    between atoms: C5_5  and  C7_7 
REMARK    2  A    between atoms: C6_6  and  C8_8 
ROOT
HETATM    1  C1  UNL     1     -33.443  17.212  -4.654  1.00 20.00     0.001 C 
HETATM    2  C2  UNL     1     -33.976  17.555  -3.266  1.00 20.00     0.005 C 
HETATM    3  C3  UNL     1     -34.166  16.009  -5.255  1.00 20.00     0.013 C 
HETATM    4  C4  UNL     1     -34.646  15.140  -2.931  1.00 20.00     0.018 C 
HETATM    5  C5  UNL     1     -33.915  16.346  -2.323  1.00 20.00    -0.004 C 
HETATM    6  C6  UNL     1     -34.106  14.791  -4.325  1.00 20.00     0.094 C 
ENDROOT
BRANCH   6   7
HETATM    7  C8  UNL     1     -34.877  13.616  -4.925  1.00 20.00     0.391 C 
HETATM    8  F9  UNL     1     -35.922  13.306  -4.142  1.00 20.00    -0.171 F 
HETATM    9  F10 UNL     1     -35.329  13.940  -6.146  1.00 20.00    -0.171 F 
HETATM   10  F11 UNL     1     -34.077  12.545  -5.027  1.00 20.00    -0.171 F 
ENDBRANCH   6   7
BRANCH   5  11
HETATM   11  C7  UNL     1     -34.501  16.698  -0.957  1.00 20.00     0.089 C 
HETATM   12 BR12 UNL     1     -33.562  18.229  -0.227  1.00 20.00    -0.096 Br
ENDBRANCH   5  11
TORSDOF 2
ENDMDL
MODEL 4
REMARK VINA RESULT:      -4.9     12.048     13.014
REMARK  2 active torsions:
REMARK  status: ('A' for Active; 'I' for Inactive)
REMARK    1  A    between atoms: C5_5  and  C7_7 
REMARK    2  A    between atoms: C6_6  and  C8_8 
ROOT
HETATM    1  C1  UNL     1     -33.454  17.230  -4.632  1.00 20.00     0.001 C 
HETATM    2  C2  UNL     1     -33.988  17.565  -3.242  1.00 20.00     0.005 C 
HETATM    3  C3  UNL     1     -34.172  16.026  -5.237  1.00 20.00     0.013 C 
HETATM    4  C4  UNL     1     -34.648  15.146  -2.916  1.00 20.00     0.018 C 
HETATM    5  C5  UNL     1     -33.921  16.353  -2.304  1.00 20.00    -0.004 C 
HETATM    6  C6  UNL     1     -34.106  14.805  -4.312  1.00 20.00     0.094 C 
ENDROOT
BRANCH   6   7
HETATM    7  C8  UNL     1     -34.873  13.630  -4.915  1.00 20.00     0.391 C 
HETATM    8  F9  UNL     1     -35.318  13.951  -6.139  1.00 20.00    -0.171 F 
HETATM    9  F10 UNL     1     -34.071  12.558  -5.011  1.00 20.00    -0.171 F 
HETATM   10  F11 UNL     1     -35.922  13.319  -4.139  1.00 20.00    -0.171 F 
ENDBRANCH   6   7
BRANCH   5  11
HETATM   11  C7  UNL     1     -34.507  16.698  -0.937  1.00 20.00     0.089 C 
HETATM   12 BR12 UNL     1     -33.586  18.241  -0.209  1.00 20.00    -0.096 Br
ENDBRANCH   5  11
TORSDOF 2
ENDMDL
MODEL 5
REMARK VINA RESULT:      -4.7      9.848     11.207
REMARK  2 active torsions:
REMARK  status: ('A' for Active; 'I' for Inactive)
REMARK    1  A    between atoms: C5_5  and  C7_7 
REMARK    2  A    between atoms: C6_6  and  C8_8 
ROOT
HETATM    1  C1  UNL     1     -40.747   5.805  -0.275  1.00 20.00     0.001 C 
HETATM    2  C2  UNL     1     -41.276   7.065  -0.954  1.00 20.00     0.005 C 
HETATM    3  C3  UNL     1     -40.798   4.597  -1.208  1.00 20.00     0.013 C 
HETATM    4  C4  UNL     1     -42.735   5.642  -2.451  1.00 20.00     0.018 C 
HETATM    5  C5  UNL     1     -42.691   6.855  -1.511  1.00 20.00    -0.004 C 
HETATM    6  C6  UNL     1     -42.209   4.372  -1.765  1.00 20.00     0.094 C 
ENDROOT
BRANCH   6   7
HETATM    7  C8  UNL     1     -42.223   3.191  -2.734  1.00 20.00     0.391 C 
HETATM    8  F9  UNL     1     -40.968   2.843  -3.054  1.00 20.00    -0.171 F 
HETATM    9  F10 UNL     1     -42.835   2.140  -2.166  1.00 20.00    -0.171 F 
HETATM   10  F11 UNL     1     -42.881   3.524  -3.854  1.00 20.00    -0.171 F 
ENDBRANCH   6   7
BRANCH   5  11
HETATM   11  C7  UNL     1     -43.178   8.111  -2.230  1.00 20.00     0.089 C 
HETATM   12 BR12 UNL     1     -42.623   8.049  -4.087  1.00 20.00    -0.096 Br
ENDBRANCH   5  11
TORSDOF 2
ENDMDL
MODEL 6
REMARK VINA RESULT:      -4.6     12.330     13.515
REMARK  2 active torsions:
REMARK  status: ('A' for Active; 'I' for Inactive)
REMARK    1  A    between atoms: C5_5  and  C7_7 
REMARK    2  A    between atoms: C6_6  and  C8_8 
ROOT
HETATM    1  C1  UNL     1     -34.574  15.531  -7.215  1.00 20.00     0.001 C 
HETATM    2  C2  UNL     1     -34.590  16.989  -6.765  1.00 20.00     0.005 C 
HETATM    3  C3  UNL     1     -34.768  14.576  -6.040  1.00 20.00     0.013 C 
HETATM    4  C4  UNL     1     -33.755  16.291  -4.483  1.00 20.00     0.018 C 
HETATM    5  C5  UNL     1     -33.555  17.252  -5.664  1.00 20.00    -0.004 C 
HETATM    6  C6  UNL     1     -33.733  14.823  -4.935  1.00 20.00     0.094 C 
ENDROOT
BRANCH   6   7
HETATM    7  C8  UNL     1     -33.977  13.890  -3.750  1.00 20.00     0.391 C 
HETATM    8  F9  UNL     1     -34.951  13.016  -4.046  1.00 20.00    -0.171 F 
HETATM    9  F10 UNL     1     -32.856  13.212  -3.461  1.00 20.00    -0.171 F 
HETATM   10  F11 UNL     1     -34.344  14.602  -2.674  1.00 20.00    -0.171 F 
ENDBRANCH   6   7
BRANCH   5  11
HETATM   11  C7  UNL     1     -33.624  18.703  -5.195  1.00 20.00     0.089 C 
HETATM   12 BR12 UNL     1     -33.895  18.749  -3.275  1.00 20.00    -0.096 Br
ENDBRANCH   5  11
TORSDOF 2
ENDMDL
MODEL 7
REMARK VINA RESULT:      -4.6     11.979     13.242
REMARK  2 active torsions:
REMARK  status: ('A' for Active; 'I' for Inactive)
REMARK    1  A    between atoms: C5_5  and  C7_7 
REMARK    2  A    between atoms: C6_6  and  C8_8 
ROOT
HETATM    1  C1  UNL     1     -34.051  13.640  -4.392  1.00 20.00     0.001 C 
HETATM    2  C2  UNL     1     -34.516  14.341  -5.666  1.00 20.00     0.005 C 
HETATM    3  C3  UNL     1     -34.388  14.452  -3.145  1.00 20.00     0.013 C 
HETATM    4  C4  UNL     1     -34.297  16.579  -4.509  1.00 20.00     0.018 C 
HETATM    5  C5  UNL     1     -33.953  15.764  -5.765  1.00 20.00    -0.004 C 
HETATM    6  C6  UNL     1     -33.823  15.876  -3.228  1.00 20.00     0.094 C 
ENDROOT
BRANCH   6   7
HETATM    7  C8  UNL     1     -34.215  16.684  -1.993  1.00 20.00     0.391 C 
HETATM    8  F9  UNL     1     -35.051  17.676  -2.338  1.00 20.00    -0.171 F 
HETATM    9  F10 UNL     1     -34.827  15.891  -1.100  1.00 20.00    -0.171 F 
HETATM   10  F11 UNL     1     -33.122  17.215  -1.425  1.00 20.00    -0.171 F 
ENDBRANCH   6   7
BRANCH   5  11
HETATM   11  C7  UNL     1     -34.473  16.463  -7.019  1.00 20.00     0.089 C 
HETATM   12 BR12 UNL     1     -35.793  15.338  -7.885  1.00 20.00    -0.096 Br
ENDBRANCH   5  11
TORSDOF 2
ENDMDL
MODEL 8
REMARK VINA RESULT:      -4.5     12.848     14.065
REMARK  2 active torsions:
REMARK  status: ('A' for Active; 'I' for Inactive)
REMARK    1  A    between atoms: C5_5  and  C7_7 
REMARK    2  A    between atoms: C6_6  and  C8_8 
ROOT
HETATM    1  C1  UNL     1     -35.066  13.327  -4.203  1.00 20.00     0.001 C 
HETATM    2  C2  UNL     1     -34.238  14.164  -3.232  1.00 20.00     0.005 C 
HETATM    3  C3  UNL     1     -34.860  13.772  -5.649  1.00 20.00     0.013 C 
HETATM    4  C4  UNL     1     -34.311  16.106  -4.849  1.00 20.00     0.018 C 
HETATM    5  C5  UNL     1     -34.523  15.663  -3.394  1.00 20.00    -0.004 C 
HETATM    6  C6  UNL     1     -35.149  15.267  -5.826  1.00 20.00     0.094 C 
ENDROOT
BRANCH   6   7
HETATM    7  C8  UNL     1     -34.889  15.700  -7.268  1.00 20.00     0.391 C 
HETATM    8  F9  UNL     1     -34.173  16.834  -7.285  1.00 20.00    -0.171 F 
HETATM    9  F10 UNL     1     -34.206  14.744  -7.917  1.00 20.00    -0.171 F 
HETATM   10  F11 UNL     1     -36.052  15.909  -7.901  1.00 20.00    -0.171 F 
ENDBRANCH   6   7
BRANCH   5  11
HETATM   11  C7  UNL     1     -33.647  16.482  -2.449  1.00 20.00     0.089 C 
HETATM   12 BR12 UNL     1     -34.627  16.853  -0.818  1.00 20.00    -0.096 Br
ENDBRANCH   5  11
TORSDOF 2
ENDMDL
MODEL 9
REMARK VINA RESULT:      -4.4     12.078     12.841
REMARK  2 active torsions:
REMARK  status: ('A' for Active; 'I' for Inactive)
REMARK    1  A    between atoms: C5_5  and  C7_7 
REMARK    2  A    between atoms: C6_6  and  C8_8 
ROOT
HETATM    1  C1  UNL     1     -33.986  13.910  -3.951  1.00 20.00     0.001 C 
HETATM    2  C2  UNL     1     -33.420  15.163  -3.286  1.00 20.00     0.005 C 
HETATM    3  C3  UNL     1     -35.336  14.181  -4.609  1.00 20.00     0.013 C 
HETATM    4  C4  UNL     1     -35.768  16.041  -2.952  1.00 20.00     0.018 C 
HETATM    5  C5  UNL     1     -34.412  15.767  -2.284  1.00 20.00    -0.004 C 
HETATM    6  C6  UNL     1     -36.340  14.779  -3.615  1.00 20.00     0.094 C 
ENDROOT
BRANCH   6   7
HETATM    7  C8  UNL     1     -37.666  15.087  -4.308  1.00 20.00     0.391 C 
HETATM    8  F9  UNL     1     -38.024  16.358  -4.070  1.00 20.00    -0.171 F 
HETATM    9  F10 UNL     1     -37.544  14.910  -5.632  1.00 20.00    -0.171 F 
HETATM   10  F11 UNL     1     -38.625  14.271  -3.846  1.00 20.00    -0.171 F 
ENDBRANCH   6   7
BRANCH   5  11
HETATM   11  C7  UNL     1     -33.846  17.046  -1.672  1.00 20.00     0.089 C 
HETATM   12 BR12 UNL     1     -34.745  17.411   0.008  1.00 20.00    -0.096 Br
ENDBRANCH   5  11
TORSDOF 2
ENDMDL
