MODEL 1
REMARK VINA RESULT:      -4.4      0.000      0.000
REMARK  1 active torsions:
REMARK  status: ('A' for Active; 'I' for Inactive)
REMARK    1  A    between atoms: C1_1  and  C2_2 
ROOT
HETATM    1  C2  UNL     1     -35.263  14.944  -4.289  1.00 20.00     0.089 A 
HETATM    2  C3  UNL     1     -34.679  16.302  -4.642  1.00 20.00    -0.028 A 
HETATM    3  C4  UNL     1     -34.135  15.510  -3.442  1.00 20.00    -0.028 A 
HETATM    4  C5  UNL     1     -35.547  17.518  -4.396  1.00 20.00     0.016 C 
HETATM    5  C6  UNL     1     -33.824  16.462  -5.880  1.00 20.00     0.016 C 
HETATM    6  C7  UNL     1     -32.751  14.900  -3.516  1.00 20.00     0.016 C 
HETATM    7  C8  UNL     1     -34.477  15.960  -2.037  1.00 20.00     0.016 C 
ENDROOT
BRANCH   1   8
HETATM    8  C1  UNL     1     -35.055  13.776  -5.156  1.00 20.00     0.224 C 
HETATM    9  O9  UNL     1     -34.705  12.690  -4.703  1.00 20.00    -0.279 OA
HETATM   10 CL10 UNL     1     -35.359  14.139  -6.828  1.00 20.00    -0.043 Cl
ENDBRANCH   1   8
TORSDOF 1
ENDMDL
MODEL 2
REMARK VINA RESULT:      -4.4      1.814      2.801
REMARK  1 active torsions:
REMARK  status: ('A' for Active; 'I' for Inactive)
REMARK    1  A    between atoms: C1_1  and  C2_2 
ROOT
HETATM    1  C2  UNL     1     -34.575  14.929  -4.766  1.00 20.00     0.089 A 
HETATM    2  C3  UNL     1     -34.744  16.110  -3.824  1.00 20.00    -0.028 A 
HETATM    3  C4  UNL     1     -35.953  15.547  -4.590  1.00 20.00    -0.028 A 
HETATM    4  C5  UNL     1     -34.145  17.432  -4.253  1.00 20.00     0.016 C 
HETATM    5  C6  UNL     1     -34.648  15.907  -2.327  1.00 20.00     0.016 C 
HETATM    6  C7  UNL     1     -37.030  14.797  -3.836  1.00 20.00     0.016 C 
HETATM    7  C8  UNL     1     -36.521  16.326  -5.757  1.00 20.00     0.016 C 
ENDROOT
BRANCH   1   8
HETATM    8  C1  UNL     1     -34.271  13.585  -4.257  1.00 20.00     0.224 C 
HETATM    9  O9  UNL     1     -35.058  12.653  -4.384  1.00 20.00    -0.279 OA
HETATM   10 CL10 UNL     1     -32.714  13.513  -3.488  1.00 20.00    -0.043 Cl
ENDBRANCH   1   8
TORSDOF 1
ENDMDL
MODEL 3
REMARK VINA RESULT:      -4.3      1.790      2.880
REMARK  1 active torsions:
REMARK  status: ('A' for Active; 'I' for Inactive)
REMARK    1  A    between atoms: C1_1  and  C2_2 
ROOT
HETATM    1  C2  UNL     1     -34.229  15.650  -4.655  1.00 20.00     0.089 A 
HETATM    2  C3  UNL     1     -34.161  14.256  -4.053  1.00 20.00    -0.028 A 
HETATM    3  C4  UNL     1     -34.963  15.367  -3.354  1.00 20.00    -0.028 A 
HETATM    4  C5  UNL     1     -32.836  13.817  -3.466  1.00 20.00     0.016 C 
HETATM    5  C6  UNL     1     -34.893  13.108  -4.711  1.00 20.00     0.016 C 
HETATM    6  C7  UNL     1     -36.475  15.296  -3.334  1.00 20.00     0.016 C 
HETATM    7  C8  UNL     1     -34.413  15.999  -2.093  1.00 20.00     0.016 C 
ENDROOT
BRANCH   1   8
HETATM    8  C1  UNL     1     -34.961  15.906  -5.903  1.00 20.00     0.224 C 
HETATM    9  O9  UNL     1     -35.931  16.657  -5.940  1.00 20.00    -0.279 OA
HETATM   10 CL10 UNL     1     -34.288  15.035  -7.247  1.00 20.00    -0.043 Cl
ENDBRANCH   1   8
TORSDOF 1
ENDMDL
MODEL 4
REMARK VINA RESULT:      -4.3      2.297      3.310
REMARK  1 active torsions:
REMARK  status: ('A' for Active; 'I' for Inactive)
REMARK    1  A    between atoms: C1_1  and  C2_2 
ROOT
HETATM    1  C2  UNL     1     -34.088  15.752  -4.710  1.00 20.00     0.089 A 
HETATM    2  C3  UNL     1     -35.599  15.591  -4.675  1.00 20.00    -0.028 A 
HETATM    3  C4  UNL     1     -34.732  14.617  -5.491  1.00 20.00    -0.028 A 
HETATM    4  C5  UNL     1     -36.426  16.632  -5.398  1.00 20.00     0.016 C 
HETATM    5  C6  UNL     1     -36.281  15.105  -3.414  1.00 20.00     0.016 C 
HETATM    6  C7  UNL     1     -34.573  13.187  -5.022  1.00 20.00     0.016 C 
HETATM    7  C8  UNL     1     -34.723  14.718  -7.002  1.00 20.00     0.016 C 
ENDROOT
BRANCH   1   8
HETATM    8  C1  UNL     1     -33.265  15.488  -3.522  1.00 20.00     0.224 C 
HETATM    9  O9  UNL     1     -32.368  14.650  -3.530  1.00 20.00    -0.279 OA
HETATM   10 CL10 UNL     1     -33.724  16.485  -2.175  1.00 20.00    -0.043 Cl
ENDBRANCH   1   8
TORSDOF 1
ENDMDL
MODEL 5
REMARK VINA RESULT:      -4.2      1.822      2.613
REMARK  1 active torsions:
REMARK  status: ('A' for Active; 'I' for Inactive)
REMARK    1  A    between atoms: C1_1  and  C2_2 
ROOT
HETATM    1  C2  UNL     1     -35.162  16.087  -4.740  1.00 20.00     0.089 A 
HETATM    2  C3  UNL     1     -35.123  16.145  -3.221  1.00 20.00    -0.028 A 
HETATM    3  C4  UNL     1     -35.654  14.892  -3.937  1.00 20.00    -0.028 A 
HETATM    4  C5  UNL     1     -36.101  17.077  -2.536  1.00 20.00     0.016 C 
HETATM    5  C6  UNL     1     -33.799  16.084  -2.492  1.00 20.00     0.016 C 
HETATM    6  C7  UNL     1     -34.842  13.615  -3.904  1.00 20.00     0.016 C 
HETATM    7  C8  UNL     1     -37.142  14.614  -3.944  1.00 20.00     0.016 C 
ENDROOT
BRANCH   1   8
HETATM    8  C1  UNL     1     -33.926  16.017  -5.531  1.00 20.00     0.224 C 
HETATM    9  O9  UNL     1     -32.883  16.537  -5.146  1.00 20.00    -0.279 OA
HETATM   10 CL10 UNL     1     -34.147  15.138  -7.014  1.00 20.00    -0.043 Cl
ENDBRANCH   1   8
TORSDOF 1
ENDMDL
MODEL 6
REMARK VINA RESULT:      -4.2      2.574      3.624
REMARK  1 active torsions:
REMARK  status: ('A' for Active; 'I' for Inactive)
REMARK    1  A    between atoms: C1_1  and  C2_2 
ROOT
HETATM    1  C2  UNL     1     -35.186  16.087  -4.592  1.00 20.00     0.089 A 
HETATM    2  C3  UNL     1     -35.820  14.706  -4.554  1.00 20.00    -0.028 A 
HETATM    3  C4  UNL     1     -35.544  15.399  -5.899  1.00 20.00    -0.028 A 
HETATM    4  C5  UNL     1     -37.243  14.608  -4.048  1.00 20.00     0.016 C 
HETATM    5  C6  UNL     1     -34.995  13.503  -4.152  1.00 20.00     0.016 C 
HETATM    6  C7  UNL     1     -34.451  14.867  -6.802  1.00 20.00     0.016 C 
HETATM    7  C8  UNL     1     -36.701  15.969  -6.692  1.00 20.00     0.016 C 
ENDROOT
BRANCH   1   8
HETATM    8  C1  UNL     1     -33.786  16.294  -4.198  1.00 20.00     0.224 C 
HETATM    9  O9  UNL     1     -32.907  16.507  -5.027  1.00 20.00    -0.279 OA
HETATM   10 CL10 UNL     1     -33.569  16.198  -2.476  1.00 20.00    -0.043 Cl
ENDBRANCH   1   8
TORSDOF 1
ENDMDL
MODEL 7
REMARK VINA RESULT:      -4.2      1.870      2.414
REMARK  1 active torsions:
REMARK  status: ('A' for Active; 'I' for Inactive)
REMARK    1  A    between atoms: C1_1  and  C2_2 
ROOT
HETATM    1  C2  UNL     1     -35.843  15.571  -4.631  1.00 20.00     0.089 A 
HETATM    2  C3  UNL     1     -34.874  15.309  -5.773  1.00 20.00    -0.028 A 
HETATM    3  C4  UNL     1     -34.613  14.711  -4.381  1.00 20.00    -0.028 A 
HETATM    4  C5  UNL     1     -34.032  16.473  -6.250  1.00 20.00     0.016 C 
HETATM    5  C6  UNL     1     -35.274  14.399  -6.914  1.00 20.00     0.016 C 
HETATM    6  C7  UNL     1     -34.760  13.219  -4.170  1.00 20.00     0.016 C 
HETATM    7  C8  UNL     1     -33.519  15.296  -3.514  1.00 20.00     0.016 C 
ENDROOT
BRANCH   1   8
HETATM    8  C1  UNL     1     -37.192  14.991  -4.628  1.00 20.00     0.224 C 
HETATM    9  O9  UNL     1     -37.536  14.160  -3.792  1.00 20.00    -0.279 OA
HETATM   10 CL10 UNL     1     -38.178  15.621  -5.913  1.00 20.00    -0.043 Cl
ENDBRANCH   1   8
TORSDOF 1
ENDMDL
MODEL 8
REMARK VINA RESULT:      -4.2      1.896      2.489
REMARK  1 active torsions:
REMARK  status: ('A' for Active; 'I' for Inactive)
REMARK    1  A    between atoms: C1_1  and  C2_2 
ROOT
HETATM    1  C2  UNL     1     -35.480  14.713  -4.605  1.00 20.00     0.089 A 
HETATM    2  C3  UNL     1     -36.016  15.126  -5.967  1.00 20.00    -0.028 A 
HETATM    3  C4  UNL     1     -35.062  16.052  -5.194  1.00 20.00    -0.028 A 
HETATM    4  C5  UNL     1     -37.484  15.482  -6.057  1.00 20.00     0.016 C 
HETATM    5  C6  UNL     1     -35.528  14.428  -7.218  1.00 20.00     0.016 C 
HETATM    6  C7  UNL     1     -33.647  16.251  -5.695  1.00 20.00     0.016 C 
HETATM    7  C8  UNL     1     -35.609  17.302  -4.539  1.00 20.00     0.016 C 
ENDROOT
BRANCH   1   8
HETATM    8  C1  UNL     1     -34.522  13.609  -4.466  1.00 20.00     0.224 C 
HETATM    9  O9  UNL     1     -34.753  12.492  -4.919  1.00 20.00    -0.279 OA
HETATM   10 CL10 UNL     1     -33.088  14.090  -3.610  1.00 20.00    -0.043 Cl
ENDBRANCH   1   8
TORSDOF 1
ENDMDL
MODEL 9
REMARK VINA RESULT:      -4.2      1.003      2.440
REMARK  1 active torsions:
REMARK  status: ('A' for Active; 'I' for Inactive)
REMARK    1  A    between atoms: C1_1  and  C2_2 
ROOT
HETATM    1  C2  UNL     1     -34.066  14.906  -4.691  1.00 20.00     0.089 A 
HETATM    2  C3  UNL     1     -34.710  15.711  -3.574  1.00 20.00    -0.028 A 
HETATM    3  C4  UNL     1     -34.536  16.325  -4.973  1.00 20.00    -0.028 A 
HETATM    4  C5  UNL     1     -33.815  16.174  -2.445  1.00 20.00     0.016 C 
HETATM    5  C6  UNL     1     -36.096  15.353  -3.083  1.00 20.00     0.016 C 
HETATM    6  C7  UNL     1     -35.754  16.562  -5.840  1.00 20.00     0.016 C 
HETATM    7  C8  UNL     1     -33.473  17.380  -5.195  1.00 20.00     0.016 C 
ENDROOT
BRANCH   1   8
HETATM    8  C1  UNL     1     -34.744  13.746  -5.284  1.00 20.00     0.224 C 
HETATM    9  O9  UNL     1     -34.965  12.727  -4.636  1.00 20.00    -0.279 OA
HETATM   10 CL10 UNL     1     -35.165  14.014  -6.948  1.00 20.00    -0.043 Cl
ENDBRANCH   1   8
TORSDOF 1
ENDMDL
