MODEL 1
REMARK VINA RESULT:      -3.9      0.000      0.000
REMARK  4 active torsions:
REMARK  status: ('A' for Active; 'I' for Inactive)
REMARK    1  A    between atoms: C1_1  and  C7_7 
REMARK    2  A    between atoms: C1_1  and  C9_9 
REMARK    3  A    between atoms: C8_8  and  C9_9 
REMARK    4  A    between atoms: C9_9  and  N10_10 
ROOT
HETATM    1  C4  UNL     1     -33.747  18.220  -2.741  1.00 20.00     0.058 C 
HETATM    2  C9  UNL     1     -34.360  16.862  -3.108  1.00 20.00     0.214 C 
ENDROOT
BRANCH   2   3
HETATM    3  C1  UNL     1     -33.393  16.053  -3.998  1.00 20.00     0.165 C 
HETATM    4  O11 UNL     1     -32.887  16.541  -5.011  1.00 20.00    -0.295 OA
BRANCH   3   5
HETATM    5  C7  UNL     1     -33.094  14.613  -3.592  1.00 20.00     0.076 C 
HETATM    6  C2  UNL     1     -33.959  13.608  -4.334  1.00 20.00     0.013 C 
ENDBRANCH   3   5
ENDBRANCH   2   3
BRANCH   2   7
HETATM    7  C8  UNL     1     -34.727  16.086  -1.825  1.00 20.00     0.045 C 
HETATM    8  C3  UNL     1     -34.608  16.879  -0.527  1.00 20.00     0.008 C 
ENDBRANCH   2   7
BRANCH   2   9
HETATM    9  N10 UNL     1     -35.568  17.137  -3.899  1.00 20.00     0.096 N 
HETATM   10  C5  UNL     1     -36.052  18.486  -3.628  1.00 20.00     0.310 C 
HETATM   11  C6  UNL     1     -36.601  16.147  -3.601  1.00 20.00     0.310 C 
ENDBRANCH   2   9
TORSDOF 4
ENDMDL
MODEL 2
REMARK VINA RESULT:      -3.8      1.461      2.914
REMARK  4 active torsions:
REMARK  status: ('A' for Active; 'I' for Inactive)
REMARK    1  A    between atoms: C1_1  and  C7_7 
REMARK    2  A    between atoms: C1_1  and  C9_9 
REMARK    3  A    between atoms: C8_8  and  C9_9 
REMARK    4  A    between atoms: C9_9  and  N10_10 
ROOT
HETATM    1  C4  UNL     1     -35.659  16.451  -3.428  1.00 20.00     0.058 C 
HETATM    2  C9  UNL     1     -34.125  16.469  -3.427  1.00 20.00     0.214 C 
ENDROOT
BRANCH   2   3
HETATM    3  C1  UNL     1     -33.566  15.034  -3.539  1.00 20.00     0.165 C 
HETATM    4  O11 UNL     1     -32.353  14.814  -3.572  1.00 20.00    -0.295 OA
BRANCH   3   5
HETATM    5  C7  UNL     1     -34.570  13.889  -3.624  1.00 20.00     0.076 C 
HETATM    6  C2  UNL     1     -34.558  13.204  -4.980  1.00 20.00     0.013 C 
ENDBRANCH   3   5
ENDBRANCH   2   3
BRANCH   2   7
HETATM    7  C8  UNL     1     -33.608  17.364  -4.573  1.00 20.00     0.045 C 
HETATM    8  C3  UNL     1     -33.989  16.909  -5.979  1.00 20.00     0.008 C 
ENDBRANCH   2   7
BRANCH   2   9
HETATM    9  N10 UNL     1     -33.702  17.011  -2.128  1.00 20.00     0.096 N 
HETATM   10  C5  UNL     1     -34.619  16.577  -1.079  1.00 20.00     0.310 C 
HETATM   11  C6  UNL     1     -33.637  18.468  -2.188  1.00 20.00     0.310 C 
ENDBRANCH   2   9
TORSDOF 4
ENDMDL
MODEL 3
REMARK VINA RESULT:      -3.8      1.823      2.537
REMARK  4 active torsions:
REMARK  status: ('A' for Active; 'I' for Inactive)
REMARK    1  A    between atoms: C1_1  and  C7_7 
REMARK    2  A    between atoms: C1_1  and  C9_9 
REMARK    3  A    between atoms: C8_8  and  C9_9 
REMARK    4  A    between atoms: C9_9  and  N10_10 
ROOT
HETATM    1  C4  UNL     1     -35.977  17.022  -3.769  1.00 20.00     0.058 C 
HETATM    2  C9  UNL     1     -35.022  15.843  -4.003  1.00 20.00     0.214 C 
ENDROOT
BRANCH   2   3
HETATM    3  C1  UNL     1     -34.018  16.174  -5.129  1.00 20.00     0.165 C 
HETATM    4  O11 UNL     1     -32.815  16.313  -4.900  1.00 20.00    -0.295 OA
BRANCH   3   5
HETATM    5  C7  UNL     1     -34.569  16.341  -6.541  1.00 20.00     0.076 C 
HETATM    6  C2  UNL     1     -34.330  15.116  -7.407  1.00 20.00     0.013 C 
ENDBRANCH   3   5
ENDBRANCH   2   3
BRANCH   2   7
HETATM    7  C8  UNL     1     -34.296  15.485  -2.689  1.00 20.00     0.045 C 
HETATM    8  C3  UNL     1     -34.649  16.360  -1.490  1.00 20.00     0.008 C 
ENDBRANCH   2   7
BRANCH   2   9
HETATM    9  N10 UNL     1     -35.842  14.711  -4.457  1.00 20.00     0.096 N 
HETATM   10  C5  UNL     1     -37.155  14.754  -3.823  1.00 20.00     0.310 C 
HETATM   11  C6  UNL     1     -35.166  13.450  -4.162  1.00 20.00     0.310 C 
ENDBRANCH   2   9
TORSDOF 4
ENDMDL
MODEL 4
REMARK VINA RESULT:      -3.8      1.860      3.701
REMARK  4 active torsions:
REMARK  status: ('A' for Active; 'I' for Inactive)
REMARK    1  A    between atoms: C1_1  and  C7_7 
REMARK    2  A    between atoms: C1_1  and  C9_9 
REMARK    3  A    between atoms: C8_8  and  C9_9 
REMARK    4  A    between atoms: C9_9  and  N10_10 
ROOT
HETATM    1  C4  UNL     1     -32.886  14.522  -3.662  1.00 20.00     0.058 C 
HETATM    2  C9  UNL     1     -33.933  15.497  -4.217  1.00 20.00     0.214 C 
ENDROOT
BRANCH   2   3
HETATM    3  C1  UNL     1     -34.661  16.223  -3.065  1.00 20.00     0.165 C 
HETATM    4  O11 UNL     1     -35.867  16.472  -3.119  1.00 20.00    -0.295 OA
BRANCH   3   5
HETATM    5  C7  UNL     1     -33.831  16.641  -1.856  1.00 20.00     0.076 C 
HETATM    6  C2  UNL     1     -34.672  16.804  -0.601  1.00 20.00     0.013 C 
ENDBRANCH   3   5
ENDBRANCH   2   3
BRANCH   2   7
HETATM    7  C8  UNL     1     -33.262  16.500  -5.179  1.00 20.00     0.045 C 
HETATM    8  C3  UNL     1     -33.641  17.963  -4.965  1.00 20.00     0.008 C 
ENDBRANCH   2   7
BRANCH   2   9
HETATM    9  N10 UNL     1     -34.931  14.692  -4.935  1.00 20.00     0.096 N 
HETATM   10  C5  UNL     1     -34.969  13.337  -4.394  1.00 20.00     0.310 C 
HETATM   11  C6  UNL     1     -34.626  14.670  -6.363  1.00 20.00     0.310 C 
ENDBRANCH   2   9
TORSDOF 4
ENDMDL
MODEL 5
REMARK VINA RESULT:      -3.8      1.619      2.508
REMARK  4 active torsions:
REMARK  status: ('A' for Active; 'I' for Inactive)
REMARK    1  A    between atoms: C1_1  and  C7_7 
REMARK    2  A    between atoms: C1_1  and  C9_9 
REMARK    3  A    between atoms: C8_8  and  C9_9 
REMARK    4  A    between atoms: C9_9  and  N10_10 
ROOT
HETATM    1  C4  UNL     1     -34.278  16.169  -2.472  1.00 20.00     0.058 C 
HETATM    2  C9  UNL     1     -34.804  15.585  -3.790  1.00 20.00     0.214 C 
ENDROOT
BRANCH   2   3
HETATM    3  C1  UNL     1     -34.017  16.157  -4.989  1.00 20.00     0.165 C 
HETATM    4  O11 UNL     1     -32.856  16.556  -4.868  1.00 20.00    -0.295 OA
BRANCH   3   5
HETATM    5  C7  UNL     1     -34.731  16.229  -6.334  1.00 20.00     0.076 C 
HETATM    6  C2  UNL     1     -34.428  15.031  -7.219  1.00 20.00     0.013 C 
ENDBRANCH   3   5
ENDBRANCH   2   3
BRANCH   2   7
HETATM    7  C8  UNL     1     -34.730  14.044  -3.751  1.00 20.00     0.045 C 
HETATM    8  C3  UNL     1     -33.321  13.460  -3.727  1.00 20.00     0.008 C 
ENDBRANCH   2   7
BRANCH   2   9
HETATM    9  N10 UNL     1     -36.200  16.024  -3.926  1.00 20.00     0.096 N 
HETATM   10  C5  UNL     1     -36.494  17.077  -2.959  1.00 20.00     0.310 C 
HETATM   11  C6  UNL     1     -37.104  14.891  -3.745  1.00 20.00     0.310 C 
ENDBRANCH   2   9
TORSDOF 4
ENDMDL
MODEL 6
REMARK VINA RESULT:      -3.8      1.898      3.615
REMARK  4 active torsions:
REMARK  status: ('A' for Active; 'I' for Inactive)
REMARK    1  A    between atoms: C1_1  and  C7_7 
REMARK    2  A    between atoms: C1_1  and  C9_9 
REMARK    3  A    between atoms: C8_8  and  C9_9 
REMARK    4  A    between atoms: C9_9  and  N10_10 
ROOT
HETATM    1  C4  UNL     1     -36.054  14.755  -3.783  1.00 20.00     0.058 C 
HETATM    2  C9  UNL     1     -34.992  15.836  -3.543  1.00 20.00     0.214 C 
ENDROOT
BRANCH   2   3
HETATM    3  C1  UNL     1     -35.338  16.666  -2.288  1.00 20.00     0.165 C 
HETATM    4  O11 UNL     1     -36.340  17.383  -2.244  1.00 20.00    -0.295 OA
BRANCH   3   5
HETATM    5  C7  UNL     1     -34.384  16.583  -1.100  1.00 20.00     0.076 C 
HETATM    6  C2  UNL     1     -34.937  17.269   0.138  1.00 20.00     0.013 C 
ENDBRANCH   3   5
ENDBRANCH   2   3
BRANCH   2   7
HETATM    7  C8  UNL     1     -33.597  15.187  -3.422  1.00 20.00     0.045 C 
HETATM    8  C3  UNL     1     -33.533  13.706  -3.786  1.00 20.00     0.008 C 
ENDBRANCH   2   7
BRANCH   2   9
HETATM    9  N10 UNL     1     -35.033  16.742  -4.699  1.00 20.00     0.096 N 
HETATM   10  C5  UNL     1     -35.609  16.060  -5.854  1.00 20.00     0.310 C 
HETATM   11  C6  UNL     1     -33.691  17.231  -5.004  1.00 20.00     0.310 C 
ENDBRANCH   2   9
TORSDOF 4
ENDMDL
MODEL 7
REMARK VINA RESULT:      -3.7      1.820      2.309
REMARK  4 active torsions:
REMARK  status: ('A' for Active; 'I' for Inactive)
REMARK    1  A    between atoms: C1_1  and  C7_7 
REMARK    2  A    between atoms: C1_1  and  C9_9 
REMARK    3  A    between atoms: C8_8  and  C9_9 
REMARK    4  A    between atoms: C9_9  and  N10_10 
ROOT
HETATM    1  C4  UNL     1     -33.353  15.838  -3.069  1.00 20.00     0.058 C 
HETATM    2  C9  UNL     1     -34.850  16.117  -3.256  1.00 20.00     0.214 C 
ENDROOT
BRANCH   2   3
HETATM    3  C1  UNL     1     -35.621  14.802  -3.501  1.00 20.00     0.165 C 
HETATM    4  O11 UNL     1     -36.841  14.729  -3.337  1.00 20.00    -0.295 OA
BRANCH   3   5
HETATM    5  C7  UNL     1     -34.817  13.583  -3.939  1.00 20.00     0.076 C 
HETATM    6  C2  UNL     1     -34.765  13.433  -5.451  1.00 20.00     0.013 C 
ENDBRANCH   3   5
ENDBRANCH   2   3
BRANCH   2   7
HETATM    7  C8  UNL     1     -35.402  16.873  -2.028  1.00 20.00     0.045 C 
HETATM    8  C3  UNL     1     -34.591  16.712  -0.745  1.00 20.00     0.008 C 
ENDBRANCH   2   7
BRANCH   2   9
HETATM    9  N10 UNL     1     -34.985  16.943  -4.464  1.00 20.00     0.096 N 
HETATM   10  C5  UNL     1     -33.687  17.107  -5.110  1.00 20.00     0.310 C 
HETATM   11  C6  UNL     1     -35.561  18.242  -4.125  1.00 20.00     0.310 C 
ENDBRANCH   2   9
TORSDOF 4
ENDMDL
MODEL 8
REMARK VINA RESULT:      -3.7      1.749      3.541
REMARK  4 active torsions:
REMARK  status: ('A' for Active; 'I' for Inactive)
REMARK    1  A    between atoms: C1_1  and  C7_7 
REMARK    2  A    between atoms: C1_1  and  C9_9 
REMARK    3  A    between atoms: C8_8  and  C9_9 
REMARK    4  A    between atoms: C9_9  and  N10_10 
ROOT
HETATM    1  C4  UNL     1     -35.988  16.462  -5.390  1.00 20.00     0.058 C 
HETATM    2  C9  UNL     1     -35.327  15.419  -4.479  1.00 20.00     0.214 C 
ENDROOT
BRANCH   2   3
HETATM    3  C1  UNL     1     -34.357  16.099  -3.490  1.00 20.00     0.165 C 
HETATM    4  O11 UNL     1     -33.348  16.692  -3.880  1.00 20.00    -0.295 OA
BRANCH   3   5
HETATM    5  C7  UNL     1     -34.679  16.001  -2.003  1.00 20.00     0.076 C 
HETATM    6  C2  UNL     1     -33.997  17.087  -1.187  1.00 20.00     0.013 C 
ENDBRANCH   3   5
ENDBRANCH   2   3
BRANCH   2   7
HETATM    7  C8  UNL     1     -36.410  14.607  -3.737  1.00 20.00     0.045 C 
HETATM    8  C3  UNL     1     -37.851  14.959  -4.098  1.00 20.00     0.008 C 
ENDBRANCH   2   7
BRANCH   2   9
HETATM    9  N10 UNL     1     -34.533  14.536  -5.345  1.00 20.00     0.096 N 
HETATM   10  C5  UNL     1     -35.087  14.521  -6.694  1.00 20.00     0.310 C 
HETATM   11  C6  UNL     1     -34.494  13.187  -4.787  1.00 20.00     0.310 C 
ENDBRANCH   2   9
TORSDOF 4
ENDMDL
MODEL 9
REMARK VINA RESULT:      -3.7      1.724      3.624
REMARK  4 active torsions:
REMARK  status: ('A' for Active; 'I' for Inactive)
REMARK    1  A    between atoms: C1_1  and  C7_7 
REMARK    2  A    between atoms: C1_1  and  C9_9 
REMARK    3  A    between atoms: C8_8  and  C9_9 
REMARK    4  A    between atoms: C9_9  and  N10_10 
ROOT
HETATM    1  C4  UNL     1     -35.292  13.671  -4.510  1.00 20.00     0.058 C 
HETATM    2  C9  UNL     1     -35.096  15.182  -4.320  1.00 20.00     0.214 C 
ENDROOT
BRANCH   2   3
HETATM    3  C1  UNL     1     -34.052  15.459  -3.216  1.00 20.00     0.165 C 
HETATM    4  O11 UNL     1     -32.853  15.236  -3.392  1.00 20.00    -0.295 OA
BRANCH   3   5
HETATM    5  C7  UNL     1     -34.559  16.005  -1.886  1.00 20.00     0.076 C 
HETATM    6  C2  UNL     1     -33.783  17.227  -1.426  1.00 20.00     0.013 C 
ENDBRANCH   3   5
ENDBRANCH   2   3
BRANCH   2   7
HETATM    7  C8  UNL     1     -34.685  15.831  -5.659  1.00 20.00     0.045 C 
HETATM    8  C3  UNL     1     -34.513  14.864  -6.827  1.00 20.00     0.008 C 
ENDBRANCH   2   7
BRANCH   2   9
HETATM    9  N10 UNL     1     -36.382  15.727  -3.864  1.00 20.00     0.096 N 
HETATM   10  C5  UNL     1     -37.425  14.712  -3.968  1.00 20.00     0.310 C 
HETATM   11  C6  UNL     1     -36.732  16.911  -4.643  1.00 20.00     0.310 C 
ENDBRANCH   2   9
TORSDOF 4
ENDMDL
