MODEL 1
REMARK VINA RESULT:      -4.9      0.000      0.000
REMARK  2 active torsions:
REMARK  status: ('A' for Active; 'I' for Inactive)
REMARK    1  A    between atoms: C2_2  and  C3_3 
REMARK    2  A    between atoms: C2_2  and  C10_10 
ROOT
HETATM    1  C1  UNL     1     -34.118  13.404  -4.140  1.00 20.00     0.066 C 
HETATM    2  C10 UNL     1     -32.996  14.196  -3.626  1.00 20.00     0.202 C 
HETATM    3  N11 UNL     1     -35.004  12.773  -4.544  1.00 20.00    -0.197 NA
ENDROOT
BRANCH   2   4
HETATM    4  C2  UNL     1     -33.170  15.672  -3.893  1.00 20.00     0.145 C 
HETATM    5  O12 UNL     1     -33.181  16.188  -5.004  1.00 20.00    -0.296 OA
BRANCH   4   6
HETATM    6  C3  UNL     1     -33.331  16.511  -2.697  1.00 20.00     0.073 A 
HETATM    7  C4  UNL     1     -34.697  16.730  -2.065  1.00 20.00    -0.029 A 
HETATM    8  C5  UNL     1     -33.974  17.887  -2.779  1.00 20.00    -0.029 A 
HETATM    9  C6  UNL     1     -34.774  16.722  -0.554  1.00 20.00     0.016 C 
HETATM   10  C7  UNL     1     -35.931  16.121  -2.696  1.00 20.00     0.016 C 
HETATM   11  C8  UNL     1     -34.508  18.398  -4.099  1.00 20.00     0.016 C 
HETATM   12  C9  UNL     1     -33.354  18.994  -1.954  1.00 20.00     0.016 C 
ENDBRANCH   4   6
ENDBRANCH   2   4
TORSDOF 2
ENDMDL
MODEL 2
REMARK VINA RESULT:      -4.8      1.673      1.994
REMARK  2 active torsions:
REMARK  status: ('A' for Active; 'I' for Inactive)
REMARK    1  A    between atoms: C2_2  and  C3_3 
REMARK    2  A    between atoms: C2_2  and  C10_10 
ROOT
HETATM    1  C1  UNL     1     -34.374  13.862  -3.738  1.00 20.00     0.066 C 
HETATM    2  C10 UNL     1     -33.850  15.094  -3.140  1.00 20.00     0.202 C 
HETATM    3  N11 UNL     1     -34.782  12.886  -4.214  1.00 20.00    -0.197 NA
ENDROOT
BRANCH   2   4
HETATM    4  C2  UNL     1     -34.921  15.876  -2.416  1.00 20.00     0.145 C 
HETATM    5  O12 UNL     1     -36.083  15.983  -2.787  1.00 20.00    -0.296 OA
BRANCH   4   6
HETATM    6  C3  UNL     1     -34.484  16.542  -1.181  1.00 20.00     0.073 A 
HETATM    7  C4  UNL     1     -35.284  17.684  -0.575  1.00 20.00    -0.029 A 
HETATM    8  C5  UNL     1     -33.905  17.949  -1.206  1.00 20.00    -0.029 A 
HETATM    9  C6  UNL     1     -35.430  17.710   0.930  1.00 20.00     0.016 C 
HETATM   10  C7  UNL     1     -36.531  18.190  -1.271  1.00 20.00     0.016 C 
HETATM   11  C8  UNL     1     -33.815  18.709  -2.510  1.00 20.00     0.016 C 
HETATM   12  C9  UNL     1     -32.721  18.229  -0.306  1.00 20.00     0.016 C 
ENDBRANCH   4   6
ENDBRANCH   2   4
TORSDOF 2
ENDMDL
MODEL 3
REMARK VINA RESULT:      -4.5      2.630      3.893
REMARK  2 active torsions:
REMARK  status: ('A' for Active; 'I' for Inactive)
REMARK    1  A    between atoms: C2_2  and  C3_3 
REMARK    2  A    between atoms: C2_2  and  C10_10 
ROOT
HETATM    1  C1  UNL     1     -34.188  16.263  -1.912  1.00 20.00     0.066 C 
HETATM    2  C10 UNL     1     -33.355  15.652  -2.953  1.00 20.00     0.202 C 
HETATM    3  N11 UNL     1     -34.844  16.743  -1.084  1.00 20.00    -0.197 NA
ENDROOT
BRANCH   2   4
HETATM    4  C2  UNL     1     -33.737  16.122  -4.337  1.00 20.00     0.145 C 
HETATM    5  O12 UNL     1     -32.957  16.585  -5.160  1.00 20.00    -0.296 OA
BRANCH   4   6
HETATM    6  C3  UNL     1     -35.162  15.995  -4.672  1.00 20.00     0.073 A 
HETATM    7  C4  UNL     1     -35.857  14.643  -4.662  1.00 20.00    -0.029 A 
HETATM    8  C5  UNL     1     -35.612  15.382  -5.990  1.00 20.00    -0.029 A 
HETATM    9  C6  UNL     1     -37.258  14.585  -4.093  1.00 20.00     0.016 C 
HETATM   10  C7  UNL     1     -35.070  13.387  -4.352  1.00 20.00     0.016 C 
HETATM   11  C8  UNL     1     -34.588  14.844  -6.965  1.00 20.00     0.016 C 
HETATM   12  C9  UNL     1     -36.777  16.038  -6.699  1.00 20.00     0.016 C 
ENDBRANCH   4   6
ENDBRANCH   2   4
TORSDOF 2
ENDMDL
MODEL 4
REMARK VINA RESULT:      -4.5      2.672      4.227
REMARK  2 active torsions:
REMARK  status: ('A' for Active; 'I' for Inactive)
REMARK    1  A    between atoms: C2_2  and  C3_3 
REMARK    2  A    between atoms: C2_2  and  C10_10 
ROOT
HETATM    1  C1  UNL     1     -34.319  17.408  -0.270  1.00 20.00     0.066 C 
HETATM    2  C10 UNL     1     -34.671  16.326  -1.196  1.00 20.00     0.202 C 
HETATM    3  N11 UNL     1     -34.042  18.260   0.467  1.00 20.00    -0.197 NA
ENDROOT
BRANCH   2   4
HETATM    4  C2  UNL     1     -34.442  16.713  -2.638  1.00 20.00     0.145 C 
HETATM    5  O12 UNL     1     -33.834  17.710  -3.009  1.00 20.00    -0.296 OA
BRANCH   4   6
HETATM    6  C3  UNL     1     -35.014  15.794  -3.632  1.00 20.00     0.073 A 
HETATM    7  C4  UNL     1     -34.258  14.556  -4.088  1.00 20.00    -0.029 A 
HETATM    8  C5  UNL     1     -34.476  15.735  -5.053  1.00 20.00    -0.029 A 
HETATM    9  C6  UNL     1     -35.056  13.284  -4.278  1.00 20.00     0.016 C 
HETATM   10  C7  UNL     1     -32.869  14.276  -3.556  1.00 20.00     0.016 C 
HETATM   11  C8  UNL     1     -33.299  16.596  -5.456  1.00 20.00     0.016 C 
HETATM   12  C9  UNL     1     -35.485  15.599  -6.174  1.00 20.00     0.016 C 
ENDBRANCH   4   6
ENDBRANCH   2   4
TORSDOF 2
ENDMDL
MODEL 5
REMARK VINA RESULT:      -4.4      2.467      4.216
REMARK  2 active torsions:
REMARK  status: ('A' for Active; 'I' for Inactive)
REMARK    1  A    between atoms: C2_2  and  C3_3 
REMARK    2  A    between atoms: C2_2  and  C10_10 
ROOT
HETATM    1  C1  UNL     1     -34.250  16.861  -1.573  1.00 20.00     0.066 C 
HETATM    2  C10 UNL     1     -33.775  17.144  -2.931  1.00 20.00     0.202 C 
HETATM    3  N11 UNL     1     -34.626  16.643  -0.497  1.00 20.00    -0.197 NA
ENDROOT
BRANCH   2   4
HETATM    4  C2  UNL     1     -33.664  15.892  -3.769  1.00 20.00     0.145 C 
HETATM    5  O12 UNL     1     -32.932  14.942  -3.517  1.00 20.00    -0.296 OA
BRANCH   4   6
HETATM    6  C3  UNL     1     -34.516  15.861  -4.966  1.00 20.00     0.073 A 
HETATM    7  C4  UNL     1     -35.979  15.455  -4.883  1.00 20.00    -0.029 A 
HETATM    8  C5  UNL     1     -34.957  14.544  -5.587  1.00 20.00    -0.029 A 
HETATM    9  C6  UNL     1     -36.967  16.243  -5.715  1.00 20.00     0.016 C 
HETATM   10  C7  UNL     1     -36.573  15.025  -3.559  1.00 20.00     0.016 C 
HETATM   11  C8  UNL     1     -34.562  13.232  -4.945  1.00 20.00     0.016 C 
HETATM   12  C9  UNL     1     -34.961  14.454  -7.098  1.00 20.00     0.016 C 
ENDBRANCH   4   6
ENDBRANCH   2   4
TORSDOF 2
ENDMDL
MODEL 6
REMARK VINA RESULT:      -4.4      1.110      1.999
REMARK  2 active torsions:
REMARK  status: ('A' for Active; 'I' for Inactive)
REMARK    1  A    between atoms: C2_2  and  C3_3 
REMARK    2  A    between atoms: C2_2  and  C10_10 
ROOT
HETATM    1  C1  UNL     1     -34.579  13.724  -4.977  1.00 20.00     0.066 C 
HETATM    2  C10 UNL     1     -34.245  15.117  -5.290  1.00 20.00     0.202 C 
HETATM    3  N11 UNL     1     -34.846  12.621  -4.734  1.00 20.00    -0.197 NA
ENDROOT
BRANCH   2   4
HETATM    4  C2  UNL     1     -33.423  15.765  -4.201  1.00 20.00     0.145 C 
HETATM    5  O12 UNL     1     -32.578  15.191  -3.525  1.00 20.00    -0.296 OA
BRANCH   4   6
HETATM    6  C3  UNL     1     -33.696  17.190  -3.973  1.00 20.00     0.073 A 
HETATM    7  C4  UNL     1     -34.015  17.720  -2.584  1.00 20.00    -0.029 A 
HETATM    8  C5  UNL     1     -35.103  17.686  -3.672  1.00 20.00    -0.029 A 
HETATM    9  C6  UNL     1     -33.404  19.046  -2.187  1.00 20.00     0.016 C 
HETATM   10  C7  UNL     1     -34.106  16.767  -1.411  1.00 20.00     0.016 C 
HETATM   11  C8  UNL     1     -36.245  16.701  -3.555  1.00 20.00     0.016 C 
HETATM   12  C9  UNL     1     -35.538  18.980  -4.326  1.00 20.00     0.016 C 
ENDBRANCH   4   6
ENDBRANCH   2   4
TORSDOF 2
ENDMDL
MODEL 7
REMARK VINA RESULT:      -4.4      2.538      3.600
REMARK  2 active torsions:
REMARK  status: ('A' for Active; 'I' for Inactive)
REMARK    1  A    between atoms: C2_2  and  C3_3 
REMARK    2  A    between atoms: C2_2  and  C10_10 
ROOT
HETATM    1  C1  UNL     1     -36.513  14.757  -7.129  1.00 20.00     0.066 C 
HETATM    2  C10 UNL     1     -35.178  14.231  -6.823  1.00 20.00     0.202 C 
HETATM    3  N11 UNL     1     -37.567  15.173  -7.376  1.00 20.00    -0.197 NA
ENDROOT
BRANCH   2   4
HETATM    4  C2  UNL     1     -35.013  13.910  -5.356  1.00 20.00     0.145 C 
HETATM    5  O12 UNL     1     -34.729  12.806  -4.908  1.00 20.00    -0.296 OA
BRANCH   4   6
HETATM    6  C3  UNL     1     -35.224  15.039  -4.440  1.00 20.00     0.073 A 
HETATM    7  C4  UNL     1     -34.520  16.370  -4.653  1.00 20.00    -0.029 A 
HETATM    8  C5  UNL     1     -34.143  15.473  -3.461  1.00 20.00    -0.029 A 
HETATM    9  C6  UNL     1     -35.324  17.629  -4.410  1.00 20.00     0.016 C 
HETATM   10  C7  UNL     1     -33.544  16.537  -5.798  1.00 20.00     0.016 C 
HETATM   11  C8  UNL     1     -32.803  14.771  -3.450  1.00 20.00     0.016 C 
HETATM   12  C9  UNL     1     -34.585  15.867  -2.068  1.00 20.00     0.016 C 
ENDBRANCH   4   6
ENDBRANCH   2   4
TORSDOF 2
ENDMDL
MODEL 8
REMARK VINA RESULT:      -4.4      3.307      4.202
REMARK  2 active torsions:
REMARK  status: ('A' for Active; 'I' for Inactive)
REMARK    1  A    between atoms: C2_2  and  C3_3 
REMARK    2  A    between atoms: C2_2  and  C10_10 
ROOT
HETATM    1  C1  UNL     1     -33.733  13.958  -3.891  1.00 20.00     0.066 C 
HETATM    2  C10 UNL     1     -34.996  13.311  -4.261  1.00 20.00     0.202 C 
HETATM    3  N11 UNL     1     -32.731  14.464  -3.598  1.00 20.00    -0.197 NA
ENDROOT
BRANCH   2   4
HETATM    4  C2  UNL     1     -36.148  14.288  -4.301  1.00 20.00     0.145 C 
HETATM    5  O12 UNL     1     -37.261  14.079  -3.834  1.00 20.00    -0.296 OA
BRANCH   4   6
HETATM    6  C3  UNL     1     -35.861  15.568  -4.963  1.00 20.00     0.073 A 
HETATM    7  C4  UNL     1     -36.848  16.191  -5.937  1.00 20.00    -0.029 A 
HETATM    8  C5  UNL     1     -35.506  15.630  -6.441  1.00 20.00    -0.029 A 
HETATM    9  C6  UNL     1     -37.046  17.689  -5.865  1.00 20.00     0.016 C 
HETATM   10  C7  UNL     1     -38.134  15.468  -6.281  1.00 20.00     0.016 C 
HETATM   11  C8  UNL     1     -35.491  14.366  -7.272  1.00 20.00     0.016 C 
HETATM   12  C9  UNL     1     -34.411  16.589  -6.853  1.00 20.00     0.016 C 
ENDBRANCH   4   6
ENDBRANCH   2   4
TORSDOF 2
ENDMDL
MODEL 9
REMARK VINA RESULT:      -4.3      2.680      4.276
REMARK  2 active torsions:
REMARK  status: ('A' for Active; 'I' for Inactive)
REMARK    1  A    between atoms: C2_2  and  C3_3 
REMARK    2  A    between atoms: C2_2  and  C10_10 
ROOT
HETATM    1  C1  UNL     1     -38.253  15.084  -4.550  1.00 20.00     0.066 C 
HETATM    2  C10 UNL     1     -37.679  16.043  -5.500  1.00 20.00     0.202 C 
HETATM    3  N11 UNL     1     -38.711  14.325  -3.802  1.00 20.00    -0.197 NA
ENDROOT
BRANCH   2   4
HETATM    4  C2  UNL     1     -36.340  16.570  -5.040  1.00 20.00     0.145 C 
HETATM    5  O12 UNL     1     -35.994  17.744  -5.092  1.00 20.00    -0.296 OA
BRANCH   4   6
HETATM    6  C3  UNL     1     -35.420  15.560  -4.500  1.00 20.00     0.073 A 
HETATM    7  C4  UNL     1     -33.916  15.678  -4.694  1.00 20.00    -0.029 A 
HETATM    8  C5  UNL     1     -34.709  14.572  -5.413  1.00 20.00    -0.029 A 
HETATM    9  C6  UNL     1     -33.033  15.316  -3.521  1.00 20.00     0.016 C 
HETATM   10  C7  UNL     1     -33.343  16.826  -5.498  1.00 20.00     0.016 C 
HETATM   11  C8  UNL     1     -34.904  14.648  -6.911  1.00 20.00     0.016 C 
HETATM   12  C9  UNL     1     -34.589  13.142  -4.931  1.00 20.00     0.016 C 
ENDBRANCH   4   6
ENDBRANCH   2   4
TORSDOF 2
ENDMDL
