MODEL 1
REMARK VINA RESULT:      -4.2      0.000      0.000
REMARK  3 active torsions:
REMARK  status: ('A' for Active; 'I' for Inactive)
REMARK    1  A    between atoms: C5_5  and  C7_7 
REMARK    2  A    between atoms: C6_6  and  C7_7 
REMARK    3  A    between atoms: C6_6  and  O9_9 
ROOT
HETATM    1  C1  UNL     1     -34.734  14.017  -3.884  1.00 20.00     0.071 C 
HETATM    2  C4  UNL     1     -35.837  16.132  -4.463  1.00 20.00     0.034 C 
HETATM    3  C7  UNL     1     -34.717  15.480  -3.623  1.00 20.00     0.070 C 
HETATM    4  N8  UNL     1     -34.747  12.875  -4.089  1.00 20.00    -0.196 NA
ENDROOT
BRANCH   3   5
HETATM    5  C5  UNL     1     -34.948  15.737  -2.106  1.00 20.00     0.022 C 
HETATM    6  C2  UNL     1     -34.071  16.817  -1.476  1.00 20.00     0.007 C 
ENDBRANCH   3   5
BRANCH   3   7
HETATM    7  C6  UNL     1     -33.342  16.082  -4.057  1.00 20.00     0.136 C 
HETATM    8  C3  UNL     1     -33.340  16.825  -5.394  1.00 20.00     0.041 C 
BRANCH   7   9
HETATM    9  O9  UNL     1     -32.357  15.045  -4.126  1.00 20.00    -0.394 OA
HETATM   10  H22 UNL     1     -31.754  15.196  -3.385  1.00 20.00     0.210 HD
ENDBRANCH   7   9
ENDBRANCH   3   7
TORSDOF 3
ENDMDL
MODEL 2
REMARK VINA RESULT:      -4.1      2.095      2.414
REMARK  3 active torsions:
REMARK  status: ('A' for Active; 'I' for Inactive)
REMARK    1  A    between atoms: C5_5  and  C7_7 
REMARK    2  A    between atoms: C6_6  and  C7_7 
REMARK    3  A    between atoms: C6_6  and  O9_9 
ROOT
HETATM    1  C1  UNL     1     -37.051  14.698  -3.802  1.00 20.00     0.071 C 
HETATM    2  C4  UNL     1     -35.631  16.414  -4.831  1.00 20.00     0.034 C 
HETATM    3  C7  UNL     1     -35.647  15.167  -3.920  1.00 20.00     0.070 C 
HETATM    4  N8  UNL     1     -38.149  14.331  -3.712  1.00 20.00    -0.196 NA
ENDROOT
BRANCH   3   5
HETATM    5  C5  UNL     1     -35.097  15.514  -2.506  1.00 20.00     0.022 C 
HETATM    6  C2  UNL     1     -33.784  16.294  -2.478  1.00 20.00     0.007 C 
ENDBRANCH   3   5
BRANCH   3   7
HETATM    7  C6  UNL     1     -34.765  14.052  -4.571  1.00 20.00     0.136 C 
HETATM    8  C3  UNL     1     -34.717  14.059  -6.099  1.00 20.00     0.041 C 
BRANCH   7   9
HETATM    9  O9  UNL     1     -35.222  12.763  -4.147  1.00 20.00    -0.394 OA
HETATM   10  H22 UNL     1     -35.664  12.899  -3.297  1.00 20.00     0.210 HD
ENDBRANCH   7   9
ENDBRANCH   3   7
TORSDOF 3
ENDMDL
MODEL 3
REMARK VINA RESULT:      -4.1      2.163      2.991
REMARK  3 active torsions:
REMARK  status: ('A' for Active; 'I' for Inactive)
REMARK    1  A    between atoms: C5_5  and  C7_7 
REMARK    2  A    between atoms: C6_6  and  C7_7 
REMARK    3  A    between atoms: C6_6  and  O9_9 
ROOT
HETATM    1  C1  UNL     1     -33.728  15.919  -4.733  1.00 20.00     0.071 C 
HETATM    2  C4  UNL     1     -33.009  13.908  -3.525  1.00 20.00     0.034 C 
HETATM    3  C7  UNL     1     -34.193  14.861  -3.800  1.00 20.00     0.070 C 
HETATM    4  N8  UNL     1     -33.364  16.745  -5.463  1.00 20.00    -0.196 NA
ENDROOT
BRANCH   3   5
HETATM    5  C5  UNL     1     -34.688  15.517  -2.479  1.00 20.00     0.022 C 
HETATM    6  C2  UNL     1     -33.835  16.668  -1.950  1.00 20.00     0.007 C 
ENDBRANCH   3   5
BRANCH   3   7
HETATM    7  C6  UNL     1     -35.356  14.047  -4.454  1.00 20.00     0.136 C 
HETATM    8  C3  UNL     1     -36.767  14.464  -4.038  1.00 20.00     0.041 C 
BRANCH   7   9
HETATM    9  O9  UNL     1     -35.200  12.655  -4.160  1.00 20.00    -0.394 OA
HETATM   10  H22 UNL     1     -34.804  12.607  -3.279  1.00 20.00     0.210 HD
ENDBRANCH   7   9
ENDBRANCH   3   7
TORSDOF 3
ENDMDL
MODEL 4
REMARK VINA RESULT:      -4.0      1.815      3.205
REMARK  3 active torsions:
REMARK  status: ('A' for Active; 'I' for Inactive)
REMARK    1  A    between atoms: C5_5  and  C7_7 
REMARK    2  A    between atoms: C6_6  and  C7_7 
REMARK    3  A    between atoms: C6_6  and  O9_9 
ROOT
HETATM    1  C1  UNL     1     -34.811  13.877  -4.288  1.00 20.00     0.071 C 
HETATM    2  C4  UNL     1     -32.998  15.460  -3.810  1.00 20.00     0.034 C 
HETATM    3  C7  UNL     1     -34.488  15.324  -4.194  1.00 20.00     0.070 C 
HETATM    4  N8  UNL     1     -35.064  12.747  -4.360  1.00 20.00    -0.196 NA
ENDROOT
BRANCH   3   5
HETATM    5  C5  UNL     1     -34.766  16.006  -5.564  1.00 20.00     0.022 C 
HETATM    6  C2  UNL     1     -34.276  15.246  -6.796  1.00 20.00     0.007 C 
ENDBRANCH   3   5
BRANCH   3   7
HETATM    7  C6  UNL     1     -35.361  15.994  -3.084  1.00 20.00     0.136 C 
HETATM    8  C3  UNL     1     -34.676  16.179  -1.729  1.00 20.00     0.041 C 
BRANCH   7   9
HETATM    9  O9  UNL     1     -36.554  15.230  -2.877  1.00 20.00    -0.394 OA
HETATM   10  H22 UNL     1     -36.836  15.409  -1.969  1.00 20.00     0.210 HD
ENDBRANCH   7   9
ENDBRANCH   3   7
TORSDOF 3
ENDMDL
MODEL 5
REMARK VINA RESULT:      -3.9      1.164      1.238
REMARK  3 active torsions:
REMARK  status: ('A' for Active; 'I' for Inactive)
REMARK    1  A    between atoms: C5_5  and  C7_7 
REMARK    2  A    between atoms: C6_6  and  C7_7 
REMARK    3  A    between atoms: C6_6  and  O9_9 
ROOT
HETATM    1  C1  UNL     1     -34.715  14.009  -4.326  1.00 20.00     0.071 C 
HETATM    2  C4  UNL     1     -35.851  16.181  -4.222  1.00 20.00     0.034 C 
HETATM    3  C7  UNL     1     -34.481  15.469  -4.186  1.00 20.00     0.070 C 
HETATM    4  N8  UNL     1     -34.898  12.868  -4.437  1.00 20.00    -0.196 NA
ENDROOT
BRANCH   3   5
HETATM    5  C5  UNL     1     -33.752  15.750  -2.841  1.00 20.00     0.022 C 
HETATM    6  C2  UNL     1     -34.638  16.232  -1.694  1.00 20.00     0.007 C 
ENDBRANCH   3   5
BRANCH   3   7
HETATM    7  C6  UNL     1     -33.610  15.986  -5.377  1.00 20.00     0.136 C 
HETATM    8  C3  UNL     1     -33.899  17.417  -5.832  1.00 20.00     0.041 C 
BRANCH   7   9
HETATM    9  O9  UNL     1     -33.770  15.121  -6.506  1.00 20.00    -0.394 OA
HETATM   10  H22 UNL     1     -34.016  15.690  -7.250  1.00 20.00     0.210 HD
ENDBRANCH   7   9
ENDBRANCH   3   7
TORSDOF 3
ENDMDL
MODEL 6
REMARK VINA RESULT:      -3.9      1.923      3.055
REMARK  3 active torsions:
REMARK  status: ('A' for Active; 'I' for Inactive)
REMARK    1  A    between atoms: C5_5  and  C7_7 
REMARK    2  A    between atoms: C6_6  and  C7_7 
REMARK    3  A    between atoms: C6_6  and  O9_9 
ROOT
HETATM    1  C1  UNL     1     -33.433  13.836  -3.809  1.00 20.00     0.071 C 
HETATM    2  C4  UNL     1     -34.813  15.636  -2.872  1.00 20.00     0.034 C 
HETATM    3  C7  UNL     1     -34.525  14.791  -4.132  1.00 20.00     0.070 C 
HETATM    4  N8  UNL     1     -32.581  13.090  -3.557  1.00 20.00    -0.196 NA
ENDROOT
BRANCH   3   5
HETATM    5  C5  UNL     1     -34.085  15.701  -5.314  1.00 20.00     0.022 C 
HETATM    6  C2  UNL     1     -33.358  16.987  -4.926  1.00 20.00     0.007 C 
ENDBRANCH   3   5
BRANCH   3   7
HETATM    7  C6  UNL     1     -35.820  14.006  -4.522  1.00 20.00     0.136 C 
HETATM    8  C3  UNL     1     -37.127  14.570  -3.962  1.00 20.00     0.041 C 
BRANCH   7   9
HETATM    9  O9  UNL     1     -35.708  12.643  -4.099  1.00 20.00    -0.394 OA
HETATM   10  H22 UNL     1     -35.703  12.660  -3.131  1.00 20.00     0.210 HD
ENDBRANCH   7   9
ENDBRANCH   3   7
TORSDOF 3
ENDMDL
MODEL 7
REMARK VINA RESULT:      -3.8      1.758      3.081
REMARK  3 active torsions:
REMARK  status: ('A' for Active; 'I' for Inactive)
REMARK    1  A    between atoms: C5_5  and  C7_7 
REMARK    2  A    between atoms: C6_6  and  C7_7 
REMARK    3  A    between atoms: C6_6  and  O9_9 
ROOT
HETATM    1  C1  UNL     1     -36.343  14.363  -4.086  1.00 20.00     0.071 C 
HETATM    2  C4  UNL     1     -34.587  13.015  -5.144  1.00 20.00     0.034 C 
HETATM    3  C7  UNL     1     -34.932  14.398  -4.548  1.00 20.00     0.070 C 
HETATM    4  N8  UNL     1     -37.445  14.335  -3.724  1.00 20.00    -0.196 NA
ENDROOT
BRANCH   3   5
HETATM    5  C5  UNL     1     -34.765  15.514  -5.619  1.00 20.00     0.022 C 
HETATM    6  C2  UNL     1     -34.440  15.034  -7.032  1.00 20.00     0.007 C 
ENDBRANCH   3   5
BRANCH   3   7
HETATM    7  C6  UNL     1     -33.982  14.680  -3.339  1.00 20.00     0.136 C 
HETATM    8  C3  UNL     1     -34.254  15.976  -2.575  1.00 20.00     0.041 C 
BRANCH   7   9
HETATM    9  O9  UNL     1     -32.622  14.706  -3.786  1.00 20.00    -0.394 OA
HETATM   10  H22 UNL     1     -32.316  13.788  -3.776  1.00 20.00     0.210 HD
ENDBRANCH   7   9
ENDBRANCH   3   7
TORSDOF 3
ENDMDL
MODEL 8
REMARK VINA RESULT:      -3.8      1.684      2.182
REMARK  3 active torsions:
REMARK  status: ('A' for Active; 'I' for Inactive)
REMARK    1  A    between atoms: C5_5  and  C7_7 
REMARK    2  A    between atoms: C6_6  and  C7_7 
REMARK    3  A    between atoms: C6_6  and  O9_9 
ROOT
HETATM    1  C1  UNL     1     -34.444  13.838  -5.011  1.00 20.00     0.071 C 
HETATM    2  C4  UNL     1     -34.374  15.217  -7.040  1.00 20.00     0.034 C 
HETATM    3  C7  UNL     1     -34.672  15.213  -5.524  1.00 20.00     0.070 C 
HETATM    4  N8  UNL     1     -34.264  12.764  -4.611  1.00 20.00    -0.196 NA
ENDROOT
BRANCH   3   5
HETATM    5  C5  UNL     1     -36.147  15.628  -5.255  1.00 20.00     0.022 C 
HETATM    6  C2  UNL     1     -36.655  15.386  -3.834  1.00 20.00     0.007 C 
ENDBRANCH   3   5
BRANCH   3   7
HETATM    7  C6  UNL     1     -33.704  16.215  -4.815  1.00 20.00     0.136 C 
HETATM    8  C3  UNL     1     -33.545  17.574  -5.498  1.00 20.00     0.041 C 
BRANCH   7   9
HETATM    9  O9  UNL     1     -32.405  15.627  -4.689  1.00 20.00    -0.394 OA
HETATM   10  H22 UNL     1     -31.960  15.769  -5.536  1.00 20.00     0.210 HD
ENDBRANCH   7   9
ENDBRANCH   3   7
TORSDOF 3
ENDMDL
MODEL 9
REMARK VINA RESULT:      -3.8      1.929      2.777
REMARK  3 active torsions:
REMARK  status: ('A' for Active; 'I' for Inactive)
REMARK    1  A    between atoms: C5_5  and  C7_7 
REMARK    2  A    between atoms: C6_6  and  C7_7 
REMARK    3  A    between atoms: C6_6  and  O9_9 
ROOT
HETATM    1  C1  UNL     1     -34.529  15.539  -2.637  1.00 20.00     0.071 C 
HETATM    2  C4  UNL     1     -33.253  13.730  -3.696  1.00 20.00     0.034 C 
HETATM    3  C7  UNL     1     -34.402  14.744  -3.885  1.00 20.00     0.070 C 
HETATM    4  N8  UNL     1     -34.626  16.161  -1.662  1.00 20.00    -0.196 NA
ENDROOT
BRANCH   3   5
HETATM    5  C5  UNL     1     -35.743  14.006  -4.167  1.00 20.00     0.022 C 
HETATM    6  C2  UNL     1     -37.013  14.800  -3.865  1.00 20.00     0.007 C 
ENDBRANCH   3   5
BRANCH   3   7
HETATM    7  C6  UNL     1     -34.055  15.685  -5.084  1.00 20.00     0.136 C 
HETATM    8  C3  UNL     1     -34.347  15.118  -6.474  1.00 20.00     0.041 C 
BRANCH   7   9
HETATM    9  O9  UNL     1     -32.670  16.044  -5.034  1.00 20.00    -0.394 OA
HETATM   10  H22 UNL     1     -32.451  16.146  -4.097  1.00 20.00     0.210 HD
ENDBRANCH   7   9
ENDBRANCH   3   7
TORSDOF 3
ENDMDL
