MODEL 1
REMARK VINA RESULT:      -4.5      0.000      0.000
REMARK  3 active torsions:
REMARK  status: ('A' for Active; 'I' for Inactive)
REMARK    1  A    between atoms: C6_6  and  C7_7 
REMARK    2  A    between atoms: C7_7  and  C8_8 
REMARK    3  A    between atoms: C8_8  and  O10_10 
ROOT
HETATM    1  C1  UNL     1     -34.588  13.667  -4.375  1.00 20.00     0.072 C 
HETATM    2  C3  UNL     1     -32.737  15.011  -3.514  1.00 20.00     0.034 C 
HETATM    3  C7  UNL     1     -34.198  15.063  -4.021  1.00 20.00     0.075 C 
HETATM    4  N9  UNL     1     -34.888  12.580  -4.652  1.00 20.00    -0.196 NA
ENDROOT
BRANCH   3   5
HETATM    5  C6  UNL     1     -35.143  15.565  -2.886  1.00 20.00     0.023 C 
HETATM    6  C2  UNL     1     -34.461  16.293  -1.728  1.00 20.00     0.007 C 
ENDBRANCH   3   5
BRANCH   3   7
HETATM    7  C8  UNL     1     -34.307  15.977  -5.314  1.00 20.00     0.071 C 
HETATM    8  C4  UNL     1     -33.411  17.224  -5.251  1.00 20.00     0.047 C 
HETATM    9  C5  UNL     1     -35.742  16.439  -5.627  1.00 20.00     0.047 C 
BRANCH   7  10
HETATM   10  O10 UNL     1     -33.840  15.241  -6.458  1.00 20.00    -0.389 OA
HETATM   11  H25 UNL     1     -34.609  14.764  -6.796  1.00 20.00     0.210 HD
ENDBRANCH   7  10
ENDBRANCH   3   7
TORSDOF 3
ENDMDL
MODEL 2
REMARK VINA RESULT:      -4.5      2.089      2.965
REMARK  3 active torsions:
REMARK  status: ('A' for Active; 'I' for Inactive)
REMARK    1  A    between atoms: C6_6  and  C7_7 
REMARK    2  A    between atoms: C7_7  and  C8_8 
REMARK    3  A    between atoms: C8_8  and  O10_10 
ROOT
HETATM    1  C1  UNL     1     -37.083  14.732  -3.756  1.00 20.00     0.072 C 
HETATM    2  C3  UNL     1     -35.155  15.564  -2.507  1.00 20.00     0.034 C 
HETATM    3  C7  UNL     1     -35.658  15.145  -3.909  1.00 20.00     0.075 C 
HETATM    4  N9  UNL     1     -38.192  14.410  -3.635  1.00 20.00    -0.196 NA
ENDROOT
BRANCH   3   5
HETATM    5  C6  UNL     1     -35.599  16.359  -4.886  1.00 20.00     0.023 C 
HETATM    6  C2  UNL     1     -34.515  17.395  -4.592  1.00 20.00     0.007 C 
ENDBRANCH   3   5
BRANCH   3   7
HETATM    7  C8  UNL     1     -34.817  13.917  -4.458  1.00 20.00     0.071 C 
HETATM    8  C4  UNL     1     -33.414  13.817  -3.836  1.00 20.00     0.047 C 
HETATM    9  C5  UNL     1     -34.659  13.909  -5.990  1.00 20.00     0.047 C 
BRANCH   7  10
HETATM   10  O10 UNL     1     -35.473  12.689  -4.094  1.00 20.00    -0.389 OA
HETATM   11  H25 UNL     1     -34.787  12.129  -3.708  1.00 20.00     0.210 HD
ENDBRANCH   7  10
ENDBRANCH   3   7
TORSDOF 3
ENDMDL
MODEL 3
REMARK VINA RESULT:      -4.5      1.470      3.085
REMARK  3 active torsions:
REMARK  status: ('A' for Active; 'I' for Inactive)
REMARK    1  A    between atoms: C6_6  and  C7_7 
REMARK    2  A    between atoms: C7_7  and  C8_8 
REMARK    3  A    between atoms: C8_8  and  O10_10 
ROOT
HETATM    1  C1  UNL     1     -34.712  13.874  -4.876  1.00 20.00     0.072 C 
HETATM    2  C3  UNL     1     -36.100  15.857  -5.216  1.00 20.00     0.034 C 
HETATM    3  C7  UNL     1     -34.667  15.287  -5.351  1.00 20.00     0.075 C 
HETATM    4  N9  UNL     1     -34.749  12.775  -4.504  1.00 20.00    -0.196 NA
ENDROOT
BRANCH   3   5
HETATM    5  C6  UNL     1     -34.227  15.290  -6.848  1.00 20.00     0.023 C 
HETATM    6  C2  UNL     1     -35.234  14.704  -7.837  1.00 20.00     0.007 C 
ENDBRANCH   3   5
BRANCH   3   7
HETATM    7  C8  UNL     1     -33.654  16.108  -4.447  1.00 20.00     0.071 C 
HETATM    8  C4  UNL     1     -33.920  15.949  -2.941  1.00 20.00     0.047 C 
HETATM    9  C5  UNL     1     -33.617  17.613  -4.767  1.00 20.00     0.047 C 
BRANCH   7  10
HETATM   10  O10 UNL     1     -32.322  15.601  -4.644  1.00 20.00    -0.389 OA
HETATM   11  H25 UNL     1     -31.752  16.128  -4.069  1.00 20.00     0.210 HD
ENDBRANCH   7  10
ENDBRANCH   3   7
TORSDOF 3
ENDMDL
MODEL 4
REMARK VINA RESULT:      -4.3      1.854      2.322
REMARK  3 active torsions:
REMARK  status: ('A' for Active; 'I' for Inactive)
REMARK    1  A    between atoms: C6_6  and  C7_7 
REMARK    2  A    between atoms: C7_7  and  C8_8 
REMARK    3  A    between atoms: C8_8  and  O10_10 
ROOT
HETATM    1  C1  UNL     1     -33.424  13.878  -3.627  1.00 20.00     0.072 C 
HETATM    2  C3  UNL     1     -33.827  16.015  -4.742  1.00 20.00     0.034 C 
HETATM    3  C7  UNL     1     -34.444  14.952  -3.802  1.00 20.00     0.075 C 
HETATM    4  N9  UNL     1     -32.629  13.042  -3.495  1.00 20.00    -0.196 NA
ENDROOT
BRANCH   3   5
HETATM    5  C6  UNL     1     -34.743  15.580  -2.405  1.00 20.00     0.023 C 
HETATM    6  C2  UNL     1     -33.830  16.731  -1.986  1.00 20.00     0.007 C 
ENDBRANCH   3   5
BRANCH   3   7
HETATM    7  C8  UNL     1     -35.751  14.328  -4.449  1.00 20.00     0.071 C 
HETATM    8  C4  UNL     1     -35.847  14.562  -5.966  1.00 20.00     0.047 C 
HETATM    9  C5  UNL     1     -37.059  14.827  -3.808  1.00 20.00     0.047 C 
BRANCH   7  10
HETATM   10  O10 UNL     1     -35.723  12.898  -4.295  1.00 20.00    -0.389 OA
HETATM   11  H25 UNL     1     -36.043  12.723  -3.400  1.00 20.00     0.210 HD
ENDBRANCH   7  10
ENDBRANCH   3   7
TORSDOF 3
ENDMDL
MODEL 5
REMARK VINA RESULT:      -4.3      1.655      2.122
REMARK  3 active torsions:
REMARK  status: ('A' for Active; 'I' for Inactive)
REMARK    1  A    between atoms: C6_6  and  C7_7 
REMARK    2  A    between atoms: C7_7  and  C8_8 
REMARK    3  A    between atoms: C8_8  and  O10_10 
ROOT
HETATM    1  C1  UNL     1     -36.320  14.434  -4.004  1.00 20.00     0.072 C 
HETATM    2  C3  UNL     1     -34.333  13.176  -4.667  1.00 20.00     0.034 C 
HETATM    3  C7  UNL     1     -34.863  14.579  -4.287  1.00 20.00     0.075 C 
HETATM    4  N9  UNL     1     -37.455  14.319  -3.786  1.00 20.00    -0.196 NA
ENDROOT
BRANCH   3   5
HETATM    5  C6  UNL     1     -34.157  15.087  -2.992  1.00 20.00     0.023 C 
HETATM    6  C2  UNL     1     -34.977  16.035  -2.117  1.00 20.00     0.007 C 
ENDBRANCH   3   5
BRANCH   3   7
HETATM    7  C8  UNL     1     -34.666  15.594  -5.491  1.00 20.00     0.071 C 
HETATM    8  C4  UNL     1     -34.584  14.900  -6.861  1.00 20.00     0.047 C 
HETATM    9  C5  UNL     1     -33.429  16.499  -5.343  1.00 20.00     0.047 C 
BRANCH   7  10
HETATM   10  O10 UNL     1     -35.813  16.457  -5.579  1.00 20.00    -0.389 OA
HETATM   11  H25 UNL     1     -35.536  17.209  -6.119  1.00 20.00     0.210 HD
ENDBRANCH   7  10
ENDBRANCH   3   7
TORSDOF 3
ENDMDL
MODEL 6
REMARK VINA RESULT:      -4.3      1.796      3.323
REMARK  3 active torsions:
REMARK  status: ('A' for Active; 'I' for Inactive)
REMARK    1  A    between atoms: C6_6  and  C7_7 
REMARK    2  A    between atoms: C7_7  and  C8_8 
REMARK    3  A    between atoms: C8_8  and  O10_10 
ROOT
HETATM    1  C1  UNL     1     -36.200  14.659  -4.318  1.00 20.00     0.072 C 
HETATM    2  C3  UNL     1     -35.340  16.644  -5.454  1.00 20.00     0.034 C 
HETATM    3  C7  UNL     1     -35.005  15.193  -5.033  1.00 20.00     0.075 C 
HETATM    4  N9  UNL     1     -37.131  14.246  -3.760  1.00 20.00    -0.196 NA
ENDROOT
BRANCH   3   5
HETATM    5  C6  UNL     1     -34.751  14.313  -6.295  1.00 20.00     0.023 C 
HETATM    6  C2  UNL     1     -34.721  15.058  -7.629  1.00 20.00     0.007 C 
ENDBRANCH   3   5
BRANCH   3   7
HETATM    7  C8  UNL     1     -33.759  15.172  -4.050  1.00 20.00     0.071 C 
HETATM    8  C4  UNL     1     -33.283  13.751  -3.707  1.00 20.00     0.047 C 
HETATM    9  C5  UNL     1     -33.999  15.924  -2.729  1.00 20.00     0.047 C 
BRANCH   7  10
HETATM   10  O10 UNL     1     -32.634  15.795  -4.694  1.00 20.00    -0.389 OA
HETATM   11  H25 UNL     1     -32.935  16.027  -5.582  1.00 20.00     0.210 HD
ENDBRANCH   7  10
ENDBRANCH   3   7
TORSDOF 3
ENDMDL
MODEL 7
REMARK VINA RESULT:      -4.2      1.304      1.786
REMARK  3 active torsions:
REMARK  status: ('A' for Active; 'I' for Inactive)
REMARK    1  A    between atoms: C6_6  and  C7_7 
REMARK    2  A    between atoms: C7_7  and  C8_8 
REMARK    3  A    between atoms: C8_8  and  O10_10 
ROOT
HETATM    1  C1  UNL     1     -34.790  13.924  -4.286  1.00 20.00     0.072 C 
HETATM    2  C3  UNL     1     -34.397  15.624  -2.576  1.00 20.00     0.034 C 
HETATM    3  C7  UNL     1     -34.810  15.396  -4.050  1.00 20.00     0.075 C 
HETATM    4  N9  UNL     1     -34.773  12.777  -4.468  1.00 20.00    -0.196 NA
ENDROOT
BRANCH   3   5
HETATM    5  C6  UNL     1     -36.262  15.914  -4.287  1.00 20.00     0.023 C 
HETATM    6  C2  UNL     1     -37.377  15.064  -3.680  1.00 20.00     0.007 C 
ENDBRANCH   3   5
BRANCH   3   7
HETATM    7  C8  UNL     1     -33.777  16.094  -5.032  1.00 20.00     0.071 C 
HETATM    8  C4  UNL     1     -33.725  17.622  -4.870  1.00 20.00     0.047 C 
HETATM    9  C5  UNL     1     -34.030  15.783  -6.519  1.00 20.00     0.047 C 
BRANCH   7  10
HETATM   10  O10 UNL     1     -32.447  15.642  -4.725  1.00 20.00    -0.389 OA
HETATM   11  H25 UNL     1     -31.933  15.767  -5.533  1.00 20.00     0.210 HD
ENDBRANCH   7  10
ENDBRANCH   3   7
TORSDOF 3
ENDMDL
MODEL 8
REMARK VINA RESULT:      -4.2      1.820      2.786
REMARK  3 active torsions:
REMARK  status: ('A' for Active; 'I' for Inactive)
REMARK    1  A    between atoms: C6_6  and  C7_7 
REMARK    2  A    between atoms: C7_7  and  C8_8 
REMARK    3  A    between atoms: C8_8  and  O10_10 
ROOT
HETATM    1  C1  UNL     1     -34.533  14.865  -6.216  1.00 20.00     0.072 C 
HETATM    2  C3  UNL     1     -35.012  13.272  -4.426  1.00 20.00     0.034 C 
HETATM    3  C7  UNL     1     -34.754  14.764  -4.744  1.00 20.00     0.075 C 
HETATM    4  N9  UNL     1     -34.360  14.940  -7.362  1.00 20.00    -0.196 NA
ENDROOT
BRANCH   3   5
HETATM    5  C6  UNL     1     -36.005  15.618  -4.374  1.00 20.00     0.023 C 
HETATM    6  C2  UNL     1     -37.196  14.841  -3.813  1.00 20.00     0.007 C 
ENDBRANCH   3   5
BRANCH   3   7
HETATM    7  C8  UNL     1     -33.457  15.279  -3.988  1.00 20.00     0.071 C 
HETATM    8  C4  UNL     1     -32.575  14.138  -3.454  1.00 20.00     0.047 C 
HETATM    9  C5  UNL     1     -33.759  16.234  -2.819  1.00 20.00     0.047 C 
BRANCH   7  10
HETATM   10  O10 UNL     1     -32.618  15.994  -4.913  1.00 20.00    -0.389 OA
HETATM   11  H25 UNL     1     -32.080  15.323  -5.353  1.00 20.00     0.210 HD
ENDBRANCH   7  10
ENDBRANCH   3   7
TORSDOF 3
ENDMDL
MODEL 9
REMARK VINA RESULT:      -4.1      2.418      3.440
REMARK  3 active torsions:
REMARK  status: ('A' for Active; 'I' for Inactive)
REMARK    1  A    between atoms: C6_6  and  C7_7 
REMARK    2  A    between atoms: C7_7  and  C8_8 
REMARK    3  A    between atoms: C8_8  and  O10_10 
ROOT
HETATM    1  C1  UNL     1     -37.028  14.796  -3.774  1.00 20.00     0.072 C 
HETATM    2  C3  UNL     1     -35.486  15.953  -5.275  1.00 20.00     0.034 C 
HETATM    3  C7  UNL     1     -35.664  15.396  -3.843  1.00 20.00     0.075 C 
HETATM    4  N9  UNL     1     -38.091  14.332  -3.722  1.00 20.00    -0.196 NA
ENDROOT
BRANCH   3   5
HETATM    5  C6  UNL     1     -34.618  14.272  -3.569  1.00 20.00     0.023 C 
HETATM    6  C2  UNL     1     -34.443  13.242  -4.685  1.00 20.00     0.007 C 
ENDBRANCH   3   5
BRANCH   3   7
HETATM    7  C8  UNL     1     -35.554  16.563  -2.773  1.00 20.00     0.071 C 
HETATM    8  C4  UNL     1     -35.084  17.896  -3.378  1.00 20.00     0.047 C 
HETATM    9  C5  UNL     1     -34.634  16.230  -1.585  1.00 20.00     0.047 C 
BRANCH   7  10
HETATM   10  O10 UNL     1     -36.859  16.839  -2.234  1.00 20.00    -0.389 OA
HETATM   11  H25 UNL     1     -36.710  17.151  -1.332  1.00 20.00     0.210 HD
ENDBRANCH   7  10
ENDBRANCH   3   7
TORSDOF 3
ENDMDL
