MODEL 1
REMARK VINA RESULT:      -4.9      0.000      0.000
REMARK  4 active torsions:
REMARK  status: ('A' for Active; 'I' for Inactive)
REMARK    1  A    between atoms: C4_4  and  C9_9 
REMARK    2  A    between atoms: C7_7  and  C8_8 
REMARK    3  A    between atoms: C8_8  and  C9_9 
REMARK    4  A    between atoms: C9_9  and  O11_11 
ROOT
HETATM    1  C1  UNL     1     -36.974  14.747  -3.659  1.00 20.00     0.067 C 
HETATM    2  C8  UNL     1     -35.539  15.086  -3.814  1.00 20.00     0.126 C 
HETATM    3  N10 UNL     1     -38.098  14.487  -3.537  1.00 20.00    -0.197 NA
ENDROOT
BRANCH   2   4
HETATM    4  C7  UNL     1     -34.985  15.564  -2.449  1.00 20.00     0.018 C 
HETATM    5  C5  UNL     1     -34.354  16.952  -2.511  1.00 20.00     0.006 C 
ENDBRANCH   2   4
BRANCH   2   6
HETATM    6  C9  UNL     1     -34.742  13.881  -4.412  1.00 20.00     0.074 C 
HETATM    7  C6  UNL     1     -33.392  13.725  -3.735  1.00 20.00     0.047 C 
BRANCH   6   8
HETATM    8  C4  UNL     1     -34.511  14.038  -5.927  1.00 20.00     0.021 A 
HETATM    9  C2  UNL     1     -35.613  14.548  -6.812  1.00 20.00     0.008 A 
HETATM   10  C3  UNL     1     -34.412  15.408  -6.539  1.00 20.00     0.008 A 
ENDBRANCH   6   8
BRANCH   6  11
HETATM   11  O11 UNL     1     -35.490  12.679  -4.201  1.00 20.00    -0.388 OA
HETATM   12  H26 UNL     1     -35.144  12.284  -3.387  1.00 20.00     0.210 HD
ENDBRANCH   6  11
ENDBRANCH   2   6
TORSDOF 4
ENDMDL
MODEL 2
REMARK VINA RESULT:      -4.7      2.310      2.890
REMARK  4 active torsions:
REMARK  status: ('A' for Active; 'I' for Inactive)
REMARK    1  A    between atoms: C4_4  and  C9_9 
REMARK    2  A    between atoms: C7_7  and  C8_8 
REMARK    3  A    between atoms: C8_8  and  C9_9 
REMARK    4  A    between atoms: C9_9  and  O11_11 
ROOT
HETATM    1  C1  UNL     1     -34.163  14.380  -3.481  1.00 20.00     0.067 C 
HETATM    2  C8  UNL     1     -34.385  15.846  -3.481  1.00 20.00     0.126 C 
HETATM    3  N10 UNL     1     -33.993  13.232  -3.476  1.00 20.00    -0.197 NA
ENDROOT
BRANCH   2   4
HETATM    4  C7  UNL     1     -33.741  16.452  -2.210  1.00 20.00     0.018 C 
HETATM    5  C5  UNL     1     -34.705  16.525  -1.028  1.00 20.00     0.006 C 
ENDBRANCH   2   4
BRANCH   2   6
HETATM    6  C9  UNL     1     -33.854  16.490  -4.804  1.00 20.00     0.074 C 
HETATM    7  C6  UNL     1     -33.688  17.992  -4.656  1.00 20.00     0.047 C 
BRANCH   6   8
HETATM    8  C4  UNL     1     -34.795  16.220  -5.994  1.00 20.00     0.021 A 
HETATM    9  C2  UNL     1     -34.470  16.767  -7.356  1.00 20.00     0.008 A 
HETATM   10  C3  UNL     1     -34.371  15.289  -7.097  1.00 20.00     0.008 A 
ENDBRANCH   6   8
BRANCH   6  11
HETATM   11  O11 UNL     1     -32.575  15.927  -5.114  1.00 20.00    -0.388 OA
HETATM   12  H26 UNL     1     -32.283  15.462  -4.317  1.00 20.00     0.210 HD
ENDBRANCH   6  11
ENDBRANCH   2   6
TORSDOF 4
ENDMDL
MODEL 3
REMARK VINA RESULT:      -4.6      2.738      3.458
REMARK  4 active torsions:
REMARK  status: ('A' for Active; 'I' for Inactive)
REMARK    1  A    between atoms: C4_4  and  C9_9 
REMARK    2  A    between atoms: C7_7  and  C8_8 
REMARK    3  A    between atoms: C8_8  and  C9_9 
REMARK    4  A    between atoms: C9_9  and  O11_11 
ROOT
HETATM    1  C1  UNL     1     -33.684  18.020  -2.839  1.00 20.00     0.067 C 
HETATM    2  C8  UNL     1     -33.670  16.564  -2.557  1.00 20.00     0.126 C 
HETATM    3  N10 UNL     1     -33.694  19.160  -3.054  1.00 20.00    -0.197 NA
ENDROOT
BRANCH   2   4
HETATM    4  C7  UNL     1     -34.773  16.242  -1.520  1.00 20.00     0.018 C 
HETATM    5  C5  UNL     1     -34.662  17.079  -0.248  1.00 20.00     0.006 C 
ENDBRANCH   2   4
BRANCH   2   6
HETATM    6  C9  UNL     1     -33.811  15.738  -3.879  1.00 20.00     0.074 C 
HETATM    7  C6  UNL     1     -34.837  16.360  -4.808  1.00 20.00     0.047 C 
BRANCH   6   8
HETATM    8  C4  UNL     1     -34.223  14.279  -3.605  1.00 20.00     0.021 A 
HETATM    9  C2  UNL     1     -35.515  13.742  -4.154  1.00 20.00     0.008 A 
HETATM   10  C3  UNL     1     -34.205  13.266  -4.717  1.00 20.00     0.008 A 
ENDBRANCH   6   8
BRANCH   6  11
HETATM   11  O11 UNL     1     -32.548  15.722  -4.552  1.00 20.00    -0.388 OA
HETATM   12  H26 UNL     1     -31.998  15.079  -4.081  1.00 20.00     0.210 HD
ENDBRANCH   6  11
ENDBRANCH   2   6
TORSDOF 4
ENDMDL
MODEL 4
REMARK VINA RESULT:      -4.6      1.894      4.077
REMARK  4 active torsions:
REMARK  status: ('A' for Active; 'I' for Inactive)
REMARK    1  A    between atoms: C4_4  and  C9_9 
REMARK    2  A    between atoms: C7_7  and  C8_8 
REMARK    3  A    between atoms: C8_8  and  C9_9 
REMARK    4  A    between atoms: C9_9  and  O11_11 
ROOT
HETATM    1  C1  UNL     1     -37.089  14.640  -3.651  1.00 20.00     0.067 C 
HETATM    2  C8  UNL     1     -35.656  14.899  -3.368  1.00 20.00     0.126 C 
HETATM    3  N10 UNL     1     -38.208  14.433  -3.873  1.00 20.00    -0.197 NA
ENDROOT
BRANCH   2   4
HETATM    4  C7  UNL     1     -34.842  14.695  -4.670  1.00 20.00     0.018 C 
HETATM    5  C5  UNL     1     -34.481  13.235  -4.927  1.00 20.00     0.006 C 
ENDBRANCH   2   4
BRANCH   2   6
HETATM    6  C9  UNL     1     -35.459  16.317  -2.737  1.00 20.00     0.074 C 
HETATM    7  C6  UNL     1     -34.944  17.309  -3.764  1.00 20.00     0.047 C 
BRANCH   6   8
HETATM    8  C4  UNL     1     -34.473  16.287  -1.553  1.00 20.00     0.021 A 
HETATM    9  C2  UNL     1     -33.700  17.522  -1.180  1.00 20.00     0.008 A 
HETATM   10  C3  UNL     1     -34.797  17.023  -0.281  1.00 20.00     0.008 A 
ENDBRANCH   6   8
BRANCH   6  11
HETATM   11  O11 UNL     1     -36.720  16.788  -2.251  1.00 20.00    -0.388 OA
HETATM   12  H26 UNL     1     -37.136  16.037  -1.805  1.00 20.00     0.210 HD
ENDBRANCH   6  11
ENDBRANCH   2   6
TORSDOF 4
ENDMDL
MODEL 5
REMARK VINA RESULT:      -4.5      1.876      4.187
REMARK  4 active torsions:
REMARK  status: ('A' for Active; 'I' for Inactive)
REMARK    1  A    between atoms: C4_4  and  C9_9 
REMARK    2  A    between atoms: C7_7  and  C8_8 
REMARK    3  A    between atoms: C8_8  and  C9_9 
REMARK    4  A    between atoms: C9_9  and  O11_11 
ROOT
HETATM    1  C1  UNL     1     -34.566  13.883  -4.119  1.00 20.00     0.067 C 
HETATM    2  C8  UNL     1     -33.978  15.225  -3.890  1.00 20.00     0.126 C 
HETATM    3  N10 UNL     1     -35.021  12.831  -4.300  1.00 20.00    -0.197 NA
ENDROOT
BRANCH   2   4
HETATM    4  C7  UNL     1     -33.723  15.902  -5.259  1.00 20.00     0.018 C 
HETATM    5  C5  UNL     1     -34.425  15.196  -6.416  1.00 20.00     0.006 C 
ENDBRANCH   2   4
BRANCH   2   6
HETATM    6  C9  UNL     1     -34.887  16.078  -2.944  1.00 20.00     0.074 C 
HETATM    7  C6  UNL     1     -35.182  17.440  -3.545  1.00 20.00     0.047 C 
BRANCH   6   8
HETATM    8  C4  UNL     1     -34.240  16.287  -1.560  1.00 20.00     0.021 A 
HETATM    9  C2  UNL     1     -33.762  17.651  -1.146  1.00 20.00     0.008 A 
HETATM   10  C3  UNL     1     -34.973  17.049  -0.490  1.00 20.00     0.008 A 
ENDBRANCH   6   8
BRANCH   6  11
HETATM   11  O11 UNL     1     -36.129  15.394  -2.752  1.00 20.00    -0.388 OA
HETATM   12  H26 UNL     1     -36.781  15.860  -3.295  1.00 20.00     0.210 HD
ENDBRANCH   6  11
ENDBRANCH   2   6
TORSDOF 4
ENDMDL
MODEL 6
REMARK VINA RESULT:      -4.4      2.381      3.820
REMARK  4 active torsions:
REMARK  status: ('A' for Active; 'I' for Inactive)
REMARK    1  A    between atoms: C4_4  and  C9_9 
REMARK    2  A    between atoms: C7_7  and  C8_8 
REMARK    3  A    between atoms: C8_8  and  C9_9 
REMARK    4  A    between atoms: C9_9  and  O11_11 
ROOT
HETATM    1  C1  UNL     1     -34.698  16.169  -6.097  1.00 20.00     0.067 C 
HETATM    2  C8  UNL     1     -34.944  15.677  -4.720  1.00 20.00     0.126 C 
HETATM    3  N10 UNL     1     -34.510  16.554  -7.175  1.00 20.00    -0.197 NA
ENDROOT
BRANCH   2   4
HETATM    4  C7  UNL     1     -35.878  14.444  -4.786  1.00 20.00     0.018 C 
HETATM    5  C5  UNL     1     -37.177  14.634  -4.007  1.00 20.00     0.006 C 
ENDBRANCH   2   4
BRANCH   2   6
HETATM    6  C9  UNL     1     -33.596  15.387  -3.981  1.00 20.00     0.074 C 
HETATM    7  C6  UNL     1     -33.427  13.903  -3.709  1.00 20.00     0.047 C 
BRANCH   6   8
HETATM    8  C4  UNL     1     -33.501  16.141  -2.641  1.00 20.00     0.021 A 
HETATM    9  C2  UNL     1     -34.257  17.424  -2.438  1.00 20.00     0.008 A 
HETATM   10  C3  UNL     1     -34.681  16.180  -1.709  1.00 20.00     0.008 A 
ENDBRANCH   6   8
BRANCH   6  11
HETATM   11  O11 UNL     1     -32.511  15.818  -4.809  1.00 20.00    -0.388 OA
HETATM   12  H26 UNL     1     -31.705  15.690  -4.288  1.00 20.00     0.210 HD
ENDBRANCH   6  11
ENDBRANCH   2   6
TORSDOF 4
ENDMDL
MODEL 7
REMARK VINA RESULT:      -4.4      2.187      2.989
REMARK  4 active torsions:
REMARK  status: ('A' for Active; 'I' for Inactive)
REMARK    1  A    between atoms: C4_4  and  C9_9 
REMARK    2  A    between atoms: C7_7  and  C8_8 
REMARK    3  A    between atoms: C8_8  and  C9_9 
REMARK    4  A    between atoms: C9_9  and  O11_11 
ROOT
HETATM    1  C1  UNL     1     -34.887  13.689  -4.564  1.00 20.00     0.067 C 
HETATM    2  C8  UNL     1     -35.053  15.144  -4.325  1.00 20.00     0.126 C 
HETATM    3  N10 UNL     1     -34.763  12.551  -4.752  1.00 20.00    -0.197 NA
ENDROOT
BRANCH   2   4
HETATM    4  C7  UNL     1     -36.169  15.357  -3.273  1.00 20.00     0.018 C 
HETATM    5  C5  UNL     1     -37.540  14.886  -3.751  1.00 20.00     0.006 C 
ENDBRANCH   2   4
BRANCH   2   6
HETATM    6  C9  UNL     1     -33.693  15.801  -3.918  1.00 20.00     0.074 C 
HETATM    7  C6  UNL     1     -33.745  16.340  -2.500  1.00 20.00     0.047 C 
BRANCH   6   8
HETATM    8  C4  UNL     1     -33.306  16.955  -4.863  1.00 20.00     0.021 A 
HETATM    9  C2  UNL     1     -34.083  17.191  -6.128  1.00 20.00     0.008 A 
HETATM   10  C3  UNL     1     -34.195  18.162  -4.986  1.00 20.00     0.008 A 
ENDBRANCH   6   8
BRANCH   6  11
HETATM   11  O11 UNL     1     -32.661  14.811  -3.984  1.00 20.00    -0.388 OA
HETATM   12  H26 UNL     1     -32.229  14.927  -4.842  1.00 20.00     0.210 HD
ENDBRANCH   6  11
ENDBRANCH   2   6
TORSDOF 4
ENDMDL
MODEL 8
REMARK VINA RESULT:      -4.3      1.082      1.324
REMARK  4 active torsions:
REMARK  status: ('A' for Active; 'I' for Inactive)
REMARK    1  A    between atoms: C4_4  and  C9_9 
REMARK    2  A    between atoms: C7_7  and  C8_8 
REMARK    3  A    between atoms: C8_8  and  C9_9 
REMARK    4  A    between atoms: C9_9  and  O11_11 
ROOT
HETATM    1  C1  UNL     1     -36.818  14.830  -3.710  1.00 20.00     0.067 C 
HETATM    2  C8  UNL     1     -35.474  15.457  -3.685  1.00 20.00     0.126 C 
HETATM    3  N10 UNL     1     -37.871  14.344  -3.726  1.00 20.00    -0.197 NA
ENDROOT
BRANCH   2   4
HETATM    4  C7  UNL     1     -34.975  15.519  -2.220  1.00 20.00     0.018 C 
HETATM    5  C5  UNL     1     -34.597  16.930  -1.777  1.00 20.00     0.006 C 
ENDBRANCH   2   4
BRANCH   2   6
HETATM    6  C9  UNL     1     -34.488  14.702  -4.637  1.00 20.00     0.074 C 
HETATM    7  C6  UNL     1     -33.361  14.050  -3.857  1.00 20.00     0.047 C 
BRANCH   6   8
HETATM    8  C4  UNL     1     -33.870  15.643  -5.689  1.00 20.00     0.021 A 
HETATM    9  C2  UNL     1     -34.613  16.871  -6.136  1.00 20.00     0.008 A 
HETATM   10  C3  UNL     1     -33.380  17.007  -5.288  1.00 20.00     0.008 A 
ENDBRANCH   6   8
BRANCH   6  11
HETATM   11  O11 UNL     1     -35.206  13.675  -5.329  1.00 20.00    -0.388 OA
HETATM   12  H26 UNL     1     -34.730  13.523  -6.158  1.00 20.00     0.210 HD
ENDBRANCH   6  11
ENDBRANCH   2   6
TORSDOF 4
ENDMDL
MODEL 9
REMARK VINA RESULT:      -4.3      1.755      2.782
REMARK  4 active torsions:
REMARK  status: ('A' for Active; 'I' for Inactive)
REMARK    1  A    between atoms: C4_4  and  C9_9 
REMARK    2  A    between atoms: C7_7  and  C8_8 
REMARK    3  A    between atoms: C8_8  and  C9_9 
REMARK    4  A    between atoms: C9_9  and  O11_11 
ROOT
HETATM    1  C1  UNL     1     -36.791  14.532  -4.073  1.00 20.00     0.067 C 
HETATM    2  C8  UNL     1     -35.384  14.769  -4.479  1.00 20.00     0.126 C 
HETATM    3  N10 UNL     1     -37.890  14.345  -3.751  1.00 20.00    -0.197 NA
ENDROOT
BRANCH   2   4
HETATM    4  C7  UNL     1     -34.605  13.434  -4.394  1.00 20.00     0.018 C 
HETATM    5  C5  UNL     1     -33.254  13.573  -3.697  1.00 20.00     0.006 C 
ENDBRANCH   2   4
BRANCH   2   6
HETATM    6  C9  UNL     1     -35.316  15.431  -5.895  1.00 20.00     0.074 C 
HETATM    7  C6  UNL     1     -35.418  14.389  -6.994  1.00 20.00     0.047 C 
BRANCH   6   8
HETATM    8  C4  UNL     1     -34.011  16.224  -6.097  1.00 20.00     0.021 A 
HETATM    9  C2  UNL     1     -34.048  17.720  -6.247  1.00 20.00     0.008 A 
HETATM   10  C3  UNL     1     -33.482  17.104  -4.998  1.00 20.00     0.008 A 
ENDBRANCH   6   8
BRANCH   6  11
HETATM   11  O11 UNL     1     -36.412  16.340  -6.036  1.00 20.00    -0.388 OA
HETATM   12  H26 UNL     1     -37.052  16.102  -5.350  1.00 20.00     0.210 HD
ENDBRANCH   6  11
ENDBRANCH   2   6
TORSDOF 4
ENDMDL
