MODEL 1
REMARK VINA RESULT:      -4.2      0.000      0.000
REMARK  3 active torsions:
REMARK  status: ('A' for Active; 'I' for Inactive)
REMARK    1  A    between atoms: C5_5  and  C6_6 
REMARK    2  A    between atoms: C6_6  and  C7_7 
REMARK    3  A    between atoms: C6_6  and  O9_9 
ROOT
HETATM    1  C1  UNL     1     -34.600  13.824  -4.244  1.00 20.00     0.071 C 
HETATM    2  C3  UNL     1     -33.912  15.780  -5.549  1.00 20.00     0.033 C 
HETATM    3  C4  UNL     1     -32.496  14.957  -3.668  1.00 20.00     0.033 C 
HETATM    4  C7  UNL     1     -33.949  15.153  -4.140  1.00 20.00     0.067 C 
HETATM    5  N8  UNL     1     -35.110  12.785  -4.327  1.00 20.00    -0.196 NA
ENDROOT
BRANCH   4   6
HETATM    6  C6  UNL     1     -34.732  16.077  -3.157  1.00 20.00     0.139 C 
BRANCH   6   7
HETATM    7  C5  UNL     1     -33.901  16.630  -1.986  1.00 20.00     0.029 C 
HETATM    8  C2  UNL     1     -34.701  16.689  -0.688  1.00 20.00     0.007 C 
ENDBRANCH   6   7
BRANCH   6   9
HETATM    9  O9  UNL     1     -35.854  15.380  -2.607  1.00 20.00    -0.394 OA
HETATM   10  H22 UNL     1     -35.655  15.247  -1.668  1.00 20.00     0.210 HD
ENDBRANCH   6   9
ENDBRANCH   4   6
TORSDOF 3
ENDMDL
MODEL 2
REMARK VINA RESULT:      -4.0      1.729      1.909
REMARK  3 active torsions:
REMARK  status: ('A' for Active; 'I' for Inactive)
REMARK    1  A    between atoms: C5_5  and  C6_6 
REMARK    2  A    between atoms: C6_6  and  C7_7 
REMARK    3  A    between atoms: C6_6  and  O9_9 
ROOT
HETATM    1  C1  UNL     1     -37.041  14.669  -3.863  1.00 20.00     0.071 C 
HETATM    2  C3  UNL     1     -35.400  15.607  -5.422  1.00 20.00     0.033 C 
HETATM    3  C4  UNL     1     -34.684  14.002  -3.652  1.00 20.00     0.033 C 
HETATM    4  C7  UNL     1     -35.646  15.163  -3.965  1.00 20.00     0.067 C 
HETATM    5  N8  UNL     1     -38.132  14.283  -3.784  1.00 20.00    -0.196 NA
ENDROOT
BRANCH   4   6
HETATM    6  C6  UNL     1     -35.409  16.357  -2.989  1.00 20.00     0.139 C 
BRANCH   6   7
HETATM    7  C5  UNL     1     -34.322  16.121  -1.926  1.00 20.00     0.029 C 
HETATM    8  C2  UNL     1     -34.648  16.810  -0.604  1.00 20.00     0.007 C 
ENDBRANCH   6   7
BRANCH   6   9
HETATM    9  O9  UNL     1     -36.622  16.690  -2.309  1.00 20.00    -0.394 OA
HETATM   10  H22 UNL     1     -36.542  17.621  -2.053  1.00 20.00     0.210 HD
ENDBRANCH   6   9
ENDBRANCH   4   6
TORSDOF 3
ENDMDL
MODEL 3
REMARK VINA RESULT:      -4.0      1.930      3.514
REMARK  3 active torsions:
REMARK  status: ('A' for Active; 'I' for Inactive)
REMARK    1  A    between atoms: C5_5  and  C6_6 
REMARK    2  A    between atoms: C6_6  and  C7_7 
REMARK    3  A    between atoms: C6_6  and  O9_9 
ROOT
HETATM    1  C1  UNL     1     -35.917  14.522  -3.872  1.00 20.00     0.071 C 
HETATM    2  C3  UNL     1     -33.631  13.654  -3.712  1.00 20.00     0.033 C 
HETATM    3  C4  UNL     1     -34.270  15.752  -2.523  1.00 20.00     0.033 C 
HETATM    4  C7  UNL     1     -34.492  14.930  -3.807  1.00 20.00     0.067 C 
HETATM    5  N8  UNL     1     -37.030  14.201  -3.924  1.00 20.00    -0.196 NA
ENDROOT
BRANCH   4   6
HETATM    6  C6  UNL     1     -34.095  15.757  -5.070  1.00 20.00     0.139 C 
BRANCH   6   7
HETATM    7  C5  UNL     1     -34.398  15.073  -6.415  1.00 20.00     0.029 C 
HETATM    8  C2  UNL     1     -34.829  16.071  -7.485  1.00 20.00     0.007 C 
ENDBRANCH   6   7
BRANCH   6   9
HETATM    9  O9  UNL     1     -32.699  16.068  -5.042  1.00 20.00    -0.394 OA
HETATM   10  H22 UNL     1     -32.448  16.096  -4.107  1.00 20.00     0.210 HD
ENDBRANCH   6   9
ENDBRANCH   4   6
TORSDOF 3
ENDMDL
MODEL 4
REMARK VINA RESULT:      -4.0      1.782      2.107
REMARK  3 active torsions:
REMARK  status: ('A' for Active; 'I' for Inactive)
REMARK    1  A    between atoms: C5_5  and  C6_6 
REMARK    2  A    between atoms: C6_6  and  C7_7 
REMARK    3  A    between atoms: C6_6  and  O9_9 
ROOT
HETATM    1  C1  UNL     1     -36.328  14.395  -4.052  1.00 20.00     0.071 C 
HETATM    2  C3  UNL     1     -34.827  15.447  -5.678  1.00 20.00     0.033 C 
HETATM    3  C4  UNL     1     -34.537  13.047  -5.062  1.00 20.00     0.033 C 
HETATM    4  C7  UNL     1     -34.920  14.436  -4.517  1.00 20.00     0.067 C 
HETATM    5  N8  UNL     1     -37.430  14.364  -3.690  1.00 20.00    -0.196 NA
ENDROOT
BRANCH   4   6
HETATM    6  C6  UNL     1     -33.967  14.857  -3.356  1.00 20.00     0.139 C 
BRANCH   6   7
HETATM    7  C5  UNL     1     -34.155  16.300  -2.853  1.00 20.00     0.029 C 
HETATM    8  C2  UNL     1     -34.595  16.349  -1.392  1.00 20.00     0.007 C 
ENDBRANCH   6   7
BRANCH   6   9
HETATM    9  O9  UNL     1     -32.602  14.707  -3.755  1.00 20.00    -0.394 OA
HETATM   10  H22 UNL     1     -32.249  13.968  -3.239  1.00 20.00     0.210 HD
ENDBRANCH   6   9
ENDBRANCH   4   6
TORSDOF 3
ENDMDL
MODEL 5
REMARK VINA RESULT:      -4.0      1.787      3.425
REMARK  3 active torsions:
REMARK  status: ('A' for Active; 'I' for Inactive)
REMARK    1  A    between atoms: C5_5  and  C6_6 
REMARK    2  A    between atoms: C6_6  and  C7_7 
REMARK    3  A    between atoms: C6_6  and  O9_9 
ROOT
HETATM    1  C1  UNL     1     -34.186  14.355  -3.485  1.00 20.00     0.071 C 
HETATM    2  C3  UNL     1     -34.018  16.343  -2.062  1.00 20.00     0.033 C 
HETATM    3  C4  UNL     1     -35.932  16.079  -3.639  1.00 20.00     0.033 C 
HETATM    4  C7  UNL     1     -34.425  15.819  -3.455  1.00 20.00     0.067 C 
HETATM    5  N8  UNL     1     -33.998  13.210  -3.507  1.00 20.00    -0.196 NA
ENDROOT
BRANCH   4   6
HETATM    6  C6  UNL     1     -33.599  16.538  -4.566  1.00 20.00     0.139 C 
BRANCH   6   7
HETATM    7  C5  UNL     1     -34.364  16.802  -5.875  1.00 20.00     0.029 C 
HETATM    8  C2  UNL     1     -34.165  15.684  -6.895  1.00 20.00     0.007 C 
ENDBRANCH   6   7
BRANCH   6   9
HETATM    9  O9  UNL     1     -32.431  15.776  -4.887  1.00 20.00    -0.394 OA
HETATM   10  H22 UNL     1     -32.141  15.364  -4.060  1.00 20.00     0.210 HD
ENDBRANCH   6   9
ENDBRANCH   4   6
TORSDOF 3
ENDMDL
MODEL 6
REMARK VINA RESULT:      -4.0      2.304      3.795
REMARK  3 active torsions:
REMARK  status: ('A' for Active; 'I' for Inactive)
REMARK    1  A    between atoms: C5_5  and  C6_6 
REMARK    2  A    between atoms: C6_6  and  C7_7 
REMARK    3  A    between atoms: C6_6  and  O9_9 
ROOT
HETATM    1  C1  UNL     1     -33.414  15.981  -4.683  1.00 20.00     0.071 C 
HETATM    2  C3  UNL     1     -34.771  15.125  -2.831  1.00 20.00     0.033 C 
HETATM    3  C4  UNL     1     -32.591  14.052  -3.399  1.00 20.00     0.033 C 
HETATM    4  C7  UNL     1     -33.836  14.737  -3.995  1.00 20.00     0.067 C 
HETATM    5  N8  UNL     1     -33.085  16.956  -5.220  1.00 20.00    -0.196 NA
ENDROOT
BRANCH   4   6
HETATM    6  C6  UNL     1     -34.574  13.781  -4.985  1.00 20.00     0.139 C 
BRANCH   6   7
HETATM    7  C5  UNL     1     -35.687  14.443  -5.817  1.00 20.00     0.029 C 
HETATM    8  C2  UNL     1     -35.387  14.405  -7.313  1.00 20.00     0.007 C 
ENDBRANCH   6   7
BRANCH   6   9
HETATM    9  O9  UNL     1     -35.152  12.682  -4.275  1.00 20.00    -0.394 OA
HETATM   10  H22 UNL     1     -36.051  12.581  -4.621  1.00 20.00     0.210 HD
ENDBRANCH   6   9
ENDBRANCH   4   6
TORSDOF 3
ENDMDL
MODEL 7
REMARK VINA RESULT:      -3.9      1.750      2.188
REMARK  3 active torsions:
REMARK  status: ('A' for Active; 'I' for Inactive)
REMARK    1  A    between atoms: C5_5  and  C6_6 
REMARK    2  A    between atoms: C6_6  and  C7_7 
REMARK    3  A    between atoms: C6_6  and  O9_9 
ROOT
HETATM    1  C1  UNL     1     -34.908  13.723  -4.723  1.00 20.00     0.071 C 
HETATM    2  C3  UNL     1     -35.970  15.930  -4.793  1.00 20.00     0.033 C 
HETATM    3  C4  UNL     1     -34.319  15.269  -6.543  1.00 20.00     0.033 C 
HETATM    4  C7  UNL     1     -34.663  15.151  -5.046  1.00 20.00     0.067 C 
HETATM    5  N8  UNL     1     -35.101  12.608  -4.470  1.00 20.00    -0.196 NA
ENDROOT
BRANCH   4   6
HETATM    6  C6  UNL     1     -33.512  15.727  -4.165  1.00 20.00     0.139 C 
BRANCH   6   7
HETATM    7  C5  UNL     1     -33.877  16.991  -3.365  1.00 20.00     0.029 C 
HETATM    8  C2  UNL     1     -33.874  16.742  -1.860  1.00 20.00     0.007 C 
ENDBRANCH   6   7
BRANCH   6   9
HETATM    9  O9  UNL     1     -32.373  16.035  -4.974  1.00 20.00    -0.394 OA
HETATM   10  H22 UNL     1     -31.687  15.398  -4.728  1.00 20.00     0.210 HD
ENDBRANCH   6   9
ENDBRANCH   4   6
TORSDOF 3
ENDMDL
MODEL 8
REMARK VINA RESULT:      -3.9      1.135      1.415
REMARK  3 active torsions:
REMARK  status: ('A' for Active; 'I' for Inactive)
REMARK    1  A    between atoms: C5_5  and  C6_6 
REMARK    2  A    between atoms: C6_6  and  C7_7 
REMARK    3  A    between atoms: C6_6  and  O9_9 
ROOT
HETATM    1  C1  UNL     1     -35.086  13.817  -4.614  1.00 20.00     0.071 C 
HETATM    2  C3  UNL     1     -36.457  15.522  -5.717  1.00 20.00     0.033 C 
HETATM    3  C4  UNL     1     -34.001  15.862  -5.442  1.00 20.00     0.033 C 
HETATM    4  C7  UNL     1     -35.261  15.281  -4.773  1.00 20.00     0.067 C 
HETATM    5  N8  UNL     1     -34.950  12.671  -4.491  1.00 20.00    -0.196 NA
ENDROOT
BRANCH   4   6
HETATM    6  C6  UNL     1     -35.519  15.960  -3.392  1.00 20.00     0.139 C 
BRANCH   6   7
HETATM    7  C5  UNL     1     -34.373  15.815  -2.374  1.00 20.00     0.029 C 
HETATM    8  C2  UNL     1     -34.658  16.562  -1.074  1.00 20.00     0.007 C 
ENDBRANCH   6   7
BRANCH   6   9
HETATM    9  O9  UNL     1     -36.706  15.433  -2.793  1.00 20.00    -0.394 OA
HETATM   10  H22 UNL     1     -37.354  15.348  -3.507  1.00 20.00     0.210 HD
ENDBRANCH   6   9
ENDBRANCH   4   6
TORSDOF 3
ENDMDL
MODEL 9
REMARK VINA RESULT:      -3.9      2.055      2.643
REMARK  3 active torsions:
REMARK  status: ('A' for Active; 'I' for Inactive)
REMARK    1  A    between atoms: C5_5  and  C6_6 
REMARK    2  A    between atoms: C6_6  and  C7_7 
REMARK    3  A    between atoms: C6_6  and  O9_9 
ROOT
HETATM    1  C1  UNL     1     -34.510  14.888  -6.132  1.00 20.00     0.071 C 
HETATM    2  C3  UNL     1     -34.891  13.398  -4.225  1.00 20.00     0.033 C 
HETATM    3  C4  UNL     1     -36.090  15.580  -4.380  1.00 20.00     0.033 C 
HETATM    4  C7  UNL     1     -34.754  14.869  -4.669  1.00 20.00     0.067 C 
HETATM    5  N8  UNL     1     -34.319  14.901  -7.276  1.00 20.00    -0.196 NA
ENDROOT
BRANCH   4   6
HETATM    6  C6  UNL     1     -33.582  15.558  -3.903  1.00 20.00     0.139 C 
BRANCH   6   7
HETATM    7  C5  UNL     1     -33.966  16.847  -3.155  1.00 20.00     0.029 C 
HETATM    8  C2  UNL     1     -34.020  16.642  -1.644  1.00 20.00     0.007 C 
ENDBRANCH   6   7
BRANCH   6   9
HETATM    9  O9  UNL     1     -32.519  15.875  -4.805  1.00 20.00    -0.394 OA
HETATM   10  H22 UNL     1     -32.671  15.344  -5.601  1.00 20.00     0.210 HD
ENDBRANCH   6   9
ENDBRANCH   4   6
TORSDOF 3
ENDMDL
